# generated using pymatgen
data_Na5LiMn2P2(CO7)2
_symmetry_space_group_name_H-M   'P 1'
_cell_length_a   6.81808806
_cell_length_b   8.96045070
_cell_length_c   10.33569569
_cell_angle_alpha   90.20143654
_cell_angle_beta   90.14937489
_cell_angle_gamma   90.30858388
_symmetry_Int_Tables_number   1
_chemical_formula_structural   Na5LiMn2P2(CO7)2
_chemical_formula_sum   'Na10 Li2 Mn4 P4 C4 O28'
_cell_volume   631.42488606
_cell_formula_units_Z   2
loop_
 _symmetry_equiv_pos_site_id
 _symmetry_equiv_pos_as_xyz
  1  'x, y, z'
loop_
 _atom_site_type_symbol
 _atom_site_label
 _atom_site_symmetry_multiplicity
 _atom_site_fract_x
 _atom_site_fract_y
 _atom_site_fract_z
 _atom_site_occupancy
  Na  Na0  1  0.251959  0.083726  0.120030  1
  Na  Na1  1  0.252390  0.082959  0.620157  1
  Na  Na2  1  0.000422  0.258653  0.376440  1
  Na  Na3  1  0.499755  0.258247  0.376511  1
  Na  Na4  1  0.002283  0.258553  0.875967  1
  Na  Na5  1  0.501670  0.741453  0.125193  1
  Na  Na6  1  0.998474  0.741292  0.124815  1
  Na  Na7  1  0.502005  0.741663  0.622643  1
  Na  Na8  1  0.998072  0.741286  0.622436  1
  Na  Na9  1  0.747632  0.917057  0.879467  1
  Li  Li10  1  0.488598  0.269897  0.880277  1
  Li  Li11  1  0.749921  0.915421  0.378217  1
  Mn  Mn12  1  0.747662  0.360564  0.109884  1
  Mn  Mn13  1  0.749081  0.360218  0.612059  1
  Mn  Mn14  1  0.250208  0.639528  0.389237  1
  Mn  Mn15  1  0.249531  0.638241  0.888269  1
  P  P16  1  0.249725  0.410914  0.147095  1
  P  P17  1  0.253242  0.408803  0.649682  1
  P  P18  1  0.750046  0.593882  0.351178  1
  P  P19  1  0.745716  0.586124  0.850552  1
  C  C20  1  0.749215  0.058990  0.136018  1
  C  C21  1  0.748858  0.055519  0.629148  1
  C  C22  1  0.250089  0.940133  0.367923  1
  C  C23  1  0.256031  0.943835  0.868401  1
  O  O24  1  0.249154  0.084111  0.357312  1
  O  O25  1  0.267812  0.088633  0.858696  1
  O  O26  1  0.748566  0.118167  0.021092  1
  O  O27  1  0.749549  0.108535  0.511901  1
  O  O28  1  0.748221  0.145631  0.237412  1
  O  O29  1  0.746512  0.146320  0.728541  1
  O  O30  1  0.064868  0.318982  0.107006  1
  O  O31  1  0.430972  0.318670  0.102629  1
  O  O32  1  0.067056  0.317823  0.610431  1
  O  O33  1  0.433680  0.317808  0.603978  1
  O  O34  1  0.253009  0.428413  0.297847  1
  O  O35  1  0.750289  0.436694  0.413947  1
  O  O36  1  0.262384  0.422958  0.801102  1
  O  O37  1  0.735684  0.425222  0.907714  1
  O  O38  1  0.249787  0.569305  0.087417  1
  O  O39  1  0.749343  0.571631  0.200993  1
  O  O40  1  0.250234  0.567968  0.590740  1
  O  O41  1  0.748621  0.571623  0.699948  1
  O  O42  1  0.568899  0.688979  0.390955  1
  O  O43  1  0.932402  0.689253  0.391102  1
  O  O44  1  0.566100  0.681278  0.892058  1
  O  O45  1  0.931927  0.673986  0.894632  1
  O  O46  1  0.250451  0.855671  0.264802  1
  O  O47  1  0.249541  0.859950  0.765054  1
  O  O48  1  0.250785  0.877514  0.481404  1
  O  O49  1  0.249913  0.880238  0.981265  1
  O  O50  1  0.750822  0.915123  0.151226  1
  O  O51  1  0.750833  0.912559  0.647197  1
