# generated using pymatgen
data_HoBO3
_symmetry_space_group_name_H-M   'P 1'
_cell_length_a   7.22801840
_cell_length_b   9.02110065
_cell_length_c   9.87402701
_cell_angle_alpha   81.34804663
_cell_angle_beta   85.64533500
_cell_angle_gamma   77.17694457
_symmetry_Int_Tables_number   1
_chemical_formula_structural   HoBO3
_chemical_formula_sum   'Ho12 B12 O36'
_cell_volume   620.02711297
_cell_formula_units_Z   12
loop_
 _symmetry_equiv_pos_site_id
 _symmetry_equiv_pos_as_xyz
  1  'x, y, z'
loop_
 _atom_site_type_symbol
 _atom_site_label
 _atom_site_symmetry_multiplicity
 _atom_site_fract_x
 _atom_site_fract_y
 _atom_site_fract_z
 _atom_site_occupancy
  Ho  Ho0  1  0.098782  0.435531  0.670520  1
  Ho  Ho1  1  0.249654  0.045089  0.478860  1
  Ho  Ho2  1  0.098198  0.932208  0.162719  1
  Ho  Ho3  1  0.262470  0.560692  0.971102  1
  Ho  Ho4  1  0.433883  0.441549  0.342367  1
  Ho  Ho5  1  0.573929  0.056170  0.155388  1
  Ho  Ho6  1  0.426071  0.943830  0.844612  1
  Ho  Ho7  1  0.566117  0.558451  0.657633  1
  Ho  Ho8  1  0.737530  0.439308  0.028898  1
  Ho  Ho9  1  0.901802  0.067792  0.837281  1
  Ho  Ho10  1  0.750346  0.954911  0.521140  1
  Ho  Ho11  1  0.901218  0.564469  0.329480  1
  B  B12  1  0.168010  0.271323  0.205598  1
  B  B13  1  0.115773  0.257053  0.948093  1
  B  B14  1  0.107661  0.752714  0.447691  1
  B  B15  1  0.220090  0.782777  0.691736  1
  B  B16  1  0.477673  0.284697  0.923034  1
  B  B17  1  0.533462  0.220928  0.613721  1
  B  B18  1  0.466538  0.779072  0.386279  1
  B  B19  1  0.522327  0.715303  0.076966  1
  B  B20  1  0.779910  0.217223  0.308264  1
  B  B21  1  0.892339  0.247286  0.552309  1
  B  B22  1  0.884227  0.742947  0.051907  1
  B  B23  1  0.831990  0.728677  0.794402  1
  O  O24  1  0.063354  0.184560  0.630011  1
  O  O25  1  0.081770  0.335274  0.080672  1
  O  O26  1  0.056887  0.680406  0.127561  1
  O  O27  1  0.153005  0.091064  0.963985  1
  O  O28  1  0.166888  0.366575  0.302914  1
  O  O29  1  0.245774  0.116078  0.237942  1
  O  O30  1  0.149842  0.587889  0.464619  1
  O  O31  1  0.081055  0.838765  0.572430  1
  O  O32  1  0.272338  0.323379  0.872629  1
  O  O33  1  0.156451  0.871671  0.804816  1
  O  O34  1  0.247112  0.616251  0.734893  1
  O  O35  1  0.268970  0.817297  0.363846  1
  O  O36  1  0.452801  0.094877  0.626338  1
  O  O37  1  0.471861  0.311068  0.072109  1
  O  O38  1  0.434164  0.368683  0.583501  1
  O  O39  1  0.434478  0.594205  0.148435  1
  O  O40  1  0.428411  0.872611  0.087137  1
  O  O41  1  0.592193  0.184880  0.367374  1
  O  O42  1  0.407807  0.815120  0.632626  1
  O  O43  1  0.571589  0.127389  0.912863  1
  O  O44  1  0.565522  0.405795  0.851565  1
  O  O45  1  0.565836  0.631317  0.416499  1
  O  O46  1  0.528139  0.688932  0.927891  1
  O  O47  1  0.547199  0.905123  0.373662  1
  O  O48  1  0.731030  0.182703  0.636154  1
  O  O49  1  0.752888  0.383749  0.265107  1
  O  O50  1  0.843549  0.128329  0.195184  1
  O  O51  1  0.727662  0.676621  0.127371  1
  O  O52  1  0.918945  0.161235  0.427570  1
  O  O53  1  0.850158  0.412111  0.535381  1
  O  O54  1  0.754226  0.883922  0.762058  1
  O  O55  1  0.833112  0.633425  0.697086  1
  O  O56  1  0.846995  0.908936  0.036015  1
  O  O57  1  0.943113  0.319594  0.872439  1
  O  O58  1  0.918230  0.664726  0.919328  1
  O  O59  1  0.936646  0.815440  0.369989  1
