# generated using pymatgen
data_RbH2O2F
_symmetry_space_group_name_H-M   'P 1'
_cell_length_a   12.20790826
_cell_length_b   12.20790826
_cell_length_c   4.49138258
_cell_angle_alpha   90.00000000
_cell_angle_beta   90.00000000
_cell_angle_gamma   90.00000000
_symmetry_Int_Tables_number   1
_chemical_formula_structural   RbH2O2F
_chemical_formula_sum   'Rb8 H16 O16 F8'
_cell_volume   669.36432822
_cell_formula_units_Z   8
loop_
 _symmetry_equiv_pos_site_id
 _symmetry_equiv_pos_as_xyz
  1  'x, y, z'
loop_
 _atom_site_type_symbol
 _atom_site_label
 _atom_site_symmetry_multiplicity
 _atom_site_fract_x
 _atom_site_fract_y
 _atom_site_fract_z
 _atom_site_occupancy
  Rb  Rb0  1  0.000000  0.000000  0.000000  1
  Rb  Rb1  1  0.000000  0.500000  0.734114  1
  Rb  Rb2  1  0.236434  0.263566  0.752186  1
  Rb  Rb3  1  0.263566  0.763566  0.247814  1
  Rb  Rb4  1  0.500000  0.500000  0.000000  1
  Rb  Rb5  1  0.500000  0.000000  0.265886  1
  Rb  Rb6  1  0.736434  0.236434  0.247814  1
  Rb  Rb7  1  0.763566  0.736434  0.752186  1
  H  H8  1  0.040364  0.284963  0.271548  1
  H  H9  1  0.069698  0.742107  0.693773  1
  H  H10  1  0.215037  0.459636  0.271548  1
  H  H11  1  0.242107  0.569698  0.693773  1
  H  H12  1  0.257893  0.069698  0.306227  1
  H  H13  1  0.284963  0.959636  0.728452  1
  H  H14  1  0.430302  0.242107  0.306227  1
  H  H15  1  0.459636  0.784963  0.728452  1
  H  H16  1  0.540364  0.215037  0.728452  1
  H  H17  1  0.569698  0.757893  0.306227  1
  H  H18  1  0.715037  0.040364  0.728452  1
  H  H19  1  0.742107  0.930302  0.306227  1
  H  H20  1  0.757893  0.430302  0.693773  1
  H  H21  1  0.784963  0.540364  0.271548  1
  H  H22  1  0.930302  0.257893  0.693773  1
  H  H23  1  0.959636  0.715037  0.271548  1
  O  O24  1  0.002985  0.787846  0.638944  1
  O  O25  1  0.007014  0.782498  0.310943  1
  O  O26  1  0.212154  0.002985  0.361056  1
  O  O27  1  0.217502  0.007014  0.689057  1
  O  O28  1  0.282498  0.507014  0.310943  1
  O  O29  1  0.287846  0.502985  0.638944  1
  O  O30  1  0.492986  0.282498  0.689057  1
  O  O31  1  0.497015  0.287846  0.361056  1
  O  O32  1  0.502985  0.712154  0.361056  1
  O  O33  1  0.507014  0.717502  0.689057  1
  O  O34  1  0.712154  0.497015  0.638944  1
  O  O35  1  0.717502  0.492986  0.310943  1
  O  O36  1  0.782498  0.992986  0.689057  1
  O  O37  1  0.787846  0.997015  0.361056  1
  O  O38  1  0.992986  0.217502  0.310943  1
  O  O39  1  0.997015  0.212154  0.638944  1
  F  F40  1  0.113560  0.386440  0.227482  1
  F  F41  1  0.166610  0.666610  0.758191  1
  F  F42  1  0.333390  0.166610  0.241809  1
  F  F43  1  0.386440  0.886440  0.772518  1
  F  F44  1  0.613560  0.113560  0.772518  1
  F  F45  1  0.666610  0.833390  0.241809  1
  F  F46  1  0.833390  0.333390  0.758191  1
  F  F47  1  0.886440  0.613560  0.227482  1
