# generated using pymatgen
data_Li8TiMn3(PO4)6
_symmetry_space_group_name_H-M   'P 1'
_cell_length_a   8.44641230
_cell_length_b   8.51529780
_cell_length_c   9.25212342
_cell_angle_alpha   90.63229258
_cell_angle_beta   116.97363863
_cell_angle_gamma   119.22780436
_symmetry_Int_Tables_number   1
_chemical_formula_structural   Li8TiMn3(PO4)6
_chemical_formula_sum   'Li8 Ti1 Mn3 P6 O24'
_cell_volume   493.88294708
_cell_formula_units_Z   1
loop_
 _symmetry_equiv_pos_site_id
 _symmetry_equiv_pos_as_xyz
  1  'x, y, z'
loop_
 _atom_site_type_symbol
 _atom_site_label
 _atom_site_symmetry_multiplicity
 _atom_site_fract_x
 _atom_site_fract_y
 _atom_site_fract_z
 _atom_site_occupancy
  Li  Li0  1  0.186891  0.263552  0.861721  1
  Li  Li1  1  0.625771  0.934829  0.897142  1
  Li  Li2  1  0.933832  0.664565  0.852781  1
  Li  Li3  1  0.329028  0.779044  0.585727  1
  Li  Li4  1  0.682311  0.196860  0.415240  1
  Li  Li5  1  0.066064  0.347104  0.148082  1
  Li  Li6  1  0.379729  0.069529  0.101422  1
  Li  Li7  1  0.804734  0.724188  0.143838  1
  Ti  Ti8  1  0.297278  0.153759  0.446077  1
  Mn  Mn9  1  0.306719  0.646056  0.964395  1
  Mn  Mn10  1  0.710119  0.849029  0.559853  1
  Mn  Mn11  1  0.691148  0.352750  0.034211  1
  P  P12  1  0.211309  0.955172  0.746020  1
  P  P13  1  0.492981  0.540854  0.750949  1
  P  P14  1  0.797397  0.248806  0.758734  1
  P  P15  1  0.203379  0.762260  0.243348  1
  P  P16  1  0.496069  0.448798  0.251282  1
  P  P17  1  0.800998  0.050786  0.255953  1
  O  O18  1  0.343947  0.140821  0.892208  1
  O  O19  1  0.325748  0.482908  0.799882  1
  O  O20  1  0.318898  0.843103  0.788558  1
  O  O21  1  0.700571  0.566863  0.897389  1
  O  O22  1  0.750836  0.199961  0.902821  1
  O  O23  1  0.552759  0.731640  0.711778  1
  O  O24  1  0.203384  0.005071  0.579805  1
  O  O25  1  0.399068  0.382374  0.590477  1
  O  O26  1  0.959273  0.461574  0.805264  1
  O  O27  1  0.880518  0.132913  0.731908  1
  O  O28  1  0.585722  0.189618  0.585826  1
  O  O29  1  0.989012  0.838516  0.720240  1
  O  O30  1  0.034208  0.158168  0.285984  1
  O  O31  1  0.401960  0.816472  0.413139  1
  O  O32  1  0.123103  0.887374  0.270357  1
  O  O33  1  0.030840  0.551321  0.190095  1
  O  O34  1  0.591993  0.593801  0.411290  1
  O  O35  1  0.808168  0.025051  0.419989  1
  O  O36  1  0.420731  0.246431  0.286305  1
  O  O37  1  0.248553  0.807835  0.096966  1
  O  O38  1  0.290285  0.424844  0.098977  1
  O  O39  1  0.702731  0.169770  0.199089  1
  O  O40  1  0.655597  0.492601  0.195614  1
  O  O41  1  0.666341  0.863031  0.109257  1
