# generated using pymatgen
data_LiVF5
_symmetry_space_group_name_H-M   'P 1'
_cell_length_a   5.27747415
_cell_length_b   6.01972755
_cell_length_c   12.77857072
_cell_angle_alpha   90.00000000
_cell_angle_beta   90.00000000
_cell_angle_gamma   90.00000000
_symmetry_Int_Tables_number   1
_chemical_formula_structural   LiVF5
_chemical_formula_sum   'Li4 V4 F20'
_cell_volume   405.96185779
_cell_formula_units_Z   4
loop_
 _symmetry_equiv_pos_site_id
 _symmetry_equiv_pos_as_xyz
  1  'x, y, z'
loop_
 _atom_site_type_symbol
 _atom_site_label
 _atom_site_symmetry_multiplicity
 _atom_site_fract_x
 _atom_site_fract_y
 _atom_site_fract_z
 _atom_site_occupancy
  Li  Li0  1  0.010969  0.634484  0.645484  1
  Li  Li1  1  0.510969  0.865516  0.354516  1
  Li  Li2  1  0.489031  0.365516  0.145484  1
  Li  Li3  1  0.989031  0.134484  0.854516  1
  V  V4  1  0.325305  0.121392  0.589779  1
  V  V5  1  0.825305  0.378608  0.410221  1
  V  V6  1  0.174695  0.878608  0.089779  1
  V  V7  1  0.674695  0.621392  0.910221  1
  F  F8  1  0.594218  0.080978  0.672044  1
  F  F9  1  0.129443  0.924370  0.669486  1
  F  F10  1  0.180947  0.358543  0.659025  1
  F  F11  1  0.533924  0.334856  0.508996  1
  F  F12  1  0.419905  0.894557  0.498322  1
  F  F13  1  0.919905  0.605443  0.501678  1
  F  F14  1  0.033924  0.165144  0.491004  1
  F  F15  1  0.680947  0.141457  0.340975  1
  F  F16  1  0.629443  0.575630  0.330514  1
  F  F17  1  0.094218  0.419022  0.327956  1
  F  F18  1  0.905782  0.919022  0.172044  1
  F  F19  1  0.370557  0.075630  0.169486  1
  F  F20  1  0.319053  0.641457  0.159025  1
  F  F21  1  0.966076  0.665144  0.008996  1
  F  F22  1  0.080095  0.105443  0.998322  1
  F  F23  1  0.580095  0.394557  0.001678  1
  F  F24  1  0.466076  0.834856  0.991004  1
  F  F25  1  0.819053  0.858543  0.840975  1
  F  F26  1  0.870557  0.424370  0.830514  1
  F  F27  1  0.405782  0.580978  0.827956  1
