# generated using pymatgen
data_Li6MgNi7O16
_symmetry_space_group_name_H-M   'P 1'
_cell_length_a   4.91354819
_cell_length_b   5.08087411
_cell_length_c   11.22529555
_cell_angle_alpha   80.27955496
_cell_angle_beta   85.51839646
_cell_angle_gamma   79.64758546
_symmetry_Int_Tables_number   1
_chemical_formula_structural   Li6MgNi7O16
_chemical_formula_sum   'Li6 Mg1 Ni7 O16'
_cell_volume   271.39061807
_cell_formula_units_Z   1
loop_
 _symmetry_equiv_pos_site_id
 _symmetry_equiv_pos_as_xyz
  1  'x, y, z'
loop_
 _atom_site_type_symbol
 _atom_site_label
 _atom_site_symmetry_multiplicity
 _atom_site_fract_x
 _atom_site_fract_y
 _atom_site_fract_z
 _atom_site_occupancy
  Li  Li0  1  0.752019  0.076950  0.929480  1
  Li  Li1  1  0.247981  0.923050  0.070520  1
  Li  Li2  1  0.760633  0.817424  0.194708  1
  Li  Li3  1  0.753463  0.559867  0.440124  1
  Li  Li4  1  0.246537  0.440133  0.559876  1
  Li  Li5  1  0.239367  0.182576  0.805292  1
  Mg  Mg6  1  0.000000  0.500000  0.000000  1
  Ni  Ni7  1  0.493450  0.622490  0.876032  1
  Ni  Ni8  1  0.506550  0.377510  0.123968  1
  Ni  Ni9  1  0.009100  0.256313  0.248587  1
  Ni  Ni10  1  0.500830  0.133130  0.375377  1
  Ni  Ni11  1  0.000000  0.000000  0.500000  1
  Ni  Ni12  1  0.499170  0.866870  0.624623  1
  Ni  Ni13  1  0.990900  0.743687  0.751413  1
  O  O14  1  0.392966  0.307136  0.974847  1
  O  O15  1  0.142798  0.835248  0.904188  1
  O  O16  1  0.143938  0.560964  0.156564  1
  O  O17  1  0.857202  0.164752  0.095812  1
  O  O18  1  0.607034  0.692864  0.025153  1
  O  O19  1  0.382652  0.076809  0.221535  1
  O  O20  1  0.650425  0.457021  0.263154  1
  O  O21  1  0.135285  0.303943  0.415339  1
  O  O22  1  0.870290  0.951036  0.350415  1
  O  O23  1  0.361887  0.798139  0.483181  1
  O  O24  1  0.638113  0.201861  0.516819  1
  O  O25  1  0.349575  0.542979  0.736846  1
  O  O26  1  0.129710  0.048964  0.649585  1
  O  O27  1  0.864715  0.696057  0.584661  1
  O  O28  1  0.856062  0.439036  0.843436  1
  O  O29  1  0.617348  0.923191  0.778465  1
