# generated using pymatgen
data_Mn3Co3(CuO8)2
_symmetry_space_group_name_H-M   'P 1'
_cell_length_a   5.67315342
_cell_length_b   5.67315342
_cell_length_c   8.87920628
_cell_angle_alpha   87.73599624
_cell_angle_beta   92.26400376
_cell_angle_gamma   119.88354858
_symmetry_Int_Tables_number   1
_chemical_formula_structural   Mn3Co3(CuO8)2
_chemical_formula_sum   'Mn3 Co3 Cu2 O16'
_cell_volume   247.51950259
_cell_formula_units_Z   1
loop_
 _symmetry_equiv_pos_site_id
 _symmetry_equiv_pos_as_xyz
  1  'x, y, z'
loop_
 _atom_site_type_symbol
 _atom_site_label
 _atom_site_symmetry_multiplicity
 _atom_site_fract_x
 _atom_site_fract_y
 _atom_site_fract_z
 _atom_site_occupancy
  Mn  Mn0  1  0.169683  0.830317  0.786051  1
  Mn  Mn1  1  0.336263  0.170810  0.287776  1
  Mn  Mn2  1  0.829190  0.663737  0.287776  1
  Co  Co3  1  0.167935  0.332693  0.792661  1
  Co  Co4  1  0.667307  0.832065  0.792661  1
  Co  Co5  1  0.833522  0.166478  0.293652  1
  Cu  Cu6  1  0.333397  0.666603  0.513255  1
  Cu  Cu7  1  0.665438  0.334562  0.010791  1
  O  O8  1  0.159457  0.324885  0.394600  1
  O  O9  1  0.475440  0.524560  0.666870  1
  O  O10  1  0.338242  0.661758  0.898579  1
  O  O11  1  0.995215  0.004785  0.683042  1
  O  O12  1  0.994607  0.005393  0.181885  1
  O  O13  1  0.675115  0.840543  0.394600  1
  O  O14  1  0.034566  0.513548  0.664995  1
  O  O15  1  0.486452  0.965434  0.664995  1
  O  O16  1  0.844353  0.155647  0.892121  1
  O  O17  1  0.166200  0.833800  0.400115  1
  O  O18  1  0.525269  0.047234  0.161481  1
  O  O19  1  0.952766  0.474731  0.161481  1
  O  O20  1  0.670149  0.329851  0.399803  1
  O  O21  1  0.331227  0.165649  0.895905  1
  O  O22  1  0.511703  0.488297  0.163763  1
  O  O23  1  0.834351  0.668773  0.895905  1
