# generated using pymatgen
data_V3(O2F)2
_symmetry_space_group_name_H-M   'P 1'
_cell_length_a   3.08308016
_cell_length_b   4.67009772
_cell_length_c   13.95102993
_cell_angle_alpha   90.00000000
_cell_angle_beta   90.00000000
_cell_angle_gamma   90.00000000
_symmetry_Int_Tables_number   1
_chemical_formula_structural   V3(O2F)2
_chemical_formula_sum   'V6 O8 F4'
_cell_volume   200.87091354
_cell_formula_units_Z   2
loop_
 _symmetry_equiv_pos_site_id
 _symmetry_equiv_pos_as_xyz
  1  'x, y, z'
loop_
 _atom_site_type_symbol
 _atom_site_label
 _atom_site_symmetry_multiplicity
 _atom_site_fract_x
 _atom_site_fract_y
 _atom_site_fract_z
 _atom_site_occupancy
  V  V0  1  0.500000  0.696378  0.007772  1
  V  V1  1  0.500000  0.748833  0.332807  1
  V  V2  1  0.500000  0.806223  0.660065  1
  V  V3  1  0.000000  0.193777  0.160065  1
  V  V4  1  0.000000  0.303622  0.507772  1
  V  V5  1  0.000000  0.251167  0.832807  1
  O  O6  1  0.000000  0.933578  0.268199  1
  O  O7  1  0.000000  0.995254  0.594570  1
  O  O8  1  0.500000  0.066422  0.768199  1
  O  O9  1  0.500000  0.004746  0.094570  1
  O  O10  1  0.500000  0.478891  0.566639  1
  O  O11  1  0.500000  0.445851  0.903590  1
  O  O12  1  0.000000  0.521109  0.066639  1
  O  O13  1  0.000000  0.554149  0.403590  1
  F  F14  1  0.000000  0.921707  0.936128  1
  F  F15  1  0.500000  0.078293  0.436128  1
  F  F16  1  0.500000  0.421630  0.230388  1
  F  F17  1  0.000000  0.578370  0.730388  1
