# generated using pymatgen
data_Li2CoSiO4
_symmetry_space_group_name_H-M   'P 1'
_cell_length_a   5.03078162
_cell_length_b   6.30329803
_cell_length_c   10.82277284
_cell_angle_alpha   90.00000000
_cell_angle_beta   90.00000000
_cell_angle_gamma   90.00000000
_symmetry_Int_Tables_number   1
_chemical_formula_structural   Li2CoSiO4
_chemical_formula_sum   'Li8 Co4 Si4 O16'
_cell_volume   343.19571004
_cell_formula_units_Z   4
loop_
 _symmetry_equiv_pos_site_id
 _symmetry_equiv_pos_as_xyz
  1  'x, y, z'
loop_
 _atom_site_type_symbol
 _atom_site_label
 _atom_site_symmetry_multiplicity
 _atom_site_fract_x
 _atom_site_fract_y
 _atom_site_fract_z
 _atom_site_occupancy
  Li  Li0  1  0.694753  0.867536  0.091700  1
  Li  Li1  1  0.191196  0.115659  0.171437  1
  Li  Li2  1  0.691196  0.615659  0.328563  1
  Li  Li3  1  0.194753  0.367536  0.408300  1
  Li  Li4  1  0.805247  0.867536  0.591700  1
  Li  Li5  1  0.308804  0.115659  0.671437  1
  Li  Li6  1  0.808804  0.615659  0.828563  1
  Li  Li7  1  0.305247  0.367536  0.908300  1
  Co  Co8  1  0.195257  0.861168  0.412355  1
  Co  Co9  1  0.304743  0.861168  0.912355  1
  Co  Co10  1  0.695257  0.361168  0.087645  1
  Co  Co11  1  0.804743  0.361168  0.587645  1
  Si  Si12  1  0.184429  0.614924  0.163622  1
  Si  Si13  1  0.684429  0.114924  0.336378  1
  Si  Si14  1  0.315571  0.614924  0.663622  1
  Si  Si15  1  0.815571  0.114924  0.836378  1
  O  O16  1  0.292409  0.832509  0.094574  1
  O  O17  1  0.288775  0.397828  0.092441  1
  O  O18  1  0.855411  0.614658  0.161224  1
  O  O19  1  0.794671  0.115367  0.191243  1
  O  O20  1  0.294671  0.615367  0.308757  1
  O  O21  1  0.355411  0.114658  0.338776  1
  O  O22  1  0.788775  0.897828  0.407559  1
  O  O23  1  0.792409  0.332509  0.405426  1
  O  O24  1  0.207591  0.832509  0.594574  1
  O  O25  1  0.211225  0.397828  0.592441  1
  O  O26  1  0.644589  0.614658  0.661224  1
  O  O27  1  0.705329  0.115367  0.691243  1
  O  O28  1  0.205329  0.615367  0.808757  1
  O  O29  1  0.144589  0.114658  0.838776  1
  O  O30  1  0.711225  0.897828  0.907559  1
  O  O31  1  0.707591  0.332509  0.905426  1
