# generated using pymatgen
data_Mn4OF6
_symmetry_space_group_name_H-M   'P 1'
_cell_length_a   7.28538126
_cell_length_b   7.28538126
_cell_length_c   5.25067744
_cell_angle_alpha   90.00000000
_cell_angle_beta   90.00000000
_cell_angle_gamma   90.00000000
_symmetry_Int_Tables_number   1
_chemical_formula_structural   Mn4OF6
_chemical_formula_sum   'Mn8 O2 F12'
_cell_volume   278.68905188
_cell_formula_units_Z   2
loop_
 _symmetry_equiv_pos_site_id
 _symmetry_equiv_pos_as_xyz
  1  'x, y, z'
loop_
 _atom_site_type_symbol
 _atom_site_label
 _atom_site_symmetry_multiplicity
 _atom_site_fract_x
 _atom_site_fract_y
 _atom_site_fract_z
 _atom_site_occupancy
  Mn  Mn0  1  0.000000  0.250759  0.303019  1
  Mn  Mn1  1  0.750759  0.500000  0.803019  1
  Mn  Mn2  1  0.249241  0.500000  0.803019  1
  Mn  Mn3  1  0.000000  0.749241  0.303019  1
  Mn  Mn4  1  0.500000  0.750759  0.196981  1
  Mn  Mn5  1  0.250759  0.000000  0.696981  1
  Mn  Mn6  1  0.749241  0.000000  0.696981  1
  Mn  Mn7  1  0.500000  0.249241  0.196981  1
  O  O8  1  0.500000  0.500000  0.000000  1
  O  O9  1  0.000000  0.000000  0.500000  1
  F  F10  1  0.709706  0.290294  0.500000  1
  F  F11  1  0.290294  0.290294  0.500000  1
  F  F12  1  0.000000  0.500000  0.582542  1
  F  F13  1  0.000000  0.500000  0.082542  1
  F  F14  1  0.290294  0.709706  0.500000  1
  F  F15  1  0.709706  0.709706  0.500000  1
  F  F16  1  0.790294  0.790294  0.000000  1
  F  F17  1  0.209706  0.790294  0.000000  1
  F  F18  1  0.500000  0.000000  0.917458  1
  F  F19  1  0.500000  0.000000  0.417458  1
  F  F20  1  0.790294  0.209706  0.000000  1
  F  F21  1  0.209706  0.209706  0.000000  1
