# generated using pymatgen
data_Na3Ni2P2(CO7)2
_symmetry_space_group_name_H-M   'P 1'
_cell_length_a   10.27133877
_cell_length_b   6.49256143
_cell_length_c   10.32157225
_cell_angle_alpha   90.00000000
_cell_angle_beta   118.57327747
_cell_angle_gamma   90.00000000
_symmetry_Int_Tables_number   1
_chemical_formula_structural   Na3Ni2P2(CO7)2
_chemical_formula_sum   'Na6 Ni4 P4 C4 O28'
_cell_volume   604.48488628
_cell_formula_units_Z   2
loop_
 _symmetry_equiv_pos_site_id
 _symmetry_equiv_pos_as_xyz
  1  'x, y, z'
loop_
 _atom_site_type_symbol
 _atom_site_label
 _atom_site_symmetry_multiplicity
 _atom_site_fract_x
 _atom_site_fract_y
 _atom_site_fract_z
 _atom_site_occupancy
  Na  Na0  1  0.749211  0.288648  0.751884  1
  Na  Na1  1  0.246391  0.237104  0.743041  1
  Na  Na2  1  0.247667  0.765445  0.744016  1
  Na  Na3  1  0.749211  0.711352  0.251884  1
  Na  Na4  1  0.247667  0.234555  0.244016  1
  Na  Na5  1  0.246391  0.762896  0.243041  1
  Ni  Ni6  1  0.653508  0.995600  0.931710  1
  Ni  Ni7  1  0.352656  0.499916  0.567741  1
  Ni  Ni8  1  0.653508  0.004400  0.431710  1
  Ni  Ni9  1  0.352656  0.500084  0.067741  1
  P  P10  1  0.577027  0.501553  0.929679  1
  P  P11  1  0.428539  0.000185  0.571892  1
  P  P12  1  0.577027  0.498447  0.429679  1
  P  P13  1  0.428539  0.999815  0.071892  1
  C  C14  1  0.082421  0.502414  0.900176  1
  C  C15  1  0.082421  0.497586  0.400176  1
  C  C16  1  0.920864  0.996465  0.605551  1
  C  C17  1  0.920864  0.003535  0.105551  1
  O  O18  1  0.864532  0.010786  0.962833  1
  O  O19  1  0.668747  0.310229  0.936362  1
  O  O20  1  0.674044  0.694268  0.950080  1
  O  O21  1  0.575903  0.006808  0.717817  1
  O  O22  1  0.539207  0.496081  0.559267  1
  O  O23  1  0.459661  0.000017  0.937482  1
  O  O24  1  0.426713  0.505568  0.784583  1
  O  O25  1  0.328678  0.186836  0.559484  1
  O  O26  1  0.331159  0.811912  0.560455  1
  O  O27  1  0.181153  0.502069  0.853627  1
  O  O28  1  0.181153  0.497931  0.353627  1
  O  O29  1  0.141179  0.498819  0.543826  1
  O  O30  1  0.058637  0.998718  0.693229  1
  O  O31  1  0.058637  0.001282  0.193229  1
  O  O32  1  0.946437  0.503244  0.814602  1
  O  O33  1  0.946437  0.496756  0.314602  1
  O  O34  1  0.864532  0.989214  0.462833  1
  O  O35  1  0.820379  0.003007  0.648527  1
  O  O36  1  0.820379  0.996993  0.148527  1
  O  O37  1  0.674044  0.305732  0.450080  1
  O  O38  1  0.668747  0.689771  0.436362  1
  O  O39  1  0.575903  0.993192  0.217817  1
  O  O40  1  0.539207  0.503919  0.059267  1
  O  O41  1  0.459661  0.999983  0.437482  1
  O  O42  1  0.426713  0.494432  0.284583  1
  O  O43  1  0.328678  0.813164  0.059484  1
  O  O44  1  0.331159  0.188088  0.060455  1
  O  O45  1  0.141179  0.501181  0.043826  1
