# generated using pymatgen
data_K2Zn3P4(HO3)4
_symmetry_space_group_name_H-M   'P 1'
_cell_length_a   8.75424163
_cell_length_b   13.85102712
_cell_length_c   12.55645297
_cell_angle_alpha   90.00000000
_cell_angle_beta   90.75350094
_cell_angle_gamma   90.00000000
_symmetry_Int_Tables_number   1
_chemical_formula_structural   K2Zn3P4(HO3)4
_chemical_formula_sum   'K8 Zn12 P16 H16 O48'
_cell_volume   1522.40403585
_cell_formula_units_Z   4
loop_
 _symmetry_equiv_pos_site_id
 _symmetry_equiv_pos_as_xyz
  1  'x, y, z'
loop_
 _atom_site_type_symbol
 _atom_site_label
 _atom_site_symmetry_multiplicity
 _atom_site_fract_x
 _atom_site_fract_y
 _atom_site_fract_z
 _atom_site_occupancy
  K  K0  1  0.761096  0.946101  0.981145  1
  K  K1  1  0.738904  0.446101  0.018855  1
  K  K2  1  0.238904  0.053899  0.018855  1
  K  K3  1  0.261096  0.553899  0.981145  1
  K  K4  1  0.743424  0.945614  0.525982  1
  K  K5  1  0.756576  0.445614  0.474018  1
  K  K6  1  0.256576  0.054386  0.474018  1
  K  K7  1  0.243424  0.554386  0.525982  1
  Zn  Zn8  1  0.943244  0.936740  0.249829  1
  Zn  Zn9  1  0.556756  0.436740  0.750171  1
  Zn  Zn10  1  0.056756  0.063260  0.750171  1
  Zn  Zn11  1  0.443244  0.563260  0.249829  1
  Zn  Zn12  1  0.617733  0.175797  0.424171  1
  Zn  Zn13  1  0.882267  0.675797  0.575829  1
  Zn  Zn14  1  0.382267  0.824203  0.575829  1
  Zn  Zn15  1  0.117733  0.324203  0.424171  1
  Zn  Zn16  1  0.912632  0.685002  0.928338  1
  Zn  Zn17  1  0.587368  0.185002  0.071662  1
  Zn  Zn18  1  0.087368  0.314998  0.071662  1
  Zn  Zn19  1  0.412632  0.814998  0.928338  1
  P  P20  1  0.095791  0.798814  0.423290  1
  P  P21  1  0.404209  0.298814  0.576710  1
  P  P22  1  0.904209  0.201186  0.576710  1
  P  P23  1  0.595791  0.701186  0.423290  1
  P  P24  1  0.568870  0.010383  0.243545  1
  P  P25  1  0.931130  0.510383  0.756455  1
  P  P26  1  0.431130  0.989617  0.756455  1
  P  P27  1  0.068870  0.489617  0.243545  1
  P  P28  1  0.128447  0.802870  0.081265  1
  P  P29  1  0.371553  0.302870  0.918735  1
  P  P30  1  0.871553  0.197130  0.918735  1
  P  P31  1  0.628447  0.697130  0.081265  1
  P  P32  1  0.069751  0.156446  0.255979  1
  P  P33  1  0.430249  0.656446  0.744021  1
  P  P34  1  0.930249  0.843554  0.744021  1
  P  P35  1  0.569751  0.343554  0.255979  1
  H  H36  1  0.190315  0.772218  0.337851  1
  H  H37  1  0.309685  0.272218  0.662149  1
  H  H38  1  0.809685  0.227782  0.662149  1
  H  H39  1  0.690315  0.727782  0.337851  1
  H  H40  1  0.473053  0.928443  0.240592  1
  H  H41  1  0.026947  0.428443  0.759408  1
  H  H42  1  0.526947  0.071557  0.759408  1
  H  H43  1  0.973053  0.571557  0.240592  1
  H  H44  1  0.219466  0.781468  0.171532  1
  H  H45  1  0.280534  0.281468  0.828468  1
  H  H46  1  0.780534  0.218532  0.828468  1
  H  H47  1  0.719466  0.718532  0.171532  1
  H  H48  1  0.914291  0.180496  0.268158  1
  H  H49  1  0.585709  0.680496  0.731842  1
  H  H50  1  0.085709  0.819504  0.731842  1
  H  H51  1  0.414291  0.319504  0.268158  1
  O  O52  1  0.086914  0.045965  0.262840  1
  O  O53  1  0.413086  0.545965  0.737160  1
  O  O54  1  0.913086  0.954035  0.737160  1
  O  O55  1  0.586914  0.454035  0.262840  1
  O  O56  1  0.995905  0.867913  0.117487  1
  O  O57  1  0.504095  0.367913  0.882513  1
  O  O58  1  0.004095  0.132087  0.882513  1
  O  O59  1  0.495905  0.632087  0.117487  1
  O  O60  1  0.959022  0.857526  0.378985  1
  O  O61  1  0.540978  0.357526  0.621015  1
  O  O62  1  0.040978  0.142474  0.621015  1
  O  O63  1  0.459022  0.642474  0.378985  1
  O  O64  1  0.732037  0.976098  0.222710  1
  O  O65  1  0.767963  0.476098  0.777290  1
  O  O66  1  0.267963  0.023902  0.777290  1
  O  O67  1  0.232037  0.523902  0.222710  1
  O  O68  1  0.548115  0.053941  0.356503  1
  O  O69  1  0.951885  0.553941  0.643497  1
  O  O70  1  0.451885  0.946059  0.643497  1
  O  O71  1  0.048115  0.446059  0.356503  1
  O  O72  1  0.046518  0.702154  0.472506  1
  O  O73  1  0.453482  0.202154  0.527494  1
  O  O74  1  0.953482  0.297846  0.527494  1
  O  O75  1  0.546518  0.797846  0.472506  1
  O  O76  1  0.193607  0.862590  0.499001  1
  O  O77  1  0.306393  0.362590  0.500999  1
  O  O78  1  0.806393  0.137410  0.500999  1
  O  O79  1  0.693607  0.637410  0.499001  1
  O  O80  1  0.159227  0.204229  0.348891  1
  O  O81  1  0.340773  0.704229  0.651109  1
  O  O82  1  0.840773  0.795771  0.651109  1
  O  O83  1  0.659227  0.295771  0.348891  1
  O  O84  1  0.120234  0.193584  0.146634  1
  O  O85  1  0.379766  0.693584  0.853366  1
  O  O86  1  0.879766  0.806416  0.853366  1
  O  O87  1  0.620234  0.306416  0.146634  1
  O  O88  1  0.506675  0.075033  0.152706  1
  O  O89  1  0.993325  0.575033  0.847294  1
  O  O90  1  0.493325  0.924967  0.847294  1
  O  O91  1  0.006675  0.424967  0.152706  1
  O  O92  1  0.230848  0.859320  0.003867  1
  O  O93  1  0.269152  0.359320  0.996133  1
  O  O94  1  0.769152  0.140680  0.996133  1
  O  O95  1  0.730848  0.640680  0.003867  1
  O  O96  1  0.074840  0.704379  0.038226  1
  O  O97  1  0.425160  0.204379  0.961774  1
  O  O98  1  0.925160  0.295621  0.961774  1
  O  O99  1  0.574840  0.795621  0.038226  1
