# generated using pymatgen
data_Li4FeF8
_symmetry_space_group_name_H-M   'P 1'
_cell_length_a   5.65480211
_cell_length_b   9.62650857
_cell_length_c   9.87156909
_cell_angle_alpha   90.00000000
_cell_angle_beta   90.00000000
_cell_angle_gamma   90.00000000
_symmetry_Int_Tables_number   1
_chemical_formula_structural   Li4FeF8
_chemical_formula_sum   'Li16 Fe4 F32'
_cell_volume   537.36874459
_cell_formula_units_Z   4
loop_
 _symmetry_equiv_pos_site_id
 _symmetry_equiv_pos_as_xyz
  1  'x, y, z'
loop_
 _atom_site_type_symbol
 _atom_site_label
 _atom_site_symmetry_multiplicity
 _atom_site_fract_x
 _atom_site_fract_y
 _atom_site_fract_z
 _atom_site_occupancy
  Li  Li0  1  0.123316  0.117197  0.923725  1
  Li  Li1  1  0.123316  0.117197  0.576275  1
  Li  Li2  1  0.624735  0.130574  0.944809  1
  Li  Li3  1  0.624735  0.130574  0.555191  1
  Li  Li4  1  0.124735  0.369426  0.055191  1
  Li  Li5  1  0.124735  0.369426  0.444809  1
  Li  Li6  1  0.623316  0.382803  0.076275  1
  Li  Li7  1  0.623316  0.382803  0.423725  1
  Li  Li8  1  0.376684  0.617197  0.923725  1
  Li  Li9  1  0.376684  0.617197  0.576275  1
  Li  Li10  1  0.875265  0.630574  0.555191  1
  Li  Li11  1  0.875265  0.630574  0.944809  1
  Li  Li12  1  0.375265  0.869426  0.055191  1
  Li  Li13  1  0.375265  0.869426  0.444809  1
  Li  Li14  1  0.876684  0.882803  0.076275  1
  Li  Li15  1  0.876684  0.882803  0.423725  1
  Fe  Fe16  1  0.364928  0.108814  0.250000  1
  Fe  Fe17  1  0.864928  0.391186  0.750000  1
  Fe  Fe18  1  0.135072  0.608814  0.250000  1
  Fe  Fe19  1  0.635072  0.891186  0.750000  1
  F  F20  1  0.150059  0.017080  0.116925  1
  F  F21  1  0.150059  0.017080  0.383075  1
  F  F22  1  0.596693  0.016656  0.123966  1
  F  F23  1  0.596693  0.016656  0.376034  1
  F  F24  1  0.086967  0.231747  0.750000  1
  F  F25  1  0.645998  0.233899  0.750000  1
  F  F26  1  0.372019  0.244136  0.007588  1
  F  F27  1  0.372019  0.244136  0.492412  1
  F  F28  1  0.872019  0.255864  0.507588  1
  F  F29  1  0.872019  0.255864  0.992412  1
  F  F30  1  0.145998  0.266101  0.250000  1
  F  F31  1  0.586967  0.268253  0.250000  1
  F  F32  1  0.096693  0.483344  0.623966  1
  F  F33  1  0.096693  0.483344  0.876034  1
  F  F34  1  0.650059  0.482920  0.616925  1
  F  F35  1  0.650059  0.482920  0.883075  1
  F  F36  1  0.349941  0.517080  0.116925  1
  F  F37  1  0.349941  0.517080  0.383075  1
  F  F38  1  0.903307  0.516656  0.123966  1
  F  F39  1  0.903307  0.516656  0.376034  1
  F  F40  1  0.413033  0.731747  0.750000  1
  F  F41  1  0.854002  0.733899  0.750000  1
  F  F42  1  0.127981  0.744136  0.007588  1
  F  F43  1  0.127981  0.744136  0.492412  1
  F  F44  1  0.627981  0.755864  0.507588  1
  F  F45  1  0.627981  0.755864  0.992412  1
  F  F46  1  0.354002  0.766101  0.250000  1
  F  F47  1  0.913033  0.768253  0.250000  1
  F  F48  1  0.403307  0.983344  0.623966  1
  F  F49  1  0.403307  0.983344  0.876034  1
  F  F50  1  0.849941  0.982920  0.616925  1
  F  F51  1  0.849941  0.982920  0.883075  1
