# generated using pymatgen
data_Li17(Co4O9)2
_symmetry_space_group_name_H-M   'P 1'
_cell_length_a   7.61054165
_cell_length_b   7.75932879
_cell_length_c   9.58329019
_cell_angle_alpha   92.29717511
_cell_angle_beta   103.21708868
_cell_angle_gamma   118.85351564
_symmetry_Int_Tables_number   1
_chemical_formula_structural   Li17(Co4O9)2
_chemical_formula_sum   'Li17 Co8 O18'
_cell_volume   474.96624065
_cell_formula_units_Z   1
loop_
 _symmetry_equiv_pos_site_id
 _symmetry_equiv_pos_as_xyz
  1  'x, y, z'
loop_
 _atom_site_type_symbol
 _atom_site_label
 _atom_site_symmetry_multiplicity
 _atom_site_fract_x
 _atom_site_fract_y
 _atom_site_fract_z
 _atom_site_occupancy
  Li  Li0  1  0.810688  0.855179  0.131866  1
  Li  Li1  1  0.472485  0.378858  0.105678  1
  Li  Li2  1  0.635977  0.079039  0.124595  1
  Li  Li3  1  0.404455  0.650143  0.149450  1
  Li  Li4  1  0.951875  0.143009  0.336240  1
  Li  Li5  1  0.835760  0.375908  0.402231  1
  Li  Li6  1  0.496495  0.925876  0.376627  1
  Li  Li7  1  0.236547  0.537077  0.359686  1
  Li  Li8  1  0.758047  0.449339  0.629413  1
  Li  Li9  1  0.498468  0.072095  0.621020  1
  Li  Li10  1  0.157914  0.626877  0.597989  1
  Li  Li11  1  0.051684  0.867883  0.658055  1
  Li  Li12  1  0.875660  0.707690  0.858190  1
  Li  Li13  1  0.586849  0.334180  0.849307  1
  Li  Li14  1  0.354077  0.912101  0.880447  1
  Li  Li15  1  0.516990  0.617727  0.894402  1
  Li  Li16  1  0.192144  0.152930  0.871544  1
  Co  Co17  1  0.936689  0.520579  0.117556  1
  Co  Co18  1  0.232479  0.958436  0.146172  1
  Co  Co19  1  0.717131  0.703930  0.391004  1
  Co  Co20  1  0.370822  0.233500  0.365293  1
  Co  Co21  1  0.628150  0.768283  0.632891  1
  Co  Co22  1  0.290869  0.306536  0.610651  1
  Co  Co23  1  0.762275  0.042389  0.857921  1
  Co  Co24  1  0.069122  0.469093  0.878835  1
  O  O25  1  0.752264  0.587562  0.022524  1
  O  O26  1  0.383092  0.104969  0.031033  1
  O  O27  1  0.888983  0.326724  0.219917  1
  O  O28  1  0.687235  0.887457  0.289631  1
  O  O29  1  0.225698  0.729410  0.205298  1
  O  O30  1  0.442446  0.476677  0.290463  1
  O  O31  1  0.103124  0.046639  0.252463  1
  O  O32  1  0.898638  0.643404  0.493825  1
  O  O33  1  0.580531  0.204477  0.460204  1
  O  O34  1  0.418728  0.796319  0.540389  1
  O  O35  1  0.105948  0.362414  0.507759  1
  O  O36  1  0.896427  0.938943  0.763513  1
  O  O37  1  0.576977  0.530679  0.712626  1
  O  O38  1  0.776060  0.268316  0.791925  1
  O  O39  1  0.313558  0.118071  0.710088  1
  O  O40  1  0.085127  0.675033  0.787352  1
  O  O41  1  0.609597  0.891692  0.969476  1
  O  O42  1  0.280495  0.433525  0.961227  1
