# generated using pymatgen
data_InP(H2O3)2
_symmetry_space_group_name_H-M   'P 1'
_cell_length_a   5.50324184
_cell_length_b   10.37463883
_cell_length_c   10.40283332
_cell_angle_alpha   90.00000000
_cell_angle_beta   120.60336173
_cell_angle_gamma   90.00000000
_symmetry_Int_Tables_number   1
_chemical_formula_structural   InP(H2O3)2
_chemical_formula_sum   'In4 P4 H16 O24'
_cell_volume   511.21214451
_cell_formula_units_Z   4
loop_
 _symmetry_equiv_pos_site_id
 _symmetry_equiv_pos_as_xyz
  1  'x, y, z'
loop_
 _atom_site_type_symbol
 _atom_site_label
 _atom_site_symmetry_multiplicity
 _atom_site_fract_x
 _atom_site_fract_y
 _atom_site_fract_z
 _atom_site_occupancy
  In  In0  1  0.395203  0.829670  0.301431  1
  In  In1  1  0.604797  0.329670  0.198569  1
  In  In2  1  0.395203  0.670330  0.801431  1
  In  In3  1  0.604797  0.170330  0.698569  1
  P  P4  1  0.774096  0.850534  0.682917  1
  P  P5  1  0.225904  0.350534  0.817083  1
  P  P6  1  0.774096  0.649466  0.182917  1
  P  P7  1  0.225904  0.149466  0.317083  1
  H  H8  1  0.897435  0.543437  0.813390  1
  H  H9  1  0.077091  0.164406  0.974388  1
  H  H10  1  0.376463  0.545627  0.223468  1
  H  H11  1  0.160286  0.834768  0.982720  1
  H  H12  1  0.839714  0.334768  0.517280  1
  H  H13  1  0.623537  0.045627  0.276532  1
  H  H14  1  0.922909  0.664406  0.525612  1
  H  H15  1  0.102565  0.043437  0.686610  1
  H  H16  1  0.897435  0.956563  0.313390  1
  H  H17  1  0.077091  0.335594  0.474388  1
  H  H18  1  0.376463  0.954373  0.723468  1
  H  H19  1  0.160286  0.665232  0.482720  1
  H  H20  1  0.839714  0.165232  0.017280  1
  H  H21  1  0.623537  0.454373  0.776532  1
  H  H22  1  0.922909  0.835594  0.025612  1
  H  H23  1  0.102565  0.456563  0.186610  1
  O  O24  1  0.117980  0.864751  0.060298  1
  O  O25  1  0.658013  0.778019  0.532264  1
  O  O26  1  0.303978  0.455048  0.211128  1
  O  O27  1  0.795117  0.998421  0.662579  1
  O  O28  1  0.424432  0.167477  0.252063  1
  O  O29  1  0.929971  0.294693  0.704070  1
  O  O30  1  0.070029  0.794693  0.795930  1
  O  O31  1  0.575568  0.667477  0.247937  1
  O  O32  1  0.204883  0.498421  0.837421  1
  O  O33  1  0.341987  0.278019  0.967736  1
  O  O34  1  0.696022  0.955048  0.288872  1
  O  O35  1  0.882020  0.364751  0.439702  1
  O  O36  1  0.117980  0.635249  0.560298  1
  O  O37  1  0.303978  0.044952  0.711128  1
  O  O38  1  0.658013  0.721981  0.032264  1
  O  O39  1  0.795117  0.501579  0.162579  1
  O  O40  1  0.424432  0.332523  0.752063  1
  O  O41  1  0.929971  0.205307  0.204070  1
  O  O42  1  0.070029  0.705307  0.295930  1
  O  O43  1  0.575568  0.832523  0.747937  1
  O  O44  1  0.204883  0.001579  0.337421  1
  O  O45  1  0.696022  0.544952  0.788872  1
  O  O46  1  0.341987  0.221981  0.467736  1
  O  O47  1  0.882020  0.135249  0.939702  1
