# generated using pymatgen
data_Li24Ti7Cr5O36
_symmetry_space_group_name_H-M   'P 1'
_cell_length_a   5.06305657
_cell_length_b   9.80866798
_cell_length_c   13.42998115
_cell_angle_alpha   80.65960410
_cell_angle_beta   79.35058029
_cell_angle_gamma   85.37195340
_symmetry_Int_Tables_number   1
_chemical_formula_structural   Li24Ti7Cr5O36
_chemical_formula_sum   'Li24 Ti7 Cr5 O36'
_cell_volume   645.89525078
_cell_formula_units_Z   1
loop_
 _symmetry_equiv_pos_site_id
 _symmetry_equiv_pos_as_xyz
  1  'x, y, z'
loop_
 _atom_site_type_symbol
 _atom_site_label
 _atom_site_symmetry_multiplicity
 _atom_site_fract_x
 _atom_site_fract_y
 _atom_site_fract_z
 _atom_site_occupancy
  Li  Li0  1  0.673742  0.001178  0.166050  1
  Li  Li1  1  0.567337  0.000664  0.388756  1
  Li  Li2  1  0.250123  0.749870  0.750149  1
  Li  Li3  1  0.581958  0.749900  0.084077  1
  Li  Li4  1  0.064807  0.498552  0.887918  1
  Li  Li5  1  0.395095  0.501853  0.219406  1
  Li  Li6  1  0.161810  0.500030  0.666612  1
  Li  Li7  1  0.504212  0.500640  0.000512  1
  Li  Li8  1  0.270841  0.499698  0.448323  1
  Li  Li9  1  0.085818  0.250242  0.584325  1
  Li  Li10  1  0.998497  0.000346  0.499120  1
  Li  Li11  1  0.766335  0.001556  0.945644  1
  Li  Li12  1  0.096800  0.998943  0.279177  1
  Li  Li13  1  0.901077  0.001778  0.721733  1
  Li  Li14  1  0.229482  0.998712  0.054893  1
  Li  Li15  1  0.916125  0.750214  0.416179  1
  Li  Li16  1  0.729771  0.498965  0.551980  1
  Li  Li17  1  0.836472  0.498977  0.332404  1
  Li  Li18  1  0.602972  0.499713  0.780247  1
  Li  Li19  1  0.933859  0.499773  0.112788  1
  Li  Li20  1  0.416850  0.249707  0.916629  1
  Li  Li21  1  0.331071  0.998650  0.832817  1
  Li  Li22  1  0.749698  0.250129  0.249688  1
  Li  Li23  1  0.437131  0.999325  0.611634  1
  Ti  Ti24  1  0.467305  0.754352  0.306881  1
  Ti  Ti25  1  0.198319  0.245845  0.361288  1
  Ti  Ti26  1  0.301456  0.253299  0.138618  1
  Ti  Ti27  1  0.698676  0.752139  0.859316  1
  Ti  Ti28  1  0.808811  0.750207  0.635347  1
  Ti  Ti29  1  0.526570  0.250873  0.693443  1
  Ti  Ti30  1  0.142147  0.745524  0.974277  1
  Cr  Cr31  1  0.855909  0.250874  0.025814  1
  Cr  Cr32  1  0.362826  0.748524  0.528666  1
  Cr  Cr33  1  0.975232  0.248023  0.807336  1
  Cr  Cr34  1  0.022805  0.749501  0.194367  1
  Cr  Cr35  1  0.642898  0.251002  0.473050  1
  O  O36  1  0.927322  0.861519  0.074497  1
  O  O37  1  0.721105  0.635992  0.215570  1
  O  O38  1  0.425535  0.363898  0.571993  1
  O  O39  1  0.502191  0.362259  0.358159  1
  O  O40  1  0.615622  0.365843  0.118772  1
  O  O41  1  0.260321  0.862480  0.406462  1
  O  O42  1  0.217705  0.133212  0.714643  1
  O  O43  1  0.336367  0.138527  0.478237  1
  O  O44  1  0.556199  0.135110  0.047294  1
  O  O45  1  0.999935  0.864022  0.856534  1
  O  O46  1  0.126828  0.863821  0.615700  1
  O  O47  1  0.329590  0.862462  0.189675  1
  O  O48  1  0.402545  0.135161  0.262626  1
  O  O49  1  0.832605  0.636402  0.977691  1
  O  O50  1  0.043522  0.633211  0.547832  1
  O  O51  1  0.164457  0.637866  0.308694  1
  O  O52  1  0.904590  0.636491  0.762290  1
  O  O53  1  0.243839  0.636208  0.095791  1
  O  O54  1  0.758717  0.360743  0.907860  1
  O  O55  1  0.096047  0.364100  0.237574  1
  O  O56  1  0.834210  0.362323  0.692082  1
  O  O57  1  0.943407  0.364433  0.452828  1
  O  O58  1  0.163973  0.361806  0.021496  1
  O  O59  1  0.595687  0.863821  0.736381  1
  O  O60  1  0.670871  0.138123  0.810707  1
  O  O61  1  0.883667  0.134607  0.380756  1
  O  O62  1  0.998378  0.138059  0.140981  1
  O  O63  1  0.451327  0.866098  0.951753  1
  O  O64  1  0.671202  0.863855  0.522174  1
  O  O65  1  0.783515  0.865992  0.285520  1
  O  O66  1  0.739989  0.137922  0.592567  1
  O  O67  1  0.380462  0.633839  0.881926  1
  O  O68  1  0.493262  0.637502  0.641458  1
  O  O69  1  0.568034  0.638606  0.431205  1
  O  O70  1  0.277722  0.364979  0.785539  1
  O  O71  1  0.074417  0.139130  0.925269  1
