# generated using pymatgen
data_Li3MgPCO7
_symmetry_space_group_name_H-M   'P 1'
_cell_length_a   4.95614417
_cell_length_b   6.47029557
_cell_length_c   8.39248691
_cell_angle_alpha   90.00000000
_cell_angle_beta   93.13082077
_cell_angle_gamma   90.00000000
_symmetry_Int_Tables_number   1
_chemical_formula_structural   Li3MgPCO7
_chemical_formula_sum   'Li6 Mg2 P2 C2 O14'
_cell_volume   268.72620971
_cell_formula_units_Z   2
loop_
 _symmetry_equiv_pos_site_id
 _symmetry_equiv_pos_as_xyz
  1  'x, y, z'
loop_
 _atom_site_type_symbol
 _atom_site_label
 _atom_site_symmetry_multiplicity
 _atom_site_fract_x
 _atom_site_fract_y
 _atom_site_fract_z
 _atom_site_occupancy
  Li  Li0  1  0.255605  0.750000  0.089060  1
  Li  Li1  1  0.766157  0.980973  0.266526  1
  Li  Li2  1  0.766157  0.519027  0.266526  1
  Li  Li3  1  0.233843  0.480973  0.733474  1
  Li  Li4  1  0.233843  0.019027  0.733474  1
  Li  Li5  1  0.744395  0.250000  0.910940  1
  Mg  Mg6  1  0.211037  0.250000  0.344410  1
  Mg  Mg7  1  0.788963  0.750000  0.655590  1
  P  P8  1  0.287276  0.750000  0.413891  1
  P  P9  1  0.712724  0.250000  0.586109  1
  C  C10  1  0.275614  0.250000  0.044181  1
  C  C11  1  0.724386  0.750000  0.955819  1
  O  O12  1  0.027508  0.250000  0.085034  1
  O  O13  1  0.664527  0.750000  0.105530  1
  O  O14  1  0.470084  0.250000  0.154353  1
  O  O15  1  0.187041  0.938693  0.312609  1
  O  O16  1  0.187041  0.561307  0.312609  1
  O  O17  1  0.602038  0.750000  0.433041  1
  O  O18  1  0.823060  0.250000  0.416850  1
  O  O19  1  0.176940  0.750000  0.583150  1
  O  O20  1  0.397962  0.250000  0.566959  1
  O  O21  1  0.812959  0.438693  0.687391  1
  O  O22  1  0.812959  0.061307  0.687391  1
  O  O23  1  0.529916  0.750000  0.845647  1
  O  O24  1  0.335473  0.250000  0.894470  1
  O  O25  1  0.972492  0.750000  0.914966  1
