# generated using pymatgen
data_Li2FeF4
_symmetry_space_group_name_H-M   'P 1'
_cell_length_a   5.28038354
_cell_length_b   5.28038354
_cell_length_c   2.98344296
_cell_angle_alpha   90.00000000
_cell_angle_beta   90.00000000
_cell_angle_gamma   111.08066037
_symmetry_Int_Tables_number   1
_chemical_formula_structural   Li2FeF4
_chemical_formula_sum   'Li2 Fe1 F4'
_cell_volume   77.61849674
_cell_formula_units_Z   1
loop_
 _symmetry_equiv_pos_site_id
 _symmetry_equiv_pos_as_xyz
  1  'x, y, z'
loop_
 _atom_site_type_symbol
 _atom_site_label
 _atom_site_symmetry_multiplicity
 _atom_site_fract_x
 _atom_site_fract_y
 _atom_site_fract_z
 _atom_site_occupancy
  Li  Li0  1  0.500000  0.000000  0.500000  1
  Li  Li1  1  0.000000  0.500000  0.500000  1
  Fe  Fe2  1  0.000000  0.000000  0.000000  1
  F  F3  1  0.242176  0.242176  0.500000  1
  F  F4  1  0.764974  0.235026  0.000000  1
  F  F5  1  0.235026  0.764974  0.000000  1
  F  F6  1  0.757824  0.757824  0.500000  1
