# generated using pymatgen
data_Li2FeF4
_symmetry_space_group_name_H-M   'P 1'
_cell_length_a   5.53026086
_cell_length_b   5.85784855
_cell_length_c   5.87828261
_cell_angle_alpha   67.80719948
_cell_angle_beta   87.79099802
_cell_angle_gamma   88.17383298
_symmetry_Int_Tables_number   1
_chemical_formula_structural   Li2FeF4
_chemical_formula_sum   'Li4 Fe2 F8'
_cell_volume   176.16024837
_cell_formula_units_Z   2
loop_
 _symmetry_equiv_pos_site_id
 _symmetry_equiv_pos_as_xyz
  1  'x, y, z'
loop_
 _atom_site_type_symbol
 _atom_site_label
 _atom_site_symmetry_multiplicity
 _atom_site_fract_x
 _atom_site_fract_y
 _atom_site_fract_z
 _atom_site_occupancy
  Li  Li0  1  0.999978  0.980804  0.017913  1
  Li  Li1  1  0.498778  0.013131  0.992787  1
  Li  Li2  1  0.182545  0.767240  0.773215  1
  Li  Li3  1  0.819540  0.234752  0.224351  1
  Fe  Fe4  1  0.704192  0.618680  0.610966  1
  Fe  Fe5  1  0.295876  0.381759  0.388246  1
  F  F6  1  0.842807  0.810987  0.800356  1
  F  F7  1  0.734956  0.901330  0.281170  1
  F  F8  1  0.329125  0.600255  0.602801  1
  F  F9  1  0.733941  0.293962  0.897528  1
  F  F10  1  0.254600  0.709912  0.106485  1
  F  F11  1  0.671108  0.400289  0.395611  1
  F  F12  1  0.272617  0.095696  0.714141  1
  F  F13  1  0.159940  0.191345  0.193989  1
