# generated using pymatgen
data_Li6FeCoP2(CO7)2
_symmetry_space_group_name_H-M   'P 1'
_cell_length_a   4.98670921
_cell_length_b   6.41546076
_cell_length_c   8.39748076
_cell_angle_alpha   90.00000000
_cell_angle_beta   94.58970222
_cell_angle_gamma   90.00000000
_symmetry_Int_Tables_number   1
_chemical_formula_structural   Li6FeCoP2(CO7)2
_chemical_formula_sum   'Li6 Fe1 Co1 P2 C2 O14'
_cell_volume   267.79102306
_cell_formula_units_Z   1
loop_
 _symmetry_equiv_pos_site_id
 _symmetry_equiv_pos_as_xyz
  1  'x, y, z'
loop_
 _atom_site_type_symbol
 _atom_site_label
 _atom_site_symmetry_multiplicity
 _atom_site_fract_x
 _atom_site_fract_y
 _atom_site_fract_z
 _atom_site_occupancy
  Li  Li0  1  0.764355  0.500000  0.904138  1
  Li  Li1  1  0.247970  0.270972  0.723773  1
  Li  Li2  1  0.247970  0.729028  0.723773  1
  Li  Li3  1  0.751399  0.771902  0.276330  1
  Li  Li4  1  0.751399  0.228098  0.276330  1
  Li  Li5  1  0.236817  0.000000  0.096350  1
  Fe  Fe6  1  0.204169  0.500000  0.329624  1
  Co  Co7  1  0.794062  0.000000  0.665492  1
  P  P8  1  0.719106  0.500000  0.585948  1
  P  P9  1  0.280034  0.000000  0.413379  1
  C  C10  1  0.701880  0.000000  0.963469  1
  C  C11  1  0.298650  0.500000  0.037491  1
  O  O12  1  0.949395  0.000000  0.927040  1
  O  O13  1  0.358751  0.500000  0.889963  1
  O  O14  1  0.510277  0.000000  0.847839  1
  O  O15  1  0.825398  0.312689  0.691071  1
  O  O16  1  0.825398  0.687311  0.691071  1
  O  O17  1  0.174419  0.000000  0.581498  1
  O  O18  1  0.405443  0.500000  0.564721  1
  O  O19  1  0.593951  0.000000  0.433673  1
  O  O20  1  0.827829  0.500000  0.418905  1
  O  O21  1  0.175150  0.188137  0.309128  1
  O  O22  1  0.175150  0.811863  0.309128  1
  O  O23  1  0.488310  0.500000  0.153666  1
  O  O24  1  0.640909  0.000000  0.110659  1
  O  O25  1  0.051804  0.500000  0.075544  1
