# generated using pymatgen
data_MnV4CoO12
_symmetry_space_group_name_H-M   'P 1'
_cell_length_a   6.83820241
_cell_length_b   6.83820241
_cell_length_c   5.88451850
_cell_angle_alpha   74.81025541
_cell_angle_beta   105.18974459
_cell_angle_gamma   95.87453613
_symmetry_Int_Tables_number   1
_chemical_formula_structural   MnV4CoO12
_chemical_formula_sum   'Mn1 V4 Co1 O12'
_cell_volume   256.10736937
_cell_formula_units_Z   1
loop_
 _symmetry_equiv_pos_site_id
 _symmetry_equiv_pos_as_xyz
  1  'x, y, z'
loop_
 _atom_site_type_symbol
 _atom_site_label
 _atom_site_symmetry_multiplicity
 _atom_site_fract_x
 _atom_site_fract_y
 _atom_site_fract_z
 _atom_site_occupancy
  Mn  Mn0  1  0.085224  0.085224  0.500000  1
  V  V1  1  0.390609  0.794140  0.016780  1
  V  V2  1  0.206232  0.612139  0.513121  1
  V  V3  1  0.794140  0.390609  0.983220  1
  V  V4  1  0.612139  0.206232  0.486879  1
  Co  Co5  1  0.911605  0.911605  0.000000  1
  O  O6  1  0.198223  0.963231  0.902267  1
  O  O7  1  0.622337  0.909130  0.042396  1
  O  O8  1  0.035329  0.800626  0.388669  1
  O  O9  1  0.356670  0.639984  0.804969  1
  O  O10  1  0.909130  0.622337  0.957604  1
  O  O11  1  0.364649  0.639063  0.306065  1
  O  O12  1  0.639984  0.356670  0.195031  1
  O  O13  1  0.087724  0.383084  0.542653  1
  O  O14  1  0.639063  0.364649  0.693935  1
  O  O15  1  0.963231  0.198223  0.097733  1
  O  O16  1  0.383084  0.087724  0.457347  1
  O  O17  1  0.800626  0.035329  0.611331  1
