# generated using pymatgen
data_LiSb(TeO4)3
_symmetry_space_group_name_H-M   'P 1'
_cell_length_a   4.95244270
_cell_length_b   8.50281127
_cell_length_c   5.25360970
_cell_angle_alpha   90.00000000
_cell_angle_beta   90.47255602
_cell_angle_gamma   90.00000000
_symmetry_Int_Tables_number   1
_chemical_formula_structural   LiSb(TeO4)3
_chemical_formula_sum   'Li1 Sb1 Te3 O12'
_cell_volume   221.22032855
_cell_formula_units_Z   1
loop_
 _symmetry_equiv_pos_site_id
 _symmetry_equiv_pos_as_xyz
  1  'x, y, z'
loop_
 _atom_site_type_symbol
 _atom_site_label
 _atom_site_symmetry_multiplicity
 _atom_site_fract_x
 _atom_site_fract_y
 _atom_site_fract_z
 _atom_site_occupancy
  Li  Li0  1  0.000000  0.801060  0.500000  1
  Sb  Sb1  1  0.500000  0.901338  0.000000  1
  Te  Te2  1  0.000000  0.583405  0.000000  1
  Te  Te3  1  0.000000  0.397762  0.500000  1
  Te  Te4  1  0.500000  0.086911  0.500000  1
  O  O5  1  0.792614  0.416979  0.182113  1
  O  O6  1  0.761950  0.741419  0.142891  1
  O  O7  1  0.710172  0.069204  0.194685  1
  O  O8  1  0.252874  0.248141  0.360826  1
  O  O9  1  0.283775  0.922369  0.321777  1
  O  O10  1  0.204244  0.573009  0.322420  1
  O  O11  1  0.795756  0.573009  0.677580  1
  O  O12  1  0.716225  0.922369  0.678223  1
  O  O13  1  0.747126  0.248141  0.639174  1
  O  O14  1  0.289828  0.069204  0.805315  1
  O  O15  1  0.238050  0.741419  0.857109  1
  O  O16  1  0.207386  0.416979  0.817887  1
