# generated using pymatgen
data_Li2V2SiGeO10
_symmetry_space_group_name_H-M   'P 1'
_cell_length_a   6.41248137
_cell_length_b   6.41248137
_cell_length_c   4.66678594
_cell_angle_alpha   90.00000000
_cell_angle_beta   90.00000000
_cell_angle_gamma   90.50610735
_symmetry_Int_Tables_number   1
_chemical_formula_structural   Li2V2SiGeO10
_chemical_formula_sum   'Li2 V2 Si1 Ge1 O10'
_cell_volume   191.89036568
_cell_formula_units_Z   1
loop_
 _symmetry_equiv_pos_site_id
 _symmetry_equiv_pos_as_xyz
  1  'x, y, z'
loop_
 _atom_site_type_symbol
 _atom_site_label
 _atom_site_symmetry_multiplicity
 _atom_site_fract_x
 _atom_site_fract_y
 _atom_site_fract_z
 _atom_site_occupancy
  Li  Li0  1  0.239940  0.760060  0.000000  1
  Li  Li1  1  0.760060  0.239940  0.000000  1
  V  V2  1  0.500000  0.000000  0.608858  1
  V  V3  1  0.000000  0.500000  0.391142  1
  Si  Si4  1  0.000000  0.000000  0.500000  1
  Ge  Ge5  1  0.500000  0.500000  0.500000  1
  O  O6  1  0.004972  0.791087  0.294315  1
  O  O7  1  0.208913  0.995028  0.705685  1
  O  O8  1  0.500000  0.000000  0.259035  1
  O  O9  1  0.791087  0.004972  0.705685  1
  O  O10  1  0.995028  0.208913  0.294315  1
  O  O11  1  0.507164  0.280920  0.729499  1
  O  O12  1  0.719080  0.492836  0.270501  1
  O  O13  1  0.280920  0.507164  0.270501  1
  O  O14  1  0.000000  0.500000  0.740965  1
  O  O15  1  0.492836  0.719080  0.729499  1
