# generated using pymatgen
data_Li2MnVP2(O4F)2
_symmetry_space_group_name_H-M   'P 1'
_cell_length_a   6.91230228
_cell_length_b   7.42397930
_cell_length_c   7.98124402
_cell_angle_alpha   87.10317932
_cell_angle_beta   88.37071480
_cell_angle_gamma   62.85340934
_symmetry_Int_Tables_number   1
_chemical_formula_structural   Li2MnVP2(O4F)2
_chemical_formula_sum   'Li4 Mn2 V2 P4 O16 F4'
_cell_volume   363.98186867
_cell_formula_units_Z   2
loop_
 _symmetry_equiv_pos_site_id
 _symmetry_equiv_pos_as_xyz
  1  'x, y, z'
loop_
 _atom_site_type_symbol
 _atom_site_label
 _atom_site_symmetry_multiplicity
 _atom_site_fract_x
 _atom_site_fract_y
 _atom_site_fract_z
 _atom_site_occupancy
  Li  Li0  1  0.744068  0.812285  0.825920  1
  Li  Li1  1  0.246222  0.811755  0.325457  1
  Li  Li2  1  0.753778  0.188245  0.674543  1
  Li  Li3  1  0.255932  0.187715  0.174080  1
  Mn  Mn4  1  0.500000  0.000000  0.500000  1
  Mn  Mn5  1  0.000000  0.500000  0.500000  1
  V  V6  1  0.000000  0.000000  0.000000  1
  V  V7  1  0.500000  0.500000  0.000000  1
  P  P8  1  0.281872  0.238715  0.837389  1
  P  P9  1  0.781172  0.235587  0.340254  1
  P  P10  1  0.218828  0.764413  0.659746  1
  P  P11  1  0.718128  0.761285  0.162611  1
  O  O12  1  0.407791  0.612491  0.767174  1
  O  O13  1  0.278069  0.918477  0.558841  1
  O  O14  1  0.221233  0.087190  0.939512  1
  O  O15  1  0.328958  0.345610  0.982145  1
  O  O16  1  0.092244  0.388526  0.728110  1
  O  O17  1  0.837913  0.338430  0.482563  1
  O  O18  1  0.010433  0.888109  0.767809  1
  O  O19  1  0.508289  0.883621  0.267758  1
  O  O20  1  0.491711  0.116379  0.732242  1
  O  O21  1  0.989567  0.111891  0.232191  1
  O  O22  1  0.162087  0.661570  0.517437  1
  O  O23  1  0.907756  0.611474  0.271890  1
  O  O24  1  0.671042  0.654390  0.017855  1
  O  O25  1  0.778767  0.912810  0.060488  1
  O  O26  1  0.721931  0.081523  0.441159  1
  O  O27  1  0.592209  0.387509  0.232826  1
  F  F28  1  0.765797  0.262139  0.899673  1
  F  F29  1  0.729728  0.737034  0.609417  1
  F  F30  1  0.270272  0.262966  0.390583  1
  F  F31  1  0.234203  0.737861  0.100327  1
