# generated using pymatgen
data_VP2O7
_symmetry_space_group_name_H-M   'P 1'
_cell_length_a   6.36737797
_cell_length_b   9.48059249
_cell_length_c   10.59635380
_cell_angle_alpha   115.32051032
_cell_angle_beta   85.42209948
_cell_angle_gamma   106.45833668
_symmetry_Int_Tables_number   1
_chemical_formula_structural   VP2O7
_chemical_formula_sum   'V4 P8 O28'
_cell_volume   553.88902626
_cell_formula_units_Z   4
loop_
 _symmetry_equiv_pos_site_id
 _symmetry_equiv_pos_as_xyz
  1  'x, y, z'
loop_
 _atom_site_type_symbol
 _atom_site_label
 _atom_site_symmetry_multiplicity
 _atom_site_fract_x
 _atom_site_fract_y
 _atom_site_fract_z
 _atom_site_occupancy
  V  V0  1  0.627333  0.501858  0.242487  1
  V  V1  1  0.372667  0.498142  0.757513  1
  V  V2  1  0.730647  0.094479  0.221563  1
  V  V3  1  0.269353  0.905521  0.778437  1
  P  P4  1  0.944570  0.816634  0.219906  1
  P  P5  1  0.309601  0.797725  0.033859  1
  P  P6  1  0.891315  0.550148  0.698864  1
  P  P7  1  0.108685  0.449852  0.301136  1
  P  P8  1  0.055430  0.183366  0.780094  1
  P  P9  1  0.407943  0.678616  0.538984  1
  P  P10  1  0.690399  0.202275  0.966141  1
  P  P11  1  0.592057  0.321384  0.461016  1
  O  O12  1  0.190633  0.543958  0.458718  1
  O  O13  1  0.925303  0.262482  0.913771  1
  O  O14  1  0.065442  0.882713  0.354318  1
  O  O15  1  0.426731  0.671591  0.682042  1
  O  O16  1  0.125458  0.053604  0.817287  1
  O  O17  1  0.727679  0.671935  0.195616  1
  O  O18  1  0.730939  0.105614  0.051479  1
  O  O19  1  0.941416  0.511846  0.265780  1
  O  O20  1  0.641421  0.148494  0.408137  1
  O  O21  1  0.597454  0.650861  0.444776  1
  O  O22  1  0.682996  0.529800  0.780323  1
  O  O23  1  0.453514  0.919532  0.162417  1
  O  O24  1  0.317004  0.470200  0.219677  1
  O  O25  1  0.989827  0.725385  0.718590  1
  O  O26  1  0.272321  0.328065  0.804384  1
  O  O27  1  0.809367  0.456042  0.541282  1
  O  O28  1  0.932934  0.103000  0.641485  1
  O  O29  1  0.269061  0.894386  0.948521  1
  O  O30  1  0.358579  0.851506  0.591863  1
  O  O31  1  0.074697  0.737518  0.086229  1
  O  O32  1  0.010173  0.274615  0.281410  1
  O  O33  1  0.393557  0.652751  0.942165  1
  O  O34  1  0.606443  0.347249  0.057835  1
  O  O35  1  0.874542  0.946396  0.182713  1
  O  O36  1  0.055081  0.475727  0.725710  1
  O  O37  1  0.402546  0.349139  0.555224  1
  O  O38  1  0.573269  0.328409  0.317958  1
  O  O39  1  0.551093  0.067612  0.833224  1
