# generated using pymatgen
data_Li2VCrP2(O4F)2
_symmetry_space_group_name_H-M   'P 1'
_cell_length_a   6.96240885
_cell_length_b   7.34338008
_cell_length_c   7.98553671
_cell_angle_alpha   90.67939837
_cell_angle_beta   91.61927787
_cell_angle_gamma   117.58632890
_symmetry_Int_Tables_number   1
_chemical_formula_structural   Li2VCrP2(O4F)2
_chemical_formula_sum   'Li4 V2 Cr2 P4 O16 F4'
_cell_volume   361.57770554
_cell_formula_units_Z   2
loop_
 _symmetry_equiv_pos_site_id
 _symmetry_equiv_pos_as_xyz
  1  'x, y, z'
loop_
 _atom_site_type_symbol
 _atom_site_label
 _atom_site_symmetry_multiplicity
 _atom_site_fract_x
 _atom_site_fract_y
 _atom_site_fract_z
 _atom_site_occupancy
  Li  Li0  1  0.441625  0.188431  0.828114  1
  Li  Li1  1  0.943079  0.188402  0.327058  1
  Li  Li2  1  0.056921  0.811598  0.672942  1
  Li  Li3  1  0.558375  0.811569  0.171886  1
  V  V4  1  0.000000  0.500000  0.000000  1
  V  V5  1  0.500000  0.000000  0.500000  1
  Cr  Cr6  1  0.000000  0.000000  0.000000  1
  Cr  Cr7  1  0.500000  0.500000  0.500000  1
  P  P8  1  0.483470  0.762157  0.841008  1
  P  P9  1  0.980235  0.761344  0.340622  1
  P  P10  1  0.019765  0.238656  0.659378  1
  P  P11  1  0.516530  0.237843  0.158992  1
  O  O12  1  0.980950  0.391969  0.766783  1
  O  O13  1  0.808728  0.085847  0.560955  1
  O  O14  1  0.692328  0.916564  0.939877  1
  O  O15  1  0.324890  0.655323  0.983188  1
  O  O16  1  0.519769  0.608619  0.732679  1
  O  O17  1  0.823232  0.657319  0.483733  1
  O  O18  1  0.104421  0.113062  0.770285  1
  O  O19  1  0.603024  0.111820  0.268994  1
  O  O20  1  0.396976  0.888180  0.731006  1
  O  O21  1  0.895579  0.886938  0.229715  1
  O  O22  1  0.176768  0.342681  0.516267  1
  O  O23  1  0.480231  0.391381  0.267321  1
  O  O24  1  0.675110  0.344677  0.016812  1
  O  O25  1  0.307672  0.083436  0.060123  1
  O  O26  1  0.191272  0.914153  0.439045  1
  O  O27  1  0.019050  0.608031  0.233217  1
  F  F28  1  0.971414  0.741292  0.899954  1
  F  F29  1  0.528558  0.267232  0.599918  1
  F  F30  1  0.471442  0.732768  0.400082  1
  F  F31  1  0.028586  0.258708  0.100046  1
