# generated using pymatgen
data_Li8TiO6
_symmetry_space_group_name_H-M   'P 1'
_cell_length_a   5.60436669
_cell_length_b   5.60436669
_cell_length_c   10.92017701
_cell_angle_alpha   90.00000000
_cell_angle_beta   90.00000000
_cell_angle_gamma   120.00000000
_symmetry_Int_Tables_number   1
_chemical_formula_structural   Li8TiO6
_chemical_formula_sum   'Li16 Ti2 O12'
_cell_volume   297.03894702
_cell_formula_units_Z   2
loop_
 _symmetry_equiv_pos_site_id
 _symmetry_equiv_pos_as_xyz
  1  'x, y, z'
loop_
 _atom_site_type_symbol
 _atom_site_label
 _atom_site_symmetry_multiplicity
 _atom_site_fract_x
 _atom_site_fract_y
 _atom_site_fract_z
 _atom_site_occupancy
  Li  Li0  1  0.000000  0.683017  0.768204  1
  Li  Li1  1  0.000000  0.604535  0.128628  1
  Li  Li2  1  0.000000  0.395465  0.628628  1
  Li  Li3  1  0.000000  0.316983  0.268204  1
  Li  Li4  1  0.333333  0.666667  0.406976  1
  Li  Li5  1  0.333333  0.666667  0.906976  1
  Li  Li6  1  0.316983  0.316983  0.768204  1
  Li  Li7  1  0.395465  0.395465  0.128628  1
  Li  Li8  1  0.604535  0.604535  0.628628  1
  Li  Li9  1  0.316983  0.000000  0.268204  1
  Li  Li10  1  0.683017  0.683017  0.268204  1
  Li  Li11  1  0.395465  0.000000  0.628628  1
  Li  Li12  1  0.666667  0.333333  0.906976  1
  Li  Li13  1  0.666667  0.333333  0.406976  1
  Li  Li14  1  0.604535  0.000000  0.128628  1
  Li  Li15  1  0.683017  0.000000  0.768204  1
  Ti  Ti16  1  0.000000  0.000000  0.995649  1
  Ti  Ti17  1  0.000000  0.000000  0.495649  1
  O  O18  1  0.000000  0.686902  0.949078  1
  O  O19  1  0.000000  0.313098  0.449078  1
  O  O20  1  0.333333  0.666667  0.216011  1
  O  O21  1  0.000000  0.000000  0.166293  1
  O  O22  1  0.000000  0.000000  0.666293  1
  O  O23  1  0.333333  0.666667  0.716011  1
  O  O24  1  0.313098  0.313098  0.949078  1
  O  O25  1  0.313098  0.000000  0.449078  1
  O  O26  1  0.686902  0.686902  0.449078  1
  O  O27  1  0.666667  0.333333  0.716011  1
  O  O28  1  0.666667  0.333333  0.216011  1
  O  O29  1  0.686902  0.000000  0.949078  1
