# generated using pymatgen
data_FePO4
_symmetry_space_group_name_H-M   'P 1'
_cell_length_a   7.96109569
_cell_length_b   5.33306137
_cell_length_c   8.77348608
_cell_angle_alpha   90.00000000
_cell_angle_beta   104.28185050
_cell_angle_gamma   90.00000000
_symmetry_Int_Tables_number   1
_chemical_formula_structural   FePO4
_chemical_formula_sum   'Fe4 P4 O16'
_cell_volume   360.98361283
_cell_formula_units_Z   4
loop_
 _symmetry_equiv_pos_site_id
 _symmetry_equiv_pos_as_xyz
  1  'x, y, z'
loop_
 _atom_site_type_symbol
 _atom_site_label
 _atom_site_symmetry_multiplicity
 _atom_site_fract_x
 _atom_site_fract_y
 _atom_site_fract_z
 _atom_site_occupancy
  Fe  Fe0  1  0.027305  0.857293  0.934124  1
  Fe  Fe1  1  0.513736  0.318137  0.723910  1
  Fe  Fe2  1  0.027305  0.142707  0.434124  1
  Fe  Fe3  1  0.513736  0.681863  0.223910  1
  P  P4  1  0.749417  0.664161  0.976738  1
  P  P5  1  0.257924  0.814794  0.681975  1
  P  P6  1  0.749417  0.335839  0.476738  1
  P  P7  1  0.257924  0.185206  0.181975  1
  O  O8  1  0.116491  0.166311  0.025010  1
  O  O9  1  0.680343  0.402914  0.911773  1
  O  O10  1  0.178071  0.730058  0.817354  1
  O  O11  1  0.777010  0.842310  0.841791  1
  O  O12  1  0.338357  0.080072  0.720650  1
  O  O13  1  0.396754  0.625112  0.662003  1
  O  O14  1  0.116491  0.833689  0.525010  1
  O  O15  1  0.622308  0.219981  0.564744  1
  O  O16  1  0.939074  0.349637  0.582771  1
  O  O17  1  0.680343  0.597086  0.411773  1
  O  O18  1  0.178071  0.269942  0.317354  1
  O  O19  1  0.777010  0.157690  0.341791  1
  O  O20  1  0.338357  0.919928  0.220650  1
  O  O21  1  0.396754  0.374888  0.162003  1
  O  O22  1  0.622308  0.780019  0.064744  1
  O  O23  1  0.939074  0.650363  0.082771  1
