# generated using pymatgen
data_Li2Cr3NiO8
_symmetry_space_group_name_H-M   'P 1'
_cell_length_a   5.92814725
_cell_length_b   5.92814725
_cell_length_c   5.92814725
_cell_angle_alpha   59.31467982
_cell_angle_beta   59.31467982
_cell_angle_gamma   59.31467982
_symmetry_Int_Tables_number   1
_chemical_formula_structural   Li2Cr3NiO8
_chemical_formula_sum   'Li2 Cr3 Ni1 O8'
_cell_volume   145.01470413
_cell_formula_units_Z   1
loop_
 _symmetry_equiv_pos_site_id
 _symmetry_equiv_pos_as_xyz
  1  'x, y, z'
loop_
 _atom_site_type_symbol
 _atom_site_label
 _atom_site_symmetry_multiplicity
 _atom_site_fract_x
 _atom_site_fract_y
 _atom_site_fract_z
 _atom_site_occupancy
  Li  Li0  1  0.874931  0.874931  0.874931  1
  Li  Li1  1  0.125069  0.125069  0.125069  1
  Cr  Cr2  1  0.500000  0.500000  0.000000  1
  Cr  Cr3  1  0.000000  0.500000  0.500000  1
  Cr  Cr4  1  0.500000  0.000000  0.500000  1
  Ni  Ni5  1  0.500000  0.500000  0.500000  1
  O  O6  1  0.739692  0.739692  0.739692  1
  O  O7  1  0.745721  0.293176  0.745721  1
  O  O8  1  0.293176  0.745721  0.745721  1
  O  O9  1  0.745721  0.745721  0.293176  1
  O  O10  1  0.254279  0.254279  0.706824  1
  O  O11  1  0.706824  0.254279  0.254279  1
  O  O12  1  0.254279  0.706824  0.254279  1
  O  O13  1  0.260308  0.260308  0.260308  1
