# generated using pymatgen
data_Mn3V2Cr3O16
_symmetry_space_group_name_H-M   'P 1'
_cell_length_a   5.87299476
_cell_length_b   5.87517174
_cell_length_c   8.83445864
_cell_angle_alpha   89.99094688
_cell_angle_beta   90.48432509
_cell_angle_gamma   119.66746692
_symmetry_Int_Tables_number   1
_chemical_formula_structural   Mn3V2Cr3O16
_chemical_formula_sum   'Mn3 V2 Cr3 O16'
_cell_volume   264.85982510
_cell_formula_units_Z   1
loop_
 _symmetry_equiv_pos_site_id
 _symmetry_equiv_pos_as_xyz
  1  'x, y, z'
loop_
 _atom_site_type_symbol
 _atom_site_label
 _atom_site_symmetry_multiplicity
 _atom_site_fract_x
 _atom_site_fract_y
 _atom_site_fract_z
 _atom_site_occupancy
  Mn  Mn0  1  0.343774  0.172100  0.209519  1
  Mn  Mn1  1  0.171668  0.340166  0.713020  1
  Mn  Mn2  1  0.171795  0.831881  0.712756  1
  V  V3  1  0.667368  0.335034  0.502126  1
  V  V4  1  0.337375  0.669780  0.001137  1
  Cr  Cr5  1  0.836131  0.176978  0.219650  1
  Cr  Cr6  1  0.830704  0.660616  0.208908  1
  Cr  Cr7  1  0.662072  0.831248  0.712510  1
  O  O8  1  0.826084  0.176147  0.596392  1
  O  O9  1  0.948818  0.467699  0.343585  1
  O  O10  1  0.663101  0.321800  0.100404  1
  O  O11  1  0.004440  0.010392  0.303672  1
  O  O12  1  0.010649  0.005518  0.812256  1
  O  O13  1  0.826634  0.650066  0.595019  1
  O  O14  1  0.521336  0.046896  0.339325  1
  O  O15  1  0.518745  0.468888  0.339120  1
  O  O16  1  0.649162  0.827721  0.094351  1
  O  O17  1  0.347442  0.173023  0.596926  1
  O  O18  1  0.470095  0.518256  0.841299  1
  O  O19  1  0.469235  0.951239  0.841114  1
  O  O20  1  0.323677  0.661495  0.601858  1
  O  O21  1  0.176411  0.352876  0.097122  1
  O  O22  1  0.045778  0.523666  0.837058  1
  O  O23  1  0.177503  0.826316  0.096595  1
