# generated using pymatgen
data_NaH8SeNO6
_symmetry_space_group_name_H-M   'P 1'
_cell_length_a   6.42719749
_cell_length_b   8.47090652
_cell_length_c   13.22521992
_cell_angle_alpha   90.00000000
_cell_angle_beta   90.00000000
_cell_angle_gamma   90.00000000
_symmetry_Int_Tables_number   1
_chemical_formula_structural   NaH8SeNO6
_chemical_formula_sum   'Na4 H32 Se4 N4 O24'
_cell_volume   720.03637452
_cell_formula_units_Z   4
loop_
 _symmetry_equiv_pos_site_id
 _symmetry_equiv_pos_as_xyz
  1  'x, y, z'
loop_
 _atom_site_type_symbol
 _atom_site_label
 _atom_site_symmetry_multiplicity
 _atom_site_fract_x
 _atom_site_fract_y
 _atom_site_fract_z
 _atom_site_occupancy
  Na  Na0  1  0.595209  0.739148  0.989232  1
  Na  Na1  1  0.095209  0.760852  0.010768  1
  Na  Na2  1  0.404791  0.239148  0.510768  1
  Na  Na3  1  0.904791  0.260852  0.489232  1
  H  H4  1  0.307502  0.777019  0.810862  1
  H  H5  1  0.807502  0.722981  0.189138  1
  H  H6  1  0.692498  0.277019  0.689138  1
  H  H7  1  0.192498  0.222981  0.310862  1
  H  H8  1  0.261793  0.601889  0.846245  1
  H  H9  1  0.761793  0.898111  0.153755  1
  H  H10  1  0.738207  0.101889  0.653755  1
  H  H11  1  0.238207  0.398111  0.346245  1
  H  H12  1  0.143286  0.528121  0.584895  1
  H  H13  1  0.643286  0.971879  0.415105  1
  H  H14  1  0.856714  0.028121  0.915105  1
  H  H15  1  0.356714  0.471879  0.084895  1
  H  H16  1  0.873030  0.903845  0.829734  1
  H  H17  1  0.373030  0.596155  0.170266  1
  H  H18  1  0.126970  0.403845  0.670266  1
  H  H19  1  0.626970  0.096155  0.329734  1
  H  H20  1  0.731265  0.743162  0.649632  1
  H  H21  1  0.231265  0.756838  0.350368  1
  H  H22  1  0.268735  0.243162  0.850368  1
  H  H23  1  0.768735  0.256838  0.149632  1
  H  H24  1  0.632468  0.577379  0.705608  1
  H  H25  1  0.132468  0.922621  0.294392  1
  H  H26  1  0.367532  0.077379  0.794392  1
  H  H27  1  0.867532  0.422621  0.205608  1
  H  H28  1  0.638924  0.591030  0.577326  1
  H  H29  1  0.138924  0.908970  0.422674  1
  H  H30  1  0.361076  0.091030  0.922674  1
  H  H31  1  0.861076  0.408970  0.077326  1
  H  H32  1  0.476252  0.709554  0.643561  1
  H  H33  1  0.976252  0.790446  0.356439  1
  H  H34  1  0.523748  0.209554  0.856439  1
  H  H35  1  0.023748  0.290446  0.143561  1
  Se  Se36  1  0.115853  0.904385  0.628749  1
  Se  Se37  1  0.615853  0.595615  0.371251  1
  Se  Se38  1  0.884147  0.404385  0.871251  1
  Se  Se39  1  0.384147  0.095615  0.128749  1
  N  N40  1  0.119470  0.845553  0.355977  1
  N  N41  1  0.619470  0.654447  0.644023  1
  N  N42  1  0.880530  0.345553  0.144023  1
  N  N43  1  0.380530  0.154447  0.855977  1
  O  O44  1  0.313740  0.918436  0.711780  1
  O  O45  1  0.813740  0.581564  0.288220  1
  O  O46  1  0.686260  0.418436  0.788220  1
  O  O47  1  0.186260  0.081564  0.211780  1
  O  O48  1  0.885719  0.923938  0.689475  1
  O  O49  1  0.385719  0.576062  0.310525  1
  O  O50  1  0.114281  0.423938  0.810525  1
  O  O51  1  0.614281  0.076062  0.189475  1
  O  O52  1  0.128505  0.729151  0.572954  1
  O  O53  1  0.628505  0.770849  0.427046  1
  O  O54  1  0.871495  0.229151  0.927046  1
  O  O55  1  0.371495  0.270849  0.072954  1
  O  O56  1  0.361886  0.956596  0.039247  1
  O  O57  1  0.861886  0.543404  0.960753  1
  O  O58  1  0.638114  0.456596  0.460753  1
  O  O59  1  0.138114  0.043404  0.539247  1
  O  O60  1  0.822642  0.796610  0.131288  1
  O  O61  1  0.322642  0.703390  0.868712  1
  O  O62  1  0.177358  0.296610  0.368712  1
  O  O63  1  0.677358  0.203390  0.631288  1
  O  O64  1  0.850368  0.912357  0.903421  1
  O  O65  1  0.350368  0.587643  0.096579  1
  O  O66  1  0.149632  0.412357  0.596579  1
  O  O67  1  0.649632  0.087643  0.403421  1
