# generated using pymatgen
data_MnOF
_symmetry_space_group_name_H-M   'P 1'
_cell_length_a   4.79737152
_cell_length_b   3.07511816
_cell_length_c   18.97702638
_cell_angle_alpha   90.00000000
_cell_angle_beta   95.51909724
_cell_angle_gamma   90.00000000
_symmetry_Int_Tables_number   1
_chemical_formula_structural   MnOF
_chemical_formula_sum   'Mn8 O8 F8'
_cell_volume   278.66045194
_cell_formula_units_Z   8
loop_
 _symmetry_equiv_pos_site_id
 _symmetry_equiv_pos_as_xyz
  1  'x, y, z'
loop_
 _atom_site_type_symbol
 _atom_site_label
 _atom_site_symmetry_multiplicity
 _atom_site_fract_x
 _atom_site_fract_y
 _atom_site_fract_z
 _atom_site_occupancy
  Mn  Mn0  1  0.090657  0.000000  0.123501  1
  Mn  Mn1  1  0.909343  0.000000  0.876499  1
  Mn  Mn2  1  0.977460  0.000000  0.624194  1
  Mn  Mn3  1  0.022540  0.000000  0.375806  1
  Mn  Mn4  1  0.500000  0.500000  0.000000  1
  Mn  Mn5  1  0.447799  0.500000  0.749247  1
  Mn  Mn6  1  0.500000  0.500000  0.500000  1
  Mn  Mn7  1  0.552201  0.500000  0.250753  1
  O  O8  1  0.756641  0.500000  0.922967  1
  O  O9  1  0.686505  0.000000  0.549100  1
  O  O10  1  0.638042  0.000000  0.798348  1
  O  O11  1  0.731943  0.000000  0.300546  1
  O  O12  1  0.268057  0.000000  0.699454  1
  O  O13  1  0.313495  0.000000  0.450900  1
  O  O14  1  0.361958  0.000000  0.201652  1
  O  O15  1  0.243359  0.500000  0.077033  1
  F  F16  1  0.786659  0.500000  0.672436  1
  F  F17  1  0.827636  0.500000  0.422491  1
  F  F18  1  0.876971  0.500000  0.168101  1
  F  F19  1  0.739087  0.000000  0.049507  1
  F  F20  1  0.260913  0.000000  0.950493  1
  F  F21  1  0.123029  0.500000  0.831899  1
  F  F22  1  0.172364  0.500000  0.577509  1
  F  F23  1  0.213341  0.500000  0.327564  1
