# generated using pymatgen
data_TiFe3Cu2(PO4)6
_symmetry_space_group_name_H-M   'P 1'
_cell_length_a   8.54587593
_cell_length_b   8.54587593
_cell_length_c   8.54587593
_cell_angle_alpha   60.58865707
_cell_angle_beta   60.58865707
_cell_angle_gamma   60.58865707
_symmetry_Int_Tables_number   1
_chemical_formula_structural   TiFe3Cu2(PO4)6
_chemical_formula_sum   'Ti1 Fe3 Cu2 P6 O24'
_cell_volume   447.18890519
_cell_formula_units_Z   1
loop_
 _symmetry_equiv_pos_site_id
 _symmetry_equiv_pos_as_xyz
  1  'x, y, z'
loop_
 _atom_site_type_symbol
 _atom_site_label
 _atom_site_symmetry_multiplicity
 _atom_site_fract_x
 _atom_site_fract_y
 _atom_site_fract_z
 _atom_site_occupancy
  Ti  Ti0  1  0.143710  0.143710  0.143710  1
  Fe  Fe1  1  0.855543  0.855543  0.855543  1
  Fe  Fe2  1  0.643798  0.643798  0.643798  1
  Fe  Fe3  1  0.355905  0.355905  0.355905  1
  Cu  Cu4  1  0.999234  0.999234  0.999234  1
  Cu  Cu5  1  0.499402  0.499402  0.499402  1
  P  P6  1  0.250630  0.545212  0.955411  1
  P  P7  1  0.955411  0.250630  0.545212  1
  P  P8  1  0.545212  0.955411  0.250630  1
  P  P9  1  0.749188  0.456629  0.044261  1
  P  P10  1  0.456629  0.044261  0.749188  1
  P  P11  1  0.044261  0.749188  0.456629  1
  O  O12  1  0.887048  0.686741  0.493237  1
  O  O13  1  0.686741  0.493237  0.887048  1
  O  O14  1  0.939843  0.088321  0.740677  1
  O  O15  1  0.493237  0.887048  0.686741  1
  O  O16  1  0.004873  0.183888  0.382089  1
  O  O17  1  0.759755  0.412607  0.552357  1
  O  O18  1  0.740677  0.939844  0.088321  1
  O  O19  1  0.552357  0.759755  0.412607  1
  O  O20  1  0.814869  0.612628  0.005084  1
  O  O21  1  0.412607  0.552357  0.759755  1
  O  O22  1  0.913256  0.258790  0.061370  1
  O  O23  1  0.612628  0.005084  0.814869  1
  O  O24  1  0.382089  0.004873  0.183888  1
  O  O25  1  0.088321  0.740677  0.939843  1
  O  O26  1  0.588108  0.440374  0.242169  1
  O  O27  1  0.183888  0.382089  0.004873  1
  O  O28  1  0.440374  0.242169  0.588108  1
  O  O29  1  0.258790  0.061370  0.913256  1
  O  O30  1  0.242169  0.588108  0.440374  1
  O  O31  1  0.005084  0.814869  0.612628  1
  O  O32  1  0.505537  0.111860  0.315594  1
  O  O33  1  0.061370  0.913256  0.258790  1
  O  O34  1  0.315594  0.505537  0.111860  1
  O  O35  1  0.111860  0.315594  0.505537  1
