# generated using pymatgen
data_Sr2Li2Nb4O13
_symmetry_space_group_name_H-M   'P 1'
_cell_length_a   17.48993075
_cell_length_b   17.48993075
_cell_length_c   17.48993075
_cell_angle_alpha   166.85181398
_cell_angle_beta   166.85181398
_cell_angle_gamma   18.63560532
_symmetry_Int_Tables_number   1
_chemical_formula_structural   Sr2Li2Nb4O13
_chemical_formula_sum   'Sr2 Li2 Nb4 O13'
_cell_volume   276.80602319
_cell_formula_units_Z   1
loop_
 _symmetry_equiv_pos_site_id
 _symmetry_equiv_pos_as_xyz
  1  'x, y, z'
loop_
 _atom_site_type_symbol
 _atom_site_label
 _atom_site_symmetry_multiplicity
 _atom_site_fract_x
 _atom_site_fract_y
 _atom_site_fract_z
 _atom_site_occupancy
  Sr  Sr0  1  0.383512  0.383512  0.000000  1
  Sr  Sr1  1  0.616488  0.616488  0.000000  1
  Li  Li2  1  0.250000  0.750000  0.500000  1
  Li  Li3  1  0.750000  0.250000  0.500000  1
  Nb  Nb4  1  0.056187  0.056187  0.000000  1
  Nb  Nb5  1  0.178780  0.178780  0.000000  1
  Nb  Nb6  1  0.943813  0.943813  0.000000  1
  Nb  Nb7  1  0.821220  0.821220  0.000000  1
  O  O8  1  0.000000  0.000000  0.000000  1
  O  O9  1  0.437620  0.937620  0.500000  1
  O  O10  1  0.326770  0.826770  0.500000  1
  O  O11  1  0.173230  0.673230  0.500000  1
  O  O12  1  0.062380  0.562380  0.500000  1
  O  O13  1  0.233816  0.233816  0.000000  1
  O  O14  1  0.116924  0.116924  0.000000  1
  O  O15  1  0.883076  0.883076  0.000000  1
  O  O16  1  0.766184  0.766184  0.000000  1
  O  O17  1  0.826770  0.326770  0.500000  1
  O  O18  1  0.937620  0.437620  0.500000  1
  O  O19  1  0.562380  0.062380  0.500000  1
  O  O20  1  0.673230  0.173230  0.500000  1
