# generated using pymatgen
data_LiFe(PO3)4
_symmetry_space_group_name_H-M   'P 1'
_cell_length_a   7.21207069
_cell_length_b   7.21207069
_cell_length_c   10.06200455
_cell_angle_alpha   66.53833954
_cell_angle_beta   113.46166046
_cell_angle_gamma   109.76421448
_symmetry_Int_Tables_number   1
_chemical_formula_structural   LiFe(PO3)4
_chemical_formula_sum   'Li2 Fe2 P8 O24'
_cell_volume   430.25309214
_cell_formula_units_Z   2
loop_
 _symmetry_equiv_pos_site_id
 _symmetry_equiv_pos_as_xyz
  1  'x, y, z'
loop_
 _atom_site_type_symbol
 _atom_site_label
 _atom_site_symmetry_multiplicity
 _atom_site_fract_x
 _atom_site_fract_y
 _atom_site_fract_z
 _atom_site_occupancy
  Li  Li0  1  0.998906  0.492800  0.000247  1
  Li  Li1  1  0.507200  0.001094  0.500247  1
  Fe  Fe2  1  0.051939  0.048477  0.249284  1
  Fe  Fe3  1  0.951523  0.948061  0.749284  1
  P  P4  1  0.270447  0.246256  0.977384  1
  P  P5  1  0.691084  0.284428  0.198588  1
  P  P6  1  0.286906  0.685572  0.301903  1
  P  P7  1  0.249686  0.265740  0.519915  1
  P  P8  1  0.753744  0.729553  0.477384  1
  P  P9  1  0.715572  0.308916  0.698588  1
  P  P10  1  0.314428  0.713094  0.801903  1
  P  P11  1  0.734260  0.750314  0.019915  1
  O  O12  1  0.189401  0.267914  0.087076  1
  O  O13  1  0.351820  0.808688  0.654934  1
  O  O14  1  0.267957  0.877633  0.319987  1
  O  O15  1  0.298472  0.461392  0.846574  1
  O  O16  1  0.501783  0.211079  0.061188  1
  O  O17  1  0.153247  0.080338  0.902467  1
  O  O18  1  0.210162  0.495769  0.437922  1
  O  O19  1  0.191312  0.648180  0.154934  1
  O  O20  1  0.732086  0.810599  0.587076  1
  O  O21  1  0.085947  0.142728  0.595830  1
  O  O22  1  0.880570  0.262939  0.178816  1
  O  O23  1  0.538608  0.701528  0.346574  1
  O  O24  1  0.465577  0.298111  0.649044  1
  O  O25  1  0.122367  0.732043  0.819987  1
  O  O26  1  0.919662  0.846753  0.402467  1
  O  O27  1  0.272705  0.186705  0.409565  1
  O  O28  1  0.807225  0.346522  0.847182  1
  O  O29  1  0.788921  0.498217  0.561188  1
  O  O30  1  0.857272  0.914053  0.095830  1
  O  O31  1  0.504231  0.789838  0.937922  1
  O  O32  1  0.701889  0.534423  0.149044  1
  O  O33  1  0.737061  0.119430  0.678816  1
  O  O34  1  0.653478  0.192775  0.347182  1
  O  O35  1  0.813295  0.727295  0.909565  1
