# generated using pymatgen
data_Mn2PO5
_symmetry_space_group_name_H-M   'P 1'
_cell_length_a   6.45080549
_cell_length_b   6.42874089
_cell_length_c   8.70570479
_cell_angle_alpha   90.00000000
_cell_angle_beta   103.08872725
_cell_angle_gamma   90.00000000
_symmetry_Int_Tables_number   1
_chemical_formula_structural   Mn2PO5
_chemical_formula_sum   'Mn8 P4 O20'
_cell_volume   351.65105206
_cell_formula_units_Z   4
loop_
 _symmetry_equiv_pos_site_id
 _symmetry_equiv_pos_as_xyz
  1  'x, y, z'
loop_
 _atom_site_type_symbol
 _atom_site_label
 _atom_site_symmetry_multiplicity
 _atom_site_fract_x
 _atom_site_fract_y
 _atom_site_fract_z
 _atom_site_occupancy
  Mn  Mn0  1  0.009827  0.618352  0.845398  1
  Mn  Mn1  1  0.509827  0.881648  0.845398  1
  Mn  Mn2  1  0.220477  0.646801  0.508936  1
  Mn  Mn3  1  0.279523  0.146801  0.491064  1
  Mn  Mn4  1  0.720477  0.853199  0.508936  1
  Mn  Mn5  1  0.779523  0.353199  0.491064  1
  Mn  Mn6  1  0.490173  0.118352  0.154602  1
  Mn  Mn7  1  0.990173  0.381648  0.154602  1
  P  P8  1  0.005716  0.088833  0.790962  1
  P  P9  1  0.505716  0.411167  0.790962  1
  P  P10  1  0.494284  0.588833  0.209038  1
  P  P11  1  0.994284  0.911167  0.209038  1
  O  O12  1  0.994811  0.278848  0.894818  1
  O  O13  1  0.174770  0.926194  0.865176  1
  O  O14  1  0.494811  0.221152  0.894818  1
  O  O15  1  0.290424  0.536700  0.746295  1
  O  O16  1  0.674770  0.573806  0.865176  1
  O  O17  1  0.790424  0.963300  0.746295  1
  O  O18  1  0.379181  0.891389  0.596371  1
  O  O19  1  0.535534  0.336202  0.624822  1
  O  O20  1  0.879181  0.608611  0.596371  1
  O  O21  1  0.035534  0.163798  0.624822  1
  O  O22  1  0.964466  0.836202  0.375178  1
  O  O23  1  0.120819  0.391389  0.403629  1
  O  O24  1  0.464466  0.663798  0.375178  1
  O  O25  1  0.620819  0.108611  0.403629  1
  O  O26  1  0.209576  0.036700  0.253705  1
  O  O27  1  0.325230  0.426194  0.134824  1
  O  O28  1  0.709576  0.463300  0.253705  1
  O  O29  1  0.505189  0.778848  0.105182  1
  O  O30  1  0.825230  0.073806  0.134824  1
  O  O31  1  0.005189  0.721152  0.105182  1
