# generated using pymatgen
data_Li3Mn5O2F9
_symmetry_space_group_name_H-M   'P 1'
_cell_length_a   6.64804825
_cell_length_b   6.93082680
_cell_length_c   10.76251333
_cell_angle_alpha   81.12898265
_cell_angle_beta   84.44906277
_cell_angle_gamma   77.73318397
_symmetry_Int_Tables_number   1
_chemical_formula_structural   Li3Mn5O2F9
_chemical_formula_sum   'Li6 Mn10 O4 F18'
_cell_volume   477.72819797
_cell_formula_units_Z   2
loop_
 _symmetry_equiv_pos_site_id
 _symmetry_equiv_pos_as_xyz
  1  'x, y, z'
loop_
 _atom_site_type_symbol
 _atom_site_label
 _atom_site_symmetry_multiplicity
 _atom_site_fract_x
 _atom_site_fract_y
 _atom_site_fract_z
 _atom_site_occupancy
  Li  Li0  1  0.799949  0.792940  0.995990  1
  Li  Li1  1  0.778182  0.864951  0.534086  1
  Li  Li2  1  0.574343  0.573827  0.730932  1
  Li  Li3  1  0.423742  0.411841  0.254176  1
  Li  Li4  1  0.185764  0.151363  0.458810  1
  Li  Li5  1  0.262720  0.206620  0.041531  1
  Mn  Mn6  1  0.999453  0.978726  0.767676  1
  Mn  Mn7  1  0.535208  0.910296  0.263601  1
  Mn  Mn8  1  0.893225  0.520457  0.219855  1
  Mn  Mn9  1  0.312414  0.699215  0.987604  1
  Mn  Mn10  1  0.299515  0.678387  0.515329  1
  Mn  Mn11  1  0.642359  0.342877  0.495652  1
  Mn  Mn12  1  0.716398  0.292762  0.993538  1
  Mn  Mn13  1  0.117075  0.495106  0.781337  1
  Mn  Mn14  1  0.451470  0.121679  0.748717  1
  Mn  Mn15  1  0.025156  0.944853  0.250772  1
  O  O16  1  0.825274  0.826032  0.174891  1
  O  O17  1  0.252637  0.908040  0.370566  1
  O  O18  1  0.390184  0.422020  0.661469  1
  O  O19  1  0.055477  0.723735  0.888936  1
  F  F20  1  0.731065  0.039094  0.384830  1
  F  F21  1  0.619189  0.672371  0.549058  1
  F  F22  1  0.816068  0.422472  0.806077  1
  F  F23  1  0.488454  0.808120  0.816241  1
  F  F24  1  0.940556  0.344842  0.406689  1
  F  F25  1  0.310755  0.925484  0.100478  1
  F  F26  1  0.970281  0.251063  0.122252  1
  F  F27  1  0.648964  0.578114  0.050903  1
  F  F28  1  0.591973  0.560688  0.314710  1
  F  F29  1  0.400719  0.396244  0.928768  1
  F  F30  1  0.710642  0.053607  0.894659  1
  F  F31  1  0.010547  0.722327  0.617446  1
  F  F32  1  0.512519  0.205741  0.153759  1
  F  F33  1  0.749935  0.086295  0.634293  1
  F  F34  1  0.202233  0.539664  0.164866  1
  F  F35  1  0.358109  0.335925  0.424362  1
  F  F36  1  0.162854  0.159669  0.866208  1
  F  F37  1  0.234592  0.032558  0.628932  1
