# generated using pymatgen
data_LuTa3O9
_symmetry_space_group_name_H-M   'P 1'
_cell_length_a   6.43588512
_cell_length_b   7.62050425
_cell_length_c   12.61095979
_cell_angle_alpha   90.00000000
_cell_angle_beta   90.00000000
_cell_angle_gamma   90.00000000
_symmetry_Int_Tables_number   1
_chemical_formula_structural   LuTa3O9
_chemical_formula_sum   'Lu4 Ta12 O36'
_cell_volume   618.50061236
_cell_formula_units_Z   4
loop_
 _symmetry_equiv_pos_site_id
 _symmetry_equiv_pos_as_xyz
  1  'x, y, z'
loop_
 _atom_site_type_symbol
 _atom_site_label
 _atom_site_symmetry_multiplicity
 _atom_site_fract_x
 _atom_site_fract_y
 _atom_site_fract_z
 _atom_site_occupancy
  Lu  Lu0  1  0.054981  0.250000  0.958774  1
  Lu  Lu1  1  0.445019  0.750000  0.458774  1
  Lu  Lu2  1  0.554981  0.250000  0.541226  1
  Lu  Lu3  1  0.945019  0.750000  0.041226  1
  Ta  Ta4  1  0.000000  0.000000  0.500000  1
  Ta  Ta5  1  0.000000  0.500000  0.500000  1
  Ta  Ta6  1  0.205287  0.002660  0.212573  1
  Ta  Ta7  1  0.205287  0.497340  0.212573  1
  Ta  Ta8  1  0.294713  0.502660  0.712573  1
  Ta  Ta9  1  0.294713  0.997340  0.712573  1
  Ta  Ta10  1  0.500000  0.000000  0.000000  1
  Ta  Ta11  1  0.500000  0.500000  0.000000  1
  Ta  Ta12  1  0.705287  0.002660  0.287427  1
  Ta  Ta13  1  0.705287  0.497340  0.287427  1
  Ta  Ta14  1  0.794713  0.502660  0.787427  1
  Ta  Ta15  1  0.794713  0.997340  0.787427  1
  O  O16  1  0.016005  0.042413  0.342883  1
  O  O17  1  0.016005  0.457587  0.342883  1
  O  O18  1  0.087533  0.750000  0.475046  1
  O  O19  1  0.102367  0.039257  0.833078  1
  O  O20  1  0.102367  0.460743  0.833078  1
  O  O21  1  0.165152  0.250000  0.169670  1
  O  O22  1  0.206175  0.750000  0.196747  1
  O  O23  1  0.204562  0.541075  0.035960  1
  O  O24  1  0.204562  0.958925  0.035960  1
  O  O25  1  0.295438  0.458925  0.535960  1
  O  O26  1  0.295438  0.041075  0.535960  1
  O  O27  1  0.293825  0.250000  0.696747  1
  O  O28  1  0.334848  0.750000  0.669670  1
  O  O29  1  0.397633  0.539257  0.333078  1
  O  O30  1  0.397633  0.960743  0.333078  1
  O  O31  1  0.412467  0.250000  0.975046  1
  O  O32  1  0.483995  0.542413  0.842883  1
  O  O33  1  0.483995  0.957587  0.842883  1
  O  O34  1  0.516005  0.042413  0.157117  1
  O  O35  1  0.516005  0.457587  0.157117  1
  O  O36  1  0.587533  0.750000  0.024954  1
  O  O37  1  0.602367  0.039257  0.666922  1
  O  O38  1  0.602367  0.460743  0.666922  1
  O  O39  1  0.665152  0.250000  0.330330  1
  O  O40  1  0.706175  0.750000  0.303253  1
  O  O41  1  0.704562  0.541075  0.464040  1
  O  O42  1  0.704562  0.958925  0.464040  1
  O  O43  1  0.795438  0.041075  0.964040  1
  O  O44  1  0.795438  0.458925  0.964040  1
  O  O45  1  0.793825  0.250000  0.803253  1
  O  O46  1  0.834848  0.750000  0.830330  1
  O  O47  1  0.897633  0.539257  0.166922  1
  O  O48  1  0.897633  0.960743  0.166922  1
  O  O49  1  0.912467  0.250000  0.524954  1
  O  O50  1  0.983995  0.542413  0.657117  1
  O  O51  1  0.983995  0.957587  0.657117  1
