# generated using pymatgen
data_Ba2LiTi11O24
_symmetry_space_group_name_H-M   'P 1'
_cell_length_a   7.33649255
_cell_length_b   7.39610699
_cell_length_c   8.96521791
_cell_angle_alpha   101.86263930
_cell_angle_beta   101.91066110
_cell_angle_gamma   87.68192981
_symmetry_Int_Tables_number   1
_chemical_formula_structural   Ba2LiTi11O24
_chemical_formula_sum   'Ba2 Li1 Ti11 O24'
_cell_volume   465.82604554
_cell_formula_units_Z   1
loop_
 _symmetry_equiv_pos_site_id
 _symmetry_equiv_pos_as_xyz
  1  'x, y, z'
loop_
 _atom_site_type_symbol
 _atom_site_label
 _atom_site_symmetry_multiplicity
 _atom_site_fract_x
 _atom_site_fract_y
 _atom_site_fract_z
 _atom_site_occupancy
  Ba  Ba0  1  0.004572  0.000432  0.224691  1
  Ba  Ba1  1  0.009238  0.003933  0.781292  1
  Li  Li2  1  0.493296  0.193705  0.946327  1
  Ti  Ti3  1  0.473988  0.181934  0.617631  1
  Ti  Ti4  1  0.480567  0.184006  0.269147  1
  Ti  Ti5  1  0.189119  0.508894  0.111605  1
  Ti  Ti6  1  0.179376  0.531739  0.452698  1
  Ti  Ti7  1  0.184681  0.510610  0.787167  1
  Ti  Ti8  1  0.809803  0.478158  0.211403  1
  Ti  Ti9  1  0.811285  0.472295  0.547113  1
  Ti  Ti10  1  0.803476  0.487261  0.883238  1
  Ti  Ti11  1  0.519768  0.829156  0.729865  1
  Ti  Ti12  1  0.507499  0.832283  0.051717  1
  Ti  Ti13  1  0.522877  0.816812  0.389625  1
  O  O14  1  0.339482  0.035732  0.078486  1
  O  O15  1  0.359284  0.044024  0.400685  1
  O  O16  1  0.350700  0.038170  0.718842  1
  O  O17  1  0.287324  0.371781  0.278157  1
  O  O18  1  0.285856  0.377691  0.942234  1
  O  O19  1  0.292896  0.378808  0.611219  1
  O  O20  1  0.047732  0.644037  0.282182  1
  O  O21  1  0.048039  0.645351  0.615308  1
  O  O22  1  0.047556  0.647608  0.950117  1
  O  O23  1  0.622678  0.292693  0.484813  1
  O  O24  1  0.634586  0.294799  0.806261  1
  O  O25  1  0.634903  0.288817  0.166444  1
  O  O26  1  0.375498  0.703587  0.183973  1
  O  O27  1  0.380165  0.703979  0.511685  1
  O  O28  1  0.370219  0.710685  0.844207  1
  O  O29  1  0.952804  0.353805  0.050308  1
  O  O30  1  0.955850  0.357184  0.386561  1
  O  O31  1  0.955656  0.356708  0.716920  1
  O  O32  1  0.710877  0.628521  0.717903  1
  O  O33  1  0.703312  0.624780  0.058992  1
  O  O34  1  0.708700  0.625251  0.389765  1
  O  O35  1  0.653050  0.937459  0.934210  1
  O  O36  1  0.645470  0.953286  0.265462  1
  O  O37  1  0.647819  0.954024  0.601749  1
