# generated using pymatgen
data_CeZr11O24
_symmetry_space_group_name_H-M   'P 1'
_cell_length_a   6.90092474
_cell_length_b   7.48261073
_cell_length_c   9.74339878
_cell_angle_alpha   93.47239817
_cell_angle_beta   91.55057832
_cell_angle_gamma   116.31371910
_symmetry_Int_Tables_number   1
_chemical_formula_structural   CeZr11O24
_chemical_formula_sum   'Ce1 Zr11 O24'
_cell_volume   449.34040199
_cell_formula_units_Z   1
loop_
 _symmetry_equiv_pos_site_id
 _symmetry_equiv_pos_as_xyz
  1  'x, y, z'
loop_
 _atom_site_type_symbol
 _atom_site_label
 _atom_site_symmetry_multiplicity
 _atom_site_fract_x
 _atom_site_fract_y
 _atom_site_fract_z
 _atom_site_occupancy
  Ce  Ce0  1  0.926794  0.831316  0.632505  1
  Zr  Zr1  1  0.220976  0.950735  0.013348  1
  Zr  Zr2  1  0.116988  0.717864  0.322588  1
  Zr  Zr3  1  0.746368  0.508095  0.037102  1
  Zr  Zr4  1  0.549015  0.614644  0.339193  1
  Zr  Zr5  1  0.416504  0.839012  0.706334  1
  Zr  Zr6  1  0.080029  0.176301  0.367782  1
  Zr  Zr7  1  0.588430  0.160667  0.297855  1
  Zr  Zr8  1  0.446857  0.383433  0.659120  1
  Zr  Zr9  1  0.253384  0.492684  0.963573  1
  Zr  Zr10  1  0.879917  0.282630  0.675533  1
  Zr  Zr11  1  0.783013  0.052228  0.994296  1
  O  O12  1  0.111782  0.653594  0.091132  1
  O  O13  1  0.469632  0.853087  0.315081  1
  O  O14  1  0.865551  0.813662  0.014274  1
  O  O15  1  0.195578  0.786809  0.534204  1
  O  O16  1  0.478485  0.540336  0.129096  1
  O  O17  1  0.196355  0.479414  0.344970  1
  O  O18  1  0.157823  0.874574  0.802652  1
  O  O19  1  0.551055  0.171963  0.072563  1
  O  O20  1  0.884366  0.837991  0.394697  1
  O  O21  1  0.542792  0.673787  0.574741  1
  O  O22  1  0.224637  0.015522  0.243074  1
  O  O23  1  0.782578  0.493135  0.260843  1
  O  O24  1  0.214708  0.504353  0.741766  1
  O  O25  1  0.444764  0.319689  0.421808  1
  O  O26  1  0.769893  0.993887  0.761947  1
  O  O27  1  0.117554  0.173238  0.592217  1
  O  O28  1  0.452996  0.826812  0.932984  1
  O  O29  1  0.856064  0.127671  0.203856  1
  O  O30  1  0.794445  0.508899  0.650530  1
  O  O31  1  0.522191  0.459489  0.869935  1
  O  O32  1  0.810418  0.205028  0.463244  1
  O  O33  1  0.135843  0.185838  0.983807  1
  O  O34  1  0.523666  0.142827  0.679189  1
  O  O35  1  0.888556  0.348783  0.912163  1
