# generated using pymatgen
data_NaMnPCO7
_symmetry_space_group_name_H-M   'P 1'
_cell_length_a   9.20408156
_cell_length_b   6.23193484
_cell_length_c   10.50031581
_cell_angle_alpha   90.00000000
_cell_angle_beta   92.62902105
_cell_angle_gamma   90.00000000
_symmetry_Int_Tables_number   1
_chemical_formula_structural   NaMnPCO7
_chemical_formula_sum   'Na4 Mn4 P4 C4 O28'
_cell_volume   601.65616648
_cell_formula_units_Z   4
loop_
 _symmetry_equiv_pos_site_id
 _symmetry_equiv_pos_as_xyz
  1  'x, y, z'
loop_
 _atom_site_type_symbol
 _atom_site_label
 _atom_site_symmetry_multiplicity
 _atom_site_fract_x
 _atom_site_fract_y
 _atom_site_fract_z
 _atom_site_occupancy
  Na  Na0  1  0.237682  0.461557  0.378543  1
  Na  Na1  1  0.237682  0.038443  0.878543  1
  Na  Na2  1  0.762318  0.961557  0.121457  1
  Na  Na3  1  0.762318  0.538443  0.621457  1
  Mn  Mn4  1  0.344522  0.746049  0.108360  1
  Mn  Mn5  1  0.344522  0.753951  0.608360  1
  Mn  Mn6  1  0.655478  0.246049  0.391640  1
  Mn  Mn7  1  0.655478  0.253951  0.891640  1
  P  P8  1  0.435076  0.248498  0.138325  1
  P  P9  1  0.435076  0.251502  0.638325  1
  P  P10  1  0.564924  0.748498  0.361675  1
  P  P11  1  0.564924  0.751502  0.861675  1
  C  C12  1  0.084547  0.746256  0.136103  1
  C  C13  1  0.084547  0.753744  0.636103  1
  C  C14  1  0.915453  0.246256  0.363897  1
  C  C15  1  0.915453  0.253744  0.863897  1
  O  O16  1  0.047153  0.242573  0.347694  1
  O  O17  1  0.047153  0.257427  0.847694  1
  O  O18  1  0.145608  0.755467  0.025101  1
  O  O19  1  0.145608  0.744533  0.525101  1
  O  O20  1  0.186685  0.740395  0.229866  1
  O  O21  1  0.186685  0.759605  0.729866  1
  O  O22  1  0.334837  0.055322  0.101896  1
  O  O23  1  0.332914  0.440958  0.108677  1
  O  O24  1  0.332914  0.059042  0.608677  1
  O  O25  1  0.334837  0.444678  0.601896  1
  O  O26  1  0.477451  0.248766  0.283387  1
  O  O27  1  0.426113  0.747008  0.437268  1
  O  O28  1  0.477451  0.251234  0.783387  1
  O  O29  1  0.426113  0.752992  0.937268  1
  O  O30  1  0.573887  0.247008  0.062732  1
  O  O31  1  0.522549  0.748766  0.216613  1
  O  O32  1  0.573887  0.252992  0.562732  1
  O  O33  1  0.522549  0.751234  0.716613  1
  O  O34  1  0.665163  0.555322  0.398104  1
  O  O35  1  0.667086  0.940958  0.391323  1
  O  O36  1  0.667086  0.559042  0.891323  1
  O  O37  1  0.665163  0.944678  0.898104  1
  O  O38  1  0.813315  0.240395  0.270134  1
  O  O39  1  0.813315  0.259605  0.770134  1
  O  O40  1  0.854392  0.255467  0.474899  1
  O  O41  1  0.854392  0.244533  0.974899  1
  O  O42  1  0.952847  0.742573  0.152306  1
  O  O43  1  0.952847  0.757427  0.652306  1
