# generated using pymatgen
data_K2CrPCO7
_symmetry_space_group_name_H-M   'P 1'
_cell_length_a   5.56938162
_cell_length_b   6.69013223
_cell_length_c   9.66339351
_cell_angle_alpha   90.00000000
_cell_angle_beta   90.36386853
_cell_angle_gamma   90.00000000
_symmetry_Int_Tables_number   1
_chemical_formula_structural   K2CrPCO7
_chemical_formula_sum   'K4 Cr2 P2 C2 O14'
_cell_volume   360.04981017
_cell_formula_units_Z   2
loop_
 _symmetry_equiv_pos_site_id
 _symmetry_equiv_pos_as_xyz
  1  'x, y, z'
loop_
 _atom_site_type_symbol
 _atom_site_label
 _atom_site_symmetry_multiplicity
 _atom_site_fract_x
 _atom_site_fract_y
 _atom_site_fract_z
 _atom_site_occupancy
  K  K0  1  0.243910  0.476312  0.245745  1
  K  K1  1  0.243910  0.023688  0.245745  1
  K  K2  1  0.756090  0.523688  0.754255  1
  K  K3  1  0.756090  0.976312  0.754255  1
  Cr  Cr4  1  0.769243  0.750000  0.354915  1
  Cr  Cr5  1  0.230757  0.250000  0.645085  1
  P  P6  1  0.720120  0.250000  0.431746  1
  P  P7  1  0.279880  0.750000  0.568254  1
  C  C8  1  0.728509  0.750000  0.100065  1
  C  C9  1  0.271491  0.250000  0.899935  1
  O  O10  1  0.293186  0.250000  0.027962  1
  O  O11  1  0.935637  0.750000  0.167363  1
  O  O12  1  0.545321  0.750000  0.187299  1
  O  O13  1  0.762243  0.061315  0.341043  1
  O  O14  1  0.762243  0.438685  0.341043  1
  O  O15  1  0.106189  0.750000  0.441851  1
  O  O16  1  0.452898  0.250000  0.480735  1
  O  O17  1  0.547102  0.750000  0.519265  1
  O  O18  1  0.893811  0.250000  0.558149  1
  O  O19  1  0.237757  0.561315  0.658957  1
  O  O20  1  0.237757  0.938685  0.658957  1
  O  O21  1  0.454679  0.250000  0.812701  1
  O  O22  1  0.064363  0.250000  0.832637  1
  O  O23  1  0.706814  0.750000  0.972038  1
