# generated using pymatgen
data_Na6Sn2O7
_symmetry_space_group_name_H-M   'P 1'
_cell_length_a   6.26980104
_cell_length_b   6.26980104
_cell_length_c   12.33010922
_cell_angle_alpha   77.95345902
_cell_angle_beta   102.04654098
_cell_angle_gamma   89.49978437
_symmetry_Int_Tables_number   1
_chemical_formula_structural   Na6Sn2O7
_chemical_formula_sum   'Na12 Sn4 O14'
_cell_volume   462.89552335
_cell_formula_units_Z   2
loop_
 _symmetry_equiv_pos_site_id
 _symmetry_equiv_pos_as_xyz
  1  'x, y, z'
loop_
 _atom_site_type_symbol
 _atom_site_label
 _atom_site_symmetry_multiplicity
 _atom_site_fract_x
 _atom_site_fract_y
 _atom_site_fract_z
 _atom_site_occupancy
  Na  Na0  1  0.794184  0.919611  0.411618  1
  Na  Na1  1  0.474156  0.985696  0.129089  1
  Na  Na2  1  0.500000  0.500000  0.500000  1
  Na  Na3  1  0.455080  0.455080  0.250000  1
  Na  Na4  1  0.080389  0.205816  0.911618  1
  Na  Na5  1  0.014304  0.525844  0.629089  1
  Na  Na6  1  0.985696  0.474156  0.370911  1
  Na  Na7  1  0.919611  0.794184  0.088382  1
  Na  Na8  1  0.544920  0.544920  0.750000  1
  Na  Na9  1  0.525844  0.014304  0.870911  1
  Na  Na10  1  0.205816  0.080389  0.588382  1
  Na  Na11  1  0.500000  0.500000  0.000000  1
  Sn  Sn12  1  0.940497  0.260903  0.132111  1
  Sn  Sn13  1  0.260903  0.940497  0.367889  1
  Sn  Sn14  1  0.739097  0.059503  0.632111  1
  Sn  Sn15  1  0.059503  0.739097  0.867889  1
  O  O16  1  0.234691  0.305673  0.100218  1
  O  O17  1  0.694327  0.765309  0.600218  1
  O  O18  1  0.482918  0.786886  0.315766  1
  O  O19  1  0.737701  0.155957  0.010983  1
  O  O20  1  0.973115  0.973115  0.250000  1
  O  O21  1  0.155957  0.737701  0.489017  1
  O  O22  1  0.213114  0.517082  0.815766  1
  O  O23  1  0.786886  0.482918  0.184234  1
  O  O24  1  0.844043  0.262299  0.510983  1
  O  O25  1  0.026885  0.026885  0.750000  1
  O  O26  1  0.262299  0.844043  0.989017  1
  O  O27  1  0.517082  0.213114  0.684234  1
  O  O28  1  0.305673  0.234691  0.399782  1
  O  O29  1  0.765309  0.694327  0.899782  1
