# generated using pymatgen
data_LiVP2O7
_symmetry_space_group_name_H-M   'P 1'
_cell_length_a   7.18935248
_cell_length_b   8.10965669
_cell_length_c   9.61142713
_cell_angle_alpha   90.00000000
_cell_angle_beta   110.81273606
_cell_angle_gamma   90.00000000
_symmetry_Int_Tables_number   1
_chemical_formula_structural   LiVP2O7
_chemical_formula_sum   'Li4 V4 P8 O28'
_cell_volume   523.81034674
_cell_formula_units_Z   4
loop_
 _symmetry_equiv_pos_site_id
 _symmetry_equiv_pos_as_xyz
  1  'x, y, z'
loop_
 _atom_site_type_symbol
 _atom_site_label
 _atom_site_symmetry_multiplicity
 _atom_site_fract_x
 _atom_site_fract_y
 _atom_site_fract_z
 _atom_site_occupancy
  Li  Li0  1  0.198644  0.527950  0.223384  1
  Li  Li1  1  0.801356  0.472050  0.776616  1
  Li  Li2  1  0.801356  0.027950  0.276616  1
  Li  Li3  1  0.198644  0.972050  0.723384  1
  V  V4  1  0.760864  0.005058  0.748889  1
  V  V5  1  0.760864  0.494942  0.248889  1
  V  V6  1  0.239136  0.994942  0.251111  1
  V  V7  1  0.239136  0.505058  0.751111  1
  P  P8  1  0.169211  0.210134  0.949978  1
  P  P9  1  0.169211  0.289866  0.449978  1
  P  P10  1  0.830789  0.789866  0.050022  1
  P  P11  1  0.414419  0.761620  0.545337  1
  P  P12  1  0.585581  0.238380  0.454663  1
  P  P13  1  0.414419  0.738380  0.045337  1
  P  P14  1  0.830789  0.710134  0.550022  1
  P  P15  1  0.585581  0.261620  0.954663  1
  O  O16  1  0.811879  0.804734  0.887121  1
  O  O17  1  0.188121  0.195266  0.112879  1
  O  O18  1  0.886698  0.613290  0.106873  1
  O  O19  1  0.704894  0.138966  0.904571  1
  O  O20  1  0.380324  0.164748  0.933560  1
  O  O21  1  0.312721  0.792441  0.377519  1
  O  O22  1  0.043362  0.078647  0.842075  1
  O  O23  1  0.531851  0.080771  0.357965  1
  O  O24  1  0.312721  0.707559  0.877519  1
  O  O25  1  0.687279  0.292441  0.122481  1
  O  O26  1  0.886698  0.886710  0.606873  1
  O  O27  1  0.956638  0.578647  0.657925  1
  O  O28  1  0.380324  0.335252  0.433560  1
  O  O29  1  0.043362  0.421353  0.342075  1
  O  O30  1  0.113302  0.113290  0.393127  1
  O  O31  1  0.468149  0.919229  0.642035  1
  O  O32  1  0.811879  0.695266  0.387121  1
  O  O33  1  0.619676  0.835252  0.066440  1
  O  O34  1  0.704894  0.361034  0.404571  1
  O  O35  1  0.113302  0.386710  0.893127  1
  O  O36  1  0.295106  0.638966  0.595429  1
  O  O37  1  0.619676  0.664748  0.566440  1
  O  O38  1  0.687279  0.207559  0.622481  1
  O  O39  1  0.468149  0.580771  0.142035  1
  O  O40  1  0.188121  0.304734  0.612879  1
  O  O41  1  0.295106  0.861034  0.095429  1
  O  O42  1  0.956638  0.921353  0.157925  1
  O  O43  1  0.531851  0.419229  0.857965  1
