# generated using pymatgen
data_LiTi8O16
_symmetry_space_group_name_H-M   'P 1'
_cell_length_a   7.79155855
_cell_length_b   7.79155855
_cell_length_c   9.62083912
_cell_angle_alpha   90.00000000
_cell_angle_beta   90.00000000
_cell_angle_gamma   99.87170330
_symmetry_Int_Tables_number   1
_chemical_formula_structural   LiTi8O16
_chemical_formula_sum   'Li2 Ti16 O32'
_cell_volume   575.41799486
_cell_formula_units_Z   2
loop_
 _symmetry_equiv_pos_site_id
 _symmetry_equiv_pos_as_xyz
  1  'x, y, z'
loop_
 _atom_site_type_symbol
 _atom_site_label
 _atom_site_symmetry_multiplicity
 _atom_site_fract_x
 _atom_site_fract_y
 _atom_site_fract_z
 _atom_site_occupancy
  Li  Li0  1  0.158388  0.158388  0.543617  1
  Li  Li1  1  0.841612  0.841612  0.043617  1
  Ti  Ti2  1  0.271879  0.524938  0.634713  1
  Ti  Ti3  1  0.016500  0.765492  0.643679  1
  Ti  Ti4  1  0.367833  0.367833  0.355839  1
  Ti  Ti5  1  0.101516  0.603495  0.363654  1
  Ti  Ti6  1  0.147786  0.147786  0.864325  1
  Ti  Ti7  1  0.396505  0.898484  0.863654  1
  Ti  Ti8  1  0.898484  0.396505  0.863654  1
  Ti  Ti9  1  0.632167  0.632167  0.855839  1
  Ti  Ti10  1  0.234508  0.983500  0.143679  1
  Ti  Ti11  1  0.728121  0.475062  0.134713  1
  Ti  Ti12  1  0.475062  0.728121  0.134713  1
  Ti  Ti13  1  0.983500  0.234508  0.143679  1
  Ti  Ti14  1  0.765492  0.016500  0.643679  1
  Ti  Ti15  1  0.524938  0.271879  0.634713  1
  Ti  Ti16  1  0.852214  0.852214  0.364325  1
  Ti  Ti17  1  0.603495  0.101516  0.363654  1
  O  O18  1  0.411586  0.664415  0.774147  1
  O  O19  1  0.278578  0.779211  0.035034  1
  O  O20  1  0.220789  0.721422  0.535034  1
  O  O21  1  0.335585  0.588414  0.274147  1
  O  O22  1  0.281756  0.281756  0.716596  1
  O  O23  1  0.040823  0.539813  0.727849  1
  O  O24  1  0.787570  0.787570  0.728317  1
  O  O25  1  0.900570  0.651713  0.465320  1
  O  O26  1  0.396656  0.153833  0.464713  1
  O  O27  1  0.153833  0.396656  0.464713  1
  O  O28  1  0.099430  0.348287  0.965320  1
  O  O29  1  0.846167  0.603344  0.964713  1
  O  O30  1  0.348287  0.099430  0.965320  1
  O  O31  1  0.212430  0.212430  0.228317  1
  O  O32  1  0.959177  0.460187  0.227849  1
  O  O33  1  0.718244  0.718244  0.216596  1
  O  O34  1  0.166015  0.916052  0.771585  1
  O  O35  1  0.664415  0.411586  0.774147  1
  O  O36  1  0.916052  0.166015  0.771585  1
  O  O37  1  0.779211  0.278578  0.035034  1
  O  O38  1  0.523531  0.523531  0.035141  1
  O  O39  1  0.026820  0.026820  0.036370  1
  O  O40  1  0.721422  0.220789  0.535034  1
  O  O41  1  0.476469  0.476469  0.535141  1
  O  O42  1  0.973180  0.973180  0.536370  1
  O  O43  1  0.833985  0.083948  0.271585  1
  O  O44  1  0.588414  0.335585  0.274147  1
  O  O45  1  0.083948  0.833985  0.271585  1
  O  O46  1  0.539813  0.040823  0.727849  1
  O  O47  1  0.651713  0.900570  0.465320  1
  O  O48  1  0.603344  0.846167  0.964713  1
  O  O49  1  0.460187  0.959177  0.227849  1
