# generated using pymatgen
data_Li2MnP2HO8
_symmetry_space_group_name_H-M   'P 1'
_cell_length_a   4.77163967
_cell_length_b   8.32631772
_cell_length_c   7.61765105
_cell_angle_alpha   90.00000000
_cell_angle_beta   104.42224735
_cell_angle_gamma   90.00000000
_symmetry_Int_Tables_number   1
_chemical_formula_structural   Li2MnP2HO8
_chemical_formula_sum   'Li4 Mn2 P4 H2 O16'
_cell_volume   293.11313231
_cell_formula_units_Z   2
loop_
 _symmetry_equiv_pos_site_id
 _symmetry_equiv_pos_as_xyz
  1  'x, y, z'
loop_
 _atom_site_type_symbol
 _atom_site_label
 _atom_site_symmetry_multiplicity
 _atom_site_fract_x
 _atom_site_fract_y
 _atom_site_fract_z
 _atom_site_occupancy
  Li  Li0  1  0.362726  0.633890  0.901971  1
  Li  Li1  1  0.637274  0.133890  0.098029  1
  Li  Li2  1  0.851843  0.863231  0.406409  1
  Li  Li3  1  0.148157  0.363231  0.593591  1
  Mn  Mn4  1  0.250390  0.000052  0.746208  1
  Mn  Mn5  1  0.749610  0.500052  0.253792  1
  P  P6  1  0.379229  0.646134  0.512670  1
  P  P7  1  0.620771  0.146134  0.487330  1
  P  P8  1  0.876965  0.850901  0.005382  1
  P  P9  1  0.123035  0.350901  0.994618  1
  H  H10  1  0.783489  0.489257  0.762772  1
  H  H11  1  0.216511  0.989257  0.237228  1
  O  O12  1  0.365633  0.466252  0.093238  1
  O  O13  1  0.261097  0.810574  0.547455  1
  O  O14  1  0.395610  0.167400  0.604175  1
  O  O15  1  0.508471  0.558225  0.692946  1
  O  O16  1  0.634367  0.966252  0.906762  1
  O  O17  1  0.763371  0.688970  0.048654  1
  O  O18  1  0.491529  0.058225  0.307054  1
  O  O19  1  0.604390  0.667400  0.395825  1
  O  O20  1  0.890515  0.332454  0.103504  1
  O  O21  1  0.002985  0.940025  0.192413  1
  O  O22  1  0.738903  0.310574  0.452545  1
  O  O23  1  0.866387  0.032731  0.592341  1
  O  O24  1  0.997015  0.440025  0.807587  1
  O  O25  1  0.109485  0.832454  0.896496  1
  O  O26  1  0.236629  0.188970  0.951346  1
  O  O27  1  0.133613  0.532731  0.407659  1
