# generated using pymatgen
data_NaMnPCO7
_symmetry_space_group_name_H-M   'P 1'
_cell_length_a   5.25329253
_cell_length_b   6.25809444
_cell_length_c   9.04495317
_cell_angle_alpha   90.00000000
_cell_angle_beta   92.48640353
_cell_angle_gamma   90.00000000
_symmetry_Int_Tables_number   1
_chemical_formula_structural   NaMnPCO7
_chemical_formula_sum   'Na2 Mn2 P2 C2 O14'
_cell_volume   297.07832015
_cell_formula_units_Z   2
loop_
 _symmetry_equiv_pos_site_id
 _symmetry_equiv_pos_as_xyz
  1  'x, y, z'
loop_
 _atom_site_type_symbol
 _atom_site_label
 _atom_site_symmetry_multiplicity
 _atom_site_fract_x
 _atom_site_fract_y
 _atom_site_fract_z
 _atom_site_occupancy
  Na  Na0  1  0.760869  0.524248  0.235832  1
  Na  Na1  1  0.239131  0.024248  0.764168  1
  Mn  Mn2  1  0.215588  0.238700  0.343055  1
  Mn  Mn3  1  0.784412  0.738700  0.656945  1
  P  P4  1  0.278555  0.744854  0.433233  1
  P  P5  1  0.721445  0.244854  0.566767  1
  C  C6  1  0.274346  0.255416  0.078833  1
  C  C7  1  0.725654  0.755416  0.921167  1
  O  O8  1  0.691297  0.760836  0.055016  1
  O  O9  1  0.051156  0.250219  0.139891  1
  O  O10  1  0.460069  0.252787  0.183149  1
  O  O11  1  0.215378  0.935973  0.329445  1
  O  O12  1  0.204763  0.550869  0.333187  1
  O  O13  1  0.871325  0.252453  0.424451  1
  O  O14  1  0.569208  0.735793  0.474830  1
  O  O15  1  0.430792  0.235793  0.525170  1
  O  O16  1  0.128675  0.752453  0.575549  1
  O  O17  1  0.795237  0.050869  0.666813  1
  O  O18  1  0.784622  0.435973  0.670555  1
  O  O19  1  0.539931  0.752787  0.816851  1
  O  O20  1  0.948844  0.750219  0.860109  1
  O  O21  1  0.308703  0.260836  0.944984  1
