# generated using pymatgen
data_Li2VO2F
_symmetry_space_group_name_H-M   'P 1'
_cell_length_a   3.01555676
_cell_length_b   7.35729602
_cell_length_c   13.10317952
_cell_angle_alpha   90.22924719
_cell_angle_beta   96.60011395
_cell_angle_gamma   89.99019277
_symmetry_Int_Tables_number   1
_chemical_formula_structural   Li2VO2F
_chemical_formula_sum   'Li10 V5 O10 F5'
_cell_volume   288.78264074
_cell_formula_units_Z   5
loop_
 _symmetry_equiv_pos_site_id
 _symmetry_equiv_pos_as_xyz
  1  'x, y, z'
loop_
 _atom_site_type_symbol
 _atom_site_label
 _atom_site_symmetry_multiplicity
 _atom_site_fract_x
 _atom_site_fract_y
 _atom_site_fract_z
 _atom_site_occupancy
  Li  Li0  1  0.530637  0.858916  0.057733  1
  Li  Li1  1  0.926522  0.839798  0.859914  1
  Li  Li2  1  0.732133  0.869282  0.460972  1
  Li  Li3  1  0.679882  0.132965  0.355566  1
  Li  Li4  1  0.864036  0.159661  0.729994  1
  Li  Li5  1  0.327960  0.842028  0.660606  1
  Li  Li6  1  0.150497  0.859285  0.286641  1
  Li  Li7  1  0.073867  0.148969  0.142697  1
  Li  Li8  1  0.462282  0.156351  0.926247  1
  Li  Li9  1  0.262872  0.143573  0.525041  1
  V  V10  1  0.990586  0.493494  0.994328  1
  V  V11  1  0.793866  0.500523  0.602998  1
  V  V12  1  0.587101  0.483187  0.207288  1
  V  V13  1  0.404538  0.501349  0.799888  1
  V  V14  1  0.201840  0.500321  0.403011  1
  O  O15  1  0.515661  0.360938  0.067929  1
  O  O16  1  0.733264  0.355548  0.468803  1
  O  O17  1  0.948237  0.343543  0.868230  1
  O  O18  1  0.858699  0.653306  0.737711  1
  O  O19  1  0.665746  0.643790  0.328630  1
  O  O20  1  0.326361  0.347966  0.671630  1
  O  O21  1  0.126483  0.345733  0.263958  1
  O  O22  1  0.265406  0.645895  0.538560  1
  O  O23  1  0.477673  0.653900  0.935232  1
  O  O24  1  0.203524  0.999689  0.404028  1
  F  F25  1  0.998533  0.001390  0.997559  1
  F  F26  1  0.803675  0.999655  0.610827  1
  F  F27  1  0.594643  0.992424  0.187052  1
  F  F28  1  0.051641  0.660243  0.131504  1
  F  F29  1  0.398954  0.998389  0.803349  1
