# generated using pymatgen
data_Mn2PO5
_symmetry_space_group_name_H-M   'P 1'
_cell_length_a   7.32119148
_cell_length_b   7.32119148
_cell_length_c   7.32119148
_cell_angle_alpha   135.25666680
_cell_angle_beta   135.25666680
_cell_angle_gamma   65.13165787
_symmetry_Int_Tables_number   1
_chemical_formula_structural   Mn2PO5
_chemical_formula_sum   'Mn4 P2 O10'
_cell_volume   191.63892686
_cell_formula_units_Z   2
loop_
 _symmetry_equiv_pos_site_id
 _symmetry_equiv_pos_as_xyz
  1  'x, y, z'
loop_
 _atom_site_type_symbol
 _atom_site_label
 _atom_site_symmetry_multiplicity
 _atom_site_fract_x
 _atom_site_fract_y
 _atom_site_fract_z
 _atom_site_occupancy
  Mn  Mn0  1  0.875000  0.625000  0.250000  1
  Mn  Mn1  1  0.375000  0.125000  0.750000  1
  Mn  Mn2  1  0.375000  0.625000  0.250000  1
  Mn  Mn3  1  0.375000  0.625000  0.750000  1
  P  P4  1  0.000000  0.000000  0.000000  1
  P  P5  1  0.750000  0.250000  0.500000  1
  O  O6  1  0.052149  0.318433  0.733716  1
  O  O7  1  0.068433  0.302149  0.233716  1
  O  O8  1  0.250000  0.750000  0.500000  1
  O  O9  1  0.068433  0.834718  0.766284  1
  O  O10  1  0.165282  0.931567  0.233716  1
  O  O11  1  0.584718  0.318433  0.266284  1
  O  O12  1  0.681567  0.947851  0.266284  1
  O  O13  1  0.681567  0.415282  0.733716  1
  O  O14  1  0.500000  0.500000  0.000000  1
  O  O15  1  0.697851  0.931567  0.766284  1
