# generated using pymatgen
data_Li4V2C4SO16
_symmetry_space_group_name_H-M   'P 1'
_cell_length_a   9.64812298
_cell_length_b   9.51097000
_cell_length_c   9.48717742
_cell_angle_alpha   61.04069440
_cell_angle_beta   59.60136979
_cell_angle_gamma   59.35793581
_symmetry_Int_Tables_number   1
_chemical_formula_structural   Li4V2C4SO16
_chemical_formula_sum   'Li8 V4 C8 S2 O32'
_cell_volume   615.27405656
_cell_formula_units_Z   2
loop_
 _symmetry_equiv_pos_site_id
 _symmetry_equiv_pos_as_xyz
  1  'x, y, z'
loop_
 _atom_site_type_symbol
 _atom_site_label
 _atom_site_symmetry_multiplicity
 _atom_site_fract_x
 _atom_site_fract_y
 _atom_site_fract_z
 _atom_site_occupancy
  Li  Li0  1  0.786817  0.213183  0.213183  1
  Li  Li1  1  0.059427  0.440573  0.440573  1
  Li  Li2  1  0.786388  0.786388  0.213612  1
  Li  Li3  1  0.213612  0.213612  0.786388  1
  Li  Li4  1  0.212720  0.787280  0.212720  1
  Li  Li5  1  0.213183  0.786817  0.786817  1
  Li  Li6  1  0.787280  0.212720  0.787280  1
  Li  Li7  1  0.440573  0.059427  0.059427  1
  V  V8  1  0.622761  0.624386  0.627286  1
  V  V9  1  0.627286  0.125567  0.622761  1
  V  V10  1  0.125567  0.627286  0.624386  1
  V  V11  1  0.624386  0.622761  0.125567  1
  C  C12  1  0.776116  0.402849  0.407279  1
  C  C13  1  0.413756  0.407279  0.402849  1
  C  C14  1  0.407279  0.413756  0.776116  1
  C  C15  1  0.402849  0.776116  0.413756  1
  C  C16  1  0.852444  0.467019  0.834338  1
  C  C17  1  0.846199  0.834338  0.467019  1
  C  C18  1  0.834338  0.846199  0.852444  1
  C  C19  1  0.467019  0.852444  0.846199  1
  S  S20  1  1.000000  0.000000  1.000000  1
  S  S21  1  0.250000  0.250000  0.250000  1
  O  O22  1  0.727002  0.808924  0.465607  1
  O  O23  1  0.771809  0.416211  0.268858  1
  O  O24  1  0.543123  0.268858  0.416211  1
  O  O25  1  0.465607  0.998467  0.727002  1
  O  O26  1  0.425802  0.537155  0.263548  1
  O  O27  1  0.065287  0.061321  0.807723  1
  O  O28  1  0.065669  0.807723  0.061321  1
  O  O29  1  0.781656  0.529140  0.422177  1
  O  O30  1  0.267027  0.422177  0.529140  1
  O  O31  1  0.422177  0.267027  0.781656  1
  O  O32  1  0.529140  0.781656  0.267027  1
  O  O33  1  0.061321  0.065287  0.065669  1
  O  O34  1  0.807723  0.065669  0.065287  1
  O  O35  1  0.995543  0.714056  0.459132  1
  O  O36  1  0.831269  0.459132  0.714056  1
  O  O37  1  0.263548  0.773495  0.425802  1
  O  O38  1  0.998467  0.465607  0.808923  1
  O  O39  1  0.268858  0.543123  0.771809  1
  O  O40  1  0.416211  0.771809  0.543123  1
  O  O41  1  0.442593  0.181289  0.180882  1
  O  O42  1  0.195236  0.180882  0.181289  1
  O  O43  1  0.732159  0.469674  0.981204  1
  O  O44  1  0.816962  0.981204  0.469674  1
  O  O45  1  0.469674  0.732159  0.816962  1
  O  O46  1  0.981204  0.816962  0.732159  1
  O  O47  1  0.181289  0.442593  0.195236  1
  O  O48  1  0.180882  0.195236  0.442593  1
  O  O49  1  0.808923  0.727002  0.998467  1
  O  O50  1  0.773495  0.263548  0.537155  1
  O  O51  1  0.714056  0.995543  0.831269  1
  O  O52  1  0.459132  0.831269  0.995542  1
  O  O53  1  0.537155  0.425802  0.773495  1
