# generated using pymatgen
data_Li4V3O8
_symmetry_space_group_name_H-M   'P 1'
_cell_length_a   5.92442620
_cell_length_b   5.92442620
_cell_length_c   5.92442620
_cell_angle_alpha   59.04477555
_cell_angle_beta   59.04477555
_cell_angle_gamma   59.04477555
_symmetry_Int_Tables_number   1
_chemical_formula_structural   Li4V3O8
_chemical_formula_sum   'Li4 V3 O8'
_cell_volume   143.83312148
_cell_formula_units_Z   1
loop_
 _symmetry_equiv_pos_site_id
 _symmetry_equiv_pos_as_xyz
  1  'x, y, z'
loop_
 _atom_site_type_symbol
 _atom_site_label
 _atom_site_symmetry_multiplicity
 _atom_site_fract_x
 _atom_site_fract_y
 _atom_site_fract_z
 _atom_site_occupancy
  Li  Li0  1  0.000000  0.000000  0.000000  1
  Li  Li1  1  0.000000  0.000000  0.500000  1
  Li  Li2  1  0.500000  0.000000  0.000000  1
  Li  Li3  1  0.000000  0.500000  0.000000  1
  V  V4  1  0.500000  0.500000  0.000000  1
  V  V5  1  0.000000  0.500000  0.500000  1
  V  V6  1  0.500000  0.000000  0.500000  1
  O  O7  1  0.254399  0.254399  0.254399  1
  O  O8  1  0.739537  0.771624  0.277647  1
  O  O9  1  0.277647  0.739537  0.771624  1
  O  O10  1  0.745601  0.745601  0.745601  1
  O  O11  1  0.771624  0.277647  0.739537  1
  O  O12  1  0.260463  0.228376  0.722353  1
  O  O13  1  0.722353  0.260463  0.228376  1
  O  O14  1  0.228376  0.722353  0.260463  1
