# generated using pymatgen
data_Na3Ni2P2(CO7)2
_symmetry_space_group_name_H-M   'P 1'
_cell_length_a   6.44060697
_cell_length_b   8.91951030
_cell_length_c   10.31440139
_cell_angle_alpha   88.20601435
_cell_angle_beta   89.77135815
_cell_angle_gamma   89.11834100
_symmetry_Int_Tables_number   1
_chemical_formula_structural   Na3Ni2P2(CO7)2
_chemical_formula_sum   'Na6 Ni4 P4 C4 O28'
_cell_volume   592.16784377
_cell_formula_units_Z   2
loop_
 _symmetry_equiv_pos_site_id
 _symmetry_equiv_pos_as_xyz
  1  'x, y, z'
loop_
 _atom_site_type_symbol
 _atom_site_label
 _atom_site_symmetry_multiplicity
 _atom_site_fract_x
 _atom_site_fract_y
 _atom_site_fract_z
 _atom_site_occupancy
  Na  Na0  1  0.013898  0.748362  0.875325  1
  Na  Na1  1  0.486086  0.750143  0.879491  1
  Na  Na2  1  0.452386  0.731447  0.377565  1
  Na  Na3  1  0.979113  0.261349  0.632084  1
  Na  Na4  1  0.974273  0.255254  0.114099  1
  Na  Na5  1  0.734721  0.085834  0.393704  1
  Ni  Ni6  1  0.753373  0.656865  0.607355  1
  Ni  Ni7  1  0.753647  0.655263  0.112101  1
  Ni  Ni8  1  0.262201  0.341721  0.891127  1
  Ni  Ni9  1  0.255005  0.342667  0.390926  1
  P  P10  1  0.251464  0.572435  0.641827  1
  P  P11  1  0.252512  0.569511  0.138431  1
  P  P12  1  0.753750  0.426815  0.858518  1
  P  P13  1  0.751836  0.427843  0.359846  1
  C  C14  1  0.747636  0.926977  0.642021  1
  C  C15  1  0.749980  0.924274  0.144858  1
  C  C16  1  0.251193  0.073544  0.856485  1
  C  C17  1  0.248320  0.073668  0.353841  1
  O  O18  1  0.246037  0.935342  0.838362  1
  O  O19  1  0.250702  0.936426  0.333806  1
  O  O20  1  0.740187  0.868678  0.528267  1
  O  O21  1  0.751334  0.866281  0.030684  1
  O  O22  1  0.745924  0.827309  0.737288  1
  O  O23  1  0.739920  0.823150  0.238732  1
  O  O24  1  0.063638  0.679184  0.616421  1
  O  O25  1  0.437639  0.672581  0.604738  1
  O  O26  1  0.065824  0.673405  0.100597  1
  O  O27  1  0.438647  0.670894  0.102019  1
  O  O28  1  0.752852  0.575413  0.932145  1
  O  O29  1  0.744506  0.574104  0.433000  1
  O  O30  1  0.258389  0.534735  0.791570  1
  O  O31  1  0.256080  0.531074  0.286073  1
  O  O32  1  0.762316  0.469208  0.711160  1
  O  O33  1  0.765294  0.467417  0.212207  1
  O  O34  1  0.242666  0.427043  0.567492  1
  O  O35  1  0.249011  0.422072  0.065766  1
  O  O36  1  0.569910  0.325786  0.892829  1
  O  O37  1  0.943222  0.324664  0.893114  1
  O  O38  1  0.566343  0.323434  0.388724  1
  O  O39  1  0.936487  0.320515  0.397795  1
  O  O40  1  0.256457  0.174726  0.763112  1
  O  O41  1  0.245644  0.176193  0.261296  1
  O  O42  1  0.252477  0.131396  0.969970  1
  O  O43  1  0.251337  0.129097  0.468899  1
  O  O44  1  0.757419  0.065064  0.656253  1
  O  O45  1  0.758811  0.061166  0.166047  1
