# generated using pymatgen
data_Li4Sn(PO3)6
_symmetry_space_group_name_H-M   'P 1'
_cell_length_a   7.41576811
_cell_length_b   7.41576811
_cell_length_c   14.49811631
_cell_angle_alpha   86.68332532
_cell_angle_beta   93.31667468
_cell_angle_gamma   113.76920765
_symmetry_Int_Tables_number   1
_chemical_formula_structural   Li4Sn(PO3)6
_chemical_formula_sum   'Li8 Sn2 P12 O36'
_cell_volume   727.93087250
_cell_formula_units_Z   2
loop_
 _symmetry_equiv_pos_site_id
 _symmetry_equiv_pos_as_xyz
  1  'x, y, z'
loop_
 _atom_site_type_symbol
 _atom_site_label
 _atom_site_symmetry_multiplicity
 _atom_site_fract_x
 _atom_site_fract_y
 _atom_site_fract_z
 _atom_site_occupancy
  Li  Li0  1  0.967342  0.320816  0.069357  1
  Li  Li1  1  0.679184  0.032658  0.569357  1
  Li  Li2  1  0.766958  0.428828  0.448763  1
  Li  Li3  1  0.571172  0.233042  0.948763  1
  Li  Li4  1  0.428828  0.766958  0.051237  1
  Li  Li5  1  0.233042  0.571172  0.551237  1
  Li  Li6  1  0.320816  0.967342  0.430643  1
  Li  Li7  1  0.032658  0.679184  0.930643  1
  Sn  Sn8  1  0.371204  0.371204  0.250000  1
  Sn  Sn9  1  0.628796  0.628796  0.750000  1
  P  P10  1  0.958488  0.143681  0.391672  1
  P  P11  1  0.856319  0.041512  0.891672  1
  P  P12  1  0.634134  0.069206  0.256991  1
  P  P13  1  0.930794  0.365866  0.756991  1
  P  P14  1  0.769981  0.616645  0.102143  1
  P  P15  1  0.383355  0.230019  0.602143  1
  P  P16  1  0.616645  0.769981  0.397857  1
  P  P17  1  0.230019  0.383355  0.897857  1
  P  P18  1  0.069206  0.634134  0.243009  1
  P  P19  1  0.365866  0.930794  0.743009  1
  P  P20  1  0.143681  0.958488  0.108328  1
  P  P21  1  0.041512  0.856319  0.608328  1
  O  O22  1  0.867263  0.166757  0.289559  1
  O  O23  1  0.899339  0.248309  0.461776  1
  O  O24  1  0.833243  0.132737  0.789559  1
  O  O25  1  0.751691  0.100661  0.961776  1
  O  O26  1  0.622786  0.085460  0.154756  1
  O  O27  1  0.914540  0.377214  0.654756  1
  O  O28  1  0.821211  0.496767  0.035846  1
  O  O29  1  0.523519  0.150741  0.315917  1
  O  O30  1  0.838476  0.574810  0.207589  1
  O  O31  1  0.503232  0.178789  0.535846  1
  O  O32  1  0.849259  0.476481  0.815917  1
  O  O33  1  0.425190  0.161524  0.707589  1
  O  O34  1  0.908236  0.848754  0.086901  1
  O  O35  1  0.182582  0.171979  0.120643  1
  O  O36  1  0.562769  0.600771  0.104472  1
  O  O37  1  0.151246  0.091764  0.586901  1
  O  O38  1  0.600771  0.562769  0.395528  1
  O  O39  1  0.828021  0.817418  0.620643  1
  O  O40  1  0.171979  0.182582  0.379357  1
  O  O41  1  0.399229  0.437231  0.604472  1
  O  O42  1  0.848754  0.908236  0.413099  1
  O  O43  1  0.437231  0.399229  0.895528  1
  O  O44  1  0.817418  0.828021  0.879357  1
  O  O45  1  0.091764  0.151246  0.913099  1
  O  O46  1  0.574810  0.838476  0.292411  1
  O  O47  1  0.150741  0.523519  0.184083  1
  O  O48  1  0.496768  0.821211  0.464154  1
  O  O49  1  0.161524  0.425190  0.792411  1
  O  O50  1  0.476481  0.849259  0.684083  1
  O  O51  1  0.178789  0.503232  0.964154  1
  O  O52  1  0.085460  0.622786  0.345244  1
  O  O53  1  0.377214  0.914540  0.845244  1
  O  O54  1  0.248309  0.899339  0.038224  1
  O  O55  1  0.166757  0.867263  0.210441  1
  O  O56  1  0.100661  0.751691  0.538224  1
  O  O57  1  0.132737  0.833243  0.710441  1
