# generated using pymatgen
data_Li4Ti4Mn(Fe2O9)2
_symmetry_space_group_name_H-M   'P 1'
_cell_length_a   2.94089755
_cell_length_b   9.19941521
_cell_length_c   25.44672031
_cell_angle_alpha   90.00000000
_cell_angle_beta   90.00000000
_cell_angle_gamma   90.00000000
_symmetry_Int_Tables_number   1
_chemical_formula_structural   Li4Ti4Mn(Fe2O9)2
_chemical_formula_sum   'Li8 Ti8 Mn2 Fe8 O36'
_cell_volume   688.44925303
_cell_formula_units_Z   2
loop_
 _symmetry_equiv_pos_site_id
 _symmetry_equiv_pos_as_xyz
  1  'x, y, z'
loop_
 _atom_site_type_symbol
 _atom_site_label
 _atom_site_symmetry_multiplicity
 _atom_site_fract_x
 _atom_site_fract_y
 _atom_site_fract_z
 _atom_site_occupancy
  Li  Li0  1  0.000000  0.693817  0.489374  1
  Li  Li1  1  0.000000  0.695999  0.690894  1
  Li  Li2  1  0.000000  0.804001  0.190894  1
  Li  Li3  1  0.000000  0.806183  0.989374  1
  Li  Li4  1  0.000000  0.193817  0.010626  1
  Li  Li5  1  0.000000  0.195999  0.809106  1
  Li  Li6  1  0.000000  0.304001  0.309106  1
  Li  Li7  1  0.000000  0.306183  0.510626  1
  Ti  Ti8  1  0.000000  0.505610  0.599827  1
  Ti  Ti9  1  0.500000  0.652544  0.309648  1
  Ti  Ti10  1  0.500000  0.847456  0.809648  1
  Ti  Ti11  1  0.000000  0.994390  0.099827  1
  Ti  Ti12  1  0.000000  0.005610  0.900173  1
  Ti  Ti13  1  0.500000  0.152544  0.190352  1
  Ti  Ti14  1  0.500000  0.347456  0.690352  1
  Ti  Ti15  1  0.000000  0.494390  0.400173  1
  Mn  Mn16  1  0.000000  0.500000  0.000000  1
  Mn  Mn17  1  0.000000  0.000000  0.500000  1
  Fe  Fe18  1  0.000000  0.506205  0.805411  1
  Fe  Fe19  1  0.500000  0.643965  0.087731  1
  Fe  Fe20  1  0.500000  0.856035  0.587731  1
  Fe  Fe21  1  0.000000  0.993795  0.305411  1
  Fe  Fe22  1  0.000000  0.006205  0.694589  1
  Fe  Fe23  1  0.500000  0.143965  0.412269  1
  Fe  Fe24  1  0.500000  0.356035  0.912269  1
  Fe  Fe25  1  0.000000  0.493795  0.194589  1
  O  O26  1  0.000000  0.497320  0.924361  1
  O  O27  1  0.000000  0.502680  0.075639  1
  O  O28  1  0.500000  0.558957  0.442933  1
  O  O29  1  0.500000  0.549320  0.656073  1
  O  O30  1  0.500000  0.620940  0.165922  1
  O  O31  1  0.000000  0.596445  0.261253  1
  O  O32  1  0.500000  0.641126  0.004017  1
  O  O33  1  0.500000  0.645633  0.788809  1
  O  O34  1  0.000000  0.683571  0.357639  1
  O  O35  1  0.000000  0.702509  0.580981  1
  O  O36  1  0.000000  0.797491  0.080981  1
  O  O37  1  0.000000  0.816429  0.857639  1
  O  O38  1  0.500000  0.854367  0.288809  1
  O  O39  1  0.500000  0.858874  0.504017  1
  O  O40  1  0.000000  0.903555  0.761253  1
  O  O41  1  0.500000  0.879060  0.665922  1
  O  O42  1  0.500000  0.950680  0.156073  1
  O  O43  1  0.500000  0.941043  0.942933  1
  O  O44  1  0.000000  0.997320  0.575639  1
  O  O45  1  0.000000  0.002680  0.424361  1
  O  O46  1  0.500000  0.058957  0.057067  1
  O  O47  1  0.500000  0.049320  0.843927  1
  O  O48  1  0.500000  0.120940  0.334078  1
  O  O49  1  0.000000  0.096445  0.238747  1
  O  O50  1  0.500000  0.141126  0.495983  1
  O  O51  1  0.500000  0.145633  0.711191  1
  O  O52  1  0.000000  0.183571  0.142361  1
  O  O53  1  0.000000  0.202509  0.919019  1
  O  O54  1  0.000000  0.297491  0.419019  1
  O  O55  1  0.000000  0.316429  0.642361  1
  O  O56  1  0.500000  0.354367  0.211191  1
  O  O57  1  0.500000  0.358874  0.995983  1
  O  O58  1  0.000000  0.403555  0.738747  1
  O  O59  1  0.500000  0.379060  0.834078  1
  O  O60  1  0.500000  0.450680  0.343927  1
  O  O61  1  0.500000  0.441043  0.557067  1
