# generated using pymatgen
data_Sn2N2O
_symmetry_space_group_name_H-M   'P 1'
_cell_length_a   8.79997384
_cell_length_b   8.85043269
_cell_length_c   8.86796290
_cell_angle_alpha   109.53461930
_cell_angle_beta   109.34357423
_cell_angle_gamma   109.20802608
_symmetry_Int_Tables_number   1
_chemical_formula_structural   Sn2N2O
_chemical_formula_sum   'Sn16 N16 O8'
_cell_volume   533.81143363
_cell_formula_units_Z   8
loop_
 _symmetry_equiv_pos_site_id
 _symmetry_equiv_pos_as_xyz
  1  'x, y, z'
loop_
 _atom_site_type_symbol
 _atom_site_label
 _atom_site_symmetry_multiplicity
 _atom_site_fract_x
 _atom_site_fract_y
 _atom_site_fract_z
 _atom_site_occupancy
  Sn  Sn0  1  0.990152  0.499166  0.999197  1
  Sn  Sn1  1  0.534754  0.752472  0.286890  1
  Sn  Sn2  1  0.244711  0.717525  0.473273  1
  Sn  Sn3  1  0.244762  0.213289  0.960991  1
  Sn  Sn4  1  0.956889  0.244716  0.215822  1
  Sn  Sn5  1  0.004345  0.011258  0.507124  1
  Sn  Sn6  1  0.287906  0.531660  0.754083  1
  Sn  Sn7  1  0.213756  0.975538  0.249810  1
  Sn  Sn8  1  0.512740  0.507257  0.514950  1
  Sn  Sn9  1  0.499989  0.002467  0.000556  1
  Sn  Sn10  1  0.764513  0.020243  0.733133  1
  Sn  Sn11  1  0.729114  0.467585  0.262136  1
  Sn  Sn12  1  0.035536  0.760635  0.787269  1
  Sn  Sn13  1  0.759187  0.790510  0.025444  1
  Sn  Sn14  1  0.737976  0.275233  0.526062  1
  Sn  Sn15  1  0.466918  0.251765  0.711625  1
  N  N16  1  0.966091  0.730218  0.995554  1
  N  N17  1  0.972683  0.507543  0.240100  1
  N  N18  1  0.264334  0.759926  0.732882  1
  N  N19  1  0.516246  0.753704  0.525004  1
  N  N20  1  0.276961  0.015889  0.043622  1
  N  N21  1  0.996734  0.040632  0.270607  1
  N  N22  1  0.986535  0.962628  0.730577  1
  N  N23  1  0.233277  0.957461  0.500474  1
  N  N24  1  0.236523  0.276313  0.742644  1
  N  N25  1  0.457178  0.233666  0.455142  1
  N  N26  1  0.780691  0.546178  0.542745  1
  N  N27  1  0.547100  0.548252  0.779832  1
  N  N28  1  0.727688  0.998209  0.950999  1
  N  N29  1  0.727173  0.224955  0.268150  1
  N  N30  1  0.755712  0.028909  0.483339  1
  N  N31  1  0.730449  0.264749  0.772103  1
  O  O32  1  0.067719  0.294439  0.029464  1
  O  O33  1  0.498174  0.767107  0.047478  1
  O  O34  1  0.272771  0.727766  0.208201  1
  O  O35  1  0.041206  0.480709  0.770533  1
  O  O36  1  0.460034  0.460791  0.218582  1
  O  O37  1  0.761781  0.714223  0.255136  1
  O  O38  1  0.221988  0.440238  0.462269  1
  O  O39  1  0.517706  0.244176  0.966197  1
