# generated using pymatgen
data_Ca2In2O5
_symmetry_space_group_name_H-M   'P 1'
_cell_length_a   5.89627383
_cell_length_b   5.91809792
_cell_length_c   15.16024076
_cell_angle_alpha   90.00000000
_cell_angle_beta   90.00000000
_cell_angle_gamma   90.00000000
_symmetry_Int_Tables_number   1
_chemical_formula_structural   Ca2In2O5
_chemical_formula_sum   'Ca8 In8 O20'
_cell_volume   529.01244553
_cell_formula_units_Z   4
loop_
 _symmetry_equiv_pos_site_id
 _symmetry_equiv_pos_as_xyz
  1  'x, y, z'
loop_
 _atom_site_type_symbol
 _atom_site_label
 _atom_site_symmetry_multiplicity
 _atom_site_fract_x
 _atom_site_fract_y
 _atom_site_fract_z
 _atom_site_occupancy
  Ca  Ca0  1  0.480572  0.058223  0.388453  1
  Ca  Ca1  1  0.480572  0.058223  0.111547  1
  Ca  Ca2  1  0.019428  0.558223  0.388453  1
  Ca  Ca3  1  0.019428  0.558223  0.111547  1
  Ca  Ca4  1  0.980572  0.441777  0.888453  1
  Ca  Ca5  1  0.980572  0.441777  0.611547  1
  Ca  Ca6  1  0.519428  0.941777  0.888453  1
  Ca  Ca7  1  0.519428  0.941777  0.611547  1
  In  In8  1  0.500000  0.500000  0.500000  1
  In  In9  1  0.500000  0.500000  0.000000  1
  In  In10  1  0.452405  0.429611  0.750000  1
  In  In11  1  0.047595  0.929611  0.750000  1
  In  In12  1  0.000000  0.000000  0.500000  1
  In  In13  1  0.000000  0.000000  0.000000  1
  In  In14  1  0.952405  0.070389  0.250000  1
  In  In15  1  0.547595  0.570389  0.250000  1
  O  O16  1  0.386983  0.440460  0.359846  1
  O  O17  1  0.386983  0.440460  0.140154  1
  O  O18  1  0.381948  0.075462  0.750000  1
  O  O19  1  0.306115  0.197472  0.969687  1
  O  O20  1  0.306115  0.197472  0.530313  1
  O  O21  1  0.193885  0.697472  0.969687  1
  O  O22  1  0.193885  0.697472  0.530313  1
  O  O23  1  0.118052  0.575462  0.750000  1
  O  O24  1  0.113017  0.940460  0.359846  1
  O  O25  1  0.113017  0.940460  0.140154  1
  O  O26  1  0.886983  0.059540  0.859846  1
  O  O27  1  0.886983  0.059540  0.640154  1
  O  O28  1  0.881948  0.424538  0.250000  1
  O  O29  1  0.806115  0.302528  0.469687  1
  O  O30  1  0.806115  0.302528  0.030313  1
  O  O31  1  0.693885  0.802528  0.030313  1
  O  O32  1  0.693885  0.802528  0.469687  1
  O  O33  1  0.618052  0.924538  0.250000  1
  O  O34  1  0.613017  0.559540  0.859846  1
  O  O35  1  0.613017  0.559540  0.640154  1
