# generated using pymatgen
data_Li2MnV3O8
_symmetry_space_group_name_H-M   'P 1'
_cell_length_a   5.96385278
_cell_length_b   5.96385278
_cell_length_c   5.96385278
_cell_angle_alpha   59.36381980
_cell_angle_beta   59.36381980
_cell_angle_gamma   59.36381980
_symmetry_Int_Tables_number   1
_chemical_formula_structural   Li2MnV3O8
_chemical_formula_sum   'Li2 Mn1 V3 O8'
_cell_volume   147.81926409
_cell_formula_units_Z   1
loop_
 _symmetry_equiv_pos_site_id
 _symmetry_equiv_pos_as_xyz
  1  'x, y, z'
loop_
 _atom_site_type_symbol
 _atom_site_label
 _atom_site_symmetry_multiplicity
 _atom_site_fract_x
 _atom_site_fract_y
 _atom_site_fract_z
 _atom_site_occupancy
  Li  Li0  1  0.872350  0.872350  0.872350  1
  Li  Li1  1  0.127650  0.127650  0.127650  1
  Mn  Mn2  1  0.500000  0.500000  0.500000  1
  V  V3  1  0.500000  0.500000  0.000000  1
  V  V4  1  0.000000  0.500000  0.500000  1
  V  V5  1  0.500000  1.000000  0.500000  1
  O  O6  1  0.736466  0.736466  0.736466  1
  O  O7  1  0.732937  0.286075  0.732937  1
  O  O8  1  0.286075  0.732937  0.732937  1
  O  O9  1  0.732937  0.732937  0.286075  1
  O  O10  1  0.267063  0.267063  0.713925  1
  O  O11  1  0.713925  0.267063  0.267063  1
  O  O12  1  0.267063  0.713925  0.267063  1
  O  O13  1  0.263534  0.263534  0.263534  1
