# generated using pymatgen
data_Li5Fe3O8
_symmetry_space_group_name_H-M   'P 1'
_cell_length_a   5.81015556
_cell_length_b   5.83950012
_cell_length_c   9.90420968
_cell_angle_alpha   89.91760620
_cell_angle_beta   91.00290093
_cell_angle_gamma   119.67490961
_symmetry_Int_Tables_number   1
_chemical_formula_structural   Li5Fe3O8
_chemical_formula_sum   'Li10 Fe6 O16'
_cell_volume   291.90779816
_cell_formula_units_Z   2
loop_
 _symmetry_equiv_pos_site_id
 _symmetry_equiv_pos_as_xyz
  1  'x, y, z'
loop_
 _atom_site_type_symbol
 _atom_site_label
 _atom_site_symmetry_multiplicity
 _atom_site_fract_x
 _atom_site_fract_y
 _atom_site_fract_z
 _atom_site_occupancy
  Li  Li0  1  0.635688  0.812679  0.050009  1
  Li  Li1  1  0.315534  0.640360  0.533625  1
  Li  Li2  1  0.314733  0.653950  0.281531  1
  Li  Li3  1  0.142008  0.316456  0.047028  1
  Li  Li4  1  0.817342  0.143488  0.550714  1
  Li  Li5  1  0.139216  0.817914  0.049423  1
  Li  Li6  1  0.816278  0.635927  0.550141  1
  Li  Li7  1  0.655523  0.314559  0.781617  1
  Li  Li8  1  0.640442  0.325101  0.033078  1
  Li  Li9  1  0.313829  0.139851  0.549089  1
  Fe  Fe10  1  0.814332  0.154320  0.286642  1
  Fe  Fe11  1  0.155841  0.814498  0.787568  1
  Fe  Fe12  1  0.155775  0.316038  0.786816  1
  Fe  Fe13  1  0.316347  0.154407  0.287070  1
  Fe  Fe14  1  0.654828  0.814477  0.787019  1
  Fe  Fe15  1  0.814596  0.653426  0.287755  1
  O  O16  1  0.987441  0.975434  0.667063  1
  O  O17  1  0.666458  0.822706  0.393974  1
  O  O18  1  0.476134  0.488064  0.677634  1
  O  O19  1  0.320507  0.653376  0.909859  1
  O  O20  1  0.139225  0.304986  0.396637  1
  O  O21  1  0.487416  0.961103  0.674277  1
  O  O22  1  0.002672  0.475954  0.674938  1
  O  O23  1  0.832198  0.143539  0.892258  1
  O  O24  1  0.134338  0.817390  0.396269  1
  O  O25  1  0.959533  0.482395  0.176254  1
  O  O26  1  0.491472  0.004660  0.173675  1
  O  O27  1  0.982143  0.990693  0.167757  1
  O  O28  1  0.646055  0.314272  0.409535  1
  O  O29  1  0.819453  0.665828  0.896729  1
  O  O30  1  0.496461  0.487804  0.175811  1
  O  O31  1  0.307598  0.155779  0.897240  1
