# generated using pymatgen
data_Li4Nb3Cr5O16
_symmetry_space_group_name_H-M   'P 1'
_cell_length_a   6.02065212
_cell_length_b   6.02065212
_cell_length_c   9.76293155
_cell_angle_alpha   89.69057395
_cell_angle_beta   90.30942605
_cell_angle_gamma   120.50221905
_symmetry_Int_Tables_number   1
_chemical_formula_structural   Li4Nb3Cr5O16
_chemical_formula_sum   'Li4 Nb3 Cr5 O16'
_cell_volume   304.90840087
_cell_formula_units_Z   1
loop_
 _symmetry_equiv_pos_site_id
 _symmetry_equiv_pos_as_xyz
  1  'x, y, z'
loop_
 _atom_site_type_symbol
 _atom_site_label
 _atom_site_symmetry_multiplicity
 _atom_site_fract_x
 _atom_site_fract_y
 _atom_site_fract_z
 _atom_site_occupancy
  Li  Li0  1  0.667403  0.332597  0.102989  1
  Li  Li1  1  0.011118  0.988882  0.004569  1
  Li  Li2  1  0.005376  0.994624  0.505094  1
  Li  Li3  1  0.334008  0.665992  0.613545  1
  Nb  Nb4  1  0.831759  0.168241  0.788458  1
  Nb  Nb5  1  0.644511  0.812688  0.288706  1
  Nb  Nb6  1  0.187312  0.355489  0.288706  1
  Cr  Cr7  1  0.831744  0.660161  0.785486  1
  Cr  Cr8  1  0.666183  0.333817  0.519283  1
  Cr  Cr9  1  0.339839  0.168256  0.785486  1
  Cr  Cr10  1  0.166869  0.833131  0.286031  1
  Cr  Cr11  1  0.328717  0.671283  0.010366  1
  O  O12  1  0.829496  0.670749  0.398662  1
  O  O13  1  0.521129  0.478871  0.661578  1
  O  O14  1  0.669889  0.330111  0.896798  1
  O  O15  1  0.000166  0.999834  0.687898  1
  O  O16  1  0.003602  0.996398  0.187026  1
  O  O17  1  0.329251  0.170504  0.398662  1
  O  O18  1  0.960331  0.478151  0.659875  1
  O  O19  1  0.521849  0.039669  0.659875  1
  O  O20  1  0.162861  0.837139  0.898284  1
  O  O21  1  0.832999  0.167001  0.400682  1
  O  O22  1  0.480134  0.958106  0.159301  1
  O  O23  1  0.041894  0.519866  0.159301  1
  O  O24  1  0.320094  0.679906  0.411510  1
  O  O25  1  0.669251  0.840769  0.896474  1
  O  O26  1  0.483349  0.516651  0.141025  1
  O  O27  1  0.159231  0.330749  0.896474  1
