# generated using pymatgen
data_LiCoSiO4
_symmetry_space_group_name_H-M   'P 1'
_cell_length_a   5.07209567
_cell_length_b   5.43438175
_cell_length_c   8.02688509
_cell_angle_alpha   90.00000000
_cell_angle_beta   127.74322651
_cell_angle_gamma   90.00000000
_symmetry_Int_Tables_number   1
_chemical_formula_structural   LiCoSiO4
_chemical_formula_sum   'Li2 Co2 Si2 O8'
_cell_volume   174.95662230
_cell_formula_units_Z   2
loop_
 _symmetry_equiv_pos_site_id
 _symmetry_equiv_pos_as_xyz
  1  'x, y, z'
loop_
 _atom_site_type_symbol
 _atom_site_label
 _atom_site_symmetry_multiplicity
 _atom_site_fract_x
 _atom_site_fract_y
 _atom_site_fract_z
 _atom_site_occupancy
  Li  Li0  1  0.261352  0.156472  0.265212  1
  Li  Li1  1  0.261352  0.843528  0.765212  1
  Co  Co2  1  0.007419  0.680844  0.009507  1
  Co  Co3  1  0.007419  0.319156  0.509507  1
  Si  Si4  1  0.753788  0.180176  0.763092  1
  Si  Si5  1  0.753788  0.819824  0.263092  1
  O  O6  1  0.401180  0.171453  0.731338  1
  O  O7  1  0.673183  0.719822  0.042845  1
  O  O8  1  0.024065  0.652433  0.473763  1
  O  O9  1  0.907789  0.099029  0.301209  1
  O  O10  1  0.401180  0.828547  0.231338  1
  O  O11  1  0.673183  0.280178  0.542845  1
  O  O12  1  0.024065  0.347567  0.973763  1
  O  O13  1  0.907789  0.900971  0.801209  1
