# generated using pymatgen
data_Fe(CoO3)2
_symmetry_space_group_name_H-M   'P 1'
_cell_length_a   5.00320116
_cell_length_b   5.00320116
_cell_length_c   9.58140764
_cell_angle_alpha   90.00000000
_cell_angle_beta   90.00000000
_cell_angle_gamma   120.11597992
_symmetry_Int_Tables_number   1
_chemical_formula_structural   Fe(CoO3)2
_chemical_formula_sum   'Fe2 Co4 O12'
_cell_volume   207.46609611
_cell_formula_units_Z   2
loop_
 _symmetry_equiv_pos_site_id
 _symmetry_equiv_pos_as_xyz
  1  'x, y, z'
loop_
 _atom_site_type_symbol
 _atom_site_label
 _atom_site_symmetry_multiplicity
 _atom_site_fract_x
 _atom_site_fract_y
 _atom_site_fract_z
 _atom_site_occupancy
  Fe  Fe0  1  0.000000  0.000000  0.000000  1
  Fe  Fe1  1  0.500000  0.500000  0.500000  1
  Co  Co2  1  0.333320  0.666680  1.000000  1
  Co  Co3  1  0.833320  0.166680  0.500000  1
  Co  Co4  1  0.166680  0.833320  0.500000  1
  Co  Co5  1  0.666680  0.333320  0.000000  1
  O  O6  1  0.155379  0.155379  0.599003  1
  O  O7  1  0.344621  0.344621  0.099003  1
  O  O8  1  0.655379  0.655379  0.900997  1
  O  O9  1  0.000037  0.344593  0.900877  1
  O  O10  1  0.844621  0.844621  0.400997  1
  O  O11  1  0.155407  0.499963  0.400877  1
  O  O12  1  0.500037  0.844593  0.599123  1
  O  O13  1  0.655407  0.999963  0.099123  1
  O  O14  1  0.999963  0.655407  0.099123  1
  O  O15  1  0.344593  0.000037  0.900877  1
  O  O16  1  0.499963  0.155407  0.400877  1
  O  O17  1  0.844593  0.500037  0.599123  1
