# generated using pymatgen
data_K2H2C2S2N2O
_symmetry_space_group_name_H-M   'P 1'
_cell_length_a   8.11829493
_cell_length_b   9.88007459
_cell_length_c   10.36120535
_cell_angle_alpha   90.00000000
_cell_angle_beta   90.00000000
_cell_angle_gamma   90.00000000
_symmetry_Int_Tables_number   1
_chemical_formula_structural   K2H2C2S2N2O
_chemical_formula_sum   'K8 H8 C8 S8 N8 O4'
_cell_volume   831.06564427
_cell_formula_units_Z   4
loop_
 _symmetry_equiv_pos_site_id
 _symmetry_equiv_pos_as_xyz
  1  'x, y, z'
loop_
 _atom_site_type_symbol
 _atom_site_label
 _atom_site_symmetry_multiplicity
 _atom_site_fract_x
 _atom_site_fract_y
 _atom_site_fract_z
 _atom_site_occupancy
  K  K0  1  0.498916  0.766537  0.665872  1
  K  K1  1  0.001084  0.733463  0.165872  1
  K  K2  1  0.998916  0.233463  0.334128  1
  K  K3  1  0.501084  0.266537  0.834128  1
  K  K4  1  0.501084  0.233463  0.334128  1
  K  K5  1  0.998916  0.266537  0.834128  1
  K  K6  1  0.001084  0.766537  0.665872  1
  K  K7  1  0.498916  0.733463  0.165872  1
  H  H8  1  0.250000  0.490694  0.994798  1
  H  H9  1  0.250000  0.009306  0.494798  1
  H  H10  1  0.750000  0.509306  0.005202  1
  H  H11  1  0.750000  0.990694  0.505202  1
  H  H12  1  0.250000  0.338573  0.044996  1
  H  H13  1  0.250000  0.161427  0.544996  1
  H  H14  1  0.750000  0.661427  0.955004  1
  H  H15  1  0.750000  0.838573  0.455004  1
  C  C16  1  0.250000  0.613089  0.432986  1
  C  C17  1  0.250000  0.886911  0.932986  1
  C  C18  1  0.750000  0.386911  0.567014  1
  C  C19  1  0.750000  0.113089  0.067014  1
  C  C20  1  0.250000  0.443795  0.589945  1
  C  C21  1  0.250000  0.056205  0.089945  1
  C  C22  1  0.750000  0.556205  0.410055  1
  C  C23  1  0.750000  0.943795  0.910055  1
  S  S24  1  0.250000  0.502909  0.304171  1
  S  S25  1  0.250000  0.997091  0.804171  1
  S  S26  1  0.750000  0.497091  0.695829  1
  S  S27  1  0.750000  0.002909  0.195829  1
  S  S28  1  0.250000  0.785457  0.406677  1
  S  S29  1  0.250000  0.714543  0.906677  1
  S  S30  1  0.750000  0.214543  0.593323  1
  S  S31  1  0.750000  0.285457  0.093323  1
  N  N32  1  0.250000  0.570752  0.558148  1
  N  N33  1  0.250000  0.929248  0.058148  1
  N  N34  1  0.750000  0.429248  0.441852  1
  N  N35  1  0.750000  0.070752  0.941852  1
  N  N36  1  0.250000  0.331516  0.631393  1
  N  N37  1  0.250000  0.168484  0.131393  1
  N  N38  1  0.750000  0.668484  0.368607  1
  N  N39  1  0.750000  0.831516  0.868607  1
  O  O40  1  0.250000  0.395871  0.966742  1
  O  O41  1  0.250000  0.104129  0.466742  1
  O  O42  1  0.750000  0.604129  0.033258  1
  O  O43  1  0.750000  0.895871  0.533258  1
