# generated using pymatgen
data_Sn2N2O
_symmetry_space_group_name_H-M   'P 1'
_cell_length_a   8.82317678
_cell_length_b   8.85955036
_cell_length_c   8.86847893
_cell_angle_alpha   109.56292456
_cell_angle_beta   109.47578687
_cell_angle_gamma   109.20756107
_symmetry_Int_Tables_number   1
_chemical_formula_structural   Sn2N2O
_chemical_formula_sum   'Sn16 N16 O8'
_cell_volume   534.75449469
_cell_formula_units_Z   8
loop_
 _symmetry_equiv_pos_site_id
 _symmetry_equiv_pos_as_xyz
  1  'x, y, z'
loop_
 _atom_site_type_symbol
 _atom_site_label
 _atom_site_symmetry_multiplicity
 _atom_site_fract_x
 _atom_site_fract_y
 _atom_site_fract_z
 _atom_site_occupancy
  Sn  Sn0  1  0.964542  0.214869  0.248252  1
  Sn  Sn1  1  0.999912  0.998940  0.493215  1
  Sn  Sn2  1  0.733624  0.759658  0.968196  1
  Sn  Sn3  1  0.779454  0.240082  0.529412  1
  Sn  Sn4  1  0.245303  0.531495  0.776468  1
  Sn  Sn5  1  0.254096  0.028342  0.286183  1
  Sn  Sn6  1  0.492519  0.998358  0.986613  1
  Sn  Sn7  1  0.000098  0.506321  0.009997  1
  Sn  Sn8  1  0.469509  0.720642  0.262394  1
  Sn  Sn9  1  0.514155  0.504882  0.498802  1
  Sn  Sn10  1  0.531299  0.283844  0.748757  1
  Sn  Sn11  1  0.749715  0.475935  0.209786  1
  Sn  Sn12  1  0.738027  0.956025  0.712706  1
  Sn  Sn13  1  0.213089  0.745884  0.467741  1
  Sn  Sn14  1  0.295747  0.250663  0.034072  1
  Sn  Sn15  1  0.036363  0.786573  0.751820  1
  N  N16  1  0.038847  0.277782  0.538685  1
  N  N17  1  0.546604  0.273231  0.503186  1
  N  N18  1  0.725811  0.001561  0.960149  1
  N  N19  1  0.275155  0.040426  0.546333  1
  N  N20  1  0.500970  0.230071  0.955688  1
  N  N21  1  0.995901  0.452298  0.230055  1
  N  N22  1  0.781303  0.733057  0.735537  1
  N  N23  1  0.728921  0.964117  0.463557  1
  N  N24  1  0.236138  0.765041  0.224328  1
  N  N25  1  0.265690  0.000475  0.041056  1
  N  N26  1  0.766464  0.543476  0.994236  1
  N  N27  1  0.456977  0.726800  0.510158  1
  N  N28  1  0.263786  0.755983  0.730843  1
  N  N29  1  0.969877  0.965060  0.228120  1
  N  N30  1  0.536912  0.504850  0.262925  1
  N  N31  1  0.955158  0.731689  0.464704  1
  O  O32  1  0.452757  0.497696  0.726610  1
  O  O33  1  0.044462  0.059365  0.781244  1
  O  O34  1  0.715112  0.220707  0.268053  1
  O  O35  1  0.220403  0.446625  0.978290  1
  O  O36  1  0.778715  0.230917  0.780889  1
  O  O37  1  0.502506  0.758425  0.043294  1
  O  O38  1  0.233899  0.282610  0.272417  1
  O  O39  1  0.990181  0.535225  0.775230  1
