# generated using pymatgen
data_LiZnBO3
_symmetry_space_group_name_H-M   'P 1'
_cell_length_a   5.08204857
_cell_length_b   8.85928038
_cell_length_c   11.22199842
_cell_angle_alpha   90.01277557
_cell_angle_beta   90.41461129
_cell_angle_gamma   90.09619515
_symmetry_Int_Tables_number   1
_chemical_formula_structural   LiZnBO3
_chemical_formula_sum   'Li8 Zn8 B8 O24'
_cell_volume   505.23736961
_cell_formula_units_Z   8
loop_
 _symmetry_equiv_pos_site_id
 _symmetry_equiv_pos_as_xyz
  1  'x, y, z'
loop_
 _atom_site_type_symbol
 _atom_site_label
 _atom_site_symmetry_multiplicity
 _atom_site_fract_x
 _atom_site_fract_y
 _atom_site_fract_z
 _atom_site_occupancy
  Li  Li0  1  0.675386  0.014506  0.166377  1
  Li  Li1  1  0.348312  0.997881  0.897597  1
  Li  Li2  1  0.336074  0.002560  0.352538  1
  Li  Li3  1  0.824336  0.509519  0.333115  1
  Li  Li4  1  0.103767  0.491515  0.725603  1
  Li  Li5  1  0.165178  0.509142  0.152855  1
  Li  Li6  1  0.152164  0.506343  0.534286  1
  Li  Li7  1  0.660874  0.993502  0.672366  1
  Zn  Zn8  1  0.854948  0.169118  0.890570  1
  Zn  Zn9  1  0.160441  0.162420  0.621020  1
  Zn  Zn10  1  0.661826  0.345010  0.101907  1
  Zn  Zn11  1  0.344232  0.325716  0.352666  1
  Zn  Zn12  1  0.651432  0.666414  0.650265  1
  Zn  Zn13  1  0.839730  0.837705  0.394693  1
  Zn  Zn14  1  0.366487  0.654729  0.908374  1
  Zn  Zn15  1  0.150368  0.839307  0.112059  1
  B  B16  1  0.843638  0.168852  0.371341  1
  B  B17  1  0.167341  0.170796  0.129892  1
  B  B18  1  0.658018  0.335592  0.625407  1
  B  B19  1  0.345429  0.326611  0.885095  1
  B  B20  1  0.663813  0.672646  0.133741  1
  B  B21  1  0.844597  0.831145  0.874178  1
  B  B22  1  0.340007  0.670429  0.367193  1
  B  B23  1  0.152092  0.826342  0.623001  1
  O  O24  1  0.704981  0.036586  0.348857  1
  O  O25  1  0.903272  0.169231  0.098791  1
  O  O26  1  0.310494  0.038151  0.130928  1
  O  O27  1  0.780745  0.198195  0.649136  1
  O  O28  1  0.723015  0.307040  0.356964  1
  O  O29  1  0.223123  0.191134  0.854126  1
  O  O30  1  0.110663  0.161764  0.404135  1
  O  O31  1  0.605209  0.325821  0.925177  1
  O  O32  1  0.810660  0.467015  0.620775  1
  O  O33  1  0.293435  0.306467  0.162221  1
  O  O34  1  0.383855  0.344865  0.609500  1
  O  O35  1  0.798830  0.539350  0.153757  1
  O  O36  1  0.210801  0.460463  0.878434  1
  O  O37  1  0.713564  0.700040  0.838146  1
  O  O38  1  0.605227  0.665386  0.388929  1
  O  O39  1  0.196947  0.533274  0.364018  1
  O  O40  1  0.397154  0.664517  0.097025  1
  O  O41  1  0.781883  0.810743  0.147284  1
  O  O42  1  0.881788  0.835310  0.592795  1
  O  O43  1  0.263916  0.682755  0.637603  1
  O  O44  1  0.207217  0.804737  0.348024  1
  O  O45  1  0.712356  0.967548  0.863138  1
  O  O46  1  0.105617  0.828095  0.916793  1
  O  O47  1  0.297220  0.956626  0.637037  1
