# generated using pymatgen
data_GdTa3O9
_symmetry_space_group_name_H-M   'P 1'
_cell_length_a   5.36076465
_cell_length_b   7.56693113
_cell_length_c   8.31740890
_cell_angle_alpha   90.00000000
_cell_angle_beta   92.48838116
_cell_angle_gamma   90.00000000
_symmetry_Int_Tables_number   1
_chemical_formula_structural   GdTa3O9
_chemical_formula_sum   'Gd2 Ta6 O18'
_cell_volume   337.07369554
_cell_formula_units_Z   2
loop_
 _symmetry_equiv_pos_site_id
 _symmetry_equiv_pos_as_xyz
  1  'x, y, z'
loop_
 _atom_site_type_symbol
 _atom_site_label
 _atom_site_symmetry_multiplicity
 _atom_site_fract_x
 _atom_site_fract_y
 _atom_site_fract_z
 _atom_site_occupancy
  Gd  Gd0  1  0.963595  0.250000  0.564644  1
  Gd  Gd1  1  0.036405  0.750000  0.435356  1
  Ta  Ta2  1  0.000000  0.000000  0.000000  1
  Ta  Ta3  1  0.000000  0.500000  0.000000  1
  Ta  Ta4  1  0.529406  0.006296  0.303492  1
  Ta  Ta5  1  0.529406  0.493704  0.303492  1
  Ta  Ta6  1  0.470594  0.993704  0.696508  1
  Ta  Ta7  1  0.470594  0.506296  0.696508  1
  O  O8  1  0.911851  0.250000  0.020256  1
  O  O9  1  0.848687  0.938339  0.213938  1
  O  O10  1  0.848687  0.561661  0.213938  1
  O  O11  1  0.739464  0.959676  0.532303  1
  O  O12  1  0.739464  0.540324  0.532303  1
  O  O13  1  0.655441  0.250000  0.341896  1
  O  O14  1  0.677993  0.950891  0.878190  1
  O  O15  1  0.677993  0.549109  0.878190  1
  O  O16  1  0.571678  0.250000  0.685298  1
  O  O17  1  0.428322  0.750000  0.314702  1
  O  O18  1  0.322007  0.049109  0.121810  1
  O  O19  1  0.322007  0.450891  0.121810  1
  O  O20  1  0.344559  0.750000  0.658104  1
  O  O21  1  0.260536  0.040324  0.467697  1
  O  O22  1  0.260536  0.459676  0.467697  1
  O  O23  1  0.151313  0.061661  0.786062  1
  O  O24  1  0.151313  0.438339  0.786062  1
  O  O25  1  0.088149  0.750000  0.979744  1
