# generated using pymatgen
data_K2OsO5
_symmetry_space_group_name_H-M   'P 1'
_cell_length_a   10.92034987
_cell_length_b   10.92034987
_cell_length_c   8.29805427
_cell_angle_alpha   90.00000000
_cell_angle_beta   90.00000000
_cell_angle_gamma   120.00000000
_symmetry_Int_Tables_number   1
_chemical_formula_structural   K2OsO5
_chemical_formula_sum   'K12 Os6 O30'
_cell_volume   856.99839394
_cell_formula_units_Z   6
loop_
 _symmetry_equiv_pos_site_id
 _symmetry_equiv_pos_as_xyz
  1  'x, y, z'
loop_
 _atom_site_type_symbol
 _atom_site_label
 _atom_site_symmetry_multiplicity
 _atom_site_fract_x
 _atom_site_fract_y
 _atom_site_fract_z
 _atom_site_occupancy
  K  K0  1  0.294933  0.964796  0.500000  1
  K  K1  1  0.035204  0.330137  0.500000  1
  K  K2  1  0.333333  0.666667  0.758073  1
  K  K3  1  0.000000  0.000000  0.753084  1
  K  K4  1  0.000000  0.000000  0.246916  1
  K  K5  1  0.333333  0.666667  0.241927  1
  K  K6  1  0.364372  0.331020  0.000000  1
  K  K7  1  0.669863  0.705067  0.500000  1
  K  K8  1  0.666667  0.333333  0.258511  1
  K  K9  1  0.666667  0.333333  0.741489  1
  K  K10  1  0.966648  0.635628  0.000000  1
  K  K11  1  0.668980  0.033352  0.000000  1
  Os  Os12  1  0.301204  0.967459  0.000000  1
  Os  Os13  1  0.032541  0.333746  0.000000  1
  Os  Os14  1  0.363184  0.320810  0.500000  1
  Os  Os15  1  0.666254  0.698796  0.000000  1
  Os  Os16  1  0.679190  0.042374  0.500000  1
  Os  Os17  1  0.957626  0.636816  0.500000  1
  O  O18  1  0.017855  0.826201  0.500000  1
  O  O19  1  0.215846  0.880599  0.815919  1
  O  O20  1  0.215846  0.880599  0.184081  1
  O  O21  1  0.134169  0.664290  0.500000  1
  O  O22  1  0.131056  0.528095  0.000000  1
  O  O23  1  0.119401  0.335247  0.184081  1
  O  O24  1  0.119401  0.335247  0.815919  1
  O  O25  1  0.397039  0.868944  0.000000  1
  O  O26  1  0.173799  0.191654  0.500000  1
  O  O27  1  0.335710  0.469879  0.500000  1
  O  O28  1  0.530121  0.865831  0.500000  1
  O  O29  1  0.471905  0.602961  0.000000  1
  O  O30  1  0.201497  0.060649  0.000000  1
  O  O31  1  0.377954  0.248549  0.311889  1
  O  O32  1  0.377954  0.248549  0.688111  1
  O  O33  1  0.664753  0.784154  0.184081  1
  O  O34  1  0.664753  0.784154  0.815919  1
  O  O35  1  0.808346  0.982145  0.500000  1
  O  O36  1  0.555867  0.434571  0.500000  1
  O  O37  1  0.466125  0.131573  0.000000  1
  O  O38  1  0.665448  0.533875  0.000000  1
  O  O39  1  0.859151  0.798503  0.000000  1
  O  O40  1  0.565429  0.121296  0.500000  1
  O  O41  1  0.870595  0.622046  0.311889  1
  O  O42  1  0.870595  0.622046  0.688111  1
  O  O43  1  0.878704  0.444133  0.500000  1
  O  O44  1  0.751451  0.129405  0.311889  1
  O  O45  1  0.751451  0.129405  0.688111  1
  O  O46  1  0.868427  0.334552  0.000000  1
  O  O47  1  0.939351  0.140849  0.000000  1
