# generated using pymatgen
data_V2Bi4O11
_symmetry_space_group_name_H-M   'P 1'
_cell_length_a   8.11459019
_cell_length_b   8.11459019
_cell_length_c   11.10758430
_cell_angle_alpha   89.91474678
_cell_angle_beta   90.08525322
_cell_angle_gamma   139.01180487
_symmetry_Int_Tables_number   1
_chemical_formula_structural   V2Bi4O11
_chemical_formula_sum   'V4 Bi8 O22'
_cell_volume   479.72484891
_cell_formula_units_Z   2
loop_
 _symmetry_equiv_pos_site_id
 _symmetry_equiv_pos_as_xyz
  1  'x, y, z'
loop_
 _atom_site_type_symbol
 _atom_site_label
 _atom_site_symmetry_multiplicity
 _atom_site_fract_x
 _atom_site_fract_y
 _atom_site_fract_z
 _atom_site_occupancy
  V  V0  1  0.990652  0.990652  0.000000  1
  V  V1  1  0.446074  0.434241  0.246709  1
  V  V2  1  0.998327  0.998327  0.500000  1
  V  V3  1  0.434241  0.446074  0.753291  1
  Bi  Bi4  1  0.669129  0.339584  0.991176  1
  Bi  Bi5  1  0.096263  0.776294  0.251565  1
  Bi  Bi6  1  0.758067  0.117788  0.249747  1
  Bi  Bi7  1  0.333142  0.663199  0.492043  1
  Bi  Bi8  1  0.663199  0.333142  0.507957  1
  Bi  Bi9  1  0.117788  0.758067  0.750253  1
  Bi  Bi10  1  0.776294  0.096263  0.748435  1
  Bi  Bi11  1  0.339584  0.669129  0.008824  1
  O  O12  1  0.774917  0.982711  0.043934  1
  O  O13  1  0.938263  0.456304  0.128687  1
  O  O14  1  0.192106  0.142406  0.127069  1
  O  O15  1  0.659984  0.570256  0.129766  1
  O  O16  1  0.438886  0.967209  0.128475  1
  O  O17  1  0.379133  0.590238  0.251459  1
  O  O18  1  0.943142  0.457359  0.374593  1
  O  O19  1  0.664075  0.558089  0.359227  1
  O  O20  1  0.195417  0.144228  0.371977  1
  O  O21  1  0.439813  0.968185  0.372192  1
  O  O22  1  0.970886  0.770498  0.544449  1
  O  O23  1  0.770498  0.970886  0.455551  1
  O  O24  1  0.968185  0.439813  0.627808  1
  O  O25  1  0.144228  0.195417  0.628023  1
  O  O26  1  0.558089  0.664075  0.640773  1
  O  O27  1  0.457359  0.943142  0.625407  1
  O  O28  1  0.590238  0.379133  0.748541  1
  O  O29  1  0.967209  0.438886  0.871525  1
  O  O30  1  0.570256  0.659984  0.870234  1
  O  O31  1  0.142406  0.192106  0.872931  1
  O  O32  1  0.456304  0.938263  0.871313  1
  O  O33  1  0.982711  0.774917  0.956066  1
