# generated using pymatgen
data_Nb3Te4
_symmetry_space_group_name_H-M   'P 1'
_cell_length_a   10.83959079
_cell_length_b   10.83959079
_cell_length_c   3.66309535
_cell_angle_alpha   90.00000000
_cell_angle_beta   90.00000000
_cell_angle_gamma   120.00000000
_symmetry_Int_Tables_number   1
_chemical_formula_structural   Nb3Te4
_chemical_formula_sum   'Nb6 Te8'
_cell_volume   372.73882336
_cell_formula_units_Z   2
loop_
 _symmetry_equiv_pos_site_id
 _symmetry_equiv_pos_as_xyz
  1  'x, y, z'
loop_
 _atom_site_type_symbol
 _atom_site_label
 _atom_site_symmetry_multiplicity
 _atom_site_fract_x
 _atom_site_fract_y
 _atom_site_fract_z
 _atom_site_occupancy
  Nb  Nb0  1  0.102621  0.488735  0.250000  1
  Nb  Nb1  1  0.386114  0.897379  0.250000  1
  Nb  Nb2  1  0.511265  0.613886  0.250000  1
  Nb  Nb3  1  0.897379  0.511265  0.750000  1
  Nb  Nb4  1  0.613886  0.102621  0.750000  1
  Nb  Nb5  1  0.488735  0.386114  0.750000  1
  Te  Te6  1  0.666667  0.333333  0.250000  1
  Te  Te7  1  0.333333  0.666667  0.750000  1
  Te  Te8  1  0.273216  0.338677  0.250000  1
  Te  Te9  1  0.065460  0.726784  0.250000  1
  Te  Te10  1  0.661323  0.934540  0.250000  1
  Te  Te11  1  0.726784  0.661323  0.750000  1
  Te  Te12  1  0.934540  0.273216  0.750000  1
  Te  Te13  1  0.338677  0.065460  0.750000  1
