# generated using pymatgen
data_CdGeO3
_symmetry_space_group_name_H-M   'P 1'
_cell_length_a   10.89885760
_cell_length_b   10.89885760
_cell_length_c   10.89885760
_cell_angle_alpha   109.12437060
_cell_angle_beta   109.12437060
_cell_angle_gamma   110.16717029
_symmetry_Int_Tables_number   1
_chemical_formula_structural   CdGeO3
_chemical_formula_sum   'Cd16 Ge16 O48'
_cell_volume   996.48993568
_cell_formula_units_Z   16
loop_
 _symmetry_equiv_pos_site_id
 _symmetry_equiv_pos_as_xyz
  1  'x, y, z'
loop_
 _atom_site_type_symbol
 _atom_site_label
 _atom_site_symmetry_multiplicity
 _atom_site_fract_x
 _atom_site_fract_y
 _atom_site_fract_z
 _atom_site_occupancy
  Cd  Cd0  1  0.125000  0.875000  0.750000  1
  Cd  Cd1  1  0.625000  0.875000  0.750000  1
  Cd  Cd2  1  0.125000  0.875000  0.250000  1
  Cd  Cd3  1  0.125000  0.375000  0.250000  1
  Cd  Cd4  1  0.499113  0.999113  0.500000  1
  Cd  Cd5  1  0.249113  0.249113  0.000000  1
  Cd  Cd6  1  0.750887  0.750887  0.000000  1
  Cd  Cd7  1  0.000887  0.500887  0.500000  1
  Cd  Cd8  1  0.494230  0.624412  0.381997  1
  Cd  Cd9  1  0.362232  0.244230  0.369818  1
  Cd  Cd10  1  0.874412  0.992414  0.630182  1
  Cd  Cd11  1  0.242414  0.112232  0.618003  1
  Cd  Cd12  1  0.755770  0.125588  0.118003  1
  Cd  Cd13  1  0.887768  0.505770  0.130182  1
  Cd  Cd14  1  0.375588  0.757586  0.869818  1
  Cd  Cd15  1  0.007586  0.637768  0.881997  1
  Ge  Ge16  1  0.991644  0.130367  0.392409  1
  Ge  Ge17  1  0.849235  0.741644  0.361278  1
  Ge  Ge18  1  0.380367  0.487957  0.638722  1
  Ge  Ge19  1  0.737957  0.599235  0.607591  1
  Ge  Ge20  1  0.258356  0.619633  0.107591  1
  Ge  Ge21  1  0.400765  0.008356  0.138722  1
  Ge  Ge22  1  0.869633  0.262043  0.861278  1
  Ge  Ge23  1  0.512043  0.150765  0.892409  1
  Ge  Ge24  1  0.500000  0.500000  0.000000  1
  Ge  Ge25  1  0.750000  0.250000  0.500000  1
  Ge  Ge26  1  1.000000  1.000000  0.000000  1
  Ge  Ge27  1  0.250000  0.750000  0.500000  1
  Ge  Ge28  1  0.625000  0.375000  0.750000  1
  Ge  Ge29  1  0.125000  0.375000  0.750000  1
  Ge  Ge30  1  0.625000  0.375000  0.250000  1
  Ge  Ge31  1  0.625000  0.875000  0.250000  1
  O  O32  1  0.739086  0.303029  0.358593  1
  O  O33  1  0.630493  0.489086  0.936058  1
  O  O34  1  0.553029  0.694435  0.063942  1
  O  O35  1  0.944435  0.380493  0.641407  1
  O  O36  1  0.510914  0.446971  0.141407  1
  O  O37  1  0.619507  0.260914  0.563942  1
  O  O38  1  0.696971  0.055565  0.436058  1
  O  O39  1  0.305565  0.369507  0.858593  1
  O  O40  1  0.091076  0.571592  0.350681  1
  O  O41  1  0.990395  0.841076  0.019484  1
  O  O42  1  0.821592  0.970911  0.980516  1
  O  O43  1  0.220911  0.740395  0.649319  1
  O  O44  1  0.158924  0.178408  0.149319  1
  O  O45  1  0.259605  0.908924  0.480516  1
  O  O46  1  0.428408  0.779089  0.519484  1
  O  O47  1  0.029089  0.009605  0.850681  1
  O  O48  1  0.136368  0.095569  0.386220  1
  O  O49  1  0.000148  0.886368  0.540799  1
  O  O50  1  0.345569  0.459349  0.459201  1
  O  O51  1  0.809159  0.964451  0.252073  1
  O  O52  1  0.709349  0.750148  0.613780  1
  O  O53  1  0.249852  0.863632  0.959201  1
  O  O54  1  0.904431  0.290651  0.040799  1
  O  O55  1  0.540651  0.999852  0.886220  1
  O  O56  1  0.038568  0.175649  0.585721  1
  O  O57  1  0.702847  0.788568  0.362919  1
  O  O58  1  0.425649  0.339928  0.637081  1
  O  O59  1  0.589928  0.452847  0.414279  1
  O  O60  1  0.211432  0.574351  0.914279  1
  O  O61  1  0.547153  0.961432  0.137081  1
  O  O62  1  0.824351  0.410072  0.862919  1
  O  O63  1  0.660072  0.297153  0.085721  1
  O  O64  1  0.325220  0.112289  0.838749  1
  O  O65  1  0.736471  0.075220  0.712930  1
  O  O66  1  0.362289  0.023540  0.287070  1
  O  O67  1  0.273540  0.486471  0.161251  1
  O  O68  1  0.924780  0.637711  0.661251  1
  O  O69  1  0.513529  0.674780  0.787070  1
  O  O70  1  0.887711  0.726460  0.212930  1
  O  O71  1  0.976460  0.263529  0.338749  1
  O  O72  1  0.537622  0.192914  0.752073  1
  O  O73  1  0.035549  0.287622  0.844708  1
  O  O74  1  0.442914  0.190841  0.155292  1
  O  O75  1  0.440841  0.785549  0.247927  1
  O  O76  1  0.712378  0.557086  0.747927  1
  O  O77  1  0.214451  0.462378  0.655292  1
  O  O78  1  0.807086  0.559159  0.344708  1
  O  O79  1  0.113632  0.654431  0.113780  1
