# generated using pymatgen
data_Na2FeO2
_symmetry_space_group_name_H-M   'P 1'
_cell_length_a   5.95859452
_cell_length_b   6.91263266
_cell_length_c   15.94450747
_cell_angle_alpha   90.00000000
_cell_angle_beta   90.00000000
_cell_angle_gamma   90.00000000
_symmetry_Int_Tables_number   1
_chemical_formula_structural   Na2FeO2
_chemical_formula_sum   'Na16 Fe8 O16'
_cell_volume   656.74748766
_cell_formula_units_Z   8
loop_
 _symmetry_equiv_pos_site_id
 _symmetry_equiv_pos_as_xyz
  1  'x, y, z'
loop_
 _atom_site_type_symbol
 _atom_site_label
 _atom_site_symmetry_multiplicity
 _atom_site_fract_x
 _atom_site_fract_y
 _atom_site_fract_z
 _atom_site_occupancy
  Na  Na0  1  0.750000  0.914923  0.000000  1
  Na  Na1  1  0.750000  0.355093  0.000000  1
  Na  Na2  1  0.250000  0.644907  0.000000  1
  Na  Na3  1  0.250000  0.085077  0.000000  1
  Na  Na4  1  0.409009  0.876178  0.161935  1
  Na  Na5  1  0.909009  0.123822  0.161935  1
  Na  Na6  1  0.909009  0.623822  0.338065  1
  Na  Na7  1  0.409009  0.376178  0.338065  1
  Na  Na8  1  0.750000  0.855093  0.500000  1
  Na  Na9  1  0.250000  0.585077  0.500000  1
  Na  Na10  1  0.750000  0.414923  0.500000  1
  Na  Na11  1  0.250000  0.144907  0.500000  1
  Na  Na12  1  0.590991  0.623822  0.661935  1
  Na  Na13  1  0.090991  0.376178  0.661935  1
  Na  Na14  1  0.090991  0.876178  0.838065  1
  Na  Na15  1  0.590991  0.123822  0.838065  1
  Fe  Fe16  1  0.921496  0.628683  0.129199  1
  Fe  Fe17  1  0.421496  0.371317  0.129199  1
  Fe  Fe18  1  0.421496  0.871317  0.370801  1
  Fe  Fe19  1  0.921496  0.128683  0.370801  1
  Fe  Fe20  1  0.078504  0.871317  0.629199  1
  Fe  Fe21  1  0.578504  0.128683  0.629199  1
  Fe  Fe22  1  0.578504  0.628683  0.870801  1
  Fe  Fe23  1  0.078504  0.371317  0.870801  1
  O  O24  1  0.565027  0.140267  0.095928  1
  O  O25  1  0.065027  0.859733  0.095928  1
  O  O26  1  0.600076  0.604115  0.119342  1
  O  O27  1  0.100076  0.395885  0.119342  1
  O  O28  1  0.100076  0.895885  0.380658  1
  O  O29  1  0.600076  0.104115  0.380658  1
  O  O30  1  0.565027  0.640267  0.404072  1
  O  O31  1  0.065027  0.359733  0.404072  1
  O  O32  1  0.934973  0.640267  0.595928  1
  O  O33  1  0.434973  0.359733  0.595928  1
  O  O34  1  0.399924  0.895885  0.619342  1
  O  O35  1  0.899924  0.104115  0.619342  1
  O  O36  1  0.899924  0.604115  0.880658  1
  O  O37  1  0.399924  0.395885  0.880658  1
  O  O38  1  0.434973  0.859733  0.904072  1
  O  O39  1  0.934973  0.140267  0.904072  1
