# generated using pymatgen
data_Li3CrO4
_symmetry_space_group_name_H-M   'P 1'
_cell_length_a   5.79667211
_cell_length_b   5.79667211
_cell_length_c   8.23255925
_cell_angle_alpha   90.00000000
_cell_angle_beta   90.00000000
_cell_angle_gamma   90.00000000
_symmetry_Int_Tables_number   1
_chemical_formula_structural   Li3CrO4
_chemical_formula_sum   'Li12 Cr4 O16'
_cell_volume   276.62557855
_cell_formula_units_Z   4
loop_
 _symmetry_equiv_pos_site_id
 _symmetry_equiv_pos_as_xyz
  1  'x, y, z'
loop_
 _atom_site_type_symbol
 _atom_site_label
 _atom_site_symmetry_multiplicity
 _atom_site_fract_x
 _atom_site_fract_y
 _atom_site_fract_z
 _atom_site_occupancy
  Li  Li0  1  0.000000  0.249645  0.000000  1
  Li  Li1  1  0.000000  0.750218  0.000000  1
  Li  Li2  1  0.000000  0.249782  0.500000  1
  Li  Li3  1  0.000000  0.750355  0.500000  1
  Li  Li4  1  0.253759  0.500000  0.250000  1
  Li  Li5  1  0.249645  0.000000  0.750000  1
  Li  Li6  1  0.249782  0.000000  0.250000  1
  Li  Li7  1  0.500000  0.253759  0.500000  1
  Li  Li8  1  0.500000  0.746241  0.000000  1
  Li  Li9  1  0.750218  0.000000  0.750000  1
  Li  Li10  1  0.750355  0.000000  0.250000  1
  Li  Li11  1  0.746241  0.500000  0.750000  1
  Cr  Cr12  1  0.224228  0.500000  0.750000  1
  Cr  Cr13  1  0.500000  0.224228  0.000000  1
  Cr  Cr14  1  0.500000  0.775772  0.500000  1
  Cr  Cr15  1  0.775772  0.500000  0.250000  1
  O  O16  1  0.021052  0.271490  0.743405  1
  O  O17  1  0.021052  0.728510  0.756595  1
  O  O18  1  0.269877  0.491514  0.979486  1
  O  O19  1  0.269877  0.508486  0.520514  1
  O  O20  1  0.271490  0.021052  0.006595  1
  O  O21  1  0.271490  0.978948  0.493405  1
  O  O22  1  0.491514  0.269877  0.770514  1
  O  O23  1  0.491514  0.730123  0.729486  1
  O  O24  1  0.508486  0.269877  0.229486  1
  O  O25  1  0.508486  0.730123  0.270514  1
  O  O26  1  0.728510  0.978948  0.506595  1
  O  O27  1  0.728510  0.021052  0.993405  1
  O  O28  1  0.730123  0.491514  0.020514  1
  O  O29  1  0.730123  0.508486  0.479486  1
  O  O30  1  0.978948  0.271490  0.256595  1
  O  O31  1  0.978948  0.728510  0.243405  1
