# generated using pymatgen
data_KMnP3HO10
_symmetry_space_group_name_H-M   'P 1'
_cell_length_a   7.28377712
_cell_length_b   7.40051691
_cell_length_c   9.14018415
_cell_angle_alpha   71.56802567
_cell_angle_beta   73.22533273
_cell_angle_gamma   71.33124235
_symmetry_Int_Tables_number   1
_chemical_formula_structural   KMnP3HO10
_chemical_formula_sum   'K2 Mn2 P6 H2 O20'
_cell_volume   433.08907016
_cell_formula_units_Z   2
loop_
 _symmetry_equiv_pos_site_id
 _symmetry_equiv_pos_as_xyz
  1  'x, y, z'
loop_
 _atom_site_type_symbol
 _atom_site_label
 _atom_site_symmetry_multiplicity
 _atom_site_fract_x
 _atom_site_fract_y
 _atom_site_fract_z
 _atom_site_occupancy
  K  K0  1  0.413419  0.562190  0.236444  1
  K  K1  1  0.586581  0.437810  0.763556  1
  Mn  Mn2  1  0.000000  0.500000  0.000000  1
  Mn  Mn3  1  0.500000  0.000000  0.500000  1
  P  P4  1  0.252766  0.120414  0.222142  1
  P  P5  1  0.164199  0.291995  0.708136  1
  P  P6  1  0.151551  0.878026  0.793511  1
  P  P7  1  0.848449  0.121974  0.206489  1
  P  P8  1  0.835801  0.708005  0.291864  1
  P  P9  1  0.747234  0.879586  0.777858  1
  H  H10  1  0.000000  0.500000  0.500000  1
  H  H11  1  0.500000  0.000000  0.000000  1
  O  O12  1  0.030928  0.080140  0.284144  1
  O  O13  1  0.985760  0.382431  0.627837  1
  O  O14  1  0.232344  0.333130  0.129560  1
  O  O15  1  0.128229  0.082538  0.828796  1
  O  O16  1  0.299221  0.077986  0.384148  1
  O  O17  1  0.172685  0.408571  0.818173  1
  O  O18  1  0.363188  0.251645  0.596759  1
  O  O19  1  0.138208  0.721492  0.946846  1
  O  O20  1  0.383236  0.969790  0.126061  1
  O  O21  1  0.655720  0.172481  0.322915  1
  O  O22  1  0.344280  0.827519  0.677085  1
  O  O23  1  0.616764  0.030210  0.873939  1
  O  O24  1  0.861792  0.278508  0.053154  1
  O  O25  1  0.636812  0.748355  0.403241  1
  O  O26  1  0.827315  0.591429  0.181827  1
  O  O27  1  0.700779  0.922014  0.615852  1
  O  O28  1  0.871771  0.917462  0.171204  1
  O  O29  1  0.767656  0.666870  0.870440  1
  O  O30  1  0.014240  0.617569  0.372163  1
  O  O31  1  0.969072  0.919860  0.715856  1
