# generated using pymatgen
data_Bi2B2O7
_symmetry_space_group_name_H-M   'P 1'
_cell_length_a   6.39148278
_cell_length_b   6.60235628
_cell_length_c   7.43190108
_cell_angle_alpha   79.55572261
_cell_angle_beta   81.17109973
_cell_angle_gamma   87.41406230
_symmetry_Int_Tables_number   1
_chemical_formula_structural   Bi2B2O7
_chemical_formula_sum   'Bi4 B4 O14'
_cell_volume   304.71880771
_cell_formula_units_Z   2
loop_
 _symmetry_equiv_pos_site_id
 _symmetry_equiv_pos_as_xyz
  1  'x, y, z'
loop_
 _atom_site_type_symbol
 _atom_site_label
 _atom_site_symmetry_multiplicity
 _atom_site_fract_x
 _atom_site_fract_y
 _atom_site_fract_z
 _atom_site_occupancy
  Bi  Bi0  1  0.176700  0.276219  0.275190  1
  Bi  Bi1  1  0.584733  0.753497  0.262921  1
  Bi  Bi2  1  0.415267  0.246503  0.737079  1
  Bi  Bi3  1  0.823300  0.723781  0.724810  1
  B  B4  1  0.676836  0.216371  0.273079  1
  B  B5  1  0.104031  0.761459  0.332730  1
  B  B6  1  0.895969  0.238541  0.667270  1
  B  B7  1  0.323164  0.783629  0.726921  1
  O  O8  1  0.715838  0.679566  0.001750  1
  O  O9  1  0.842409  0.334752  0.294334  1
  O  O10  1  0.226842  0.933985  0.321118  1
  O  O11  1  0.215778  0.609623  0.253099  1
  O  O12  1  0.693961  0.063888  0.173040  1
  O  O13  1  0.485583  0.282370  0.369974  1
  O  O14  1  0.895357  0.742135  0.418187  1
  O  O15  1  0.104643  0.257865  0.581813  1
  O  O16  1  0.514417  0.717630  0.630026  1
  O  O17  1  0.306039  0.936112  0.826960  1
  O  O18  1  0.784222  0.390377  0.746901  1
  O  O19  1  0.773158  0.066015  0.678882  1
  O  O20  1  0.157591  0.665248  0.705666  1
  O  O21  1  0.284162  0.320434  0.998250  1
