# generated using pymatgen
data_Fe5(O4F)2
_symmetry_space_group_name_H-M   'P 1'
_cell_length_a   4.64727961
_cell_length_b   15.07274809
_cell_length_c   4.64977588
_cell_angle_alpha   90.00000000
_cell_angle_beta   91.60148392
_cell_angle_gamma   90.00000000
_symmetry_Int_Tables_number   1
_chemical_formula_structural   Fe5(O4F)2
_chemical_formula_sum   'Fe10 O16 F4'
_cell_volume   325.57690646
_cell_formula_units_Z   2
loop_
 _symmetry_equiv_pos_site_id
 _symmetry_equiv_pos_as_xyz
  1  'x, y, z'
loop_
 _atom_site_type_symbol
 _atom_site_label
 _atom_site_symmetry_multiplicity
 _atom_site_fract_x
 _atom_site_fract_y
 _atom_site_fract_z
 _atom_site_occupancy
  Fe  Fe0  1  0.010010  0.195319  0.995652  1
  Fe  Fe1  1  0.986230  0.000000  0.975803  1
  Fe  Fe2  1  0.010010  0.804681  0.995652  1
  Fe  Fe3  1  0.000834  0.600969  0.001142  1
  Fe  Fe4  1  0.000834  0.399031  0.001142  1
  Fe  Fe5  1  0.510056  0.104237  0.501822  1
  Fe  Fe6  1  0.476926  0.698716  0.525728  1
  Fe  Fe7  1  0.510056  0.895763  0.501822  1
  Fe  Fe8  1  0.525998  0.500000  0.475437  1
  Fe  Fe9  1  0.476926  0.301284  0.525728  1
  O  O10  1  0.194452  0.096205  0.797931  1
  O  O11  1  0.194452  0.903795  0.797931  1
  O  O12  1  0.183249  0.700511  0.822151  1
  O  O13  1  0.183249  0.299489  0.822151  1
  O  O14  1  0.692251  0.204462  0.702569  1
  O  O15  1  0.687164  0.000000  0.673783  1
  O  O16  1  0.692251  0.795538  0.702569  1
  O  O17  1  0.693638  0.599750  0.693220  1
  O  O18  1  0.693638  0.400250  0.693220  1
  O  O19  1  0.305215  0.202271  0.313223  1
  O  O20  1  0.305215  0.797729  0.313223  1
  O  O21  1  0.308827  0.599803  0.308649  1
  O  O22  1  0.308827  0.400197  0.308649  1
  O  O23  1  0.810165  0.098339  0.185108  1
  O  O24  1  0.810165  0.901661  0.185108  1
  O  O25  1  0.823912  0.500000  0.177778  1
  F  F26  1  0.206332  0.500000  0.794770  1
  F  F27  1  0.304356  0.000000  0.292446  1
  F  F28  1  0.797381  0.700344  0.207799  1
  F  F29  1  0.797381  0.299656  0.207799  1
