# generated using pymatgen
data_Mn6O5F7
_symmetry_space_group_name_H-M   'P 1'
_cell_length_a   4.79419246
_cell_length_b   5.74889423
_cell_length_c   7.90765769
_cell_angle_alpha   84.66725204
_cell_angle_beta   87.05711061
_cell_angle_gamma   84.78686017
_symmetry_Int_Tables_number   1
_chemical_formula_structural   Mn6O5F7
_chemical_formula_sum   'Mn6 O5 F7'
_cell_volume   215.90211494
_cell_formula_units_Z   1
loop_
 _symmetry_equiv_pos_site_id
 _symmetry_equiv_pos_as_xyz
  1  'x, y, z'
loop_
 _atom_site_type_symbol
 _atom_site_label
 _atom_site_symmetry_multiplicity
 _atom_site_fract_x
 _atom_site_fract_y
 _atom_site_fract_z
 _atom_site_occupancy
  Mn  Mn0  1  0.533214  0.522399  0.011244  1
  Mn  Mn1  1  0.515549  0.828405  0.647714  1
  Mn  Mn2  1  0.475510  0.169926  0.348316  1
  Mn  Mn3  1  0.996865  0.334553  0.669504  1
  Mn  Mn4  1  0.988905  0.659863  0.323012  1
  Mn  Mn5  1  0.994958  0.987681  0.005334  1
  O  O6  1  0.830042  0.716353  0.097552  1
  O  O7  1  0.704186  0.542028  0.761776  1
  O  O8  1  0.695343  0.874963  0.427860  1
  O  O9  1  0.298796  0.126410  0.572283  1
  O  O10  1  0.303334  0.462091  0.238068  1
  F  F11  1  0.801858  0.362569  0.442070  1
  F  F12  1  0.799547  0.043525  0.781110  1
  F  F13  1  0.692073  0.195495  0.120955  1
  F  F14  1  0.307629  0.804062  0.874391  1
  F  F15  1  0.177939  0.625690  0.551478  1
  F  F16  1  0.208573  0.966530  0.217223  1
  F  F17  1  0.175680  0.277455  0.910112  1
