# generated using pymatgen
data_Li4Ti3Co2Sn3O16
_symmetry_space_group_name_H-M   'P 1'
_cell_length_a   6.14499376
_cell_length_b   6.14499376
_cell_length_c   9.82525124
_cell_angle_alpha   89.45761909
_cell_angle_beta   90.54238091
_cell_angle_gamma   120.31184898
_symmetry_Int_Tables_number   1
_chemical_formula_structural   Li4Ti3Co2Sn3O16
_chemical_formula_sum   'Li4 Ti3 Co2 Sn3 O16'
_cell_volume   320.27128499
_cell_formula_units_Z   1
loop_
 _symmetry_equiv_pos_site_id
 _symmetry_equiv_pos_as_xyz
  1  'x, y, z'
loop_
 _atom_site_type_symbol
 _atom_site_label
 _atom_site_symmetry_multiplicity
 _atom_site_fract_x
 _atom_site_fract_y
 _atom_site_fract_z
 _atom_site_occupancy
  Li  Li0  1  0.668366  0.331634  0.114042  1
  Li  Li1  1  0.991642  0.008358  0.003688  1
  Li  Li2  1  0.993599  0.006401  0.498560  1
  Li  Li3  1  0.334926  0.665074  0.609365  1
  Ti  Ti4  1  0.830310  0.169690  0.783189  1
  Ti  Ti5  1  0.168645  0.338746  0.283949  1
  Ti  Ti6  1  0.661254  0.831355  0.283949  1
  Co  Co7  1  0.668238  0.331762  0.502335  1
  Co  Co8  1  0.336343  0.663657  0.007247  1
  Sn  Sn9  1  0.831113  0.661096  0.785489  1
  Sn  Sn10  1  0.338904  0.168887  0.785489  1
  Sn  Sn11  1  0.170006  0.829994  0.286952  1
  O  O12  1  0.834426  0.683963  0.396943  1
  O  O13  1  0.516687  0.483313  0.661363  1
  O  O14  1  0.674631  0.325369  0.902656  1
  O  O15  1  0.993826  0.006174  0.681266  1
  O  O16  1  0.993978  0.006022  0.186108  1
  O  O17  1  0.316037  0.165574  0.396943  1
  O  O18  1  0.966007  0.472098  0.666238  1
  O  O19  1  0.527902  0.033993  0.666238  1
  O  O20  1  0.157105  0.842895  0.904253  1
  O  O21  1  0.842202  0.157798  0.388238  1
  O  O22  1  0.492143  0.963437  0.167630  1
  O  O23  1  0.036563  0.507857  0.167630  1
  O  O24  1  0.343659  0.656341  0.397760  1
  O  O25  1  0.681530  0.850390  0.895456  1
  O  O26  1  0.480572  0.519428  0.173795  1
  O  O27  1  0.149610  0.318470  0.895456  1
