# generated using pymatgen
data_K2NiP4(HO2)8
_symmetry_space_group_name_H-M   'P 1'
_cell_length_a   6.92296536
_cell_length_b   7.38667739
_cell_length_c   7.54640709
_cell_angle_alpha   81.47279817
_cell_angle_beta   73.55587486
_cell_angle_gamma   83.82397947
_symmetry_Int_Tables_number   1
_chemical_formula_structural   K2NiP4(HO2)8
_chemical_formula_sum   'K2 Ni1 P4 H8 O16'
_cell_volume   365.15280267
_cell_formula_units_Z   1
loop_
 _symmetry_equiv_pos_site_id
 _symmetry_equiv_pos_as_xyz
  1  'x, y, z'
loop_
 _atom_site_type_symbol
 _atom_site_label
 _atom_site_symmetry_multiplicity
 _atom_site_fract_x
 _atom_site_fract_y
 _atom_site_fract_z
 _atom_site_occupancy
  K  K0  1  0.108160  0.732430  0.298858  1
  K  K1  1  0.891840  0.267570  0.701142  1
  Ni  Ni2  1  0.500000  0.500000  0.500000  1
  P  P3  1  0.324691  0.273574  0.241980  1
  P  P4  1  0.250309  0.810818  0.757905  1
  P  P5  1  0.749691  0.189182  0.242095  1
  P  P6  1  0.675309  0.726426  0.758020  1
  H  H7  1  0.050994  0.274932  0.072549  1
  H  H8  1  0.248829  0.044254  0.462743  1
  H  H9  1  0.392525  0.190047  0.705916  1
  H  H10  1  0.379841  0.331187  0.849505  1
  H  H11  1  0.620159  0.668813  0.150495  1
  H  H12  1  0.607475  0.809953  0.294084  1
  H  H13  1  0.751171  0.955746  0.537257  1
  H  H14  1  0.949006  0.725068  0.927451  1
  O  O15  1  0.239667  0.353470  0.080627  1
  O  O16  1  0.233897  0.082187  0.328857  1
  O  O17  1  0.070302  0.788663  0.939641  1
  O  O18  1  0.256515  0.008997  0.664956  1
  O  O19  1  0.296262  0.392835  0.395321  1
  O  O20  1  0.257203  0.667875  0.632053  1
  O  O21  1  0.562860  0.228890  0.147221  1
  O  O22  1  0.542466  0.704375  0.274083  1
  O  O23  1  0.457534  0.295625  0.725917  1
  O  O24  1  0.437140  0.771110  0.852779  1
  O  O25  1  0.742797  0.332125  0.367947  1
  O  O26  1  0.703738  0.607165  0.604679  1
  O  O27  1  0.743485  0.991003  0.335044  1
  O  O28  1  0.929698  0.211337  0.060359  1
  O  O29  1  0.766103  0.917813  0.671143  1
  O  O30  1  0.760333  0.646530  0.919373  1
