# generated using pymatgen
data_LiMnCuO4
_symmetry_space_group_name_H-M   'P 1'
_cell_length_a   5.89279529
_cell_length_b   5.89279529
_cell_length_c   5.89279529
_cell_angle_alpha   121.36648551
_cell_angle_beta   120.46314430
_cell_angle_gamma   88.42449523
_symmetry_Int_Tables_number   1
_chemical_formula_structural   LiMnCuO4
_chemical_formula_sum   'Li2 Mn2 Cu2 O8'
_cell_volume   142.62278897
_cell_formula_units_Z   2
loop_
 _symmetry_equiv_pos_site_id
 _symmetry_equiv_pos_as_xyz
  1  'x, y, z'
loop_
 _atom_site_type_symbol
 _atom_site_label
 _atom_site_symmetry_multiplicity
 _atom_site_fract_x
 _atom_site_fract_y
 _atom_site_fract_z
 _atom_site_occupancy
  Li  Li0  1  0.870692  0.620692  0.250000  1
  Li  Li1  1  0.129308  0.379308  0.750000  1
  Mn  Mn2  1  0.500000  0.000000  0.000000  1
  Mn  Mn3  1  0.500000  0.500000  0.500000  1
  Cu  Cu4  1  0.500000  0.000000  0.500000  1
  Cu  Cu5  1  0.000000  0.000000  0.000000  1
  O  O6  1  0.727893  0.204962  0.977069  1
  O  O7  1  0.279830  0.749158  0.530672  1
  O  O8  1  0.718486  0.749158  0.969328  1
  O  O9  1  0.727893  0.750824  0.522931  1
  O  O10  1  0.272107  0.249176  0.477069  1
  O  O11  1  0.720170  0.250842  0.469328  1
  O  O12  1  0.281514  0.250842  0.030672  1
  O  O13  1  0.272107  0.795038  0.022931  1
