# generated using pymatgen
data_LiV(CO3)2
_symmetry_space_group_name_H-M   'P 1'
_cell_length_a   7.70755074
_cell_length_b   7.95652741
_cell_length_c   8.52834892
_cell_angle_alpha   100.69480049
_cell_angle_beta   103.09794296
_cell_angle_gamma   105.15015520
_symmetry_Int_Tables_number   1
_chemical_formula_structural   LiV(CO3)2
_chemical_formula_sum   'Li4 V4 C8 O24'
_cell_volume   474.73094976
_cell_formula_units_Z   4
loop_
 _symmetry_equiv_pos_site_id
 _symmetry_equiv_pos_as_xyz
  1  'x, y, z'
loop_
 _atom_site_type_symbol
 _atom_site_label
 _atom_site_symmetry_multiplicity
 _atom_site_fract_x
 _atom_site_fract_y
 _atom_site_fract_z
 _atom_site_occupancy
  Li  Li0  1  0.701116  0.666251  0.505413  1
  Li  Li1  1  0.018746  0.217092  0.841429  1
  Li  Li2  1  0.981254  0.782908  0.158571  1
  Li  Li3  1  0.298884  0.333749  0.494587  1
  V  V4  1  0.260766  0.720775  0.444305  1
  V  V5  1  0.529944  0.792912  0.955101  1
  V  V6  1  0.470056  0.207088  0.044899  1
  V  V7  1  0.739234  0.279225  0.555695  1
  C  C8  1  0.261924  0.992420  0.758008  1
  C  C9  1  0.680480  0.941223  0.704580  1
  C  C10  1  0.156256  0.530689  0.729832  1
  C  C11  1  0.377326  0.538517  0.230043  1
  C  C12  1  0.622674  0.461483  0.769957  1
  C  C13  1  0.843744  0.469311  0.270168  1
  C  C14  1  0.319520  0.058777  0.295420  1
  C  C15  1  0.738076  0.007580  0.241992  1
  O  O16  1  0.212012  0.920577  0.324095  1
  O  O17  1  0.168059  0.882467  0.618638  1
  O  O18  1  0.413839  0.977700  0.854981  1
  O  O19  1  0.543403  0.824143  0.584005  1
  O  O20  1  0.393400  0.705747  0.239783  1
  O  O21  1  0.773674  0.863358  0.176129  1
  O  O22  1  0.726438  0.915914  0.851708  1
  O  O23  1  0.993116  0.590788  0.269888  1
  O  O24  1  0.204078  0.529278  0.593010  1
  O  O25  1  0.256789  0.645386  0.868607  1
  O  O26  1  0.312708  0.479475  0.345049  1
  O  O27  1  0.423581  0.443094  0.119508  1
  O  O28  1  0.576419  0.556906  0.880492  1
  O  O29  1  0.687292  0.520525  0.654951  1
  O  O30  1  0.743211  0.354614  0.131393  1
  O  O31  1  0.795922  0.470722  0.406990  1
  O  O32  1  0.006884  0.409212  0.730112  1
  O  O33  1  0.273562  0.084086  0.148292  1
  O  O34  1  0.226326  0.136642  0.823871  1
  O  O35  1  0.606600  0.294253  0.760217  1
  O  O36  1  0.456597  0.175857  0.415995  1
  O  O37  1  0.586161  0.022300  0.145019  1
  O  O38  1  0.831941  0.117533  0.381362  1
  O  O39  1  0.787988  0.079423  0.675905  1
