# generated using pymatgen
data_Dy2Zr2O7
_symmetry_space_group_name_H-M   'P 1'
_cell_length_a   7.87998343
_cell_length_b   5.53596720
_cell_length_c   13.82668000
_cell_angle_alpha   90.00000000
_cell_angle_beta   98.45593789
_cell_angle_gamma   90.00000000
_symmetry_Int_Tables_number   1
_chemical_formula_structural   Dy2Zr2O7
_chemical_formula_sum   'Dy8 Zr8 O28'
_cell_volume   596.60895141
_cell_formula_units_Z   4
loop_
 _symmetry_equiv_pos_site_id
 _symmetry_equiv_pos_as_xyz
  1  'x, y, z'
loop_
 _atom_site_type_symbol
 _atom_site_label
 _atom_site_symmetry_multiplicity
 _atom_site_fract_x
 _atom_site_fract_y
 _atom_site_fract_z
 _atom_site_occupancy
  Dy  Dy0  1  0.863331  0.327316  0.440881  1
  Dy  Dy1  1  0.762753  0.779226  0.072310  1
  Dy  Dy2  1  0.713472  0.242971  0.866006  1
  Dy  Dy3  1  0.638018  0.759582  0.601020  1
  Dy  Dy4  1  0.361982  0.259582  0.398980  1
  Dy  Dy5  1  0.286528  0.742971  0.133994  1
  Dy  Dy6  1  0.237247  0.279226  0.927690  1
  Dy  Dy7  1  0.136669  0.827316  0.559119  1
  Zr  Zr8  1  0.925614  0.265365  0.680315  1
  Zr  Zr9  1  0.973059  0.762922  0.881338  1
  Zr  Zr10  1  0.589418  0.777143  0.327012  1
  Zr  Zr11  1  0.532300  0.264823  0.125170  1
  Zr  Zr12  1  0.467700  0.764823  0.874830  1
  Zr  Zr13  1  0.410582  0.277143  0.672988  1
  Zr  Zr14  1  0.026941  0.262922  0.118662  1
  Zr  Zr15  1  0.074386  0.765365  0.319685  1
  O  O16  1  0.922321  0.552185  0.582664  1
  O  O17  1  0.003683  0.419069  0.825950  1
  O  O18  1  0.830323  0.633967  0.325818  1
  O  O19  1  0.778221  0.386005  0.117081  1
  O  O20  1  0.846214  0.043479  0.565547  1
  O  O21  1  0.924929  0.050268  0.978452  1
  O  O22  1  0.861183  0.966566  0.770179  1
  O  O23  1  0.635006  0.111791  0.377829  1
  O  O24  1  0.584323  0.914152  0.172869  1
  O  O25  1  0.728581  0.634538  0.915560  1
  O  O26  1  0.676428  0.403806  0.701710  1
  O  O27  1  0.577739  0.575994  0.453064  1
  O  O28  1  0.439125  0.546316  0.023174  1
  O  O29  1  0.473932  0.475002  0.233636  1
  O  O30  1  0.526068  0.975002  0.766364  1
  O  O31  1  0.560875  0.046316  0.976826  1
  O  O32  1  0.422261  0.075994  0.546936  1
  O  O33  1  0.323572  0.903806  0.298290  1
  O  O34  1  0.271419  0.134538  0.084440  1
  O  O35  1  0.415677  0.414152  0.827131  1
  O  O36  1  0.364994  0.611791  0.622171  1
  O  O37  1  0.138817  0.466566  0.229821  1
  O  O38  1  0.075071  0.550268  0.021548  1
  O  O39  1  0.153786  0.543479  0.434453  1
  O  O40  1  0.221779  0.886005  0.882919  1
  O  O41  1  0.169677  0.133967  0.674182  1
  O  O42  1  0.996317  0.919069  0.174050  1
  O  O43  1  0.077679  0.052185  0.417336  1
