# generated using pymatgen
data_Fe10O19F
_symmetry_space_group_name_H-M   'P 1'
_cell_length_a   4.61243520
_cell_length_b   7.52357406
_cell_length_c   9.68626787
_cell_angle_alpha   70.06008221
_cell_angle_beta   89.29635263
_cell_angle_gamma   89.47572096
_symmetry_Int_Tables_number   1
_chemical_formula_structural   Fe10O19F
_chemical_formula_sum   'Fe10 O19 F1'
_cell_volume   315.95370607
_cell_formula_units_Z   1
loop_
 _symmetry_equiv_pos_site_id
 _symmetry_equiv_pos_as_xyz
  1  'x, y, z'
loop_
 _atom_site_type_symbol
 _atom_site_label
 _atom_site_symmetry_multiplicity
 _atom_site_fract_x
 _atom_site_fract_y
 _atom_site_fract_z
 _atom_site_occupancy
  Fe  Fe0  1  0.499676  0.699536  0.901589  1
  Fe  Fe1  1  0.504694  0.901510  0.301733  1
  Fe  Fe2  1  0.500802  0.099075  0.700818  1
  Fe  Fe3  1  0.479917  0.296441  0.093126  1
  Fe  Fe4  1  0.500888  0.500954  0.497616  1
  Fe  Fe5  1  0.992962  0.400645  0.796158  1
  Fe  Fe6  1  0.001835  0.798553  0.601979  1
  Fe  Fe7  1  0.015289  0.196360  0.409112  1
  Fe  Fe8  1  0.011148  0.609354  0.200634  1
  Fe  Fe9  1  0.995002  0.998709  0.998336  1
  O  O10  1  0.178783  0.236381  0.971417  1
  O  O11  1  0.198044  0.030475  0.583938  1
  O  O12  1  0.191567  0.440687  0.374793  1
  O  O13  1  0.186320  0.636403  0.775965  1
  O  O14  1  0.196733  0.847295  0.174427  1
  O  O15  1  0.310208  0.937102  0.878599  1
  O  O16  1  0.307876  0.338312  0.674823  1
  O  O17  1  0.306538  0.536591  0.076930  1
  O  O18  1  0.309009  0.141922  0.276911  1
  O  O19  1  0.311299  0.738020  0.476098  1
  O  O20  1  0.693638  0.860202  0.726531  1
  O  O21  1  0.692318  0.261081  0.521529  1
  O  O22  1  0.694566  0.661475  0.322685  1
  O  O23  1  0.690796  0.063325  0.123566  1
  O  O24  1  0.685959  0.461179  0.923368  1
  O  O25  1  0.808697  0.563021  0.622449  1
  O  O26  1  0.814992  0.959448  0.428444  1
  O  O27  1  0.804380  0.161141  0.821972  1
  O  O28  1  0.811869  0.763052  0.023711  1
  F  F29  1  0.804190  0.361748  0.220742  1
