# generated using pymatgen
data_NaNi2O3
_symmetry_space_group_name_H-M   'P 1'
_cell_length_a   5.20319563
_cell_length_b   5.20319563
_cell_length_c   5.30504405
_cell_angle_alpha   79.22699528
_cell_angle_beta   100.77300472
_cell_angle_gamma   61.79839192
_symmetry_Int_Tables_number   1
_chemical_formula_structural   NaNi2O3
_chemical_formula_sum   'Na2 Ni4 O6'
_cell_volume   117.89249641
_cell_formula_units_Z   2
loop_
 _symmetry_equiv_pos_site_id
 _symmetry_equiv_pos_as_xyz
  1  'x, y, z'
loop_
 _atom_site_type_symbol
 _atom_site_label
 _atom_site_symmetry_multiplicity
 _atom_site_fract_x
 _atom_site_fract_y
 _atom_site_fract_z
 _atom_site_occupancy
  Na  Na0  1  0.829808  0.829808  0.500000  1
  Na  Na1  1  0.170192  0.170192  0.500000  1
  Ni  Ni2  1  0.000000  0.000000  0.000000  1
  Ni  Ni3  1  0.335177  0.335177  0.000000  1
  Ni  Ni4  1  0.664823  0.664823  0.000000  1
  Ni  Ni5  1  0.500000  0.500000  0.500000  1
  O  O6  1  0.293899  0.706101  0.753221  1
  O  O7  1  0.916049  0.384771  0.790370  1
  O  O8  1  0.615229  0.083951  0.790370  1
  O  O9  1  0.083951  0.615229  0.209630  1
  O  O10  1  0.384771  0.916049  0.209630  1
  O  O11  1  0.706101  0.293899  0.246779  1
