# generated using pymatgen
data_BaYBr5
_symmetry_space_group_name_H-M   'P 1'
_cell_length_a   8.03390746
_cell_length_b   8.03390746
_cell_length_c   11.05831018
_cell_angle_alpha   69.46116651
_cell_angle_beta   110.53883349
_cell_angle_gamma   109.57055279
_symmetry_Int_Tables_number   1
_chemical_formula_structural   BaYBr5
_chemical_formula_sum   'Ba2 Y2 Br10'
_cell_volume   607.34484226
_cell_formula_units_Z   2
loop_
 _symmetry_equiv_pos_site_id
 _symmetry_equiv_pos_as_xyz
  1  'x, y, z'
loop_
 _atom_site_type_symbol
 _atom_site_label
 _atom_site_symmetry_multiplicity
 _atom_site_fract_x
 _atom_site_fract_y
 _atom_site_fract_z
 _atom_site_occupancy
  Ba  Ba0  1  0.556139  0.556139  0.750000  1
  Ba  Ba1  1  0.443861  0.443861  0.250000  1
  Y  Y2  1  0.000000  0.000000  0.500000  1
  Y  Y3  1  0.000000  0.000000  0.000000  1
  Br  Br4  1  0.252920  0.789764  0.621104  1
  Br  Br5  1  0.314290  0.287959  0.970705  1
  Br  Br6  1  0.210236  0.747080  0.121104  1
  Br  Br7  1  0.922275  0.922275  0.750000  1
  Br  Br8  1  0.287959  0.314290  0.529295  1
  Br  Br9  1  0.712041  0.685710  0.470705  1
  Br  Br10  1  0.077725  0.077725  0.250000  1
  Br  Br11  1  0.789764  0.252920  0.878896  1
  Br  Br12  1  0.685710  0.712041  0.029295  1
  Br  Br13  1  0.747080  0.210236  0.378896  1
