# generated using pymatgen
data_Li2FePCO7
_symmetry_space_group_name_H-M   'P 1'
_cell_length_a   5.09793096
_cell_length_b   6.50441936
_cell_length_c   8.29841638
_cell_angle_alpha   90.00000000
_cell_angle_beta   95.25864675
_cell_angle_gamma   90.00000000
_symmetry_Int_Tables_number   1
_chemical_formula_structural   Li2FePCO7
_chemical_formula_sum   'Li4 Fe2 P2 C2 O14'
_cell_volume   274.00970721
_cell_formula_units_Z   2
loop_
 _symmetry_equiv_pos_site_id
 _symmetry_equiv_pos_as_xyz
  1  'x, y, z'
loop_
 _atom_site_type_symbol
 _atom_site_label
 _atom_site_symmetry_multiplicity
 _atom_site_fract_x
 _atom_site_fract_y
 _atom_site_fract_z
 _atom_site_occupancy
  Li  Li0  1  0.764007  0.245783  0.903149  1
  Li  Li1  1  0.251266  0.466545  0.723655  1
  Li  Li2  1  0.748734  0.966545  0.276345  1
  Li  Li3  1  0.235993  0.745783  0.096851  1
  Fe  Fe4  1  0.799607  0.759393  0.670859  1
  Fe  Fe5  1  0.200393  0.259393  0.329141  1
  P  P6  1  0.725264  0.251060  0.580943  1
  P  P7  1  0.274736  0.751060  0.419057  1
  C  C8  1  0.698975  0.748776  0.959395  1
  C  C9  1  0.301025  0.248776  0.040605  1
  O  O10  1  0.945511  0.754918  0.923605  1
  O  O11  1  0.371762  0.277583  0.900602  1
  O  O12  1  0.526491  0.716473  0.834265  1
  O  O13  1  0.781783  0.064599  0.695902  1
  O  O14  1  0.834691  0.436452  0.685172  1
  O  O15  1  0.142442  0.726506  0.577760  1
  O  O16  1  0.422830  0.279921  0.539117  1
  O  O17  1  0.577170  0.779921  0.460883  1
  O  O18  1  0.857558  0.226506  0.422240  1
  O  O19  1  0.218217  0.564599  0.304098  1
  O  O20  1  0.165309  0.936452  0.314828  1
  O  O21  1  0.473509  0.216473  0.165735  1
  O  O22  1  0.628238  0.777583  0.099398  1
  O  O23  1  0.054489  0.254918  0.076395  1
