# generated using pymatgen
data_Sr(ZnSb)2
_symmetry_space_group_name_H-M   'P 1'
_cell_length_a   4.56522968
_cell_length_b   4.56522968
_cell_length_c   7.76360276
_cell_angle_alpha   90.00000000
_cell_angle_beta   90.00000000
_cell_angle_gamma   120.00000000
_symmetry_Int_Tables_number   1
_chemical_formula_structural   Sr(ZnSb)2
_chemical_formula_sum   'Sr1 Zn2 Sb2'
_cell_volume   140.12615389
_cell_formula_units_Z   1
loop_
 _symmetry_equiv_pos_site_id
 _symmetry_equiv_pos_as_xyz
  1  'x, y, z'
loop_
 _atom_site_type_symbol
 _atom_site_label
 _atom_site_symmetry_multiplicity
 _atom_site_fract_x
 _atom_site_fract_y
 _atom_site_fract_z
 _atom_site_occupancy
  Sr  Sr0  1  0.000000  0.000000  0.000000  1
  Zn  Zn1  1  0.666667  0.333333  0.365463  1
  Zn  Zn2  1  0.333333  0.666667  0.634537  1
  Sb  Sb3  1  0.333333  0.666667  0.270652  1
  Sb  Sb4  1  0.666667  0.333333  0.729348  1
