# generated using pymatgen
data_Li4Ti3Nb3V2O16
_symmetry_space_group_name_H-M   'P 1'
_cell_length_a   6.07192467
_cell_length_b   6.07192467
_cell_length_c   10.02019720
_cell_angle_alpha   89.70673337
_cell_angle_beta   90.29326663
_cell_angle_gamma   120.63843016
_symmetry_Int_Tables_number   1
_chemical_formula_structural   Li4Ti3Nb3V2O16
_chemical_formula_sum   'Li4 Ti3 Nb3 V2 O16'
_cell_volume   317.84990512
_cell_formula_units_Z   1
loop_
 _symmetry_equiv_pos_site_id
 _symmetry_equiv_pos_as_xyz
  1  'x, y, z'
loop_
 _atom_site_type_symbol
 _atom_site_label
 _atom_site_symmetry_multiplicity
 _atom_site_fract_x
 _atom_site_fract_y
 _atom_site_fract_z
 _atom_site_occupancy
  Li  Li0  1  0.668081  0.331919  0.101110  1
  Li  Li1  1  0.007136  0.992864  0.003678  1
  Li  Li2  1  0.004162  0.995838  0.502342  1
  Li  Li3  1  0.331640  0.668360  0.611322  1
  Ti  Ti4  1  0.832038  0.663956  0.783835  1
  Ti  Ti5  1  0.336044  0.167962  0.783835  1
  Ti  Ti6  1  0.162832  0.837168  0.281759  1
  Nb  Nb7  1  0.831307  0.168693  0.786183  1
  Nb  Nb8  1  0.644157  0.811808  0.288526  1
  Nb  Nb9  1  0.188192  0.355843  0.288526  1
  V  V10  1  0.669158  0.330842  0.516062  1
  V  V11  1  0.332395  0.667605  0.009550  1
  O  O12  1  0.841757  0.680801  0.393729  1
  O  O13  1  0.518646  0.481354  0.671833  1
  O  O14  1  0.664574  0.335426  0.893967  1
  O  O15  1  0.002119  0.997881  0.683375  1
  O  O16  1  0.004168  0.995832  0.185263  1
  O  O17  1  0.319199  0.158243  0.393729  1
  O  O18  1  0.966242  0.488066  0.668580  1
  O  O19  1  0.511934  0.033758  0.668580  1
  O  O20  1  0.156250  0.843750  0.890566  1
  O  O21  1  0.843212  0.156788  0.400018  1
  O  O22  1  0.479118  0.961594  0.169615  1
  O  O23  1  0.038406  0.520882  0.169615  1
  O  O24  1  0.314898  0.685102  0.404963  1
  O  O25  1  0.685112  0.840329  0.895409  1
  O  O26  1  0.488432  0.511568  0.151025  1
  O  O27  1  0.159671  0.314888  0.895409  1
