# generated using pymatgen
data_Li4TiCrO6
_symmetry_space_group_name_H-M   'P 1'
_cell_length_a   5.06844202
_cell_length_b   5.06844202
_cell_length_c   19.39852339
_cell_angle_alpha   87.53801959
_cell_angle_beta   92.46198041
_cell_angle_gamma   59.83519804
_symmetry_Int_Tables_number   1
_chemical_formula_structural   Li4TiCrO6
_chemical_formula_sum   'Li16 Ti4 Cr4 O24'
_cell_volume   429.24759256
_cell_formula_units_Z   4
loop_
 _symmetry_equiv_pos_site_id
 _symmetry_equiv_pos_as_xyz
  1  'x, y, z'
loop_
 _atom_site_type_symbol
 _atom_site_label
 _atom_site_symmetry_multiplicity
 _atom_site_fract_x
 _atom_site_fract_y
 _atom_site_fract_z
 _atom_site_occupancy
  Li  Li0  1  0.500000  1.000000  0.000000  1
  Li  Li1  1  0.376783  0.114277  0.624720  1
  Li  Li2  1  0.406083  0.406083  0.750000  1
  Li  Li3  1  0.000000  0.500000  0.500000  1
  Li  Li4  1  0.885723  0.623217  0.124720  1
  Li  Li5  1  0.750188  0.750188  0.750000  1
  Li  Li6  1  0.908713  0.908713  0.250000  1
  Li  Li7  1  0.249812  0.249812  0.250000  1
  Li  Li8  1  0.331524  0.841646  0.499840  1
  Li  Li9  1  0.158354  0.668476  0.999840  1
  Li  Li10  1  0.841646  0.331524  0.000160  1
  Li  Li11  1  0.668476  0.158354  0.500160  1
  Li  Li12  1  0.091287  0.091287  0.750000  1
  Li  Li13  1  0.114277  0.376783  0.875280  1
  Li  Li14  1  0.593917  0.593917  0.250000  1
  Li  Li15  1  0.623217  0.885723  0.375280  1
  Ti  Ti16  1  0.455836  0.704692  0.875032  1
  Ti  Ti17  1  0.295308  0.544164  0.375032  1
  Ti  Ti18  1  0.704692  0.455836  0.624968  1
  Ti  Ti19  1  0.544164  0.295308  0.124968  1
  Cr  Cr20  1  0.955545  0.204525  0.374882  1
  Cr  Cr21  1  0.795475  0.044455  0.874882  1
  Cr  Cr22  1  0.204525  0.955545  0.125118  1
  Cr  Cr23  1  0.044455  0.795475  0.625118  1
  O  O24  1  0.459798  0.031286  0.816575  1
  O  O25  1  0.788870  0.709989  0.931932  1
  O  O26  1  0.960915  0.524731  0.317521  1
  O  O27  1  0.347551  0.499536  0.568645  1
  O  O28  1  0.499536  0.347551  0.931355  1
  O  O29  1  0.290011  0.211130  0.431932  1
  O  O30  1  0.396628  0.741324  0.682073  1
  O  O31  1  0.853538  0.992464  0.067963  1
  O  O32  1  0.992464  0.853538  0.432037  1
  O  O33  1  0.753163  0.092937  0.680690  1
  O  O34  1  0.741324  0.396628  0.817927  1
  O  O35  1  0.907063  0.246837  0.180690  1
  O  O36  1  0.092937  0.753163  0.819310  1
  O  O37  1  0.258676  0.603372  0.182073  1
  O  O38  1  0.246837  0.907063  0.319310  1
  O  O39  1  0.007536  0.146462  0.567963  1
  O  O40  1  0.146462  0.007536  0.932037  1
  O  O41  1  0.603372  0.258676  0.317927  1
  O  O42  1  0.709989  0.788870  0.568068  1
  O  O43  1  0.500464  0.652449  0.068645  1
  O  O44  1  0.652449  0.500464  0.431355  1
  O  O45  1  0.031286  0.459798  0.683425  1
  O  O46  1  0.211130  0.290011  0.068068  1
  O  O47  1  0.540202  0.968714  0.183425  1
