# generated using pymatgen
data_Li16Fe4SiO16
_symmetry_space_group_name_H-M   'P 1'
_cell_length_a   5.48009444
_cell_length_b   6.40739834
_cell_length_c   10.96354309
_cell_angle_alpha   89.04835179
_cell_angle_beta   89.85840957
_cell_angle_gamma   89.55361800
_symmetry_Int_Tables_number   1
_chemical_formula_structural   Li16Fe4SiO16
_chemical_formula_sum   'Li16 Fe4 Si1 O16'
_cell_volume   384.89867481
_cell_formula_units_Z   1
loop_
 _symmetry_equiv_pos_site_id
 _symmetry_equiv_pos_as_xyz
  1  'x, y, z'
loop_
 _atom_site_type_symbol
 _atom_site_label
 _atom_site_symmetry_multiplicity
 _atom_site_fract_x
 _atom_site_fract_y
 _atom_site_fract_z
 _atom_site_occupancy
  Li  Li0  1  0.109000  0.019825  0.659118  1
  Li  Li1  1  0.399083  0.015537  0.157738  1
  Li  Li2  1  0.125186  0.242907  0.410960  1
  Li  Li3  1  0.356508  0.232388  0.933777  1
  Li  Li4  1  0.975193  0.221526  0.824301  1
  Li  Li5  1  0.509802  0.294358  0.308853  1
  Li  Li6  1  0.402703  0.484804  0.130543  1
  Li  Li7  1  0.834891  0.522418  0.350344  1
  Li  Li8  1  0.658175  0.514951  0.844960  1
  Li  Li9  1  0.059324  0.549874  0.173950  1
  Li  Li10  1  0.835491  0.760502  0.572080  1
  Li  Li11  1  0.672637  0.753815  0.077137  1
  Li  Li12  1  0.458209  0.843703  0.699274  1
  Li  Li13  1  0.055330  0.938819  0.177067  1
  Li  Li14  1  0.803252  0.980167  0.347786  1
  Li  Li15  1  0.645777  0.992967  0.853608  1
  Fe  Fe16  1  0.663444  0.251566  0.586828  1
  Fe  Fe17  1  0.837546  0.251368  0.082760  1
  Fe  Fe18  1  0.338295  0.740049  0.403593  1
  Fe  Fe19  1  0.138952  0.767214  0.914599  1
  Si  Si20  1  0.170628  0.502706  0.664637  1
  O  O21  1  0.752497  0.005744  0.672117  1
  O  O22  1  0.731545  0.010379  0.171164  1
  O  O23  1  0.703363  0.253731  0.924232  1
  O  O24  1  0.300394  0.299363  0.597345  1
  O  O25  1  0.767217  0.249102  0.428311  1
  O  O26  1  0.187637  0.254446  0.087096  1
  O  O27  1  0.871972  0.457502  0.677541  1
  O  O28  1  0.727010  0.485197  0.175629  1
  O  O29  1  0.222796  0.498445  0.325761  1
  O  O30  1  0.285939  0.532345  0.803518  1
  O  O31  1  0.672801  0.741470  0.428291  1
  O  O32  1  0.801769  0.750268  0.913815  1
  O  O33  1  0.207520  0.726753  0.588156  1
  O  O34  1  0.261261  0.752505  0.076922  1
  O  O35  1  0.217033  0.987729  0.329343  1
  O  O36  1  0.258039  0.004047  0.822644  1
