# generated using pymatgen
data_Li2FePO4F
_symmetry_space_group_name_H-M   'P 1'
_cell_length_a   13.09416018
_cell_length_b   5.12417844
_cell_length_c   13.10165875
_cell_angle_alpha   90.00000000
_cell_angle_beta   119.09349023
_cell_angle_gamma   90.00000000
_symmetry_Int_Tables_number   1
_chemical_formula_structural   Li2FePO4F
_chemical_formula_sum   'Li16 Fe8 P8 O32 F8'
_cell_volume   768.16386310
_cell_formula_units_Z   8
loop_
 _symmetry_equiv_pos_site_id
 _symmetry_equiv_pos_as_xyz
  1  'x, y, z'
loop_
 _atom_site_type_symbol
 _atom_site_label
 _atom_site_symmetry_multiplicity
 _atom_site_fract_x
 _atom_site_fract_y
 _atom_site_fract_z
 _atom_site_occupancy
  Li  Li0  1  0.348092  0.733904  0.673186  1
  Li  Li1  1  0.577588  0.730249  0.902695  1
  Li  Li2  1  0.422412  0.230249  0.597305  1
  Li  Li3  1  0.850709  0.722643  0.175654  1
  Li  Li4  1  0.651908  0.233904  0.826814  1
  Li  Li5  1  0.920731  0.274106  0.328721  1
  Li  Li6  1  0.079269  0.774106  0.171279  1
  Li  Li7  1  0.850709  0.777357  0.675654  1
  Li  Li8  1  0.149291  0.222643  0.324346  1
  Li  Li9  1  0.920731  0.225894  0.828721  1
  Li  Li10  1  0.079269  0.725894  0.671279  1
  Li  Li11  1  0.348092  0.766096  0.173186  1
  Li  Li12  1  0.149291  0.277357  0.824346  1
  Li  Li13  1  0.577588  0.769751  0.402695  1
  Li  Li14  1  0.422412  0.269751  0.097305  1
  Li  Li15  1  0.651908  0.266096  0.326814  1
  Fe  Fe16  1  0.422219  0.275191  0.826915  1
  Fe  Fe17  1  0.577781  0.775191  0.673085  1
  Fe  Fe18  1  0.923744  0.227781  0.097198  1
  Fe  Fe19  1  0.076256  0.727781  0.402802  1
  Fe  Fe20  1  0.923744  0.272219  0.597198  1
  Fe  Fe21  1  0.076256  0.772219  0.902802  1
  Fe  Fe22  1  0.422219  0.224809  0.326915  1
  Fe  Fe23  1  0.577781  0.724809  0.173085  1
  P  P24  1  0.165535  0.217058  0.580820  1
  P  P25  1  0.666572  0.213558  0.082360  1
  P  P26  1  0.666572  0.286442  0.582360  1
  P  P27  1  0.834465  0.717058  0.919180  1
  P  P28  1  0.165535  0.282942  0.080820  1
  P  P29  1  0.333428  0.713558  0.417640  1
  P  P30  1  0.333428  0.786442  0.917640  1
  P  P31  1  0.834465  0.782942  0.419180  1
  O  O32  1  0.155795  0.911016  0.574936  1
  O  O33  1  0.394522  0.667621  0.852173  1
  O  O34  1  0.295419  0.300967  0.646648  1
  O  O35  1  0.661268  0.908057  0.087008  1
  O  O36  1  0.604092  0.307445  0.953806  1
  O  O37  1  0.395908  0.807445  0.546194  1
  O  O38  1  0.794964  0.311484  0.142072  1
  O  O39  1  0.897779  0.670737  0.354089  1
  O  O40  1  0.704581  0.800967  0.853352  1
  O  O41  1  0.605478  0.167621  0.647827  1
  O  O42  1  0.661268  0.591943  0.587008  1
  O  O43  1  0.891747  0.829095  0.044854  1
  O  O44  1  0.844205  0.411016  0.925064  1
  O  O45  1  0.108253  0.329095  0.455146  1
  O  O46  1  0.794964  0.188516  0.642072  1
  O  O47  1  0.897779  0.829263  0.854089  1
  O  O48  1  0.102221  0.170737  0.145911  1
  O  O49  1  0.205036  0.811484  0.357928  1
  O  O50  1  0.891747  0.670905  0.544854  1
  O  O51  1  0.155795  0.588984  0.074936  1
  O  O52  1  0.108253  0.170905  0.955146  1
  O  O53  1  0.338732  0.408057  0.412992  1
  O  O54  1  0.394522  0.832379  0.352173  1
  O  O55  1  0.295419  0.199033  0.146648  1
  O  O56  1  0.102221  0.329263  0.645911  1
  O  O57  1  0.205036  0.688516  0.857928  1
  O  O58  1  0.604092  0.192555  0.453806  1
  O  O59  1  0.395908  0.692555  0.046194  1
  O  O60  1  0.338732  0.091943  0.912992  1
  O  O61  1  0.704581  0.699033  0.353352  1
  O  O62  1  0.605478  0.332379  0.147827  1
  O  O63  1  0.844205  0.088984  0.425064  1
  F  F64  1  0.489337  0.986892  0.763841  1
  F  F65  1  0.510663  0.486892  0.736159  1
  F  F66  1  0.989629  0.020310  0.267648  1
  F  F67  1  0.010371  0.520310  0.232352  1
  F  F68  1  0.989629  0.479690  0.767648  1
  F  F69  1  0.010371  0.979690  0.732352  1
  F  F70  1  0.489337  0.513108  0.263841  1
  F  F71  1  0.510663  0.013108  0.236159  1
