# generated using pymatgen
data_Ta9PO25
_symmetry_space_group_name_H-M   'P 1'
_cell_length_a   11.29572304
_cell_length_b   11.29572304
_cell_length_c   11.29572304
_cell_angle_alpha   91.68986327
_cell_angle_beta   91.68986327
_cell_angle_gamma   160.22376612
_symmetry_Int_Tables_number   1
_chemical_formula_structural   Ta9PO25
_chemical_formula_sum   'Ta9 P1 O25'
_cell_volume   480.40262090
_cell_formula_units_Z   1
loop_
 _symmetry_equiv_pos_site_id
 _symmetry_equiv_pos_as_xyz
  1  'x, y, z'
loop_
 _atom_site_type_symbol
 _atom_site_label
 _atom_site_symmetry_multiplicity
 _atom_site_fract_x
 _atom_site_fract_y
 _atom_site_fract_z
 _atom_site_occupancy
  Ta  Ta0  1  0.000000  0.000000  0.000000  1
  Ta  Ta1  1  0.106365  0.779715  0.884961  1
  Ta  Ta2  1  0.887838  0.676016  0.555750  1
  Ta  Ta3  1  0.667912  0.112162  0.788178  1
  Ta  Ta4  1  0.220285  0.105245  0.326650  1
  Ta  Ta5  1  0.778595  0.893635  0.673350  1
  Ta  Ta6  1  0.323984  0.879734  0.211822  1
  Ta  Ta7  1  0.120266  0.332088  0.444250  1
  Ta  Ta8  1  0.894755  0.221405  0.115039  1
  P  P9  1  0.750000  0.250000  0.500000  1
  O  O10  1  0.500000  0.500000  0.000000  1
  O  O11  1  0.049404  0.881247  0.934930  1
  O  O12  1  0.823085  0.778605  0.606790  1
  O  O13  1  0.614539  0.248086  0.859674  1
  O  O14  1  0.994378  0.723465  0.709809  1
  O  O15  1  0.783705  0.176915  0.955521  1
  O  O16  1  0.351149  0.152901  0.510700  1
  O  O17  1  0.159552  0.648851  0.801752  1
  O  O18  1  0.751914  0.611588  0.366453  1
  O  O19  1  0.584723  0.096470  0.616569  1
  O  O20  1  0.903530  0.520099  0.488253  1
  O  O21  1  0.118753  0.053682  0.168157  1
  O  O22  1  0.715432  0.005622  0.729088  1
  O  O23  1  0.276535  0.986344  0.270912  1
  O  O24  1  0.885525  0.950596  0.831843  1
  O  O25  1  0.031846  0.415277  0.511747  1
  O  O26  1  0.479901  0.968154  0.383431  1
  O  O27  1  0.245134  0.385461  0.633547  1
  O  O28  1  0.847099  0.357799  0.198248  1
  O  O29  1  0.642201  0.840448  0.489300  1
  O  O30  1  0.221395  0.828185  0.044479  1
  O  O31  1  0.013656  0.284568  0.290191  1
  O  O32  1  0.388412  0.754866  0.140326  1
  O  O33  1  0.171815  0.216295  0.393210  1
  O  O34  1  0.946318  0.114475  0.065070  1
