# generated using pymatgen
data_LiFe2(PO4)2
_symmetry_space_group_name_H-M   'P 1'
_cell_length_a   5.18869943
_cell_length_b   10.34140741
_cell_length_c   13.73841789
_cell_angle_alpha   90.00000000
_cell_angle_beta   90.00000000
_cell_angle_gamma   90.00000000
_symmetry_Int_Tables_number   1
_chemical_formula_structural   LiFe2(PO4)2
_chemical_formula_sum   'Li4 Fe8 P8 O32'
_cell_volume   737.18227446
_cell_formula_units_Z   4
loop_
 _symmetry_equiv_pos_site_id
 _symmetry_equiv_pos_as_xyz
  1  'x, y, z'
loop_
 _atom_site_type_symbol
 _atom_site_label
 _atom_site_symmetry_multiplicity
 _atom_site_fract_x
 _atom_site_fract_y
 _atom_site_fract_z
 _atom_site_occupancy
  Li  Li0  1  0.541833  0.212849  0.998243  1
  Li  Li1  1  0.541833  0.287151  0.498243  1
  Li  Li2  1  0.458167  0.712849  0.998243  1
  Li  Li3  1  0.458167  0.787151  0.498243  1
  Fe  Fe4  1  0.918762  0.034375  0.497904  1
  Fe  Fe5  1  0.545680  0.215019  0.250795  1
  Fe  Fe6  1  0.545680  0.284981  0.750795  1
  Fe  Fe7  1  0.918762  0.465625  0.997904  1
  Fe  Fe8  1  0.081238  0.534375  0.497904  1
  Fe  Fe9  1  0.454320  0.715019  0.250795  1
  Fe  Fe10  1  0.454320  0.784981  0.750795  1
  Fe  Fe11  1  0.081238  0.965625  0.997904  1
  P  P12  1  0.435736  0.036289  0.623909  1
  P  P13  1  0.046474  0.217565  0.872065  1
  P  P14  1  0.046474  0.282435  0.372065  1
  P  P15  1  0.435736  0.463711  0.123909  1
  P  P16  1  0.564264  0.536289  0.623909  1
  P  P17  1  0.953526  0.717565  0.872065  1
  P  P18  1  0.953526  0.782435  0.372065  1
  P  P19  1  0.564264  0.963711  0.123909  1
  O  O20  1  0.145912  0.010157  0.602045  1
  O  O21  1  0.486227  0.027568  0.218857  1
  O  O22  1  0.415675  0.027381  0.034696  1
  O  O23  1  0.998654  0.070633  0.891475  1
  O  O24  1  0.496329  0.182994  0.622395  1
  O  O25  1  0.925695  0.241583  0.276527  1
  O  O26  1  0.906683  0.212391  0.460665  1
  O  O27  1  0.339028  0.247587  0.876434  1
  O  O28  1  0.339028  0.252413  0.376434  1
  O  O29  1  0.906683  0.287609  0.960665  1
  O  O30  1  0.925695  0.258417  0.776527  1
  O  O31  1  0.496329  0.317006  0.122395  1
  O  O32  1  0.998654  0.429367  0.391475  1
  O  O33  1  0.415675  0.472619  0.534696  1
  O  O34  1  0.486227  0.472432  0.718857  1
  O  O35  1  0.145912  0.489843  0.102045  1
  O  O36  1  0.854088  0.510157  0.602045  1
  O  O37  1  0.513773  0.527568  0.218857  1
  O  O38  1  0.584325  0.527381  0.034696  1
  O  O39  1  0.001346  0.570633  0.891475  1
  O  O40  1  0.503671  0.682994  0.622395  1
  O  O41  1  0.074305  0.741583  0.276527  1
  O  O42  1  0.093317  0.712391  0.460665  1
  O  O43  1  0.660972  0.747587  0.876434  1
  O  O44  1  0.660972  0.752413  0.376434  1
  O  O45  1  0.093317  0.787609  0.960665  1
  O  O46  1  0.074305  0.758417  0.776527  1
  O  O47  1  0.503671  0.817006  0.122395  1
  O  O48  1  0.001346  0.929367  0.391475  1
  O  O49  1  0.584325  0.972619  0.534696  1
  O  O50  1  0.513773  0.972432  0.718857  1
  O  O51  1  0.854088  0.989843  0.102045  1
