# generated using pymatgen
data_Na4Mn5O12
_symmetry_space_group_name_H-M   'P 1'
_cell_length_a   6.10301199
_cell_length_b   6.10301199
_cell_length_c   13.63440265
_cell_angle_alpha   79.18221461
_cell_angle_beta   100.81778539
_cell_angle_gamma   90.46029562
_symmetry_Int_Tables_number   1
_chemical_formula_structural   Na4Mn5O12
_chemical_formula_sum   'Na8 Mn10 O24'
_cell_volume   489.75347456
_cell_formula_units_Z   2
loop_
 _symmetry_equiv_pos_site_id
 _symmetry_equiv_pos_as_xyz
  1  'x, y, z'
loop_
 _atom_site_type_symbol
 _atom_site_label
 _atom_site_symmetry_multiplicity
 _atom_site_fract_x
 _atom_site_fract_y
 _atom_site_fract_z
 _atom_site_occupancy
  Na  Na0  1  0.469477  0.804927  0.422634  1
  Na  Na1  1  0.888192  0.888192  0.250000  1
  Na  Na2  1  0.804927  0.469477  0.077366  1
  Na  Na3  1  0.000000  0.000000  0.000000  1
  Na  Na4  1  0.195073  0.530523  0.922634  1
  Na  Na5  1  0.111808  0.111808  0.750000  1
  Na  Na6  1  0.530523  0.195073  0.577366  1
  Na  Na7  1  0.000000  0.000000  0.500000  1
  Mn  Mn8  1  0.675210  0.356335  0.331938  1
  Mn  Mn9  1  0.170323  0.356049  0.331053  1
  Mn  Mn10  1  0.356335  0.675210  0.168062  1
  Mn  Mn11  1  0.356049  0.170323  0.168947  1
  Mn  Mn12  1  0.500000  0.000000  0.000000  1
  Mn  Mn13  1  0.643665  0.324790  0.831938  1
  Mn  Mn14  1  0.643951  0.829677  0.831053  1
  Mn  Mn15  1  0.324790  0.643665  0.668062  1
  Mn  Mn16  1  0.829677  0.643951  0.668947  1
  Mn  Mn17  1  0.000000  0.500000  0.500000  1
  O  O18  1  0.933016  0.563043  0.348241  1
  O  O19  1  0.917965  0.171825  0.321550  1
  O  O20  1  0.421461  0.569628  0.318396  1
  O  O21  1  0.420203  0.150597  0.322200  1
  O  O22  1  0.569628  0.421461  0.181604  1
  O  O23  1  0.150597  0.420203  0.177800  1
  O  O24  1  0.563043  0.933016  0.151759  1
  O  O25  1  0.171825  0.917965  0.178450  1
  O  O26  1  0.298039  0.760335  0.025858  1
  O  O27  1  0.299210  0.213254  0.027489  1
  O  O28  1  0.700790  0.786746  0.972511  1
  O  O29  1  0.701961  0.239665  0.974142  1
  O  O30  1  0.828175  0.082035  0.821550  1
  O  O31  1  0.436957  0.066984  0.848241  1
  O  O32  1  0.849403  0.579797  0.822200  1
  O  O33  1  0.430372  0.578539  0.818396  1
  O  O34  1  0.578539  0.430372  0.681604  1
  O  O35  1  0.579797  0.849403  0.677800  1
  O  O36  1  0.066984  0.436957  0.651759  1
  O  O37  1  0.082035  0.828175  0.678450  1
  O  O38  1  0.239665  0.701961  0.525858  1
  O  O39  1  0.786746  0.700790  0.527489  1
  O  O40  1  0.760335  0.298039  0.474142  1
  O  O41  1  0.213254  0.299210  0.472511  1
