# generated using pymatgen
data_LiTi(PO3)4
_symmetry_space_group_name_H-M   'P 1'
_cell_length_a   10.51518474
_cell_length_b   10.51518474
_cell_length_c   5.27033863
_cell_angle_alpha   80.94869301
_cell_angle_beta   99.05130699
_cell_angle_gamma   109.79331648
_symmetry_Int_Tables_number   1
_chemical_formula_structural   LiTi(PO3)4
_chemical_formula_sum   'Li2 Ti2 P8 O24'
_cell_volume   538.07584186
_cell_formula_units_Z   2
loop_
 _symmetry_equiv_pos_site_id
 _symmetry_equiv_pos_as_xyz
  1  'x, y, z'
loop_
 _atom_site_type_symbol
 _atom_site_label
 _atom_site_symmetry_multiplicity
 _atom_site_fract_x
 _atom_site_fract_y
 _atom_site_fract_z
 _atom_site_occupancy
  Li  Li0  1  0.434535  0.565465  0.364533  1
  Li  Li1  1  0.565465  0.434535  0.635467  1
  Ti  Ti2  1  0.500000  0.000000  0.000000  1
  Ti  Ti3  1  0.000000  0.500000  0.000000  1
  P  P4  1  0.366291  0.215457  0.172571  1
  P  P5  1  0.784543  0.633709  0.172571  1
  P  P6  1  0.936935  0.304737  0.537419  1
  P  P7  1  0.695263  0.063065  0.537419  1
  P  P8  1  0.063065  0.695263  0.462581  1
  P  P9  1  0.304737  0.936935  0.462581  1
  P  P10  1  0.215457  0.366291  0.827429  1
  P  P11  1  0.633709  0.784543  0.827429  1
  O  O12  1  0.227836  0.227836  0.000000  1
  O  O13  1  0.772164  0.772164  0.000000  1
  O  O14  1  0.664313  0.082633  0.247516  1
  O  O15  1  0.917367  0.335687  0.247516  1
  O  O16  1  0.170943  0.442887  0.998386  1
  O  O17  1  0.557113  0.829057  0.998386  1
  O  O18  1  0.436326  0.336717  0.313758  1
  O  O19  1  0.663283  0.563674  0.313758  1
  O  O20  1  0.913917  0.703217  0.376539  1
  O  O21  1  0.296783  0.086083  0.376539  1
  O  O22  1  0.851016  0.148984  0.614883  1
  O  O23  1  0.099166  0.606011  0.308119  1
  O  O24  1  0.393989  0.900834  0.308119  1
  O  O25  1  0.606011  0.099166  0.691881  1
  O  O26  1  0.900834  0.393989  0.691881  1
  O  O27  1  0.148984  0.851016  0.385117  1
  O  O28  1  0.086083  0.296783  0.623461  1
  O  O29  1  0.703217  0.913917  0.623461  1
  O  O30  1  0.336717  0.436326  0.686242  1
  O  O31  1  0.563674  0.663283  0.686242  1
  O  O32  1  0.442887  0.170943  0.001614  1
  O  O33  1  0.829057  0.557113  0.001614  1
  O  O34  1  0.082633  0.664313  0.752484  1
  O  O35  1  0.335687  0.917367  0.752484  1
