# generated using pymatgen
data_DyNbO4
_symmetry_space_group_name_H-M   'P 1'
_cell_length_a   7.10034234
_cell_length_b   7.10034234
_cell_length_c   7.24261944
_cell_angle_alpha   74.15515703
_cell_angle_beta   105.84484297
_cell_angle_gamma   147.07537838
_symmetry_Int_Tables_number   1
_chemical_formula_structural   DyNbO4
_chemical_formula_sum   'Dy2 Nb2 O8'
_cell_volume   190.25072363
_cell_formula_units_Z   2
loop_
 _symmetry_equiv_pos_site_id
 _symmetry_equiv_pos_as_xyz
  1  'x, y, z'
loop_
 _atom_site_type_symbol
 _atom_site_label
 _atom_site_symmetry_multiplicity
 _atom_site_fract_x
 _atom_site_fract_y
 _atom_site_fract_z
 _atom_site_occupancy
  Dy  Dy0  1  0.806209  0.193791  0.711284  1
  Dy  Dy1  1  0.193791  0.806209  0.288716  1
  Nb  Nb2  1  0.902803  0.097197  0.291853  1
  Nb  Nb3  1  0.097197  0.902803  0.708147  1
  O  O4  1  0.952796  0.047204  0.631235  1
  O  O5  1  0.868327  0.131673  0.026873  1
  O  O6  1  0.242596  0.757404  0.640237  1
  O  O7  1  0.376053  0.623947  0.305401  1
  O  O8  1  0.623947  0.376053  0.694599  1
  O  O9  1  0.757404  0.242596  0.359763  1
  O  O10  1  0.131673  0.868327  0.973127  1
  O  O11  1  0.047204  0.952796  0.368765  1
