# generated using pymatgen
data_LiMn(CO3)2
_symmetry_space_group_name_H-M   'P 1'
_cell_length_a   6.50486897
_cell_length_b   6.50486897
_cell_length_c   8.40308907
_cell_angle_alpha   83.10787398
_cell_angle_beta   96.89212602
_cell_angle_gamma   49.01992277
_symmetry_Int_Tables_number   1
_chemical_formula_structural   LiMn(CO3)2
_chemical_formula_sum   'Li2 Mn2 C4 O12'
_cell_volume   256.95237594
_cell_formula_units_Z   2
loop_
 _symmetry_equiv_pos_site_id
 _symmetry_equiv_pos_as_xyz
  1  'x, y, z'
loop_
 _atom_site_type_symbol
 _atom_site_label
 _atom_site_symmetry_multiplicity
 _atom_site_fract_x
 _atom_site_fract_y
 _atom_site_fract_z
 _atom_site_occupancy
  Li  Li0  1  0.532771  0.232977  0.348351  1
  Li  Li1  1  0.767023  0.467229  0.848351  1
  Mn  Mn2  1  0.134238  0.124230  0.497071  1
  Mn  Mn3  1  0.875770  0.865762  0.997071  1
  C  C4  1  0.955156  0.382363  0.208687  1
  C  C5  1  0.001710  0.842210  0.292841  1
  C  C6  1  0.617637  0.044844  0.708687  1
  C  C7  1  0.157790  0.998290  0.792841  1
  O  O8  1  0.858638  0.529319  0.059750  1
  O  O9  1  0.753973  0.040328  0.179869  1
  O  O10  1  0.809420  0.470484  0.319911  1
  O  O11  1  0.209365  0.132789  0.268030  1
  O  O12  1  0.189765  0.627416  0.241110  1
  O  O13  1  0.028140  0.880122  0.435761  1
  O  O14  1  0.470681  0.141362  0.559750  1
  O  O15  1  0.867211  0.790635  0.768030  1
  O  O16  1  0.959672  0.246027  0.679869  1
  O  O17  1  0.372584  0.810235  0.741110  1
  O  O18  1  0.529516  0.190580  0.819911  1
  O  O19  1  0.119878  0.971860  0.935761  1
