# generated using pymatgen
data_Li5Nb2Fe5O12
_symmetry_space_group_name_H-M   'P 1'
_cell_length_a   5.20963626
_cell_length_b   5.31216993
_cell_length_c   10.25164440
_cell_angle_alpha   84.06175447
_cell_angle_beta   77.77128992
_cell_angle_gamma   60.81958234
_symmetry_Int_Tables_number   1
_chemical_formula_structural   Li5Nb2Fe5O12
_chemical_formula_sum   'Li5 Nb2 Fe5 O12'
_cell_volume   242.08259904
_cell_formula_units_Z   1
loop_
 _symmetry_equiv_pos_site_id
 _symmetry_equiv_pos_as_xyz
  1  'x, y, z'
loop_
 _atom_site_type_symbol
 _atom_site_label
 _atom_site_symmetry_multiplicity
 _atom_site_fract_x
 _atom_site_fract_y
 _atom_site_fract_z
 _atom_site_occupancy
  Li  Li0  1  0.679334  0.152617  0.503273  1
  Li  Li1  1  0.826639  0.853519  0.993722  1
  Li  Li2  1  0.165028  0.152983  0.997923  1
  Li  Li3  1  0.327664  0.851385  0.507472  1
  Li  Li4  1  0.919499  0.161361  0.749443  1
  Nb  Nb5  1  0.239793  0.505396  0.749502  1
  Nb  Nb6  1  0.734960  0.519710  0.248987  1
  Fe  Fe7  1  0.079930  0.823555  0.249838  1
  Fe  Fe8  1  0.504327  0.489026  0.994040  1
  Fe  Fe9  1  0.001838  0.498193  0.502340  1
  Fe  Fe10  1  0.430329  0.154689  0.251281  1
  Fe  Fe11  1  0.584247  0.837768  0.751712  1
  O  O12  1  0.204146  0.809343  0.867535  1
  O  O13  1  0.985032  0.815080  0.630705  1
  O  O14  1  0.373621  0.502433  0.376895  1
  O  O15  1  0.128066  0.504427  0.126170  1
  O  O16  1  0.519917  0.179379  0.862794  1
  O  O17  1  0.293286  0.191420  0.633661  1
  O  O18  1  0.701260  0.819105  0.380747  1
  O  O19  1  0.488704  0.808994  0.123516  1
  O  O20  1  0.885788  0.496292  0.871227  1
  O  O21  1  0.613457  0.510590  0.635656  1
  O  O22  1  0.023792  0.185505  0.361708  1
  O  O23  1  0.789345  0.177224  0.129853  1
