# generated using pymatgen
data_NaSbAsCO7
_symmetry_space_group_name_H-M   'P 1'
_cell_length_a   5.67436272
_cell_length_b   6.91753589
_cell_length_c   9.40365601
_cell_angle_alpha   90.00000000
_cell_angle_beta   91.00323375
_cell_angle_gamma   90.00000000
_symmetry_Int_Tables_number   1
_chemical_formula_structural   NaSbAsCO7
_chemical_formula_sum   'Na2 Sb2 As2 C2 O14'
_cell_volume   369.06143829
_cell_formula_units_Z   2
loop_
 _symmetry_equiv_pos_site_id
 _symmetry_equiv_pos_as_xyz
  1  'x, y, z'
loop_
 _atom_site_type_symbol
 _atom_site_label
 _atom_site_symmetry_multiplicity
 _atom_site_fract_x
 _atom_site_fract_y
 _atom_site_fract_z
 _atom_site_occupancy
  Na  Na0  1  0.763580  0.508645  0.208696  1
  Na  Na1  1  0.236420  0.008645  0.791304  1
  Sb  Sb2  1  0.206273  0.240384  0.342644  1
  Sb  Sb3  1  0.793727  0.740384  0.657356  1
  As  As4  1  0.283051  0.746797  0.428344  1
  As  As5  1  0.716949  0.246797  0.571656  1
  C  C6  1  0.276848  0.257258  0.074600  1
  C  C7  1  0.723152  0.757258  0.925400  1
  O  O8  1  0.690440  0.744254  0.053484  1
  O  O9  1  0.062610  0.255543  0.135443  1
  O  O10  1  0.451308  0.270291  0.174066  1
  O  O11  1  0.205403  0.940373  0.320865  1
  O  O12  1  0.179489  0.548428  0.334254  1
  O  O13  1  0.844854  0.263606  0.405879  1
  O  O14  1  0.585791  0.726572  0.458355  1
  O  O15  1  0.414209  0.226572  0.541645  1
  O  O16  1  0.155146  0.763606  0.594121  1
  O  O17  1  0.820511  0.048428  0.665746  1
  O  O18  1  0.794597  0.440373  0.679135  1
  O  O19  1  0.548692  0.770291  0.825934  1
  O  O20  1  0.937390  0.755543  0.864557  1
  O  O21  1  0.309560  0.244254  0.946516  1
