# generated using pymatgen
data_NbFe(PO4)2
_symmetry_space_group_name_H-M   'P 1'
_cell_length_a   4.99924665
_cell_length_b   6.16765072
_cell_length_c   10.15283251
_cell_angle_alpha   90.00000000
_cell_angle_beta   92.76474466
_cell_angle_gamma   90.00000000
_symmetry_Int_Tables_number   1
_chemical_formula_structural   NbFe(PO4)2
_chemical_formula_sum   'Nb2 Fe2 P4 O16'
_cell_volume   312.68406301
_cell_formula_units_Z   2
loop_
 _symmetry_equiv_pos_site_id
 _symmetry_equiv_pos_as_xyz
  1  'x, y, z'
loop_
 _atom_site_type_symbol
 _atom_site_label
 _atom_site_symmetry_multiplicity
 _atom_site_fract_x
 _atom_site_fract_y
 _atom_site_fract_z
 _atom_site_occupancy
  Nb  Nb0  1  0.948123  0.750000  0.220043  1
  Nb  Nb1  1  0.051877  0.250000  0.779957  1
  Fe  Fe2  1  0.455592  0.250000  0.278014  1
  Fe  Fe3  1  0.544408  0.750000  0.721986  1
  P  P4  1  0.923609  0.250000  0.094055  1
  P  P5  1  0.397178  0.750000  0.401988  1
  P  P6  1  0.602822  0.250000  0.598012  1
  P  P7  1  0.076391  0.750000  0.905945  1
  O  O8  1  0.179049  0.750000  0.051848  1
  O  O9  1  0.226941  0.250000  0.110227  1
  O  O10  1  0.796385  0.048923  0.166735  1
  O  O11  1  0.796385  0.451077  0.166735  1
  O  O12  1  0.247994  0.943303  0.326103  1
  O  O13  1  0.247994  0.556697  0.326103  1
  O  O14  1  0.699528  0.750000  0.377550  1
  O  O15  1  0.649863  0.250000  0.452099  1
  O  O16  1  0.350137  0.750000  0.547901  1
  O  O17  1  0.300472  0.250000  0.622450  1
  O  O18  1  0.752006  0.056697  0.673897  1
  O  O19  1  0.752006  0.443303  0.673897  1
  O  O20  1  0.203615  0.548923  0.833265  1
  O  O21  1  0.203615  0.951077  0.833265  1
  O  O22  1  0.773059  0.750000  0.889773  1
  O  O23  1  0.820951  0.250000  0.948152  1
