# generated using pymatgen
data_Li2MnNb3O8
_symmetry_space_group_name_H-M   'P 1'
_cell_length_a   6.24335949
_cell_length_b   6.24335949
_cell_length_c   6.24335949
_cell_angle_alpha   59.07518289
_cell_angle_beta   59.07518289
_cell_angle_gamma   59.07518289
_symmetry_Int_Tables_number   1
_chemical_formula_structural   Li2MnNb3O8
_chemical_formula_sum   'Li2 Mn1 Nb3 O8'
_cell_volume   168.45521748
_cell_formula_units_Z   1
loop_
 _symmetry_equiv_pos_site_id
 _symmetry_equiv_pos_as_xyz
  1  'x, y, z'
loop_
 _atom_site_type_symbol
 _atom_site_label
 _atom_site_symmetry_multiplicity
 _atom_site_fract_x
 _atom_site_fract_y
 _atom_site_fract_z
 _atom_site_occupancy
  Li  Li0  1  0.881132  0.881132  0.881132  1
  Li  Li1  1  0.495846  0.495846  0.495846  1
  Mn  Mn2  1  0.125066  0.125066  0.125066  1
  Nb  Nb3  1  0.510673  0.510673  0.978590  1
  Nb  Nb4  1  0.978590  0.510673  0.510673  1
  Nb  Nb5  1  0.510673  0.978590  0.510673  1
  O  O6  1  0.752981  0.752981  0.752981  1
  O  O7  1  0.745834  0.276063  0.745834  1
  O  O8  1  0.276063  0.745834  0.745834  1
  O  O9  1  0.745834  0.745834  0.276063  1
  O  O10  1  0.251817  0.251817  0.712545  1
  O  O11  1  0.712545  0.251817  0.251817  1
  O  O12  1  0.251817  0.712545  0.251817  1
  O  O13  1  0.261129  0.261129  0.261129  1
