# generated using pymatgen
data_ZnPH5C2N4O3
_symmetry_space_group_name_H-M   'P 1'
_cell_length_a   9.39193565
_cell_length_b   8.40185928
_cell_length_c   9.89012364
_cell_angle_alpha   90.00000000
_cell_angle_beta   104.43144522
_cell_angle_gamma   90.00000000
_symmetry_Int_Tables_number   1
_chemical_formula_structural   ZnPH5C2N4O3
_chemical_formula_sum   'Zn4 P4 H20 C8 N16 O12'
_cell_volume   755.80172567
_cell_formula_units_Z   4
loop_
 _symmetry_equiv_pos_site_id
 _symmetry_equiv_pos_as_xyz
  1  'x, y, z'
loop_
 _atom_site_type_symbol
 _atom_site_label
 _atom_site_symmetry_multiplicity
 _atom_site_fract_x
 _atom_site_fract_y
 _atom_site_fract_z
 _atom_site_occupancy
  Zn  Zn0  1  0.459621  0.605620  0.676830  1
  Zn  Zn1  1  0.959621  0.894380  0.676830  1
  Zn  Zn2  1  0.040379  0.105620  0.323170  1
  Zn  Zn3  1  0.540379  0.394380  0.323170  1
  P  P4  1  0.209937  0.836272  0.520224  1
  P  P5  1  0.290063  0.336272  0.479776  1
  P  P6  1  0.709937  0.663728  0.520224  1
  P  P7  1  0.790063  0.163728  0.479776  1
  H  H8  1  0.323432  0.165019  0.905148  1
  H  H9  1  0.308707  0.021480  0.778190  1
  H  H10  1  0.823432  0.334981  0.905148  1
  H  H11  1  0.163554  0.415989  0.725447  1
  H  H12  1  0.998169  0.522681  0.673931  1
  H  H13  1  0.808707  0.478520  0.778190  1
  H  H14  1  0.663554  0.084011  0.725447  1
  H  H15  1  0.498169  0.977319  0.673931  1
  H  H16  1  0.138369  0.688369  0.496451  1
  H  H17  1  0.361631  0.188369  0.503549  1
  H  H18  1  0.638369  0.811631  0.496451  1
  H  H19  1  0.861631  0.311631  0.503549  1
  H  H20  1  0.501831  0.022681  0.326069  1
  H  H21  1  0.336446  0.915989  0.274553  1
  H  H22  1  0.191293  0.521480  0.221810  1
  H  H23  1  0.001831  0.477319  0.326069  1
  H  H24  1  0.836446  0.584011  0.274553  1
  H  H25  1  0.176568  0.665019  0.094852  1
  H  H26  1  0.691293  0.978520  0.221810  1
  H  H27  1  0.676568  0.834981  0.094852  1
  C  C28  1  0.439044  0.704195  0.972630  1
  C  C29  1  0.011249  0.370338  0.838217  1
  C  C30  1  0.939044  0.795805  0.972630  1
  C  C31  1  0.511249  0.129662  0.838217  1
  C  C32  1  0.488751  0.870338  0.161783  1
  C  C33  1  0.060956  0.204195  0.027370  1
  C  C34  1  0.988751  0.629662  0.161783  1
  C  C35  1  0.560956  0.295805  0.027370  1
  N  N36  1  0.098392  0.261103  0.920817  1
  N  N37  1  0.598392  0.238897  0.920817  1
  N  N38  1  0.466800  0.646874  0.872901  1
  N  N39  1  0.376445  0.092133  0.851449  1
  N  N40  1  0.064042  0.445655  0.742449  1
  N  N41  1  0.966800  0.853126  0.872901  1
  N  N42  1  0.876445  0.407867  0.851449  1
  N  N43  1  0.564042  0.054345  0.742449  1
  N  N44  1  0.435958  0.945655  0.257551  1
  N  N45  1  0.123555  0.592133  0.148551  1
  N  N46  1  0.033200  0.146874  0.127099  1
  N  N47  1  0.935958  0.554345  0.257551  1
  N  N48  1  0.623555  0.907867  0.148551  1
  N  N49  1  0.533200  0.353126  0.127099  1
  N  N50  1  0.401608  0.761103  0.079183  1
  N  N51  1  0.901608  0.738897  0.079183  1
  O  O52  1  0.151570  0.923773  0.633236  1
  O  O53  1  0.325006  0.424402  0.620945  1
  O  O54  1  0.376194  0.803547  0.571601  1
  O  O55  1  0.651570  0.576227  0.633236  1
  O  O56  1  0.825006  0.075598  0.620945  1
  O  O57  1  0.123806  0.303547  0.428399  1
  O  O58  1  0.876194  0.696453  0.571601  1
  O  O59  1  0.174994  0.924402  0.379055  1
  O  O60  1  0.348430  0.423773  0.366764  1
  O  O61  1  0.623806  0.196453  0.428399  1
  O  O62  1  0.674994  0.575598  0.379055  1
  O  O63  1  0.848430  0.076227  0.366764  1
