# generated using pymatgen
data_BaNa6O4
_symmetry_space_group_name_H-M   'P 1'
_cell_length_a   9.97717160
_cell_length_b   9.97717160
_cell_length_c   9.97717160
_cell_angle_alpha   109.47122063
_cell_angle_beta   109.47122063
_cell_angle_gamma   109.47122063
_symmetry_Int_Tables_number   1
_chemical_formula_structural   BaNa6O4
_chemical_formula_sum   'Ba4 Na24 O16'
_cell_volume   764.54039212
_cell_formula_units_Z   4
loop_
 _symmetry_equiv_pos_site_id
 _symmetry_equiv_pos_as_xyz
  1  'x, y, z'
loop_
 _atom_site_type_symbol
 _atom_site_label
 _atom_site_symmetry_multiplicity
 _atom_site_fract_x
 _atom_site_fract_y
 _atom_site_fract_z
 _atom_site_occupancy
  Ba  Ba0  1  0.748773  1.000000  0.000000  1
  Ba  Ba1  1  0.251227  0.251227  0.251227  1
  Ba  Ba2  1  1.000000  0.748773  0.000000  1
  Ba  Ba3  1  1.000000  1.000000  0.748773  1
  Na  Na4  1  0.719916  0.472429  1.000000  1
  Na  Na5  1  0.719916  1.000000  0.472429  1
  Na  Na6  1  0.473061  0.220625  0.000000  1
  Na  Na7  1  0.473061  0.000000  0.220625  1
  Na  Na8  1  0.752513  0.280084  0.280084  1
  Na  Na9  1  0.779375  0.252436  0.779375  1
  Na  Na10  1  0.779375  0.779375  0.252436  1
  Na  Na11  1  0.220625  0.473061  0.000000  1
  Na  Na12  1  0.220625  1.000000  0.473061  1
  Na  Na13  1  0.527571  0.247487  0.527571  1
  Na  Na14  1  0.527571  0.527571  0.247487  1
  Na  Na15  1  0.472429  0.719916  1.000000  1
  Na  Na16  1  0.472429  1.000000  0.719916  1
  Na  Na17  1  0.747564  0.526939  0.526939  1
  Na  Na18  1  0.000000  0.473061  0.220625  1
  Na  Na19  1  1.000000  0.220625  0.473061  1
  Na  Na20  1  0.280084  0.752513  0.280084  1
  Na  Na21  1  0.280084  0.280084  0.752513  1
  Na  Na22  1  0.526939  0.747564  0.526939  1
  Na  Na23  1  0.526939  0.526939  0.747564  1
  Na  Na24  1  0.247487  0.527571  0.527571  1
  Na  Na25  1  1.000000  0.719916  0.472429  1
  Na  Na26  1  1.000000  0.472429  0.719916  1
  Na  Na27  1  0.252436  0.779375  0.779375  1
  O  O28  1  0.723503  0.245094  1.000000  1
  O  O29  1  0.723503  0.000000  0.245094  1
  O  O30  1  0.000000  0.000000  0.000000  1
  O  O31  1  0.500000  0.500000  0.000000  1
  O  O32  1  0.500000  1.000000  0.500000  1
  O  O33  1  0.521592  0.276497  0.276497  1
  O  O34  1  0.754906  0.478408  0.754906  1
  O  O35  1  0.754906  0.754906  0.478408  1
  O  O36  1  0.245094  0.723503  0.000000  1
  O  O37  1  0.245094  1.000000  0.723503  1
  O  O38  1  0.276497  0.521592  0.276497  1
  O  O39  1  0.276497  0.276497  0.521592  1
  O  O40  1  1.000000  0.723503  0.245094  1
  O  O41  1  1.000000  0.245094  0.723503  1
  O  O42  1  1.000000  0.500000  0.500000  1
  O  O43  1  0.478408  0.754906  0.754906  1
