# generated using pymatgen
data_Li24Mn11CrO36
_symmetry_space_group_name_H-M   'P 1'
_cell_length_a   8.66430713
_cell_length_b   8.66430713
_cell_length_c   10.16702473
_cell_angle_alpha   73.23249650
_cell_angle_beta   106.76750350
_cell_angle_gamma   120.13740581
_symmetry_Int_Tables_number   1
_chemical_formula_structural   Li24Mn11CrO36
_chemical_formula_sum   'Li24 Mn11 Cr1 O36'
_cell_volume   622.42269114
_cell_formula_units_Z   1
loop_
 _symmetry_equiv_pos_site_id
 _symmetry_equiv_pos_as_xyz
  1  'x, y, z'
loop_
 _atom_site_type_symbol
 _atom_site_label
 _atom_site_symmetry_multiplicity
 _atom_site_fract_x
 _atom_site_fract_y
 _atom_site_fract_z
 _atom_site_occupancy
  Li  Li0  1  0.171275  0.837130  0.749440  1
  Li  Li1  1  0.333215  0.000292  0.999563  1
  Li  Li2  1  0.170176  0.838300  0.250364  1
  Li  Li3  1  0.495940  0.161164  0.250091  1
  Li  Li4  1  0.500130  0.833357  0.250169  1
  Li  Li5  1  0.333446  0.000148  0.500037  1
  Li  Li6  1  0.495238  0.163439  0.751071  1
  Li  Li7  1  0.499714  0.833575  0.749844  1
  Li  Li8  1  0.833575  0.499714  0.250156  1
  Li  Li9  1  0.833357  0.500130  0.749831  1
  Li  Li10  1  0.838300  0.170176  0.749636  1
  Li  Li11  1  0.000292  0.333215  0.000437  1
  Li  Li12  1  0.837130  0.171275  0.250560  1
  Li  Li13  1  0.163439  0.495238  0.248929  1
  Li  Li14  1  0.166668  0.166994  0.249904  1
  Li  Li15  1  0.000148  0.333446  0.499963  1
  Li  Li16  1  0.161164  0.495940  0.749909  1
  Li  Li17  1  0.166994  0.166668  0.750096  1
  Li  Li18  1  0.504642  0.503081  0.748972  1
  Li  Li19  1  0.667586  0.667586  0.000000  1
  Li  Li20  1  0.503081  0.504642  0.251028  1
  Li  Li21  1  0.829801  0.828950  0.249614  1
  Li  Li22  1  0.666827  0.666827  0.500000  1
  Li  Li23  1  0.828950  0.829801  0.750386  1
  Mn  Mn24  1  0.667036  0.332605  0.998909  1
  Mn  Mn25  1  0.667026  0.000302  0.999912  1
  Mn  Mn26  1  0.666199  0.332897  0.500000  1
  Mn  Mn27  1  0.666939  0.000253  0.500013  1
  Mn  Mn28  1  0.000302  0.667026  0.000088  1
  Mn  Mn29  1  0.999597  0.999597  0.000000  1
  Mn  Mn30  1  0.000253  0.666939  0.499987  1
  Mn  Mn31  1  0.999548  0.999548  0.500000  1
  Mn  Mn32  1  0.332605  0.667036  0.001091  1
  Mn  Mn33  1  0.332897  0.666199  0.500000  1
  Mn  Mn34  1  0.333525  0.333525  0.500000  1
  Cr  Cr35  1  0.337087  0.337087  0.000000  1
  O  O36  1  0.427192  0.906672  0.885975  1
  O  O37  1  0.571496  0.401253  0.112054  1
  O  O38  1  0.426901  0.906335  0.385948  1
  O  O39  1  0.596379  0.093808  0.112152  1
  O  O40  1  0.572937  0.403782  0.611932  1
  O  O41  1  0.596316  0.093782  0.612033  1
  O  O42  1  0.738020  0.239572  0.887939  1
  O  O43  1  0.760109  0.573306  0.885969  1
  O  O44  1  0.759839  0.929027  0.887881  1
  O  O45  1  0.736928  0.239483  0.387783  1
  O  O46  1  0.906672  0.427192  0.114025  1
  O  O47  1  0.906086  0.070206  0.112082  1
  O  O48  1  0.760215  0.572990  0.385874  1
  O  O49  1  0.760329  0.929576  0.387870  1
  O  O50  1  0.929027  0.759839  0.112119  1
  O  O51  1  0.906335  0.426901  0.614052  1
  O  O52  1  0.906082  0.070308  0.612057  1
  O  O53  1  0.929576  0.760329  0.612130  1
  O  O54  1  0.070206  0.906086  0.887918  1
  O  O55  1  0.093808  0.596379  0.887848  1
  O  O56  1  0.093592  0.238489  0.885787  1
  O  O57  1  0.070308  0.906082  0.387943  1
  O  O58  1  0.239572  0.738020  0.112061  1
  O  O59  1  0.238489  0.093592  0.114213  1
  O  O60  1  0.093782  0.596316  0.387967  1
  O  O61  1  0.093526  0.239551  0.386114  1
  O  O62  1  0.262685  0.429832  0.113421  1
  O  O63  1  0.239483  0.736928  0.612217  1
  O  O64  1  0.239551  0.093526  0.613886  1
  O  O65  1  0.262967  0.427094  0.612192  1
  O  O66  1  0.401253  0.571496  0.887946  1
  O  O67  1  0.429832  0.262685  0.886579  1
  O  O68  1  0.403782  0.572937  0.388068  1
  O  O69  1  0.573306  0.760109  0.114031  1
  O  O70  1  0.427094  0.262967  0.387808  1
  O  O71  1  0.572990  0.760215  0.614126  1
