# generated using pymatgen
data_Li2Mn2CrO6
_symmetry_space_group_name_H-M   'P 1'
_cell_length_a   5.11252691
_cell_length_b   5.11252691
_cell_length_c   10.20918055
_cell_angle_alpha   90.00000000
_cell_angle_beta   90.00000000
_cell_angle_gamma   118.55015494
_symmetry_Int_Tables_number   1
_chemical_formula_structural   Li2Mn2CrO6
_chemical_formula_sum   'Li4 Mn4 Cr2 O12'
_cell_volume   234.39803866
_cell_formula_units_Z   2
loop_
 _symmetry_equiv_pos_site_id
 _symmetry_equiv_pos_as_xyz
  1  'x, y, z'
loop_
 _atom_site_type_symbol
 _atom_site_label
 _atom_site_symmetry_multiplicity
 _atom_site_fract_x
 _atom_site_fract_y
 _atom_site_fract_z
 _atom_site_occupancy
  Li  Li0  1  0.647394  0.147394  0.750000  1
  Li  Li1  1  0.852606  0.352606  0.250000  1
  Li  Li2  1  0.147394  0.647394  0.750000  1
  Li  Li3  1  0.352606  0.852606  0.250000  1
  Mn  Mn4  1  0.837177  0.162823  0.500000  1
  Mn  Mn5  1  0.662823  0.337177  0.000000  1
  Mn  Mn6  1  0.337177  0.662823  1.000000  1
  Mn  Mn7  1  0.162823  0.837177  0.500000  1
  Cr  Cr8  1  0.000000  0.000000  0.000000  1
  Cr  Cr9  1  0.500000  0.500000  0.500000  1
  O  O10  1  0.670727  0.020913  0.106107  1
  O  O11  1  0.329273  0.979087  0.893893  1
  O  O12  1  0.520913  0.170727  0.393893  1
  O  O13  1  0.829273  0.479087  0.606107  1
  O  O14  1  0.165404  0.165404  0.596057  1
  O  O15  1  0.334596  0.334596  0.096057  1
  O  O16  1  0.665404  0.665404  0.903943  1
  O  O17  1  0.979087  0.329273  0.893893  1
  O  O18  1  0.834596  0.834596  0.403943  1
  O  O19  1  0.170727  0.520913  0.393893  1
  O  O20  1  0.479087  0.829273  0.606107  1
  O  O21  1  0.020913  0.670727  0.106107  1
