# generated using pymatgen
data_Rb4NaW2N5O
_symmetry_space_group_name_H-M   'P 1'
_cell_length_a   8.82706827
_cell_length_b   9.11468559
_cell_length_c   10.06367501
_cell_angle_alpha   81.89250350
_cell_angle_beta   65.71457045
_cell_angle_gamma   85.14882269
_symmetry_Int_Tables_number   1
_chemical_formula_structural   Rb4NaW2N5O
_chemical_formula_sum   'Rb8 Na2 W4 N10 O2'
_cell_volume   730.33891780
_cell_formula_units_Z   2
loop_
 _symmetry_equiv_pos_site_id
 _symmetry_equiv_pos_as_xyz
  1  'x, y, z'
loop_
 _atom_site_type_symbol
 _atom_site_label
 _atom_site_symmetry_multiplicity
 _atom_site_fract_x
 _atom_site_fract_y
 _atom_site_fract_z
 _atom_site_occupancy
  Rb  Rb0  1  0.194910  0.341884  0.759901  1
  Rb  Rb1  1  0.231009  0.948423  0.418272  1
  Rb  Rb2  1  0.717147  0.460157  0.727671  1
  Rb  Rb3  1  0.639823  0.202166  0.265731  1
  Rb  Rb4  1  0.360177  0.797834  0.734269  1
  Rb  Rb5  1  0.282853  0.539843  0.272329  1
  Rb  Rb6  1  0.768991  0.051577  0.581728  1
  Rb  Rb7  1  0.805090  0.658116  0.240099  1
  Na  Na8  1  0.853740  0.113096  0.944421  1
  Na  Na9  1  0.146260  0.886904  0.055579  1
  W  W10  1  0.587374  0.879438  0.022684  1
  W  W11  1  0.065455  0.185359  0.176480  1
  W  W12  1  0.934545  0.814641  0.823520  1
  W  W13  1  0.412626  0.120562  0.977316  1
  N  N14  1  0.014363  0.996309  0.730722  1
  N  N15  1  0.968511  0.691582  0.657317  1
  N  N16  1  0.968074  0.256205  0.051912  1
  N  N17  1  0.915458  0.369002  0.441129  1
  N  N18  1  0.577105  0.908014  0.196620  1
  N  N19  1  0.422895  0.091986  0.803380  1
  N  N20  1  0.084542  0.630998  0.558871  1
  N  N21  1  0.031926  0.743795  0.948088  1
  N  N22  1  0.031489  0.308418  0.342683  1
  N  N23  1  0.985637  0.003691  0.269278  1
  O  O24  1  0.758086  0.368202  0.446031  1
  O  O25  1  0.241914  0.631798  0.553969  1
