# generated using pymatgen
data_CaB3H3O7
_symmetry_space_group_name_H-M   'P 1'
_cell_length_a   7.29772797
_cell_length_b   8.19654136
_cell_length_c   8.47569817
_cell_angle_alpha   90.00000000
_cell_angle_beta   97.98967451
_cell_angle_gamma   90.00000000
_symmetry_Int_Tables_number   1
_chemical_formula_structural   CaB3H3O7
_chemical_formula_sum   'Ca4 B12 H12 O28'
_cell_volume   502.06223570
_cell_formula_units_Z   4
loop_
 _symmetry_equiv_pos_site_id
 _symmetry_equiv_pos_as_xyz
  1  'x, y, z'
loop_
 _atom_site_type_symbol
 _atom_site_label
 _atom_site_symmetry_multiplicity
 _atom_site_fract_x
 _atom_site_fract_y
 _atom_site_fract_z
 _atom_site_occupancy
  Ca  Ca0  1  0.074057  0.293707  0.388011  1
  Ca  Ca1  1  0.925943  0.793707  0.111989  1
  Ca  Ca2  1  0.925943  0.706293  0.611989  1
  Ca  Ca3  1  0.074057  0.206293  0.888011  1
  B  B4  1  0.311958  0.460918  0.167218  1
  B  B5  1  0.688042  0.960918  0.332782  1
  B  B6  1  0.688042  0.539082  0.832782  1
  B  B7  1  0.311958  0.039082  0.667218  1
  B  B8  1  0.779764  0.353708  0.614419  1
  B  B9  1  0.220236  0.853708  0.885581  1
  B  B10  1  0.220236  0.646292  0.385581  1
  B  B11  1  0.779764  0.146292  0.114419  1
  B  B12  1  0.486533  0.308331  0.717825  1
  B  B13  1  0.513467  0.808331  0.782175  1
  B  B14  1  0.513467  0.691669  0.282175  1
  B  B15  1  0.486533  0.191669  0.217825  1
  H  H16  1  0.352018  0.449630  0.933340  1
  H  H17  1  0.647982  0.949630  0.566660  1
  H  H18  1  0.647982  0.550370  0.066660  1
  H  H19  1  0.352018  0.050370  0.433340  1
  H  H20  1  0.687446  0.457226  0.388754  1
  H  H21  1  0.312554  0.957226  0.111246  1
  H  H22  1  0.312554  0.542774  0.611246  1
  H  H23  1  0.687446  0.042774  0.888754  1
  H  H24  1  0.866346  0.383513  0.080691  1
  H  H25  1  0.133654  0.883513  0.419309  1
  H  H26  1  0.133654  0.616487  0.919309  1
  H  H27  1  0.866346  0.116487  0.580691  1
  O  O28  1  0.923711  0.276448  0.119746  1
  O  O29  1  0.076289  0.776448  0.380254  1
  O  O30  1  0.076289  0.723552  0.880254  1
  O  O31  1  0.923711  0.223552  0.619746  1
  O  O32  1  0.831065  0.457487  0.754580  1
  O  O33  1  0.168935  0.957487  0.745420  1
  O  O34  1  0.168935  0.542513  0.245420  1
  O  O35  1  0.831065  0.042513  0.254580  1
  O  O36  1  0.342020  0.293759  0.239765  1
  O  O37  1  0.657980  0.793759  0.260235  1
  O  O38  1  0.657980  0.706241  0.760235  1
  O  O39  1  0.342020  0.206241  0.739765  1
  O  O40  1  0.244185  0.444744  0.994753  1
  O  O41  1  0.755815  0.944744  0.505247  1
  O  O42  1  0.755815  0.555256  0.005247  1
  O  O43  1  0.244185  0.055256  0.494753  1
  O  O44  1  0.799432  0.455297  0.466092  1
  O  O45  1  0.200568  0.955297  0.033908  1
  O  O46  1  0.200568  0.544703  0.533908  1
  O  O47  1  0.799432  0.044703  0.966092  1
  O  O48  1  0.599075  0.279022  0.605472  1
  O  O49  1  0.400925  0.779022  0.894528  1
  O  O50  1  0.400925  0.720978  0.394528  1
  O  O51  1  0.599075  0.220978  0.105472  1
  O  O52  1  0.509344  0.448273  0.809867  1
  O  O53  1  0.490656  0.948273  0.690133  1
  O  O54  1  0.490656  0.551727  0.190133  1
  O  O55  1  0.509344  0.051727  0.309867  1
