# generated using pymatgen
data_Li2Cr(FeO3)2
_symmetry_space_group_name_H-M   'P 1'
_cell_length_a   6.68527651
_cell_length_b   6.69244157
_cell_length_c   8.37387619
_cell_angle_alpha   71.30169254
_cell_angle_beta   71.23223015
_cell_angle_gamma   82.98596044
_symmetry_Int_Tables_number   1
_chemical_formula_structural   Li2Cr(FeO3)2
_chemical_formula_sum   'Li6 Cr3 Fe6 O18'
_cell_volume   335.93578064
_cell_formula_units_Z   3
loop_
 _symmetry_equiv_pos_site_id
 _symmetry_equiv_pos_as_xyz
  1  'x, y, z'
loop_
 _atom_site_type_symbol
 _atom_site_label
 _atom_site_symmetry_multiplicity
 _atom_site_fract_x
 _atom_site_fract_y
 _atom_site_fract_z
 _atom_site_occupancy
  Li  Li0  1  0.663427  0.001070  0.832158  1
  Li  Li1  1  0.662162  0.335225  0.501530  1
  Li  Li2  1  0.000420  0.333159  0.169509  1
  Li  Li3  1  0.999580  0.666841  0.830491  1
  Li  Li4  1  0.336573  0.998930  0.167842  1
  Li  Li5  1  0.337838  0.664775  0.498470  1
  Cr  Cr6  1  0.000000  0.000000  0.000000  1
  Cr  Cr7  1  0.999592  0.331638  0.666517  1
  Cr  Cr8  1  0.000408  0.668362  0.333483  1
  Fe  Fe9  1  0.333716  0.663393  0.999859  1
  Fe  Fe10  1  0.332011  0.000667  0.665000  1
  Fe  Fe11  1  0.332992  0.333763  0.333850  1
  Fe  Fe12  1  0.667989  0.999333  0.335000  1
  Fe  Fe13  1  0.666284  0.336607  0.000141  1
  Fe  Fe14  1  0.667008  0.666237  0.666150  1
  O  O15  1  0.677313  0.675934  0.435148  1
  O  O16  1  0.688209  0.018020  0.076987  1
  O  O17  1  0.686293  0.354739  0.743310  1
  O  O18  1  0.018752  0.683786  0.082152  1
  O  O19  1  0.011133  0.011455  0.766836  1
  O  O20  1  0.353630  0.685480  0.743895  1
  O  O21  1  0.988867  0.988545  0.233164  1
  O  O22  1  0.981248  0.316214  0.917848  1
  O  O23  1  0.311791  0.981980  0.923013  1
  O  O24  1  0.020383  0.353776  0.413546  1
  O  O25  1  0.350870  0.019641  0.410790  1
  O  O26  1  0.341373  0.341844  0.103737  1
  O  O27  1  0.979617  0.646224  0.586454  1
  O  O28  1  0.322687  0.324066  0.564852  1
  O  O29  1  0.313707  0.645261  0.256690  1
  O  O30  1  0.649130  0.980359  0.589210  1
  O  O31  1  0.646370  0.314520  0.256105  1
  O  O32  1  0.658627  0.658156  0.896263  1
