# generated using pymatgen
data_Li2Ti3FeO8
_symmetry_space_group_name_H-M   'P 1'
_cell_length_a   8.50796595
_cell_length_b   8.50796595
_cell_length_c   8.50796595
_cell_angle_alpha   89.83378090
_cell_angle_beta   89.83378090
_cell_angle_gamma   89.83378090
_symmetry_Int_Tables_number   1
_chemical_formula_structural   Li2Ti3FeO8
_chemical_formula_sum   'Li8 Ti12 Fe4 O32'
_cell_volume   615.84547860
_cell_formula_units_Z   4
loop_
 _symmetry_equiv_pos_site_id
 _symmetry_equiv_pos_as_xyz
  1  'x, y, z'
loop_
 _atom_site_type_symbol
 _atom_site_label
 _atom_site_symmetry_multiplicity
 _atom_site_fract_x
 _atom_site_fract_y
 _atom_site_fract_z
 _atom_site_occupancy
  Li  Li0  1  0.124147  0.625096  0.125549  1
  Li  Li1  1  0.374904  0.875853  0.874451  1
  Li  Li2  1  0.874451  0.374904  0.875853  1
  Li  Li3  1  0.125549  0.124147  0.625096  1
  Li  Li4  1  0.626626  0.626626  0.626626  1
  Li  Li5  1  0.373374  0.373374  0.373374  1
  Li  Li6  1  0.875853  0.874451  0.374904  1
  Li  Li7  1  0.625096  0.125549  0.124147  1
  Ti  Ti8  1  0.242755  0.253223  0.996244  1
  Ti  Ti9  1  0.501445  0.498555  0.000000  1
  Ti  Ti10  1  0.746777  0.757245  0.003756  1
  Ti  Ti11  1  0.500000  0.252540  0.747460  1
  Ti  Ti12  1  0.757245  0.003756  0.746777  1
  Ti  Ti13  1  0.003756  0.746777  0.757245  1
  Ti  Ti14  1  0.498555  1.000000  0.501445  1
  Ti  Ti15  1  0.252540  0.747460  0.500000  1
  Ti  Ti16  1  0.000000  0.501445  0.498555  1
  Ti  Ti17  1  0.253223  0.996244  0.242755  1
  Ti  Ti18  1  0.996244  0.242755  0.253223  1
  Ti  Ti19  1  0.747460  0.500000  0.252540  1
  Fe  Fe20  1  0.000000  0.000000  0.000000  1
  Fe  Fe21  1  0.249098  0.500000  0.750902  1
  Fe  Fe22  1  0.750902  0.249098  0.500000  1
  Fe  Fe23  1  0.500000  0.750902  0.249098  1
  O  O24  1  0.252643  0.017264  0.022625  1
  O  O25  1  0.022625  0.252643  0.017264  1
  O  O26  1  0.735834  0.512309  0.013182  1
  O  O27  1  0.271969  0.484796  0.000229  1
  O  O28  1  0.515204  0.728031  0.999771  1
  O  O29  1  0.487691  0.264166  0.986818  1
  O  O30  1  0.747357  0.977375  0.982736  1
  O  O31  1  0.982736  0.747357  0.977375  1
  O  O32  1  0.267314  0.246512  0.772417  1
  O  O33  1  0.499964  0.480393  0.766240  1
  O  O34  1  0.762726  0.762726  0.762726  1
  O  O35  1  0.732686  0.227583  0.753488  1
  O  O36  1  0.977375  0.982736  0.747357  1
  O  O37  1  0.512309  0.013182  0.735834  1
  O  O38  1  0.227583  0.753488  0.732686  1
  O  O39  1  0.999771  0.515204  0.728031  1
  O  O40  1  0.500036  0.233760  0.519607  1
  O  O41  1  0.728031  0.999771  0.515204  1
  O  O42  1  0.013182  0.735834  0.512309  1
  O  O43  1  0.480393  0.766240  0.499964  1
  O  O44  1  0.233760  0.519607  0.500036  1
  O  O45  1  0.264166  0.986818  0.487691  1
  O  O46  1  0.000229  0.271969  0.484796  1
  O  O47  1  0.766240  0.499964  0.480393  1
  O  O48  1  0.484796  0.000229  0.271969  1
  O  O49  1  0.246512  0.772417  0.267314  1
  O  O50  1  0.986818  0.487691  0.264166  1
  O  O51  1  0.017264  0.022625  0.252643  1
  O  O52  1  0.772417  0.267314  0.246512  1
  O  O53  1  0.237274  0.237274  0.237274  1
  O  O54  1  0.519607  0.500036  0.233760  1
  O  O55  1  0.753488  0.732686  0.227583  1
