# generated using pymatgen
data_Fe6O5F7
_symmetry_space_group_name_H-M   'P 1'
_cell_length_a   5.72377883
_cell_length_b   5.72996833
_cell_length_c   7.58883878
_cell_angle_alpha   70.58339446
_cell_angle_beta   70.44856831
_cell_angle_gamma   70.34124300
_symmetry_Int_Tables_number   1
_chemical_formula_structural   Fe6O5F7
_chemical_formula_sum   'Fe6 O5 F7'
_cell_volume   213.98476929
_cell_formula_units_Z   1
loop_
 _symmetry_equiv_pos_site_id
 _symmetry_equiv_pos_as_xyz
  1  'x, y, z'
loop_
 _atom_site_type_symbol
 _atom_site_label
 _atom_site_symmetry_multiplicity
 _atom_site_fract_x
 _atom_site_fract_y
 _atom_site_fract_z
 _atom_site_occupancy
  Fe  Fe0  1  0.647013  0.670963  0.838349  1
  Fe  Fe1  1  0.350422  0.316466  0.655933  1
  Fe  Fe2  1  0.672245  0.627027  0.332554  1
  Fe  Fe3  1  0.339723  0.367607  0.171155  1
  Fe  Fe4  1  0.975112  0.015604  0.500317  1
  Fe  Fe5  1  0.994346  0.017249  0.999502  1
  O  O6  1  0.444163  0.435749  0.363765  1
  O  O7  1  0.982164  0.355389  0.331562  1
  O  O8  1  0.651771  0.007614  0.671956  1
  O  O9  1  0.291656  0.714926  0.997338  1
  O  O10  1  0.698221  0.309922  0.996322  1
  F  F11  1  0.033339  0.635672  0.667079  1
  F  F12  1  0.365944  0.956164  0.338724  1
  F  F13  1  0.892942  0.895582  0.297522  1
  F  F14  1  0.227271  0.234667  0.966585  1
  F  F15  1  0.578739  0.574219  0.624274  1
  F  F16  1  0.765915  0.774854  0.042510  1
  F  F17  1  0.089011  0.090328  0.704553  1
