# generated using pymatgen
data_Li4Mn2Nb3Fe3O16
_symmetry_space_group_name_H-M   'P 1'
_cell_length_a   6.05850056
_cell_length_b   6.05850056
_cell_length_c   9.92249268
_cell_angle_alpha   88.67708594
_cell_angle_beta   91.32291406
_cell_angle_gamma   118.90662308
_symmetry_Int_Tables_number   1
_chemical_formula_structural   Li4Mn2Nb3Fe3O16
_chemical_formula_sum   'Li4 Mn2 Nb3 Fe3 O16'
_cell_volume   318.71743404
_cell_formula_units_Z   1
loop_
 _symmetry_equiv_pos_site_id
 _symmetry_equiv_pos_as_xyz
  1  'x, y, z'
loop_
 _atom_site_type_symbol
 _atom_site_label
 _atom_site_symmetry_multiplicity
 _atom_site_fract_x
 _atom_site_fract_y
 _atom_site_fract_z
 _atom_site_occupancy
  Li  Li0  1  0.337312  0.662688  0.902803  1
  Li  Li1  1  0.986040  0.013960  0.998554  1
  Li  Li2  1  0.978585  0.021415  0.493777  1
  Li  Li3  1  0.665646  0.334354  0.377191  1
  Mn  Mn4  1  0.347708  0.652292  0.488365  1
  Mn  Mn5  1  0.670568  0.329432  0.995311  1
  Nb  Nb6  1  0.168882  0.831118  0.215208  1
  Nb  Nb7  1  0.843426  0.656195  0.714111  1
  Nb  Nb8  1  0.343805  0.156574  0.714111  1
  Fe  Fe9  1  0.658247  0.826115  0.212608  1
  Fe  Fe10  1  0.173885  0.341753  0.212608  1
  Fe  Fe11  1  0.831754  0.168246  0.719510  1
  O  O12  1  0.688387  0.833763  0.612065  1
  O  O13  1  0.484024  0.515976  0.326731  1
  O  O14  1  0.326093  0.673907  0.100810  1
  O  O15  1  0.997803  0.002197  0.310776  1
  O  O16  1  0.013889  0.986111  0.818348  1
  O  O17  1  0.166237  0.311613  0.612065  1
  O  O18  1  0.477519  0.970255  0.330158  1
  O  O19  1  0.029745  0.522481  0.330158  1
  O  O20  1  0.829276  0.170724  0.100436  1
  O  O21  1  0.163766  0.836234  0.605640  1
  O  O22  1  0.971745  0.486391  0.839987  1
  O  O23  1  0.513609  0.028255  0.839987  1
  O  O24  1  0.655949  0.344051  0.599677  1
  O  O25  1  0.841419  0.685871  0.097733  1
  O  O26  1  0.527227  0.472773  0.840430  1
  O  O27  1  0.314129  0.158581  0.097733  1
