# generated using pymatgen
data_HoTa3O9
_symmetry_space_group_name_H-M   'P 1'
_cell_length_a   6.46385227
_cell_length_b   7.63338849
_cell_length_c   12.58638428
_cell_angle_alpha   90.00000000
_cell_angle_beta   90.00000000
_cell_angle_gamma   90.00000000
_symmetry_Int_Tables_number   1
_chemical_formula_structural   HoTa3O9
_chemical_formula_sum   'Ho4 Ta12 O36'
_cell_volume   621.02598900
_cell_formula_units_Z   4
loop_
 _symmetry_equiv_pos_site_id
 _symmetry_equiv_pos_as_xyz
  1  'x, y, z'
loop_
 _atom_site_type_symbol
 _atom_site_label
 _atom_site_symmetry_multiplicity
 _atom_site_fract_x
 _atom_site_fract_y
 _atom_site_fract_z
 _atom_site_occupancy
  Ho  Ho0  1  0.056239  0.250000  0.463416  1
  Ho  Ho1  1  0.443761  0.750000  0.963416  1
  Ho  Ho2  1  0.556239  0.250000  0.036584  1
  Ho  Ho3  1  0.943761  0.750000  0.536584  1
  Ta  Ta4  1  0.000000  0.000000  0.000000  1
  Ta  Ta5  1  0.000000  0.500000  0.000000  1
  Ta  Ta6  1  0.204926  0.003013  0.712861  1
  Ta  Ta7  1  0.204926  0.496987  0.712861  1
  Ta  Ta8  1  0.295074  0.503013  0.212861  1
  Ta  Ta9  1  0.295074  0.996987  0.212861  1
  Ta  Ta10  1  0.500000  0.000000  0.500000  1
  Ta  Ta11  1  0.500000  0.500000  0.500000  1
  Ta  Ta12  1  0.704926  0.003013  0.787139  1
  Ta  Ta13  1  0.704926  0.496987  0.787139  1
  Ta  Ta14  1  0.795074  0.503013  0.287139  1
  Ta  Ta15  1  0.795074  0.996987  0.287139  1
  O  O16  1  0.016232  0.042853  0.842901  1
  O  O17  1  0.016232  0.457147  0.842901  1
  O  O18  1  0.079609  0.750000  0.974714  1
  O  O19  1  0.103380  0.036957  0.332381  1
  O  O20  1  0.103380  0.463043  0.332381  1
  O  O21  1  0.164525  0.250000  0.670032  1
  O  O22  1  0.203710  0.750000  0.695739  1
  O  O23  1  0.205349  0.535610  0.536668  1
  O  O24  1  0.205349  0.964390  0.536668  1
  O  O25  1  0.294651  0.035610  0.036668  1
  O  O26  1  0.294651  0.464390  0.036668  1
  O  O27  1  0.296290  0.250000  0.195739  1
  O  O28  1  0.335475  0.750000  0.170032  1
  O  O29  1  0.396620  0.536957  0.832381  1
  O  O30  1  0.396620  0.963043  0.832381  1
  O  O31  1  0.420391  0.250000  0.474714  1
  O  O32  1  0.483768  0.542853  0.342901  1
  O  O33  1  0.483768  0.957147  0.342901  1
  O  O34  1  0.516232  0.042853  0.657099  1
  O  O35  1  0.516232  0.457147  0.657099  1
  O  O36  1  0.579609  0.750000  0.525286  1
  O  O37  1  0.603380  0.036957  0.167619  1
  O  O38  1  0.603380  0.463043  0.167619  1
  O  O39  1  0.664525  0.250000  0.829968  1
  O  O40  1  0.703710  0.750000  0.804261  1
  O  O41  1  0.705349  0.535610  0.963332  1
  O  O42  1  0.705349  0.964390  0.963332  1
  O  O43  1  0.794651  0.035610  0.463332  1
  O  O44  1  0.794651  0.464390  0.463332  1
  O  O45  1  0.796290  0.250000  0.304261  1
  O  O46  1  0.835475  0.750000  0.329968  1
  O  O47  1  0.896620  0.536957  0.667619  1
  O  O48  1  0.896620  0.963043  0.667619  1
  O  O49  1  0.920391  0.250000  0.025286  1
  O  O50  1  0.983768  0.542853  0.157099  1
  O  O51  1  0.983768  0.957147  0.157099  1
