# generated using pymatgen
data_LiV2FeO6
_symmetry_space_group_name_H-M   'P 1'
_cell_length_a   6.93724570
_cell_length_b   6.93724570
_cell_length_c   5.75047000
_cell_angle_alpha   71.99779096
_cell_angle_beta   108.00220904
_cell_angle_gamma   103.12804523
_symmetry_Int_Tables_number   1
_chemical_formula_structural   LiV2FeO6
_chemical_formula_sum   'Li2 V4 Fe2 O12'
_cell_volume   247.64641617
_cell_formula_units_Z   2
loop_
 _symmetry_equiv_pos_site_id
 _symmetry_equiv_pos_as_xyz
  1  'x, y, z'
loop_
 _atom_site_type_symbol
 _atom_site_label
 _atom_site_symmetry_multiplicity
 _atom_site_fract_x
 _atom_site_fract_y
 _atom_site_fract_z
 _atom_site_occupancy
  Li  Li0  1  0.719541  0.719541  0.750000  1
  Li  Li1  1  0.280459  0.280459  0.250000  1
  V  V2  1  0.379406  0.815083  0.249514  1
  V  V3  1  0.184917  0.620594  0.749514  1
  V  V4  1  0.815083  0.379406  0.250486  1
  V  V5  1  0.620594  0.184917  0.750486  1
  Fe  Fe6  1  0.916200  0.916200  0.250000  1
  Fe  Fe7  1  0.083800  0.083800  0.750000  1
  O  O8  1  0.191690  0.993500  0.150045  1
  O  O9  1  0.636749  0.913995  0.253150  1
  O  O10  1  0.006500  0.808310  0.650045  1
  O  O11  1  0.300830  0.603672  0.090037  1
  O  O12  1  0.913995  0.636749  0.246850  1
  O  O13  1  0.396328  0.699170  0.590037  1
  O  O14  1  0.603672  0.300830  0.409963  1
  O  O15  1  0.086005  0.363251  0.753150  1
  O  O16  1  0.699170  0.396328  0.909963  1
  O  O17  1  0.993500  0.191690  0.349955  1
  O  O18  1  0.363251  0.086005  0.746850  1
  O  O19  1  0.808310  0.006500  0.849955  1
