# generated using pymatgen
data_Fe3(O2F)2
_symmetry_space_group_name_H-M   'P 1'
_cell_length_a   4.77240159
_cell_length_b   5.66201819
_cell_length_c   7.65431920
_cell_angle_alpha   84.06676640
_cell_angle_beta   86.99748217
_cell_angle_gamma   84.80768359
_symmetry_Int_Tables_number   1
_chemical_formula_structural   Fe3(O2F)2
_chemical_formula_sum   'Fe6 O8 F4'
_cell_volume   204.68509660
_cell_formula_units_Z   2
loop_
 _symmetry_equiv_pos_site_id
 _symmetry_equiv_pos_as_xyz
  1  'x, y, z'
loop_
 _atom_site_type_symbol
 _atom_site_label
 _atom_site_symmetry_multiplicity
 _atom_site_fract_x
 _atom_site_fract_y
 _atom_site_fract_z
 _atom_site_occupancy
  Fe  Fe0  1  0.500000  0.500000  0.500000  1
  Fe  Fe1  1  0.459524  0.142621  0.821734  1
  Fe  Fe2  1  0.540476  0.857379  0.178266  1
  Fe  Fe3  1  0.000000  0.000000  0.500000  1
  Fe  Fe4  1  0.988133  0.319695  0.165704  1
  Fe  Fe5  1  0.011867  0.680305  0.834296  1
  O  O6  1  0.820736  0.042097  0.278193  1
  O  O7  1  0.695625  0.873912  0.935956  1
  O  O8  1  0.690076  0.200571  0.600415  1
  O  O9  1  0.696617  0.539678  0.271455  1
  O  O10  1  0.309924  0.799429  0.399585  1
  O  O11  1  0.304375  0.126088  0.064044  1
  O  O12  1  0.303383  0.460322  0.728545  1
  O  O13  1  0.179264  0.957903  0.721807  1
  F  F14  1  0.802652  0.699575  0.602644  1
  F  F15  1  0.812592  0.383342  0.933054  1
  F  F16  1  0.187408  0.616658  0.066946  1
  F  F17  1  0.197348  0.300425  0.397356  1
