# generated using pymatgen
data_Li3Mn3O8
_symmetry_space_group_name_H-M   'P 1'
_cell_length_a   8.34029370
_cell_length_b   8.34029370
_cell_length_c   8.30310551
_cell_angle_alpha   89.04957977
_cell_angle_beta   90.95042023
_cell_angle_gamma   89.78756020
_symmetry_Int_Tables_number   1
_chemical_formula_structural   Li3Mn3O8
_chemical_formula_sum   'Li12 Mn12 O32'
_cell_volume   577.40467069
_cell_formula_units_Z   4
loop_
 _symmetry_equiv_pos_site_id
 _symmetry_equiv_pos_as_xyz
  1  'x, y, z'
loop_
 _atom_site_type_symbol
 _atom_site_label
 _atom_site_symmetry_multiplicity
 _atom_site_fract_x
 _atom_site_fract_y
 _atom_site_fract_z
 _atom_site_occupancy
  Li  Li0  1  0.748175  0.748175  0.500000  1
  Li  Li1  1  0.221698  0.808223  0.495634  1
  Li  Li2  1  0.391432  0.613632  0.359512  1
  Li  Li3  1  0.001591  0.180594  0.272931  1
  Li  Li4  1  0.621281  0.870771  0.130540  1
  Li  Li5  1  0.134692  0.386577  0.109982  1
  Li  Li6  1  0.500544  0.500544  0.000000  1
  Li  Li7  1  0.386577  0.134692  0.890018  1
  Li  Li8  1  0.870771  0.621281  0.869460  1
  Li  Li9  1  0.180594  0.001591  0.727069  1
  Li  Li10  1  0.613632  0.391432  0.640488  1
  Li  Li11  1  0.808223  0.221698  0.504366  1
  Mn  Mn12  1  0.259995  0.259995  0.500000  1
  Mn  Mn13  1  0.005444  0.498188  0.497377  1
  Mn  Mn14  1  0.504625  0.248901  0.252442  1
  Mn  Mn15  1  0.754570  0.492183  0.247470  1
  Mn  Mn16  1  0.995764  0.739087  0.240943  1
  Mn  Mn17  1  0.752383  0.245499  0.003648  1
  Mn  Mn18  1  0.995152  0.995152  0.000000  1
  Mn  Mn19  1  0.245499  0.752384  0.996352  1
  Mn  Mn20  1  0.739087  0.995764  0.759057  1
  Mn  Mn21  1  0.492183  0.754570  0.752530  1
  Mn  Mn22  1  0.248901  0.504625  0.747558  1
  Mn  Mn23  1  0.498188  0.005444  0.502623  1
  O  O24  1  0.034509  0.271008  0.483652  1
  O  O25  1  0.496139  0.242208  0.490094  1
  O  O26  1  0.779721  0.479836  0.482866  1
  O  O27  1  0.004487  0.725901  0.467044  1
  O  O28  1  0.512600  0.021087  0.280553  1
  O  O29  1  0.278713  0.267174  0.269446  1
  O  O30  1  0.990729  0.505185  0.258425  1
  O  O31  1  0.530848  0.477294  0.249778  1
  O  O32  1  0.767723  0.717264  0.243430  1
  O  O33  1  0.744835  0.256320  0.244515  1
  O  O34  1  0.990255  0.961972  0.225207  1
  O  O35  1  0.229506  0.736185  0.222557  1
  O  O36  1  0.523154  0.247531  0.028371  1
  O  O37  1  0.757995  0.470347  0.017513  1
  O  O38  1  0.981471  0.217523  0.028496  1
  O  O39  1  0.009555  0.758191  0.005226  1
  O  O40  1  0.758191  0.009555  0.994774  1
  O  O41  1  0.217523  0.981471  0.971504  1
  O  O42  1  0.470347  0.757995  0.982487  1
  O  O43  1  0.247531  0.523154  0.971629  1
  O  O44  1  0.736185  0.229506  0.777443  1
  O  O45  1  0.961972  0.990255  0.774793  1
  O  O46  1  0.256320  0.744835  0.755485  1
  O  O47  1  0.717264  0.767723  0.756570  1
  O  O48  1  0.477294  0.530848  0.750222  1
  O  O49  1  0.505185  0.990729  0.741575  1
  O  O50  1  0.267174  0.278713  0.730554  1
  O  O51  1  0.021087  0.512600  0.719447  1
  O  O52  1  0.725901  0.004487  0.532956  1
  O  O53  1  0.479836  0.779721  0.517134  1
  O  O54  1  0.242208  0.496139  0.509906  1
  O  O55  1  0.271008  0.034509  0.516348  1
