# generated using pymatgen
data_Li3VF5
_symmetry_space_group_name_H-M   'P 1'
_cell_length_a   5.09513391
_cell_length_b   8.05783825
_cell_length_c   10.43294427
_cell_angle_alpha   90.00000000
_cell_angle_beta   90.00000000
_cell_angle_gamma   90.00000000
_symmetry_Int_Tables_number   1
_chemical_formula_structural   Li3VF5
_chemical_formula_sum   'Li12 V4 F20'
_cell_volume   428.33250726
_cell_formula_units_Z   4
loop_
 _symmetry_equiv_pos_site_id
 _symmetry_equiv_pos_as_xyz
  1  'x, y, z'
loop_
 _atom_site_type_symbol
 _atom_site_label
 _atom_site_symmetry_multiplicity
 _atom_site_fract_x
 _atom_site_fract_y
 _atom_site_fract_z
 _atom_site_occupancy
  Li  Li0  1  0.683702  0.109307  0.750000  1
  Li  Li1  1  0.328297  0.136655  0.993251  1
  Li  Li2  1  0.328297  0.136655  0.506749  1
  Li  Li3  1  0.828297  0.363345  0.006749  1
  Li  Li4  1  0.828297  0.363345  0.493251  1
  Li  Li5  1  0.183702  0.390693  0.250000  1
  Li  Li6  1  0.816298  0.609307  0.750000  1
  Li  Li7  1  0.171703  0.636655  0.993251  1
  Li  Li8  1  0.171703  0.636655  0.506749  1
  Li  Li9  1  0.671703  0.863345  0.493251  1
  Li  Li10  1  0.671703  0.863345  0.006749  1
  Li  Li11  1  0.316298  0.890693  0.250000  1
  V  V12  1  0.783039  0.125144  0.250000  1
  V  V13  1  0.283039  0.374856  0.750000  1
  V  V14  1  0.716961  0.625144  0.250000  1
  V  V15  1  0.216961  0.874856  0.750000  1
  F  F16  1  0.516281  0.030246  0.121909  1
  F  F17  1  0.516281  0.030246  0.378091  1
  F  F18  1  0.036875  0.203897  0.100399  1
  F  F19  1  0.036875  0.203897  0.399601  1
  F  F20  1  0.065047  0.129665  0.750000  1
  F  F21  1  0.565047  0.370335  0.250000  1
  F  F22  1  0.536875  0.296103  0.600399  1
  F  F23  1  0.536875  0.296103  0.899601  1
  F  F24  1  0.016281  0.469754  0.621909  1
  F  F25  1  0.016281  0.469754  0.878091  1
  F  F26  1  0.983719  0.530246  0.121909  1
  F  F27  1  0.983719  0.530246  0.378091  1
  F  F28  1  0.463125  0.703897  0.100399  1
  F  F29  1  0.463125  0.703897  0.399601  1
  F  F30  1  0.434953  0.629665  0.750000  1
  F  F31  1  0.934953  0.870335  0.250000  1
  F  F32  1  0.963125  0.796103  0.600399  1
  F  F33  1  0.963125  0.796103  0.899601  1
  F  F34  1  0.483719  0.969754  0.621909  1
  F  F35  1  0.483719  0.969754  0.878091  1
