# generated using pymatgen
data_Li4Ti3Fe3(WO8)2
_symmetry_space_group_name_H-M   'P 1'
_cell_length_a   5.98049033
_cell_length_b   6.05897637
_cell_length_c   9.83431626
_cell_angle_alpha   91.65965601
_cell_angle_beta   89.99539219
_cell_angle_gamma   119.32893037
_symmetry_Int_Tables_number   1
_chemical_formula_structural   Li4Ti3Fe3(WO8)2
_chemical_formula_sum   'Li4 Ti3 Fe3 W2 O16'
_cell_volume   310.50525016
_cell_formula_units_Z   1
loop_
 _symmetry_equiv_pos_site_id
 _symmetry_equiv_pos_as_xyz
  1  'x, y, z'
loop_
 _atom_site_type_symbol
 _atom_site_label
 _atom_site_symmetry_multiplicity
 _atom_site_fract_x
 _atom_site_fract_y
 _atom_site_fract_z
 _atom_site_occupancy
  Li  Li0  1  0.336917  0.680674  0.098044  1
  Li  Li1  1  0.003473  0.003559  0.016146  1
  Li  Li2  1  0.991592  0.987961  0.506074  1
  Li  Li3  1  0.672552  0.339428  0.590413  1
  Ti  Ti4  1  0.159307  0.822410  0.786883  1
  Ti  Ti5  1  0.655394  0.811849  0.782495  1
  Ti  Ti6  1  0.830539  0.655823  0.278572  1
  Fe  Fe7  1  0.174714  0.340227  0.790192  1
  Fe  Fe8  1  0.341060  0.159707  0.291200  1
  Fe  Fe9  1  0.822930  0.164072  0.290037  1
  W  W10  1  0.327562  0.657212  0.509723  1
  W  W11  1  0.662391  0.320399  0.016441  1
  O  O12  1  0.157759  0.816411  0.407998  1
  O  O13  1  0.476411  0.952603  0.659468  1
  O  O14  1  0.350843  0.702075  0.892001  1
  O  O15  1  0.986997  0.980424  0.695707  1
  O  O16  1  0.991707  0.978521  0.200315  1
  O  O17  1  0.653164  0.814222  0.404838  1
  O  O18  1  0.040554  0.537612  0.661675  1
  O  O19  1  0.502452  0.537831  0.658307  1
  O  O20  1  0.832844  0.670002  0.894216  1
  O  O21  1  0.170376  0.337421  0.427306  1
  O  O22  1  0.538782  0.501147  0.139782  1
  O  O23  1  0.967890  0.501668  0.149778  1
  O  O24  1  0.681753  0.368902  0.392302  1
  O  O25  1  0.325572  0.150941  0.903088  1
  O  O26  1  0.522976  0.041959  0.143260  1
  O  O27  1  0.821185  0.164940  0.905900  1
