# generated using pymatgen
data_LiNiPO4
_symmetry_space_group_name_H-M   'P 1'
_cell_length_a   4.72372629
_cell_length_b   10.17909078
_cell_length_c   5.91542504
_cell_angle_alpha   90.00000000
_cell_angle_beta   90.13739674
_cell_angle_gamma   90.00000000
_symmetry_Int_Tables_number   1
_chemical_formula_structural   LiNiPO4
_chemical_formula_sum   'Li4 Ni4 P4 O16'
_cell_volume   284.43197647
_cell_formula_units_Z   4
loop_
 _symmetry_equiv_pos_site_id
 _symmetry_equiv_pos_as_xyz
  1  'x, y, z'
loop_
 _atom_site_type_symbol
 _atom_site_label
 _atom_site_symmetry_multiplicity
 _atom_site_fract_x
 _atom_site_fract_y
 _atom_site_fract_z
 _atom_site_occupancy
  Li  Li0  1  0.745314  0.295723  0.748616  1
  Li  Li1  1  0.250760  0.801030  0.754357  1
  Li  Li2  1  0.749240  0.301030  0.245643  1
  Li  Li3  1  0.254686  0.795723  0.251384  1
  Ni  Ni4  1  0.737898  0.021345  0.006584  1
  Ni  Ni5  1  0.237837  0.072397  0.504584  1
  Ni  Ni6  1  0.762163  0.572397  0.495416  1
  Ni  Ni7  1  0.262102  0.521345  0.993416  1
  P  P8  1  0.169832  0.202176  0.002814  1
  P  P9  1  0.674030  0.891504  0.503628  1
  P  P10  1  0.325970  0.391504  0.496372  1
  P  P11  1  0.830168  0.702176  0.997186  1
  O  O12  1  0.047744  0.344087  0.992930  1
  O  O13  1  0.494525  0.198060  0.003629  1
  O  O14  1  0.970964  0.634276  0.786055  1
  O  O15  1  0.030782  0.126540  0.798421  1
  O  O16  1  0.533428  0.961271  0.713065  1
  O  O17  1  0.447256  0.249539  0.502241  1
  O  O18  1  0.998647  0.896129  0.504585  1
  O  O19  1  0.467592  0.464842  0.702332  1
  O  O20  1  0.532408  0.964842  0.297668  1
  O  O21  1  0.001353  0.396129  0.495415  1
  O  O22  1  0.552744  0.749539  0.497759  1
  O  O23  1  0.466572  0.461271  0.286935  1
  O  O24  1  0.969218  0.626540  0.201579  1
  O  O25  1  0.029036  0.134276  0.213945  1
  O  O26  1  0.505475  0.698060  0.996371  1
  O  O27  1  0.952256  0.844087  0.007070  1
