# generated using pymatgen
data_LiVP4(H2O3)6
_symmetry_space_group_name_H-M   'P 1'
_cell_length_a   7.34928155
_cell_length_b   7.34928155
_cell_length_c   14.24585923
_cell_angle_alpha   86.00400602
_cell_angle_beta   93.99599398
_cell_angle_gamma   70.13749404
_symmetry_Int_Tables_number   1
_chemical_formula_structural   LiVP4(H2O3)6
_chemical_formula_sum   'Li2 V2 P8 H24 O36'
_cell_volume   718.33006981
_cell_formula_units_Z   2
loop_
 _symmetry_equiv_pos_site_id
 _symmetry_equiv_pos_as_xyz
  1  'x, y, z'
loop_
 _atom_site_type_symbol
 _atom_site_label
 _atom_site_symmetry_multiplicity
 _atom_site_fract_x
 _atom_site_fract_y
 _atom_site_fract_z
 _atom_site_occupancy
  Li  Li0  1  0.465589  0.465589  0.750000  1
  Li  Li1  1  0.534411  0.534411  0.250000  1
  V  V2  1  0.864060  0.864060  0.750000  1
  V  V3  1  0.135940  0.135940  0.250000  1
  P  P4  1  0.982910  0.187927  0.595863  1
  P  P5  1  0.812073  0.017090  0.095863  1
  P  P6  1  0.798136  0.280985  0.922543  1
  P  P7  1  0.719015  0.201864  0.422543  1
  P  P8  1  0.280985  0.798136  0.577457  1
  P  P9  1  0.201864  0.719015  0.077457  1
  P  P10  1  0.187927  0.982910  0.904137  1
  P  P11  1  0.017090  0.812073  0.404137  1
  H  H12  1  0.482391  0.004610  0.769585  1
  H  H13  1  0.995390  0.517609  0.269585  1
  H  H14  1  0.517216  0.126788  0.678335  1
  H  H15  1  0.873212  0.482784  0.178335  1
  H  H16  1  0.890581  0.618189  0.612911  1
  H  H17  1  0.381811  0.109419  0.112911  1
  H  H18  1  0.466155  0.311905  0.564636  1
  H  H19  1  0.688095  0.533845  0.064636  1
  H  H20  1  0.347818  0.278180  0.879647  1
  H  H21  1  0.770162  0.672336  0.900650  1
  H  H22  1  0.721820  0.652182  0.379647  1
  H  H23  1  0.327664  0.229838  0.400650  1
  H  H24  1  0.672336  0.770162  0.599350  1
  H  H25  1  0.278180  0.347818  0.620353  1
  H  H26  1  0.229838  0.327664  0.099350  1
  H  H27  1  0.652182  0.721820  0.120353  1
  H  H28  1  0.311905  0.466155  0.935364  1
  H  H29  1  0.533845  0.688095  0.435364  1
  H  H30  1  0.618189  0.890581  0.887089  1
  H  H31  1  0.109419  0.381811  0.387089  1
  H  H32  1  0.126788  0.517216  0.821665  1
  H  H33  1  0.482784  0.873212  0.321665  1
  H  H34  1  0.004610  0.482391  0.730415  1
  H  H35  1  0.517609  0.995390  0.230415  1
  O  O36  1  0.885730  0.087114  0.660276  1
  O  O37  1  0.912886  0.114270  0.160276  1
  O  O38  1  0.720269  0.264542  0.824880  1
  O  O39  1  0.735458  0.279731  0.324880  1
  O  O40  1  0.723018  0.150966  0.998067  1
  O  O41  1  0.849034  0.276982  0.498067  1
  O  O42  1  0.568321  0.994187  0.718118  1
  O  O43  1  0.005813  0.431679  0.218118  1
  O  O44  1  0.353686  0.039209  0.870361  1
  O  O45  1  0.755002  0.477631  0.957998  1
  O  O46  1  0.960791  0.646314  0.370361  1
  O  O47  1  0.522369  0.244998  0.457998  1
  O  O48  1  0.419327  0.328994  0.629277  1
  O  O49  1  0.173969  0.033312  0.561686  1
  O  O50  1  0.671006  0.580673  0.129277  1
  O  O51  1  0.966688  0.826031  0.061686  1
  O  O52  1  0.809723  0.750642  0.624628  1
  O  O53  1  0.249358  0.190277  0.124628  1
  O  O54  1  0.750642  0.809723  0.875372  1
  O  O55  1  0.190277  0.249358  0.375372  1
  O  O56  1  0.033312  0.173969  0.938314  1
  O  O57  1  0.328994  0.419327  0.870723  1
  O  O58  1  0.826031  0.966688  0.438314  1
  O  O59  1  0.580673  0.671006  0.370723  1
  O  O60  1  0.477631  0.755002  0.542002  1
  O  O61  1  0.039209  0.353686  0.629639  1
  O  O62  1  0.244998  0.522369  0.042002  1
  O  O63  1  0.646314  0.960791  0.129639  1
  O  O64  1  0.994187  0.568321  0.781882  1
  O  O65  1  0.431679  0.005813  0.281882  1
  O  O66  1  0.150966  0.723018  0.501933  1
  O  O67  1  0.276982  0.849034  0.001933  1
  O  O68  1  0.264542  0.720269  0.675120  1
  O  O69  1  0.279731  0.735458  0.175120  1
  O  O70  1  0.087114  0.885730  0.839724  1
  O  O71  1  0.114270  0.912886  0.339724  1
