# generated using pymatgen
data_Li2Fe3CuO8
_symmetry_space_group_name_H-M   'P 1'
_cell_length_a   5.90426610
_cell_length_b   5.90426610
_cell_length_c   5.90426610
_cell_angle_alpha   60.20989295
_cell_angle_beta   60.20989295
_cell_angle_gamma   60.20989295
_symmetry_Int_Tables_number   1
_chemical_formula_structural   Li2Fe3CuO8
_chemical_formula_sum   'Li2 Fe3 Cu1 O8'
_cell_volume   146.23180753
_cell_formula_units_Z   1
loop_
 _symmetry_equiv_pos_site_id
 _symmetry_equiv_pos_as_xyz
  1  'x, y, z'
loop_
 _atom_site_type_symbol
 _atom_site_label
 _atom_site_symmetry_multiplicity
 _atom_site_fract_x
 _atom_site_fract_y
 _atom_site_fract_z
 _atom_site_occupancy
  Li  Li0  1  0.881004  0.881004  0.881004  1
  Li  Li1  1  0.501906  0.501906  0.501906  1
  Fe  Fe2  1  0.992085  0.502864  0.502864  1
  Fe  Fe3  1  0.502864  0.992085  0.502864  1
  Fe  Fe4  1  0.502864  0.502864  0.992085  1
  Cu  Cu5  1  0.120389  0.120389  0.120389  1
  O  O6  1  0.744585  0.744585  0.744585  1
  O  O7  1  0.746881  0.746881  0.291094  1
  O  O8  1  0.746881  0.291094  0.746881  1
  O  O9  1  0.291094  0.746881  0.746881  1
  O  O10  1  0.715654  0.250565  0.250565  1
  O  O11  1  0.250565  0.715654  0.250565  1
  O  O12  1  0.250565  0.250565  0.715654  1
  O  O13  1  0.252665  0.252665  0.252665  1
