# generated using pymatgen
data_Zr2N2O
_symmetry_space_group_name_H-M   'P 1'
_cell_length_a   5.52936097
_cell_length_b   5.57643360
_cell_length_c   10.32857291
_cell_angle_alpha   75.46685739
_cell_angle_beta   74.92567214
_cell_angle_gamma   60.66498589
_symmetry_Int_Tables_number   1
_chemical_formula_structural   Zr2N2O
_chemical_formula_sum   'Zr8 N8 O4'
_cell_volume   265.17888204
_cell_formula_units_Z   4
loop_
 _symmetry_equiv_pos_site_id
 _symmetry_equiv_pos_as_xyz
  1  'x, y, z'
loop_
 _atom_site_type_symbol
 _atom_site_label
 _atom_site_symmetry_multiplicity
 _atom_site_fract_x
 _atom_site_fract_y
 _atom_site_fract_z
 _atom_site_occupancy
  Zr  Zr0  1  0.692199  0.688110  0.962031  1
  Zr  Zr1  1  0.830429  0.816593  0.537788  1
  Zr  Zr2  1  0.412007  0.442246  0.712785  1
  Zr  Zr3  1  0.920843  0.952772  0.212721  1
  Zr  Zr4  1  0.086987  0.066255  0.787944  1
  Zr  Zr5  1  0.565603  0.579693  0.286918  1
  Zr  Zr6  1  0.200910  0.168623  0.463673  1
  Zr  Zr7  1  0.319653  0.309085  0.037486  1
  N  N8  1  0.084051  0.675339  0.873559  1
  N  N9  1  0.417759  0.828803  0.621589  1
  N  N10  1  0.383869  0.074157  0.874503  1
  N  N11  1  0.112043  0.424652  0.628101  1
  N  N12  1  0.169850  0.867332  0.376780  1
  N  N13  1  0.620947  0.919671  0.124944  1
  N  N14  1  0.577490  0.173199  0.369861  1
  N  N15  1  0.921225  0.326697  0.121380  1
  O  O16  1  0.679522  0.373169  0.875935  1
  O  O17  1  0.812459  0.129140  0.625436  1
  O  O18  1  0.872934  0.564259  0.378816  1
  O  O19  1  0.319218  0.620204  0.127750  1
