# generated using pymatgen
data_LiFeP2O7
_symmetry_space_group_name_H-M   'P 1'
_cell_length_a   7.26896538
_cell_length_b   8.12090316
_cell_length_c   9.61627961
_cell_angle_alpha   90.00000000
_cell_angle_beta   106.06382014
_cell_angle_gamma   90.00000000
_symmetry_Int_Tables_number   1
_chemical_formula_structural   LiFeP2O7
_chemical_formula_sum   'Li4 Fe4 P8 O28'
_cell_volume   545.48981682
_cell_formula_units_Z   4
loop_
 _symmetry_equiv_pos_site_id
 _symmetry_equiv_pos_as_xyz
  1  'x, y, z'
loop_
 _atom_site_type_symbol
 _atom_site_label
 _atom_site_symmetry_multiplicity
 _atom_site_fract_x
 _atom_site_fract_y
 _atom_site_fract_z
 _atom_site_occupancy
  Li  Li0  1  0.693649  0.519139  0.209305  1
  Li  Li1  1  0.693649  0.980861  0.709305  1
  Li  Li2  1  0.306351  0.019139  0.290695  1
  Li  Li3  1  0.306351  0.480861  0.790695  1
  Fe  Fe4  1  0.696027  0.063749  0.239328  1
  Fe  Fe5  1  0.696027  0.436251  0.739328  1
  Fe  Fe6  1  0.303973  0.563749  0.260672  1
  Fe  Fe7  1  0.303973  0.936251  0.760672  1
  P  P8  1  0.891173  0.256514  0.038518  1
  P  P9  1  0.891173  0.243486  0.538518  1
  P  P10  1  0.675921  0.761076  0.452247  1
  P  P11  1  0.324079  0.261076  0.047753  1
  P  P12  1  0.675921  0.738924  0.952247  1
  P  P13  1  0.324079  0.238924  0.547753  1
  P  P14  1  0.108827  0.756514  0.461482  1
  P  P15  1  0.108827  0.743486  0.961482  1
  O  O16  1  0.169516  0.594285  0.401393  1
  O  O17  1  0.860813  0.410151  0.115884  1
  O  O18  1  0.883068  0.726209  0.432521  1
  O  O19  1  0.673283  0.735663  0.106858  1
  O  O20  1  0.803438  0.238932  0.372082  1
  O  O21  1  0.169516  0.905715  0.901393  1
  O  O22  1  0.860813  0.089849  0.615884  1
  O  O23  1  0.561835  0.614568  0.364433  1
  O  O24  1  0.883068  0.773791  0.932521  1
  O  O25  1  0.396910  0.421470  0.134618  1
  O  O26  1  0.673283  0.764337  0.606858  1
  O  O27  1  0.803438  0.261068  0.872082  1
  O  O28  1  0.603090  0.921470  0.365382  1
  O  O29  1  0.438165  0.114568  0.135567  1
  O  O30  1  0.561835  0.885432  0.864433  1
  O  O31  1  0.396910  0.078530  0.634618  1
  O  O32  1  0.196562  0.738932  0.127918  1
  O  O33  1  0.326717  0.235663  0.393142  1
  O  O34  1  0.603090  0.578530  0.865382  1
  O  O35  1  0.116932  0.226209  0.067479  1
  O  O36  1  0.438165  0.385432  0.635567  1
  O  O37  1  0.139187  0.910151  0.384116  1
  O  O38  1  0.830484  0.094285  0.098607  1
  O  O39  1  0.196562  0.761068  0.627918  1
  O  O40  1  0.326717  0.264337  0.893142  1
  O  O41  1  0.116932  0.273791  0.567479  1
  O  O42  1  0.139187  0.589849  0.884116  1
  O  O43  1  0.830484  0.405715  0.598607  1
