# generated using pymatgen
data_VCrO3
_symmetry_space_group_name_H-M   'P 1'
_cell_length_a   5.10522850
_cell_length_b   5.50336304
_cell_length_c   7.50375387
_cell_angle_alpha   95.83462533
_cell_angle_beta   90.06115028
_cell_angle_gamma   90.04417283
_symmetry_Int_Tables_number   1
_chemical_formula_structural   VCrO3
_chemical_formula_sum   'V4 Cr4 O12'
_cell_volume   209.73252294
_cell_formula_units_Z   4
loop_
 _symmetry_equiv_pos_site_id
 _symmetry_equiv_pos_as_xyz
  1  'x, y, z'
loop_
 _atom_site_type_symbol
 _atom_site_label
 _atom_site_symmetry_multiplicity
 _atom_site_fract_x
 _atom_site_fract_y
 _atom_site_fract_z
 _atom_site_occupancy
  V  V0  1  0.000389  0.701332  0.148429  1
  V  V1  1  0.499929  0.796051  0.348163  1
  V  V2  1  0.000895  0.299876  0.853856  1
  V  V3  1  0.998998  0.702663  0.649093  1
  Cr  Cr4  1  0.500305  0.196155  0.151573  1
  Cr  Cr5  1  0.000388  0.301989  0.350390  1
  Cr  Cr6  1  0.499844  0.200006  0.650747  1
  Cr  Cr7  1  0.499659  0.802838  0.847225  1
  O  O8  1  0.697834  0.496318  0.251081  1
  O  O9  1  0.153214  0.346092  0.101028  1
  O  O10  1  0.348479  0.149227  0.400546  1
  O  O11  1  0.803972  0.001391  0.249984  1
  O  O12  1  0.848763  0.348403  0.600104  1
  O  O13  1  0.348587  0.849428  0.095150  1
  O  O14  1  0.151924  0.649731  0.401315  1
  O  O15  1  0.649323  0.150667  0.901609  1
  O  O16  1  0.650270  0.850315  0.597927  1
  O  O17  1  0.846628  0.654934  0.902404  1
  O  O18  1  0.302410  0.500624  0.750267  1
  O  O19  1  0.198187  0.001965  0.749108  1
