# generated using pymatgen
data_Fe3(O2F)2
_symmetry_space_group_name_H-M   'P 1'
_cell_length_a   4.77142700
_cell_length_b   5.64156600
_cell_length_c   7.69707619
_cell_angle_alpha   83.92941960
_cell_angle_beta   86.48396371
_cell_angle_gamma   85.22732313
_symmetry_Int_Tables_number   1
_chemical_formula_structural   Fe3(O2F)2
_chemical_formula_sum   'Fe6 O8 F4'
_cell_volume   205.02745893
_cell_formula_units_Z   2
loop_
 _symmetry_equiv_pos_site_id
 _symmetry_equiv_pos_as_xyz
  1  'x, y, z'
loop_
 _atom_site_type_symbol
 _atom_site_label
 _atom_site_symmetry_multiplicity
 _atom_site_fract_x
 _atom_site_fract_y
 _atom_site_fract_z
 _atom_site_occupancy
  Fe  Fe0  1  0.492715  0.829223  0.663993  1
  Fe  Fe1  1  0.530780  0.520257  0.010094  1
  Fe  Fe2  1  0.527873  0.184826  0.342360  1
  Fe  Fe3  1  0.988171  0.330632  0.657451  1
  Fe  Fe4  1  0.980551  0.654185  0.325098  1
  Fe  Fe5  1  0.993689  0.989598  0.005163  1
  O  O6  1  0.812011  0.374846  0.438534  1
  O  O7  1  0.810949  0.711468  0.102029  1
  O  O8  1  0.695701  0.206770  0.100151  1
  O  O9  1  0.691313  0.536702  0.768290  1
  O  O10  1  0.696503  0.871045  0.438991  1
  O  O11  1  0.306680  0.128122  0.567987  1
  O  O12  1  0.307934  0.464058  0.230078  1
  O  O13  1  0.305588  0.795828  0.895664  1
  F  F14  1  0.803038  0.032357  0.768174  1
  F  F15  1  0.191114  0.957321  0.232577  1
  F  F16  1  0.192568  0.629965  0.562952  1
  F  F17  1  0.172820  0.282797  0.890411  1
