# generated using pymatgen
data_Li(FeO2)3
_symmetry_space_group_name_H-M   'P 1'
_cell_length_a   9.58098292
_cell_length_b   8.84635586
_cell_length_c   5.40853894
_cell_angle_alpha   80.54772387
_cell_angle_beta   65.61450810
_cell_angle_gamma   33.83776803
_symmetry_Int_Tables_number   1
_chemical_formula_structural   Li(FeO2)3
_chemical_formula_sum   'Li2 Fe6 O12'
_cell_volume   217.57784155
_cell_formula_units_Z   2
loop_
 _symmetry_equiv_pos_site_id
 _symmetry_equiv_pos_as_xyz
  1  'x, y, z'
loop_
 _atom_site_type_symbol
 _atom_site_label
 _atom_site_symmetry_multiplicity
 _atom_site_fract_x
 _atom_site_fract_y
 _atom_site_fract_z
 _atom_site_occupancy
  Li  Li0  1  0.250000  0.250000  0.250000  1
  Li  Li1  1  0.000000  0.000000  1.000000  1
  Fe  Fe2  1  0.418888  0.418888  0.081112  1
  Fe  Fe3  1  0.831112  0.831112  0.168888  1
  Fe  Fe4  1  0.750000  0.750000  0.750000  1
  Fe  Fe5  1  0.168888  0.168888  0.831112  1
  Fe  Fe6  1  0.081112  0.081112  0.418888  1
  Fe  Fe7  1  0.500000  0.500000  0.500000  1
  O  O8  1  0.202844  0.635789  0.881950  1
  O  O9  1  0.635789  0.202844  0.279417  1
  O  O10  1  0.614211  0.047156  0.970583  1
  O  O11  1  0.530944  0.969056  0.530944  1
  O  O12  1  0.047156  0.614211  0.368050  1
  O  O13  1  0.969056  0.530944  0.969056  1
  O  O14  1  0.368050  0.970583  0.047156  1
  O  O15  1  0.970583  0.368050  0.614211  1
  O  O16  1  0.279417  0.881950  0.635789  1
  O  O17  1  0.881950  0.279417  0.202844  1
  O  O18  1  0.280944  0.719056  0.280944  1
  O  O19  1  0.719056  0.280944  0.719056  1
