# generated using pymatgen
data_Mn2Cu5P4(HO9)2
_symmetry_space_group_name_H-M   'P 1'
_cell_length_a   5.42870997
_cell_length_b   7.63339970
_cell_length_c   8.98285317
_cell_angle_alpha   108.49260295
_cell_angle_beta   95.60999730
_cell_angle_gamma   101.85769272
_symmetry_Int_Tables_number   1
_chemical_formula_structural   Mn2Cu5P4(HO9)2
_chemical_formula_sum   'Mn2 Cu5 P4 H2 O18'
_cell_volume   340.12563515
_cell_formula_units_Z   1
loop_
 _symmetry_equiv_pos_site_id
 _symmetry_equiv_pos_as_xyz
  1  'x, y, z'
loop_
 _atom_site_type_symbol
 _atom_site_label
 _atom_site_symmetry_multiplicity
 _atom_site_fract_x
 _atom_site_fract_y
 _atom_site_fract_z
 _atom_site_occupancy
  Mn  Mn0  1  0.451972  0.710688  0.019795  1
  Mn  Mn1  1  0.548028  0.289312  0.980205  1
  Cu  Cu2  1  0.000000  0.000000  0.000000  1
  Cu  Cu3  1  0.272143  0.105432  0.503488  1
  Cu  Cu4  1  0.727857  0.894568  0.496512  1
  Cu  Cu5  1  0.239638  0.469988  0.382185  1
  Cu  Cu6  1  0.760362  0.530012  0.617815  1
  P  P7  1  0.998310  0.287957  0.802938  1
  P  P8  1  0.001690  0.712043  0.197062  1
  P  P9  1  0.340251  0.844044  0.736020  1
  P  P10  1  0.659749  0.155956  0.263980  1
  H  H11  1  0.333818  0.442881  0.653632  1
  H  H12  1  0.666182  0.557119  0.346368  1
  O  O13  1  0.393221  0.380767  0.554626  1
  O  O14  1  0.606779  0.619233  0.445374  1
  O  O15  1  0.178770  0.585231  0.220392  1
  O  O16  1  0.821230  0.414769  0.779608  1
  O  O17  1  0.468044  0.948502  0.629136  1
  O  O18  1  0.531956  0.051498  0.370864  1
  O  O19  1  0.117743  0.805450  0.078772  1
  O  O20  1  0.882257  0.194550  0.921228  1
  O  O21  1  0.276845  0.406897  0.877859  1
  O  O22  1  0.723155  0.593103  0.122141  1
  O  O23  1  0.469048  0.248909  0.195970  1
  O  O24  1  0.530952  0.751091  0.804030  1
  O  O25  1  0.992930  0.868091  0.356842  1
  O  O26  1  0.007070  0.131909  0.643158  1
  O  O27  1  0.279273  0.005317  0.875229  1
  O  O28  1  0.720727  0.994683  0.124771  1
  O  O29  1  0.096648  0.691693  0.637582  1
  O  O30  1  0.903352  0.308307  0.362418  1
