# generated using pymatgen
data_Li10Si(PSe6)2
_symmetry_space_group_name_H-M   'P 1'
_cell_length_a   9.26351544
_cell_length_b   9.26351544
_cell_length_c   13.30969561
_cell_angle_alpha   90.00000000
_cell_angle_beta   90.00000000
_cell_angle_gamma   90.00000000
_symmetry_Int_Tables_number   1
_chemical_formula_structural   Li10Si(PSe6)2
_chemical_formula_sum   'Li20 Si2 P4 Se24'
_cell_volume   1142.14116013
_cell_formula_units_Z   2
loop_
 _symmetry_equiv_pos_site_id
 _symmetry_equiv_pos_as_xyz
  1  'x, y, z'
loop_
 _atom_site_type_symbol
 _atom_site_label
 _atom_site_symmetry_multiplicity
 _atom_site_fract_x
 _atom_site_fract_y
 _atom_site_fract_z
 _atom_site_occupancy
  Li  Li0  1  0.232138  0.273945  0.295321  1
  Li  Li1  1  0.767862  0.726055  0.295321  1
  Li  Li2  1  0.273945  0.767862  0.795321  1
  Li  Li3  1  0.726055  0.232138  0.795321  1
  Li  Li4  1  0.232138  0.726055  0.295321  1
  Li  Li5  1  0.767862  0.273945  0.295321  1
  Li  Li6  1  0.273945  0.232138  0.795321  1
  Li  Li7  1  0.726055  0.767862  0.795321  1
  Li  Li8  1  0.000000  0.000000  0.941502  1
  Li  Li9  1  0.000000  0.000000  0.441502  1
  Li  Li10  1  0.500000  0.500000  0.546514  1
  Li  Li11  1  0.500000  0.500000  0.046514  1
  Li  Li12  1  0.259718  0.727320  0.034699  1
  Li  Li13  1  0.740282  0.272680  0.034699  1
  Li  Li14  1  0.272680  0.259718  0.534699  1
  Li  Li15  1  0.727320  0.740282  0.534699  1
  Li  Li16  1  0.272680  0.740282  0.534699  1
  Li  Li17  1  0.727320  0.259718  0.534699  1
  Li  Li18  1  0.259718  0.272680  0.034699  1
  Li  Li19  1  0.740282  0.727320  0.034699  1
  Si  Si20  1  0.500000  0.500000  0.801197  1
  Si  Si21  1  0.500000  0.500000  0.301197  1
  P  P22  1  0.000000  0.000000  0.685685  1
  P  P23  1  0.000000  0.000000  0.185685  1
  P  P24  1  0.000000  0.500000  0.504125  1
  P  P25  1  0.500000  0.000000  0.004125  1
  Se  Se26  1  0.000000  0.699731  0.409098  1
  Se  Se27  1  0.000000  0.300269  0.409098  1
  Se  Se28  1  0.300269  0.000000  0.909098  1
  Se  Se29  1  0.699731  0.000000  0.909098  1
  Se  Se30  1  0.500000  0.194051  0.101864  1
  Se  Se31  1  0.500000  0.805949  0.101864  1
  Se  Se32  1  0.194051  0.500000  0.601864  1
  Se  Se33  1  0.805949  0.500000  0.601864  1
  Se  Se34  1  0.000000  0.797324  0.092996  1
  Se  Se35  1  0.000000  0.202676  0.092996  1
  Se  Se36  1  0.202676  0.000000  0.592996  1
  Se  Se37  1  0.797324  0.000000  0.592996  1
  Se  Se38  1  0.500000  0.293302  0.399828  1
  Se  Se39  1  0.500000  0.706698  0.399828  1
  Se  Se40  1  0.293302  0.500000  0.899828  1
  Se  Se41  1  0.706698  0.500000  0.899828  1
  Se  Se42  1  0.000000  0.197713  0.779383  1
  Se  Se43  1  0.000000  0.802287  0.779383  1
  Se  Se44  1  0.802287  0.000000  0.279383  1
  Se  Se45  1  0.197713  0.000000  0.279383  1
  Se  Se46  1  0.500000  0.702173  0.700883  1
  Se  Se47  1  0.500000  0.297827  0.700883  1
  Se  Se48  1  0.702173  0.500000  0.200883  1
  Se  Se49  1  0.297827  0.500000  0.200883  1
