# generated using pymatgen
data_Li3Mn3NiO8
_symmetry_space_group_name_H-M   'P 1'
_cell_length_a   5.77509556
_cell_length_b   5.88517180
_cell_length_c   5.93330765
_cell_angle_alpha   119.46144367
_cell_angle_beta   118.86433263
_cell_angle_gamma   90.25534369
_symmetry_Int_Tables_number   1
_chemical_formula_structural   Li3Mn3NiO8
_chemical_formula_sum   'Li3 Mn3 Ni1 O8'
_cell_volume   145.82586745
_cell_formula_units_Z   1
loop_
 _symmetry_equiv_pos_site_id
 _symmetry_equiv_pos_as_xyz
  1  'x, y, z'
loop_
 _atom_site_type_symbol
 _atom_site_label
 _atom_site_symmetry_multiplicity
 _atom_site_fract_x
 _atom_site_fract_y
 _atom_site_fract_z
 _atom_site_occupancy
  Li  Li0  1  0.000000  0.500000  0.000000  1
  Li  Li1  1  0.500000  0.500000  0.000000  1
  Li  Li2  1  0.000000  0.000000  0.500000  1
  Mn  Mn3  1  0.500000  0.500000  0.500000  1
  Mn  Mn4  1  0.500000  0.000000  0.000000  1
  Mn  Mn5  1  0.000000  0.500000  0.500000  1
  Ni  Ni6  1  0.000000  0.000000  0.000000  1
  O  O7  1  0.716603  0.741966  0.956909  1
  O  O8  1  0.236132  0.741185  0.947682  1
  O  O9  1  0.243712  0.276603  0.495274  1
  O  O10  1  0.762953  0.290958  0.521491  1
  O  O11  1  0.237047  0.709042  0.478509  1
  O  O12  1  0.756288  0.723397  0.504726  1
  O  O13  1  0.763868  0.258815  0.052318  1
  O  O14  1  0.283397  0.258034  0.043091  1
