# generated using pymatgen
data_SrLiLa3FeO8
_symmetry_space_group_name_H-M   'P 1'
_cell_length_a   7.01746664
_cell_length_b   7.01746664
_cell_length_c   5.37866816
_cell_angle_alpha   90.00000000
_cell_angle_beta   90.00000000
_cell_angle_gamma   134.90538452
_symmetry_Int_Tables_number   1
_chemical_formula_structural   SrLiLa3FeO8
_chemical_formula_sum   'Sr1 Li1 La3 Fe1 O8'
_cell_volume   187.60156505
_cell_formula_units_Z   1
loop_
 _symmetry_equiv_pos_site_id
 _symmetry_equiv_pos_as_xyz
  1  'x, y, z'
loop_
 _atom_site_type_symbol
 _atom_site_label
 _atom_site_symmetry_multiplicity
 _atom_site_fract_x
 _atom_site_fract_y
 _atom_site_fract_z
 _atom_site_occupancy
  Sr  Sr0  1  0.858919  0.141081  0.500000  1
  Li  Li1  1  0.994190  0.005810  0.000000  1
  La  La2  1  0.642462  0.357538  0.000000  1
  La  La3  1  0.360154  0.639846  0.000000  1
  La  La4  1  0.138676  0.861324  0.500000  1
  Fe  Fe5  1  0.502529  0.497471  0.500000  1
  O  O6  1  0.819775  0.180225  0.000000  1
  O  O7  1  0.667329  0.332671  0.500000  1
  O  O8  1  0.181384  0.818616  0.000000  1
  O  O9  1  0.322525  0.677475  0.500000  1
  O  O10  1  0.261733  0.256077  0.744468  1
  O  O11  1  0.261733  0.256077  0.255532  1
  O  O12  1  0.743923  0.738267  0.255532  1
  O  O13  1  0.743923  0.738267  0.744468  1
