# generated using pymatgen
data_CrFe2O5
_symmetry_space_group_name_H-M   'P 1'
_cell_length_a   5.31965063
_cell_length_b   5.31965063
_cell_length_c   9.89348147
_cell_angle_alpha   90.00000000
_cell_angle_beta   90.00000000
_cell_angle_gamma   138.42719071
_symmetry_Int_Tables_number   1
_chemical_formula_structural   CrFe2O5
_chemical_formula_sum   'Cr2 Fe4 O10'
_cell_volume   185.78170012
_cell_formula_units_Z   2
loop_
 _symmetry_equiv_pos_site_id
 _symmetry_equiv_pos_as_xyz
  1  'x, y, z'
loop_
 _atom_site_type_symbol
 _atom_site_label
 _atom_site_symmetry_multiplicity
 _atom_site_fract_x
 _atom_site_fract_y
 _atom_site_fract_z
 _atom_site_occupancy
  Cr  Cr0  1  0.815929  0.184071  0.250000  1
  Cr  Cr1  1  0.184071  0.815929  0.750000  1
  Fe  Fe2  1  0.860777  0.139223  0.562446  1
  Fe  Fe3  1  0.860777  0.139223  0.937554  1
  Fe  Fe4  1  0.139223  0.860777  0.437554  1
  Fe  Fe5  1  0.139223  0.860777  0.062446  1
  O  O6  1  0.694538  0.305462  0.417220  1
  O  O7  1  0.694538  0.305462  0.082780  1
  O  O8  1  0.950604  0.049396  0.118172  1
  O  O9  1  0.950604  0.049396  0.381828  1
  O  O10  1  0.748775  0.251225  0.750000  1
  O  O11  1  0.251225  0.748775  0.250000  1
  O  O12  1  0.049396  0.950604  0.618172  1
  O  O13  1  0.305462  0.694538  0.582780  1
  O  O14  1  0.305462  0.694538  0.917220  1
  O  O15  1  0.049396  0.950604  0.881828  1
