# generated using pymatgen
data_Li2Cr(CoO3)2
_symmetry_space_group_name_H-M   'P 1'
_cell_length_a   4.95138443
_cell_length_b   4.95138443
_cell_length_c   9.97715662
_cell_angle_alpha   90.00000000
_cell_angle_beta   90.00000000
_cell_angle_gamma   120.34036405
_symmetry_Int_Tables_number   1
_chemical_formula_structural   Li2Cr(CoO3)2
_chemical_formula_sum   'Li4 Cr2 Co4 O12'
_cell_volume   211.10132483
_cell_formula_units_Z   2
loop_
 _symmetry_equiv_pos_site_id
 _symmetry_equiv_pos_as_xyz
  1  'x, y, z'
loop_
 _atom_site_type_symbol
 _atom_site_label
 _atom_site_symmetry_multiplicity
 _atom_site_fract_x
 _atom_site_fract_y
 _atom_site_fract_z
 _atom_site_occupancy
  Li  Li0  1  0.835879  0.335879  0.750000  1
  Li  Li1  1  0.664121  0.164121  0.250000  1
  Li  Li2  1  0.335879  0.835879  0.750000  1
  Li  Li3  1  0.164121  0.664121  0.250000  1
  Cr  Cr4  1  0.000000  0.000000  0.000000  1
  Cr  Cr5  1  0.500000  0.500000  0.500000  1
  Co  Co6  1  0.666025  0.333975  0.000000  1
  Co  Co7  1  0.166025  0.833975  0.500000  1
  Co  Co8  1  0.833975  0.166025  0.500000  1
  Co  Co9  1  0.333975  0.666025  1.000000  1
  O  O10  1  0.831003  0.831003  0.596663  1
  O  O11  1  0.668997  0.668997  0.096663  1
  O  O12  1  0.331003  0.331003  0.903337  1
  O  O13  1  0.004353  0.661309  0.896238  1
  O  O14  1  0.168997  0.168997  0.403337  1
  O  O15  1  0.838691  0.495647  0.396238  1
  O  O16  1  0.504353  0.161309  0.603762  1
  O  O17  1  0.338691  0.995647  0.103762  1
  O  O18  1  0.995647  0.338691  0.103762  1
  O  O19  1  0.661309  0.004353  0.896238  1
  O  O20  1  0.495647  0.838691  0.396238  1
  O  O21  1  0.161309  0.504353  0.603762  1
