# generated using pymatgen
data_K2TiH2O3F4
_symmetry_space_group_name_H-M   'P 1'
_cell_length_a   6.14007666
_cell_length_b   14.52319347
_cell_length_c   8.58433516
_cell_angle_alpha   90.00000000
_cell_angle_beta   119.95010759
_cell_angle_gamma   90.00000000
_symmetry_Int_Tables_number   1
_chemical_formula_structural   K2TiH2O3F4
_chemical_formula_sum   'K8 Ti4 H8 O12 F16'
_cell_volume   663.27149768
_cell_formula_units_Z   4
loop_
 _symmetry_equiv_pos_site_id
 _symmetry_equiv_pos_as_xyz
  1  'x, y, z'
loop_
 _atom_site_type_symbol
 _atom_site_label
 _atom_site_symmetry_multiplicity
 _atom_site_fract_x
 _atom_site_fract_y
 _atom_site_fract_z
 _atom_site_occupancy
  K  K0  1  0.735073  0.914056  0.289576  1
  K  K1  1  0.735073  0.585944  0.789576  1
  K  K2  1  0.264927  0.085944  0.710424  1
  K  K3  1  0.264927  0.414056  0.210424  1
  K  K4  1  0.304526  0.710839  0.212302  1
  K  K5  1  0.304526  0.789161  0.712302  1
  K  K6  1  0.695474  0.289161  0.787698  1
  K  K7  1  0.695474  0.210839  0.287698  1
  Ti  Ti8  1  0.931458  0.901896  0.866453  1
  Ti  Ti9  1  0.931458  0.598104  0.366453  1
  Ti  Ti10  1  0.068542  0.098104  0.133547  1
  Ti  Ti11  1  0.068542  0.401896  0.633547  1
  H  H12  1  0.243179  0.903843  0.310330  1
  H  H13  1  0.243179  0.596157  0.810330  1
  H  H14  1  0.756821  0.096157  0.689670  1
  H  H15  1  0.756821  0.403843  0.189670  1
  H  H16  1  0.448674  0.903225  0.516093  1
  H  H17  1  0.448674  0.596775  0.016093  1
  H  H18  1  0.551326  0.096775  0.483907  1
  H  H19  1  0.551326  0.403225  0.983907  1
  O  O20  1  0.837302  0.793627  0.942244  1
  O  O21  1  0.837302  0.706373  0.442244  1
  O  O22  1  0.162698  0.206373  0.057756  1
  O  O23  1  0.162698  0.293627  0.557756  1
  O  O24  1  0.830372  0.781979  0.769597  1
  O  O25  1  0.830372  0.718021  0.269597  1
  O  O26  1  0.169628  0.218021  0.230403  1
  O  O27  1  0.169628  0.281979  0.730403  1
  O  O28  1  0.347097  0.863214  0.412192  1
  O  O29  1  0.347097  0.636786  0.912192  1
  O  O30  1  0.652903  0.136786  0.587808  1
  O  O31  1  0.652903  0.363214  0.087808  1
  F  F32  1  0.282391  0.875153  0.999375  1
  F  F33  1  0.282391  0.624847  0.499375  1
  F  F34  1  0.717609  0.124847  0.000625  1
  F  F35  1  0.717609  0.375153  0.500625  1
  F  F36  1  0.967289  0.924784  0.654794  1
  F  F37  1  0.967289  0.575216  0.154794  1
  F  F38  1  0.032711  0.075216  0.345206  1
  F  F39  1  0.032711  0.424784  0.845206  1
  F  F40  1  0.593558  0.951858  0.737323  1
  F  F41  1  0.593558  0.548142  0.237323  1
  F  F42  1  0.406442  0.048142  0.262677  1
  F  F43  1  0.406442  0.451858  0.762677  1
  F  F44  1  0.964396  0.952517  0.101845  1
  F  F45  1  0.964396  0.547483  0.601845  1
  F  F46  1  0.035604  0.047483  0.898155  1
  F  F47  1  0.035604  0.452517  0.398155  1
