# generated using pymatgen
data_NbS2
_symmetry_space_group_name_H-M   'P 1'
_cell_length_a   3.38932227
_cell_length_b   3.38932227
_cell_length_c   14.23822825
_cell_angle_alpha   90.00000000
_cell_angle_beta   90.00000000
_cell_angle_gamma   120.00000000
_symmetry_Int_Tables_number   1
_chemical_formula_structural   NbS2
_chemical_formula_sum   'Nb2 S4'
_cell_volume   141.64860886
_cell_formula_units_Z   2
loop_
 _symmetry_equiv_pos_site_id
 _symmetry_equiv_pos_as_xyz
  1  'x, y, z'
loop_
 _atom_site_type_symbol
 _atom_site_label
 _atom_site_symmetry_multiplicity
 _atom_site_fract_x
 _atom_site_fract_y
 _atom_site_fract_z
 _atom_site_occupancy
  Nb  Nb0  1  0.000000  0.000000  0.000000  1
  Nb  Nb1  1  0.000000  0.000000  0.500000  1
  S  S2  1  0.666667  0.333333  0.108390  1
  S  S3  1  0.333333  0.666667  0.891610  1
  S  S4  1  0.333333  0.666667  0.608390  1
  S  S5  1  0.666667  0.333333  0.391610  1
