# generated using pymatgen
data_Li3Fe5O9
_symmetry_space_group_name_H-M   'P 1'
_cell_length_a   8.82577882
_cell_length_b   8.82577882
_cell_length_c   5.36159290
_cell_angle_alpha   89.44187335
_cell_angle_beta   90.55812665
_cell_angle_gamma   99.24915162
_symmetry_Int_Tables_number   1
_chemical_formula_structural   Li3Fe5O9
_chemical_formula_sum   'Li6 Fe10 O18'
_cell_volume   412.17439626
_cell_formula_units_Z   2
loop_
 _symmetry_equiv_pos_site_id
 _symmetry_equiv_pos_as_xyz
  1  'x, y, z'
loop_
 _atom_site_type_symbol
 _atom_site_label
 _atom_site_symmetry_multiplicity
 _atom_site_fract_x
 _atom_site_fract_y
 _atom_site_fract_z
 _atom_site_occupancy
  Li  Li0  1  0.672867  0.176922  0.283521  1
  Li  Li1  1  0.823078  0.327133  0.783521  1
  Li  Li2  1  0.404756  0.404756  0.250000  1
  Li  Li3  1  0.595244  0.595244  0.750000  1
  Li  Li4  1  0.176922  0.672867  0.216479  1
  Li  Li5  1  0.327133  0.823078  0.716479  1
  Fe  Fe6  1  0.307784  0.023339  0.288955  1
  Fe  Fe7  1  0.976661  0.692216  0.788955  1
  Fe  Fe8  1  0.781937  0.544666  0.293335  1
  Fe  Fe9  1  0.455334  0.218063  0.793335  1
  Fe  Fe10  1  0.932042  0.932042  0.250000  1
  Fe  Fe11  1  0.067958  0.067958  0.750000  1
  Fe  Fe12  1  0.544666  0.781937  0.206665  1
  Fe  Fe13  1  0.218063  0.455334  0.706665  1
  Fe  Fe14  1  0.023339  0.307784  0.211045  1
  Fe  Fe15  1  0.692216  0.976661  0.711045  1
  O  O16  1  0.981889  0.137681  0.422252  1
  O  O17  1  0.862319  0.018111  0.922252  1
  O  O18  1  0.820321  0.357168  0.155385  1
  O  O19  1  0.642832  0.179679  0.655385  1
  O  O20  1  0.456564  0.184591  0.150041  1
  O  O21  1  0.815409  0.543436  0.650041  1
  O  O22  1  0.915028  0.711409  0.132976  1
  O  O23  1  0.288591  0.084972  0.632976  1
  O  O24  1  0.574914  0.574914  0.250000  1
  O  O25  1  0.425086  0.425086  0.750000  1
  O  O26  1  0.711409  0.915028  0.367024  1
  O  O27  1  0.084972  0.288591  0.867024  1
  O  O28  1  0.184591  0.456564  0.349959  1
  O  O29  1  0.543436  0.815409  0.849959  1
  O  O30  1  0.357168  0.820321  0.344615  1
  O  O31  1  0.179679  0.642832  0.844615  1
  O  O32  1  0.137681  0.981889  0.077748  1
  O  O33  1  0.018111  0.862319  0.577748  1
