# generated using pymatgen
data_Li2Fe2(PO4)3
_symmetry_space_group_name_H-M   'P 1'
_cell_length_a   8.71495506
_cell_length_b   8.71495506
_cell_length_c   8.77100381
_cell_angle_alpha   59.84427675
_cell_angle_beta   120.15572325
_cell_angle_gamma   118.98755415
_symmetry_Int_Tables_number   1
_chemical_formula_structural   Li2Fe2(PO4)3
_chemical_formula_sum   'Li4 Fe4 P6 O24'
_cell_volume   473.40787084
_cell_formula_units_Z   2
loop_
 _symmetry_equiv_pos_site_id
 _symmetry_equiv_pos_as_xyz
  1  'x, y, z'
loop_
 _atom_site_type_symbol
 _atom_site_label
 _atom_site_symmetry_multiplicity
 _atom_site_fract_x
 _atom_site_fract_y
 _atom_site_fract_z
 _atom_site_occupancy
  Li  Li0  1  0.684478  0.174107  0.556978  1
  Li  Li1  1  0.174107  0.684478  0.943022  1
  Li  Li2  1  0.825893  0.315522  0.056978  1
  Li  Li3  1  0.315522  0.825893  0.443022  1
  Fe  Fe4  1  0.857216  0.635538  0.574567  1
  Fe  Fe5  1  0.635538  0.857216  0.925433  1
  Fe  Fe6  1  0.364462  0.142784  0.074567  1
  Fe  Fe7  1  0.142784  0.364462  0.425433  1
  P  P8  1  0.966024  0.966024  0.750000  1
  P  P9  1  0.033976  0.033976  0.250000  1
  P  P10  1  0.542814  0.253580  0.754510  1
  P  P11  1  0.253580  0.542814  0.745490  1
  P  P12  1  0.746420  0.457186  0.254510  1
  P  P13  1  0.457186  0.746420  0.245490  1
  O  O14  1  0.865746  0.005536  0.073334  1
  O  O15  1  0.693478  0.623593  0.088005  1
  O  O16  1  0.948442  0.781886  0.746239  1
  O  O17  1  0.468165  0.803526  0.052329  1
  O  O18  1  0.994464  0.134254  0.573334  1
  O  O19  1  0.781886  0.948442  0.753761  1
  O  O20  1  0.732308  0.414783  0.760618  1
  O  O21  1  0.565174  0.096260  0.737785  1
  O  O22  1  0.414783  0.732308  0.739382  1
  O  O23  1  0.803526  0.468165  0.447671  1
  O  O24  1  0.903740  0.434826  0.237785  1
  O  O25  1  0.623593  0.693478  0.411995  1
  O  O26  1  0.376407  0.306522  0.588005  1
  O  O27  1  0.096260  0.565174  0.762215  1
  O  O28  1  0.196474  0.531835  0.552329  1
  O  O29  1  0.585217  0.267692  0.260618  1
  O  O30  1  0.434826  0.903740  0.262215  1
  O  O31  1  0.267692  0.585217  0.239382  1
  O  O32  1  0.218114  0.051558  0.246239  1
  O  O33  1  0.005536  0.865746  0.426666  1
  O  O34  1  0.531835  0.196474  0.947671  1
  O  O35  1  0.051558  0.218114  0.253761  1
  O  O36  1  0.306522  0.376407  0.911995  1
  O  O37  1  0.134254  0.994464  0.926666  1
