# generated using pymatgen
data_Li3Fe(BO3)2
_symmetry_space_group_name_H-M   'P 1'
_cell_length_a   5.03910206
_cell_length_b   6.42756898
_cell_length_c   8.04677191
_cell_angle_alpha   73.88062396
_cell_angle_beta   89.32853223
_cell_angle_gamma   89.32165519
_symmetry_Int_Tables_number   1
_chemical_formula_structural   Li3Fe(BO3)2
_chemical_formula_sum   'Li6 Fe2 B4 O12'
_cell_volume   250.35459988
_cell_formula_units_Z   2
loop_
 _symmetry_equiv_pos_site_id
 _symmetry_equiv_pos_as_xyz
  1  'x, y, z'
loop_
 _atom_site_type_symbol
 _atom_site_label
 _atom_site_symmetry_multiplicity
 _atom_site_fract_x
 _atom_site_fract_y
 _atom_site_fract_z
 _atom_site_occupancy
  Li  Li0  1  0.174957  0.762182  0.887715  1
  Li  Li1  1  0.824483  0.535703  0.763393  1
  Li  Li2  1  0.323035  0.596947  0.575828  1
  Li  Li3  1  0.172987  0.479399  0.244533  1
  Li  Li4  1  0.677122  0.403308  0.430343  1
  Li  Li5  1  0.833334  0.239977  0.116923  1
  Fe  Fe6  1  0.352216  0.945556  0.228993  1
  Fe  Fe7  1  0.653391  0.054402  0.775377  1
  B  B8  1  0.835809  0.818754  0.415531  1
  B  B9  1  0.666309  0.667224  0.073749  1
  B  B10  1  0.338955  0.331729  0.928825  1
  B  B11  1  0.166984  0.181671  0.589303  1
  O  O12  1  0.782382  0.778157  0.913904  1
  O  O13  1  0.114163  0.818992  0.408524  1
  O  O14  1  0.702058  0.662822  0.533755  1
  O  O15  1  0.400876  0.727096  0.104083  1
  O  O16  1  0.210379  0.497479  0.817366  1
  O  O17  1  0.606098  0.273269  0.899723  1
  O  O18  1  0.797028  0.505317  0.187970  1
  O  O19  1  0.300234  0.339284  0.471568  1
  O  O20  1  0.888956  0.177061  0.593528  1
  O  O21  1  0.297710  0.020376  0.717598  1
  O  O22  1  0.218954  0.214980  0.085325  1
  O  O23  1  0.705920  0.982179  0.288201  1
