# generated using pymatgen
data_Li3V3P8O29
_symmetry_space_group_name_H-M   'P 1'
_cell_length_a   9.72003974
_cell_length_b   9.72003974
_cell_length_c   14.12621505
_cell_angle_alpha   89.61720969
_cell_angle_beta   90.38279031
_cell_angle_gamma   119.80422372
_symmetry_Int_Tables_number   1
_chemical_formula_structural   Li3V3P8O29
_chemical_formula_sum   'Li6 V6 P16 O58'
_cell_volume   1158.06507722
_cell_formula_units_Z   2
loop_
 _symmetry_equiv_pos_site_id
 _symmetry_equiv_pos_as_xyz
  1  'x, y, z'
loop_
 _atom_site_type_symbol
 _atom_site_label
 _atom_site_symmetry_multiplicity
 _atom_site_fract_x
 _atom_site_fract_y
 _atom_site_fract_z
 _atom_site_occupancy
  Li  Li0  1  0.670219  0.767385  0.444879  1
  Li  Li1  1  0.767385  0.670219  0.055121  1
  Li  Li2  1  0.232615  0.329781  0.944879  1
  Li  Li3  1  0.329781  0.232615  0.555121  1
  Li  Li4  1  0.000000  1.000000  0.500000  1
  Li  Li5  1  0.000000  0.000000  0.000000  1
  V  V6  1  0.565017  0.565017  0.250000  1
  V  V7  1  0.434983  0.434983  0.750000  1
  V  V8  1  0.002742  0.564646  0.745331  1
  V  V9  1  0.997258  0.435354  0.254669  1
  V  V10  1  0.435354  0.997258  0.245331  1
  V  V11  1  0.564646  0.002742  0.754669  1
  P  P12  1  0.223376  0.917655  0.659960  1
  P  P13  1  0.082345  0.776624  0.159960  1
  P  P14  1  0.696832  0.917033  0.153253  1
  P  P15  1  0.335401  0.667734  0.368430  1
  P  P16  1  0.332266  0.664599  0.868430  1
  P  P17  1  0.685307  0.778362  0.660178  1
  P  P18  1  0.778362  0.685307  0.839822  1
  P  P19  1  0.082967  0.303168  0.653253  1
  P  P20  1  0.917033  0.696832  0.346747  1
  P  P21  1  0.221638  0.314693  0.160178  1
  P  P22  1  0.314693  0.221638  0.339822  1
  P  P23  1  0.667734  0.335401  0.131570  1
  P  P24  1  0.664599  0.332266  0.631570  1
  P  P25  1  0.303168  0.082967  0.846747  1
  P  P26  1  0.917655  0.223376  0.840040  1
  P  P27  1  0.776624  0.082345  0.340040  1
  O  O28  1  0.208622  0.008796  0.932561  1
  O  O29  1  0.257328  0.912843  0.164583  1
  O  O30  1  0.991204  0.791378  0.432561  1
  O  O31  1  0.087157  0.742672  0.664583  1
  O  O32  1  0.382835  0.920132  0.673523  1
  O  O33  1  0.336438  0.813485  0.319563  1
  O  O34  1  0.538536  0.918747  0.167145  1
  O  O35  1  0.787710  0.993981  0.423808  1
  O  O36  1  0.653184  0.917774  0.669956  1
  O  O37  1  0.186515  0.663562  0.819563  1
  O  O38  1  0.079868  0.617165  0.173523  1
  O  O39  1  0.479380  0.812229  0.824785  1
  O  O40  1  0.347908  0.671697  0.473073  1
  O  O41  1  0.328303  0.652092  0.973073  1
  O  O42  1  0.488591  0.669969  0.325991  1
  O  O43  1  0.081253  0.461464  0.667145  1
  O  O44  1  0.187771  0.520620  0.324785  1
  O  O45  1  0.657991  0.739626  0.162749  1
  O  O46  1  0.795863  0.795863  0.750000  1
  O  O47  1  0.782180  0.763920  0.930256  1
  O  O48  1  0.763920  0.782180  0.569744  1
  O  O49  1  0.527298  0.619444  0.676093  1
  O  O50  1  0.330031  0.511409  0.825991  1
  O  O51  1  0.739626  0.657991  0.337251  1
  O  O52  1  0.380556  0.472702  0.176093  1
  O  O53  1  0.082226  0.346816  0.169956  1
  O  O54  1  0.000861  0.799561  0.253301  1
  O  O55  1  0.993981  0.787710  0.076192  1
  O  O56  1  0.006019  0.212290  0.923808  1
  O  O57  1  0.917774  0.653184  0.830044  1
  O  O58  1  0.619444  0.527298  0.823907  1
  O  O59  1  0.260374  0.342009  0.662749  1
  O  O60  1  0.669969  0.488591  0.174009  1
  O  O61  1  0.472702  0.380556  0.323907  1
  O  O62  1  0.236080  0.217820  0.430256  1
  O  O63  1  0.217820  0.236080  0.069744  1
  O  O64  1  0.204137  0.204137  0.250000  1
  O  O65  1  0.342009  0.260374  0.837251  1
  O  O66  1  0.812229  0.479380  0.675215  1
  O  O67  1  0.918747  0.538536  0.332855  1
  O  O68  1  0.511409  0.330031  0.674009  1
  O  O69  1  0.652092  0.328303  0.526927  1
  O  O70  1  0.671697  0.347908  0.026927  1
  O  O71  1  0.520620  0.187771  0.175215  1
  O  O72  1  0.920132  0.382835  0.826477  1
  O  O73  1  0.813485  0.336438  0.180437  1
  O  O74  1  0.346816  0.082226  0.330044  1
  O  O75  1  0.200439  0.999139  0.753301  1
  O  O76  1  0.212290  0.006019  0.576192  1
  O  O77  1  0.461464  0.081253  0.832855  1
  O  O78  1  0.663562  0.186515  0.680437  1
  O  O79  1  0.617165  0.079868  0.326477  1
  O  O80  1  0.912843  0.257328  0.335417  1
  O  O81  1  0.008796  0.208622  0.567439  1
  O  O82  1  0.999139  0.200439  0.746699  1
  O  O83  1  0.742672  0.087157  0.835417  1
  O  O84  1  0.791378  0.991204  0.067439  1
  O  O85  1  0.799561  0.000861  0.246699  1
