# generated using pymatgen
data_Mn3V2O10
_symmetry_space_group_name_H-M   'P 1'
_cell_length_a   5.04660709
_cell_length_b   5.46579377
_cell_length_c   7.72907211
_cell_angle_alpha   70.12198998
_cell_angle_beta   73.10317279
_cell_angle_gamma   76.72616015
_symmetry_Int_Tables_number   1
_chemical_formula_structural   Mn3V2O10
_chemical_formula_sum   'Mn3 V2 O10'
_cell_volume   189.80163052
_cell_formula_units_Z   1
loop_
 _symmetry_equiv_pos_site_id
 _symmetry_equiv_pos_as_xyz
  1  'x, y, z'
loop_
 _atom_site_type_symbol
 _atom_site_label
 _atom_site_symmetry_multiplicity
 _atom_site_fract_x
 _atom_site_fract_y
 _atom_site_fract_z
 _atom_site_occupancy
  Mn  Mn0  1  0.000000  0.500000  0.000000  1
  Mn  Mn1  1  0.694793  0.015559  0.100046  1
  Mn  Mn2  1  0.305207  0.984441  0.899954  1
  V  V3  1  0.099160  0.955053  0.324771  1
  V  V4  1  0.900840  0.044947  0.675229  1
  O  O5  1  0.056482  0.794243  0.146317  1
  O  O6  1  0.336796  0.208217  0.044406  1
  O  O7  1  0.081242  0.214504  0.456085  1
  O  O8  1  0.196135  0.782644  0.783578  1
  O  O9  1  0.451312  0.828126  0.320274  1
  O  O10  1  0.548688  0.171874  0.679726  1
  O  O11  1  0.803865  0.217356  0.216422  1
  O  O12  1  0.918758  0.785496  0.543915  1
  O  O13  1  0.663204  0.791783  0.955594  1
  O  O14  1  0.943518  0.205757  0.853683  1
