# generated using pymatgen
data_Li3Fe2(SiO4)2
_symmetry_space_group_name_H-M   'P 1'
_cell_length_a   10.96495116
_cell_length_b   6.32692712
_cell_length_c   12.08325589
_cell_angle_alpha   90.00000000
_cell_angle_beta   155.20154850
_cell_angle_gamma   90.00000000
_symmetry_Int_Tables_number   1
_chemical_formula_structural   Li3Fe2(SiO4)2
_chemical_formula_sum   'Li6 Fe4 Si4 O16'
_cell_volume   351.59319269
_cell_formula_units_Z   2
loop_
 _symmetry_equiv_pos_site_id
 _symmetry_equiv_pos_as_xyz
  1  'x, y, z'
loop_
 _atom_site_type_symbol
 _atom_site_label
 _atom_site_symmetry_multiplicity
 _atom_site_fract_x
 _atom_site_fract_y
 _atom_site_fract_z
 _atom_site_occupancy
  Li  Li0  1  0.936160  0.264364  0.762111  1
  Li  Li1  1  0.436160  0.735636  0.762111  1
  Li  Li2  1  0.585982  0.743025  0.259746  1
  Li  Li3  1  0.349797  0.995579  0.256498  1
  Li  Li4  1  0.849797  0.004421  0.256498  1
  Li  Li5  1  0.085982  0.256975  0.259746  1
  Fe  Fe6  1  0.837774  0.494240  0.259731  1
  Fe  Fe7  1  0.337774  0.505760  0.259731  1
  Fe  Fe8  1  0.676495  0.987450  0.762466  1
  Fe  Fe9  1  0.176495  0.012550  0.762466  1
  Si  Si10  1  0.593883  0.255920  0.262955  1
  Si  Si11  1  0.093883  0.744080  0.262955  1
  Si  Si12  1  0.934553  0.756382  0.765728  1
  Si  Si13  1  0.434553  0.243618  0.765728  1
  O  O14  1  0.343365  0.246889  0.153744  1
  O  O15  1  0.918790  0.228684  0.587830  1
  O  O16  1  0.257509  0.461152  0.643774  1
  O  O17  1  0.587315  0.474391  0.185904  1
  O  O18  1  0.087315  0.525609  0.185904  1
  O  O19  1  0.757509  0.538848  0.643774  1
  O  O20  1  0.418790  0.771316  0.587830  1
  O  O21  1  0.843365  0.753111  0.153744  1
  O  O22  1  0.962976  0.790367  0.653428  1
  O  O23  1  0.256626  0.755948  0.088299  1
  O  O24  1  0.049393  0.959048  0.143321  1
  O  O25  1  0.747972  0.967934  0.663385  1
  O  O26  1  0.247972  0.032066  0.663385  1
  O  O27  1  0.549393  0.040952  0.143321  1
  O  O28  1  0.756626  0.244052  0.088299  1
  O  O29  1  0.462976  0.209633  0.653428  1
