# generated using pymatgen
data_Ga3NO3
_symmetry_space_group_name_H-M   'P 1'
_cell_length_a   6.13641695
_cell_length_b   8.38323498
_cell_length_c   8.41208651
_cell_angle_alpha   119.71112861
_cell_angle_beta   89.50730445
_cell_angle_gamma   91.45532269
_symmetry_Int_Tables_number   1
_chemical_formula_structural   Ga3NO3
_chemical_formula_sum   'Ga12 N4 O12'
_cell_volume   375.72750903
_cell_formula_units_Z   4
loop_
 _symmetry_equiv_pos_site_id
 _symmetry_equiv_pos_as_xyz
  1  'x, y, z'
loop_
 _atom_site_type_symbol
 _atom_site_label
 _atom_site_symmetry_multiplicity
 _atom_site_fract_x
 _atom_site_fract_y
 _atom_site_fract_z
 _atom_site_occupancy
  Ga  Ga0  1  0.011272  0.243391  0.172807  1
  Ga  Ga1  1  0.317702  0.568170  0.490924  1
  Ga  Ga2  1  0.295152  0.509313  0.083735  1
  Ga  Ga3  1  0.999339  0.910796  0.742488  1
  Ga  Ga4  1  0.507672  0.077466  0.835935  1
  Ga  Ga5  1  0.287249  0.917674  0.423687  1
  Ga  Ga6  1  0.012513  0.822853  0.089544  1
  Ga  Ga7  1  0.809025  0.086748  0.503936  1
  Ga  Ga8  1  0.799577  0.429604  0.919972  1
  Ga  Ga9  1  0.490707  0.169985  0.258331  1
  Ga  Ga10  1  0.790135  0.500552  0.571665  1
  Ga  Ga11  1  0.491524  0.730552  0.904032  1
  N  N12  1  0.027097  0.962081  0.344878  1
  N  N13  1  0.265691  0.325907  0.305505  1
  N  N14  1  0.246822  0.665182  0.989696  1
  N  N15  1  0.549702  0.649887  0.657355  1
  O  O16  1  0.762898  0.305674  0.322299  1
  O  O17  1  0.033551  0.658009  0.602145  1
  O  O18  1  0.018572  0.373368  0.036995  1
  O  O19  1  0.361170  0.672523  0.334652  1
  O  O20  1  0.994229  0.990760  0.992106  1
  O  O21  1  0.509560  0.997483  0.005997  1
  O  O22  1  0.767849  0.026489  0.698339  1
  O  O23  1  0.261470  0.997492  0.684138  1
  O  O24  1  0.750210  0.676942  0.001266  1
  O  O25  1  0.527631  0.050069  0.398225  1
  O  O26  1  0.527773  0.338243  0.959550  1
  O  O27  1  0.846708  0.342685  0.669698  1
