# generated using pymatgen
data_Na4Sb2C4SO16
_symmetry_space_group_name_H-M   'P 1'
_cell_length_a   10.19855769
_cell_length_b   10.21309999
_cell_length_c   17.68745467
_cell_angle_alpha   74.07741079
_cell_angle_beta   73.52811373
_cell_angle_gamma   60.82846605
_symmetry_Int_Tables_number   1
_chemical_formula_structural   Na4Sb2C4SO16
_chemical_formula_sum   'Na16 Sb8 C16 S4 O64'
_cell_volume   1522.09212065
_cell_formula_units_Z   4
loop_
 _symmetry_equiv_pos_site_id
 _symmetry_equiv_pos_as_xyz
  1  'x, y, z'
loop_
 _atom_site_type_symbol
 _atom_site_label
 _atom_site_symmetry_multiplicity
 _atom_site_fract_x
 _atom_site_fract_y
 _atom_site_fract_z
 _atom_site_occupancy
  Na  Na0  1  0.414564  0.913841  0.164157  1
  Na  Na1  1  0.784276  0.284832  0.034835  1
  Na  Na2  1  0.118560  0.200838  0.459533  1
  Na  Na3  1  0.689487  0.622250  0.459977  1
  Na  Na4  1  0.002843  0.915484  0.165646  1
  Na  Na5  1  0.415747  0.503316  0.165277  1
  Na  Na6  1  0.498824  0.422426  0.660718  1
  Na  Na7  1  0.209884  0.121318  0.959846  1
  Na  Na8  1  0.088319  0.586915  0.339507  1
  Na  Na9  1  0.913132  0.407883  0.668550  1
  Na  Na10  1  0.893230  0.784737  0.535053  1
  Na  Na11  1  0.701075  0.218218  0.460240  1
  Na  Na12  1  0.212043  0.712292  0.958043  1
  Na  Na13  1  0.621325  0.709552  0.961596  1
  Na  Na14  1  0.920157  0.004162  0.666018  1
  Na  Na15  1  0.590181  0.092070  0.840062  1
  Sb  Sb16  1  0.005669  0.506662  0.000058  1
  Sb  Sb17  1  0.252050  0.241318  0.246622  1
  Sb  Sb18  1  0.491441  0.007594  0.499861  1
  Sb  Sb19  1  0.251240  0.749012  0.750213  1
  Sb  Sb20  1  0.749993  0.249595  0.255686  1
  Sb  Sb21  1  0.740243  0.753035  0.247617  1
  Sb  Sb22  1  0.749560  0.740866  0.752394  1
  Sb  Sb23  1  0.244014  0.252161  0.747967  1
  C  C24  1  0.082551  0.193529  0.135090  1
  C  C25  1  0.088216  0.582888  0.141149  1
  C  C26  1  0.422437  0.923507  0.357443  1
  C  C27  1  0.608903  0.108946  0.171111  1
  C  C28  1  0.106352  0.609450  0.671557  1
  C  C29  1  0.420569  0.297081  0.360335  1
  C  C30  1  0.800212  0.919480  0.361087  1
  C  C31  1  0.297813  0.422506  0.859459  1
  C  C32  1  0.690420  0.580022  0.137958  1
  C  C33  1  0.190812  0.084761  0.637995  1
  C  C34  1  0.589907  0.692300  0.636828  1
  C  C35  1  0.888785  0.393872  0.335606  1
  C  C36  1  0.390506  0.892636  0.835354  1
  C  C37  1  0.590790  0.080301  0.639677  1
  C  C38  1  0.920879  0.420604  0.859481  1
  C  C39  1  0.922322  0.797838  0.859977  1
  S  S40  1  0.183455  0.688510  0.437466  1
  S  S41  1  0.312356  0.812252  0.062478  1
  S  S42  1  0.687840  0.187698  0.937452  1
  S  S43  1  0.811981  0.312268  0.562586  1
  O  O44  1  0.132434  0.260115  0.068565  1
  O  O45  1  0.207680  0.717677  0.347610  1
  O  O46  1  0.085559  0.601183  0.465890  1
  O  O47  1  0.159567  0.133742  0.193979  1
  O  O48  1  0.039764  0.633017  0.072847  1
  O  O49  1  0.089682  0.836631  0.468955  1
  O  O50  1  0.328323  0.598547  0.467344  1
  O  O51  1  0.490102  0.855806  0.294708  1
  O  O52  1  0.992874  0.361117  0.794426  1
  O  O53  1  0.477345  0.112363  0.175285  1
  O  O54  1  0.212189  0.458204  0.149840  1
  O  O55  1  0.226297  0.479650  0.675904  1
  O  O56  1  0.297871  0.049791  0.354033  1
  O  O57  1  0.729785  0.978982  0.173747  1
  O  O58  1  0.023757  0.375259  0.336947  1
  O  O59  1  0.401081  0.663597  0.032299  1
  O  O60  1  0.163918  0.900466  0.032966  1
  O  O61  1  0.619355  0.232776  0.166168  1
  O  O62  1  0.111713  0.732156  0.675259  1
  O  O63  1  0.482337  0.867218  0.421453  1
  O  O64  1  0.348472  0.367028  0.300744  1
  O  O65  1  0.812797  0.788861  0.356270  1
  O  O66  1  0.309706  0.290741  0.857846  1
  O  O67  1  0.282285  0.783013  0.151978  1
  O  O68  1  0.402561  0.901745  0.032911  1
  O  O69  1  0.465140  0.681992  0.646142  1
  O  O70  1  0.957581  0.181142  0.144163  1
  O  O71  1  0.755506  0.532271  0.069505  1
  O  O72  1  0.256802  0.040141  0.568750  1
  O  O73  1  0.362077  0.229116  0.423954  1
  O  O74  1  0.849108  0.996440  0.297883  1
  O  O75  1  0.354381  0.492761  0.796578  1
  O  O76  1  0.641145  0.758760  0.569822  1
  O  O77  1  0.134550  0.006169  0.694961  1
  O  O78  1  0.632293  0.504312  0.196126  1
  O  O79  1  0.054292  0.793687  0.853774  1
  O  O80  1  0.737922  0.973523  0.427881  1
  O  O81  1  0.553188  0.290074  0.357319  1
  O  O82  1  0.226820  0.486637  0.923247  1
  O  O83  1  0.597360  0.097755  0.965659  1
  O  O84  1  0.717131  0.216145  0.847638  1
  O  O85  1  0.680989  0.707717  0.146619  1
  O  O86  1  0.177972  0.212626  0.648357  1
  O  O87  1  0.669191  0.631150  0.695050  1
  O  O88  1  0.539649  0.132441  0.572838  1
  O  O89  1  0.870110  0.275347  0.336395  1
  O  O90  1  0.372567  0.775631  0.835628  1
  O  O91  1  0.836143  0.100807  0.967972  1
  O  O92  1  0.600769  0.336326  0.968447  1
  O  O93  1  0.977301  0.618666  0.665242  1
  O  O94  1  0.773188  0.526814  0.335567  1
  O  O95  1  0.717405  0.954898  0.646242  1
  O  O96  1  0.276566  0.026320  0.836367  1
  O  O97  1  0.795972  0.548155  0.856606  1
  O  O98  1  0.527460  0.874479  0.836116  1
  O  O99  1  0.517883  0.154246  0.699620  1
  O  O100  1  0.012748  0.661600  0.199041  1
  O  O101  1  0.899734  0.163478  0.532287  1
  O  O102  1  0.663606  0.400245  0.533086  1
  O  O103  1  0.972787  0.358125  0.925697  1
  O  O104  1  0.844343  0.868428  0.802403  1
  O  O105  1  0.902199  0.401594  0.533154  1
  O  O106  1  0.781619  0.282644  0.652050  1
  O  O107  1  0.868541  0.726828  0.924273  1
