# generated using pymatgen
data_Li2Cr3Ni(SO4)6
_symmetry_space_group_name_H-M   'P 1'
_cell_length_a   8.32469919
_cell_length_b   8.37885383
_cell_length_c   8.93145414
_cell_angle_alpha   91.00375872
_cell_angle_beta   116.85063971
_cell_angle_gamma   119.69055593
_symmetry_Int_Tables_number   1
_chemical_formula_structural   Li2Cr3Ni(SO4)6
_chemical_formula_sum   'Li2 Cr3 Ni1 S6 O24'
_cell_volume   458.86111959
_cell_formula_units_Z   1
loop_
 _symmetry_equiv_pos_site_id
 _symmetry_equiv_pos_as_xyz
  1  'x, y, z'
loop_
 _atom_site_type_symbol
 _atom_site_label
 _atom_site_symmetry_multiplicity
 _atom_site_fract_x
 _atom_site_fract_y
 _atom_site_fract_z
 _atom_site_occupancy
  Li  Li0  1  0.052083  0.234185  0.626168  1
  Li  Li1  1  0.806727  0.571949  0.623231  1
  Cr  Cr2  1  0.297338  0.653869  0.940604  1
  Cr  Cr3  1  0.713533  0.354918  0.069556  1
  Cr  Cr4  1  0.300266  0.146610  0.450631  1
  Ni  Ni5  1  0.682013  0.844317  0.533965  1
  S  S6  1  0.499586  0.535520  0.752566  1
  S  S7  1  0.202568  0.743628  0.248725  1
  S  S8  1  0.800567  0.051747  0.251220  1
  S  S9  1  0.210178  0.966642  0.745703  1
  S  S10  1  0.783955  0.244726  0.747849  1
  S  S11  1  0.501101  0.452627  0.250608  1
  O  O12  1  0.654891  0.655412  0.699815  1
  O  O13  1  0.315143  0.341138  0.608172  1
  O  O14  1  0.355121  0.709072  0.386527  1
  O  O15  1  0.977712  0.023457  0.293502  1
  O  O16  1  0.816309  0.306097  0.920129  1
  O  O17  1  0.390404  0.622624  0.769811  1
  O  O18  1  0.275613  0.949750  0.295970  1
  O  O19  1  0.868717  0.247997  0.232181  1
  O  O20  1  0.605333  0.901567  0.088787  1
  O  O21  1  0.383673  0.484495  0.089020  1
  O  O22  1  0.983895  0.617889  0.226860  1
  O  O23  1  0.766095  0.047046  0.403004  1
  O  O24  1  0.259535  0.977450  0.603134  1
  O  O25  1  0.995337  0.370552  0.758116  1
  O  O26  1  0.615808  0.504984  0.919145  1
  O  O27  1  0.409838  0.104100  0.918060  1
  O  O28  1  0.125100  0.767208  0.755764  1
  O  O29  1  0.701579  0.040753  0.698440  1
  O  O30  1  0.611923  0.365141  0.230652  1
  O  O31  1  0.180518  0.700397  0.077126  1
  O  O32  1  0.041070  0.006848  0.702851  1
  O  O33  1  0.632290  0.288617  0.608562  1
  O  O34  1  0.679899  0.637549  0.402068  1
  O  O35  1  0.342680  0.317820  0.296679  1
