# generated using pymatgen
data_Li3V5O10
_symmetry_space_group_name_H-M   'P 1'
_cell_length_a   5.11906879
_cell_length_b   5.20105302
_cell_length_c   7.81754043
_cell_angle_alpha   73.64840207
_cell_angle_beta   73.77374365
_cell_angle_gamma   79.25668795
_symmetry_Int_Tables_number   1
_chemical_formula_structural   Li3V5O10
_chemical_formula_sum   'Li3 V5 O10'
_cell_volume   190.44832677
_cell_formula_units_Z   1
loop_
 _symmetry_equiv_pos_site_id
 _symmetry_equiv_pos_as_xyz
  1  'x, y, z'
loop_
 _atom_site_type_symbol
 _atom_site_label
 _atom_site_symmetry_multiplicity
 _atom_site_fract_x
 _atom_site_fract_y
 _atom_site_fract_z
 _atom_site_occupancy
  Li  Li0  1  0.508372  0.787300  0.405883  1
  Li  Li1  1  0.000000  0.500000  0.500000  1
  Li  Li2  1  0.491628  0.212700  0.594117  1
  V  V3  1  0.021885  0.883573  0.688681  1
  V  V4  1  0.500000  0.000000  0.000000  1
  V  V5  1  0.973450  0.313578  0.897140  1
  V  V6  1  0.026550  0.686422  0.102860  1
  V  V7  1  0.978115  0.116427  0.311319  1
  O  O8  1  0.230943  0.963019  0.860610  1
  O  O9  1  0.786736  0.881874  0.524299  1
  O  O10  1  0.790245  0.675841  0.937700  1
  O  O11  1  0.245207  0.806850  0.233042  1
  O  O12  1  0.202098  0.555734  0.665563  1
  O  O13  1  0.797902  0.444266  0.334437  1
  O  O14  1  0.754793  0.193150  0.766958  1
  O  O15  1  0.209755  0.324159  0.062300  1
  O  O16  1  0.213264  0.118126  0.475701  1
  O  O17  1  0.769057  0.036981  0.139390  1
