# generated using pymatgen
data_NiH24C2S2(N3O7)2
_symmetry_space_group_name_H-M   'P 1'
_cell_length_a   10.06196770
_cell_length_b   7.65575702
_cell_length_c   12.05139632
_cell_angle_alpha   90.00000000
_cell_angle_beta   97.05001865
_cell_angle_gamma   90.00000000
_symmetry_Int_Tables_number   1
_chemical_formula_structural   NiH24C2S2(N3O7)2
_chemical_formula_sum   'Ni2 H48 C4 S4 N12 O28'
_cell_volume   921.32407285
_cell_formula_units_Z   2
loop_
 _symmetry_equiv_pos_site_id
 _symmetry_equiv_pos_as_xyz
  1  'x, y, z'
loop_
 _atom_site_type_symbol
 _atom_site_label
 _atom_site_symmetry_multiplicity
 _atom_site_fract_x
 _atom_site_fract_y
 _atom_site_fract_z
 _atom_site_occupancy
  Ni  Ni0  1  0.500000  0.500000  0.500000  1
  Ni  Ni1  1  0.500000  0.000000  0.000000  1
  H  H2  1  0.605835  0.806140  0.461561  1
  H  H3  1  0.394165  0.306140  0.038439  1
  H  H4  1  0.394165  0.193860  0.538439  1
  H  H5  1  0.605835  0.693860  0.961561  1
  H  H6  1  0.485520  0.831462  0.536532  1
  H  H7  1  0.514480  0.331462  0.963468  1
  H  H8  1  0.514480  0.168538  0.463468  1
  H  H9  1  0.485520  0.668538  0.036532  1
  H  H10  1  0.516284  0.487907  0.727650  1
  H  H11  1  0.483716  0.987907  0.772350  1
  H  H12  1  0.483716  0.512093  0.272350  1
  H  H13  1  0.516284  0.012093  0.227650  1
  H  H14  1  0.259840  0.628748  0.489002  1
  H  H15  1  0.740160  0.128748  0.010998  1
  H  H16  1  0.740160  0.371252  0.510998  1
  H  H17  1  0.259840  0.871252  0.989002  1
  H  H18  1  0.269812  0.540838  0.371364  1
  H  H19  1  0.730188  0.040838  0.128636  1
  H  H20  1  0.730188  0.459162  0.628636  1
  H  H21  1  0.269812  0.959162  0.871364  1
  H  H22  1  0.440440  0.661724  0.679475  1
  H  H23  1  0.559560  0.161724  0.820525  1
  H  H24  1  0.559560  0.338276  0.320525  1
  H  H25  1  0.440440  0.838276  0.179475  1
  H  H26  1  0.125491  0.715764  0.778104  1
  H  H27  1  0.874509  0.215764  0.721896  1
  H  H28  1  0.874509  0.284236  0.221896  1
  H  H29  1  0.125491  0.784236  0.278104  1
  H  H30  1  0.131722  0.610671  0.907041  1
  H  H31  1  0.868278  0.110671  0.592959  1
  H  H32  1  0.868278  0.389329  0.092959  1
  H  H33  1  0.131722  0.889329  0.407041  1
  H  H34  1  0.148263  0.330171  0.622269  1
  H  H35  1  0.851737  0.830171  0.877731  1
  H  H36  1  0.851737  0.669829  0.377731  1
  H  H37  1  0.148263  0.169829  0.122269  1
  H  H38  1  0.122298  0.554918  0.615997  1
  H  H39  1  0.877702  0.054918  0.884003  1
  H  H40  1  0.877702  0.445082  0.384003  1
  H  H41  1  0.122298  0.945082  0.115997  1
  H  H42  1  0.164604  0.309964  0.914983  1
  H  H43  1  0.835396  0.809964  0.585017  1
  H  H44  1  0.835396  0.690036  0.085017  1
  H  H45  1  0.164604  0.190036  0.414983  1
  H  H46  1  0.151758  0.183798  0.791606  1
  H  H47  1  0.848242  0.683798  0.708394  1
  H  H48  1  0.848242  0.816202  0.208394  1
  H  H49  1  0.151758  0.316202  0.291606  1
  C  C50  1  0.129362  0.448408  0.770332  1
  C  C51  1  0.870638  0.948408  0.729668  1
  C  C52  1  0.870638  0.551592  0.229668  1
  C  C53  1  0.129362  0.051592  0.270332  1
  S  S54  1  0.750962  0.062857  0.371033  1
  S  S55  1  0.249038  0.562857  0.128967  1
  S  S56  1  0.249038  0.937143  0.628967  1
  S  S57  1  0.750962  0.437143  0.871033  1
  N  N58  1  0.123038  0.601914  0.821857  1
  N  N59  1  0.876962  0.101914  0.678143  1
  N  N60  1  0.876962  0.398086  0.178143  1
  N  N61  1  0.123038  0.898086  0.321857  1
  N  N62  1  0.115150  0.440365  0.658133  1
  N  N63  1  0.884850  0.940365  0.841867  1
  N  N64  1  0.884850  0.559635  0.341867  1
  N  N65  1  0.115150  0.059635  0.158133  1
  N  N66  1  0.143945  0.301431  0.830344  1
  N  N67  1  0.856055  0.801431  0.669656  1
  N  N68  1  0.856055  0.698569  0.169656  1
  N  N69  1  0.143945  0.198569  0.330344  1
  O  O70  1  0.515495  0.765066  0.473964  1
  O  O71  1  0.484505  0.265066  0.026036  1
  O  O72  1  0.484505  0.234934  0.526036  1
  O  O73  1  0.515495  0.734934  0.973964  1
  O  O74  1  0.457949  0.538138  0.663194  1
  O  O75  1  0.542051  0.038138  0.836806  1
  O  O76  1  0.542051  0.461862  0.336806  1
  O  O77  1  0.457949  0.961862  0.163194  1
  O  O78  1  0.294383  0.524772  0.452952  1
  O  O79  1  0.705617  0.024772  0.047048  1
  O  O80  1  0.705617  0.475228  0.547048  1
  O  O81  1  0.294383  0.975228  0.952952  1
  O  O82  1  0.762565  0.891908  0.430975  1
  O  O83  1  0.237435  0.391908  0.069025  1
  O  O84  1  0.237435  0.108092  0.569025  1
  O  O85  1  0.762565  0.608092  0.930975  1
  O  O86  1  0.810454  0.048853  0.264026  1
  O  O87  1  0.189546  0.548853  0.235974  1
  O  O88  1  0.189546  0.951147  0.735974  1
  O  O89  1  0.810454  0.451147  0.764026  1
  O  O90  1  0.821586  0.202156  0.442255  1
  O  O91  1  0.178414  0.702156  0.057745  1
  O  O92  1  0.178414  0.797844  0.557745  1
  O  O93  1  0.821586  0.297844  0.942255  1
  O  O94  1  0.604973  0.110447  0.345196  1
  O  O95  1  0.395027  0.610447  0.154804  1
  O  O96  1  0.395027  0.889553  0.654804  1
  O  O97  1  0.604973  0.389553  0.845196  1
