# generated using pymatgen
data_H3NCl
_symmetry_space_group_name_H-M   'P 1'
_cell_length_a   8.58380800
_cell_length_b   8.58380800
_cell_length_c   8.58380800
_cell_angle_alpha   90.00000000
_cell_angle_beta   90.00000000
_cell_angle_gamma   90.00000000
_symmetry_Int_Tables_number   1
_chemical_formula_structural   H3NCl
_chemical_formula_sum   'H24 N8 Cl8'
_cell_volume   632.47007906
_cell_formula_units_Z   8
loop_
 _symmetry_equiv_pos_site_id
 _symmetry_equiv_pos_as_xyz
  1  'x, y, z'
loop_
 _atom_site_type_symbol
 _atom_site_label
 _atom_site_symmetry_multiplicity
 _atom_site_fract_x
 _atom_site_fract_y
 _atom_site_fract_z
 _atom_site_occupancy
  H  H0  1  0.163915  0.179631  0.721740  1
  H  H1  1  0.163915  0.320369  0.221740  1
  H  H2  1  0.179631  0.721740  0.163915  1
  H  H3  1  0.179631  0.778260  0.663915  1
  H  H4  1  0.221740  0.163915  0.320369  1
  H  H5  1  0.221740  0.336085  0.820369  1
  H  H6  1  0.278260  0.663915  0.320369  1
  H  H7  1  0.278260  0.836085  0.820369  1
  H  H8  1  0.320369  0.221740  0.163915  1
  H  H9  1  0.320369  0.278260  0.663915  1
  H  H10  1  0.336085  0.820369  0.221740  1
  H  H11  1  0.336085  0.679631  0.721740  1
  H  H12  1  0.663915  0.179631  0.778260  1
  H  H13  1  0.663915  0.320369  0.278260  1
  H  H14  1  0.679631  0.721740  0.336085  1
  H  H15  1  0.679631  0.778260  0.836085  1
  H  H16  1  0.721740  0.163915  0.179631  1
  H  H17  1  0.721740  0.336085  0.679631  1
  H  H18  1  0.778260  0.663915  0.179631  1
  H  H19  1  0.778260  0.836085  0.679631  1
  H  H20  1  0.820369  0.221740  0.336085  1
  H  H21  1  0.820369  0.278260  0.836085  1
  H  H22  1  0.836085  0.679631  0.778260  1
  H  H23  1  0.836085  0.820369  0.278260  1
  N  N24  1  0.240914  0.759086  0.259086  1
  N  N25  1  0.240914  0.740914  0.759086  1
  N  N26  1  0.259086  0.259086  0.259086  1
  N  N27  1  0.259086  0.240914  0.759086  1
  N  N28  1  0.740914  0.740914  0.740914  1
  N  N29  1  0.740914  0.759086  0.240914  1
  N  N30  1  0.759086  0.240914  0.740914  1
  N  N31  1  0.759086  0.259086  0.240914  1
  Cl  Cl32  1  0.075306  0.924694  0.424694  1
  Cl  Cl33  1  0.075306  0.575306  0.924694  1
  Cl  Cl34  1  0.424694  0.075306  0.924694  1
  Cl  Cl35  1  0.424694  0.424694  0.424694  1
  Cl  Cl36  1  0.575306  0.575306  0.575306  1
  Cl  Cl37  1  0.575306  0.924694  0.075306  1
  Cl  Cl38  1  0.924694  0.075306  0.575306  1
  Cl  Cl39  1  0.924694  0.424694  0.075306  1
