# generated using pymatgen
data_Na3CoAsCO7
_symmetry_space_group_name_H-M   'P 1'
_cell_length_a   5.25370943
_cell_length_b   6.82159819
_cell_length_c   9.19279626
_cell_angle_alpha   90.00000000
_cell_angle_beta   91.00663531
_cell_angle_gamma   90.00000000
_symmetry_Int_Tables_number   1
_chemical_formula_structural   Na3CoAsCO7
_chemical_formula_sum   'Na6 Co2 As2 C2 O14'
_cell_volume   329.40697289
_cell_formula_units_Z   2
loop_
 _symmetry_equiv_pos_site_id
 _symmetry_equiv_pos_as_xyz
  1  'x, y, z'
loop_
 _atom_site_type_symbol
 _atom_site_label
 _atom_site_symmetry_multiplicity
 _atom_site_fract_x
 _atom_site_fract_y
 _atom_site_fract_z
 _atom_site_occupancy
  Na  Na0  1  0.238699  0.750000  0.079945  1
  Na  Na1  1  0.750504  0.996984  0.256608  1
  Na  Na2  1  0.750504  0.503016  0.256608  1
  Na  Na3  1  0.249496  0.496984  0.743392  1
  Na  Na4  1  0.249496  0.003016  0.743392  1
  Na  Na5  1  0.761301  0.250000  0.920055  1
  Co  Co6  1  0.211083  0.250000  0.343209  1
  Co  Co7  1  0.788917  0.750000  0.656791  1
  As  As8  1  0.298824  0.750000  0.417220  1
  As  As9  1  0.701176  0.250000  0.582780  1
  C  C10  1  0.269340  0.250000  0.061024  1
  C  C11  1  0.730660  0.750000  0.938976  1
  O  O12  1  0.713936  0.750000  0.079620  1
  O  O13  1  0.046952  0.250000  0.121884  1
  O  O14  1  0.472158  0.250000  0.144039  1
  O  O15  1  0.217763  0.948522  0.308346  1
  O  O16  1  0.217763  0.551478  0.308346  1
  O  O17  1  0.625849  0.750000  0.442304  1
  O  O18  1  0.843689  0.250000  0.416525  1
  O  O19  1  0.156311  0.750000  0.583475  1
  O  O20  1  0.374151  0.250000  0.557696  1
  O  O21  1  0.782237  0.448522  0.691654  1
  O  O22  1  0.782237  0.051478  0.691654  1
  O  O23  1  0.527842  0.750000  0.855961  1
  O  O24  1  0.953048  0.750000  0.878116  1
  O  O25  1  0.286064  0.250000  0.920380  1
