# generated using pymatgen
data_Li5Mn2P2(CO7)2
_symmetry_space_group_name_H-M   'P 1'
_cell_length_a   8.19807291
_cell_length_b   8.21550894
_cell_length_c   9.59506231
_cell_angle_alpha   106.98827401
_cell_angle_beta   106.97495916
_cell_angle_gamma   103.37210007
_symmetry_Int_Tables_number   1
_chemical_formula_structural   Li5Mn2P2(CO7)2
_chemical_formula_sum   'Li10 Mn4 P4 C4 O28'
_cell_volume   554.58272498
_cell_formula_units_Z   2
loop_
 _symmetry_equiv_pos_site_id
 _symmetry_equiv_pos_as_xyz
  1  'x, y, z'
loop_
 _atom_site_type_symbol
 _atom_site_label
 _atom_site_symmetry_multiplicity
 _atom_site_fract_x
 _atom_site_fract_y
 _atom_site_fract_z
 _atom_site_occupancy
  Li  Li0  1  0.551910  0.796267  0.092010  1
  Li  Li1  1  0.776692  0.258910  0.255655  1
  Li  Li2  1  0.004894  0.015827  0.252649  1
  Li  Li3  1  0.251016  0.733036  0.252890  1
  Li  Li4  1  0.489609  0.513121  0.258460  1
  Li  Li5  1  0.995106  0.984173  0.747351  1
  Li  Li6  1  0.223308  0.741090  0.744345  1
  Li  Li7  1  0.510391  0.486879  0.741540  1
  Li  Li8  1  0.748984  0.266964  0.747110  1
  Li  Li9  1  0.448090  0.203733  0.907990  1
  Mn  Mn10  1  0.444324  0.194010  0.339376  1
  Mn  Mn11  1  0.935094  0.687844  0.342098  1
  Mn  Mn12  1  0.555676  0.805990  0.660624  1
  Mn  Mn13  1  0.064906  0.312156  0.657902  1
  P  P14  1  0.690009  0.942783  0.416763  1
  P  P15  1  0.199200  0.448067  0.416329  1
  P  P16  1  0.800800  0.551933  0.583671  1
  P  P17  1  0.309991  0.057217  0.583237  1
  C  C18  1  0.253742  0.007751  0.039675  1
  C  C19  1  0.747522  0.494606  0.044306  1
  C  C20  1  0.746258  0.992249  0.960325  1
  C  C21  1  0.252478  0.505394  0.955694  1
  O  O22  1  0.883700  0.636607  0.088799  1
  O  O23  1  0.396762  0.143646  0.075544  1
  O  O24  1  0.850827  0.097342  0.101593  1
  O  O25  1  0.223500  0.981585  0.161907  1
  O  O26  1  0.354687  0.606432  0.103948  1
  O  O27  1  0.703213  0.447435  0.151748  1
  O  O28  1  0.780609  0.851049  0.310831  1
  O  O29  1  0.308379  0.363320  0.327059  1
  O  O30  1  0.112884  0.550088  0.324331  1
  O  O31  1  0.600194  0.042603  0.316960  1
  O  O32  1  0.173676  0.928093  0.415566  1
  O  O33  1  0.054098  0.299306  0.429247  1
  O  O34  1  0.541429  0.796578  0.429094  1
  O  O35  1  0.670502  0.417697  0.410676  1
  O  O36  1  0.826324  0.071907  0.584434  1
  O  O37  1  0.945902  0.700694  0.570753  1
  O  O38  1  0.458571  0.203422  0.570906  1
  O  O39  1  0.329498  0.582303  0.589324  1
  O  O40  1  0.887116  0.449912  0.675669  1
  O  O41  1  0.219391  0.148951  0.689169  1
  O  O42  1  0.399806  0.957397  0.683040  1
  O  O43  1  0.691621  0.636680  0.672941  1
  O  O44  1  0.776500  0.018415  0.838093  1
  O  O45  1  0.149173  0.902658  0.898407  1
  O  O46  1  0.296787  0.552565  0.848252  1
  O  O47  1  0.645313  0.393568  0.896052  1
  O  O48  1  0.603238  0.856354  0.924456  1
  O  O49  1  0.116300  0.363393  0.911201  1
