# generated using pymatgen
data_Na2VBAsO7
_symmetry_space_group_name_H-M   'P 1'
_cell_length_a   5.56856543
_cell_length_b   6.59468654
_cell_length_c   9.26518720
_cell_angle_alpha   90.00000000
_cell_angle_beta   93.01062318
_cell_angle_gamma   90.00000000
_symmetry_Int_Tables_number   1
_chemical_formula_structural   Na2VBAsO7
_chemical_formula_sum   'Na4 V2 B2 As2 O14'
_cell_volume   339.77534436
_cell_formula_units_Z   2
loop_
 _symmetry_equiv_pos_site_id
 _symmetry_equiv_pos_as_xyz
  1  'x, y, z'
loop_
 _atom_site_type_symbol
 _atom_site_label
 _atom_site_symmetry_multiplicity
 _atom_site_fract_x
 _atom_site_fract_y
 _atom_site_fract_z
 _atom_site_occupancy
  Na  Na0  1  0.760682  0.010355  0.206835  1
  Na  Na1  1  0.760682  0.489645  0.206835  1
  Na  Na2  1  0.239318  0.510355  0.793165  1
  Na  Na3  1  0.239318  0.989645  0.793165  1
  V  V4  1  0.217234  0.250000  0.327482  1
  V  V5  1  0.782766  0.750000  0.672518  1
  B  B6  1  0.276163  0.250000  0.072096  1
  B  B7  1  0.723837  0.750000  0.927904  1
  As  As8  1  0.282610  0.750000  0.439945  1
  As  As9  1  0.717390  0.250000  0.560055  1
  O  O10  1  0.688961  0.750000  0.065738  1
  O  O11  1  0.052238  0.250000  0.142210  1
  O  O12  1  0.457452  0.250000  0.189622  1
  O  O13  1  0.199126  0.955093  0.332797  1
  O  O14  1  0.199126  0.544907  0.332797  1
  O  O15  1  0.869364  0.250000  0.404910  1
  O  O16  1  0.589615  0.750000  0.475377  1
  O  O17  1  0.410385  0.250000  0.524623  1
  O  O18  1  0.130636  0.750000  0.595090  1
  O  O19  1  0.800874  0.455093  0.667203  1
  O  O20  1  0.800874  0.044907  0.667203  1
  O  O21  1  0.542548  0.750000  0.810378  1
  O  O22  1  0.947762  0.750000  0.857790  1
  O  O23  1  0.311039  0.250000  0.934262  1
