# generated using pymatgen
data_LiFeF4
_symmetry_space_group_name_H-M   'P 1'
_cell_length_a   5.22634291
_cell_length_b   5.22634291
_cell_length_c   12.09469050
_cell_angle_alpha   90.00000000
_cell_angle_beta   90.00000000
_cell_angle_gamma   120.00000000
_symmetry_Int_Tables_number   1
_chemical_formula_structural   LiFeF4
_chemical_formula_sum   'Li3 Fe3 F12'
_cell_volume   286.10219684
_cell_formula_units_Z   3
loop_
 _symmetry_equiv_pos_site_id
 _symmetry_equiv_pos_as_xyz
  1  'x, y, z'
loop_
 _atom_site_type_symbol
 _atom_site_label
 _atom_site_symmetry_multiplicity
 _atom_site_fract_x
 _atom_site_fract_y
 _atom_site_fract_z
 _atom_site_occupancy
  Li  Li0  1  0.000000  0.427688  0.166667  1
  Li  Li1  1  0.572312  0.572312  0.500000  1
  Li  Li2  1  0.427688  0.000000  0.833333  1
  Fe  Fe3  1  0.000000  0.427828  0.666667  1
  Fe  Fe4  1  0.572172  0.572172  0.000000  1
  Fe  Fe5  1  0.427828  0.000000  0.333333  1
  F  F6  1  0.071613  0.677718  0.291919  1
  F  F7  1  0.070632  0.671745  0.787346  1
  F  F8  1  0.328255  0.398887  0.120680  1
  F  F9  1  0.322282  0.393895  0.625252  1
  F  F10  1  0.606105  0.928387  0.958585  1
  F  F11  1  0.601113  0.929368  0.454013  1
  F  F12  1  0.393895  0.322282  0.374748  1
  F  F13  1  0.398887  0.328255  0.879320  1
  F  F14  1  0.929368  0.601113  0.545987  1
  F  F15  1  0.928387  0.606105  0.041415  1
  F  F16  1  0.677718  0.071613  0.708081  1
  F  F17  1  0.671745  0.070632  0.212654  1
