# generated using pymatgen
data_Li5Fe3Co2(PO4)6
_symmetry_space_group_name_H-M   'P 1'
_cell_length_a   8.44224932
_cell_length_b   8.54114356
_cell_length_c   8.55198569
_cell_angle_alpha   62.01584967
_cell_angle_beta   62.32951586
_cell_angle_gamma   62.47596892
_symmetry_Int_Tables_number   1
_chemical_formula_structural   Li5Fe3Co2(PO4)6
_chemical_formula_sum   'Li5 Fe3 Co2 P6 O24'
_cell_volume   458.15755098
_cell_formula_units_Z   1
loop_
 _symmetry_equiv_pos_site_id
 _symmetry_equiv_pos_as_xyz
  1  'x, y, z'
loop_
 _atom_site_type_symbol
 _atom_site_label
 _atom_site_symmetry_multiplicity
 _atom_site_fract_x
 _atom_site_fract_y
 _atom_site_fract_z
 _atom_site_occupancy
  Li  Li0  1  0.158137  0.158328  0.161018  1
  Li  Li1  1  0.245731  0.644441  0.858602  1
  Li  Li2  1  0.809648  0.328864  0.147564  1
  Li  Li3  1  0.331063  0.143725  0.813176  1
  Li  Li4  1  0.143030  0.811863  0.333088  1
  Fe  Fe5  1  0.646127  0.645549  0.642839  1
  Fe  Fe6  1  0.853568  0.857577  0.853752  1
  Fe  Fe7  1  0.351890  0.346466  0.348828  1
  Co  Co8  1  0.992190  0.003072  0.002884  1
  Co  Co9  1  0.508818  0.499606  0.495828  1
  P  P10  1  0.944064  0.547892  0.249747  1
  P  P11  1  0.553035  0.243096  0.946548  1
  P  P12  1  0.247115  0.945785  0.547440  1
  P  P13  1  0.744734  0.043412  0.457969  1
  P  P14  1  0.447638  0.743469  0.039400  1
  P  P15  1  0.052063  0.461275  0.747497  1
  O  O16  1  0.509379  0.306023  0.109196  1
  O  O17  1  0.310973  0.108105  0.504468  1
  O  O18  1  0.107392  0.501138  0.316717  1
  O  O19  1  0.947295  0.739918  0.087180  1
  O  O20  1  0.969266  0.397814  0.186532  1
  O  O21  1  0.747801  0.575610  0.406173  1
  O  O22  1  0.751155  0.089077  0.934865  1
  O  O23  1  0.568092  0.407720  0.755487  1
  O  O24  1  0.814785  0.004131  0.612637  1
  O  O25  1  0.399987  0.745249  0.578785  1
  O  O26  1  0.903211  0.043589  0.266724  1
  O  O27  1  0.620672  0.797160  0.983874  1
  O  O28  1  0.401066  0.176965  0.974704  1
  O  O29  1  0.098843  0.926874  0.750439  1
  O  O30  1  0.601073  0.248896  0.424281  1
  O  O31  1  0.182183  0.972881  0.397954  1
  O  O32  1  0.425545  0.596401  0.242351  1
  O  O33  1  0.259242  0.908599  0.050186  1
  O  O34  1  0.254234  0.422474  0.597266  1
  O  O35  1  0.040055  0.610039  0.810251  1
  O  O36  1  0.043787  0.271187  0.905190  1
  O  O37  1  0.891849  0.536042  0.669169  1
  O  O38  1  0.653297  0.898572  0.516189  1
  O  O39  1  0.469961  0.668121  0.896201  1
