# generated using pymatgen
data_LiFe2(BO3)2
_symmetry_space_group_name_H-M   'P 1'
_cell_length_a   5.23009576
_cell_length_b   9.14581807
_cell_length_c   11.25422561
_cell_angle_alpha   113.06966433
_cell_angle_beta   103.07520158
_cell_angle_gamma   89.03543559
_symmetry_Int_Tables_number   1
_chemical_formula_structural   LiFe2(BO3)2
_chemical_formula_sum   'Li4 Fe8 B8 O24'
_cell_volume   480.88631916
_cell_formula_units_Z   4
loop_
 _symmetry_equiv_pos_site_id
 _symmetry_equiv_pos_as_xyz
  1  'x, y, z'
loop_
 _atom_site_type_symbol
 _atom_site_label
 _atom_site_symmetry_multiplicity
 _atom_site_fract_x
 _atom_site_fract_y
 _atom_site_fract_z
 _atom_site_occupancy
  Li  Li0  1  0.027975  0.026931  0.399769  1
  Li  Li1  1  0.287549  0.278101  0.910684  1
  Li  Li2  1  0.482399  0.503343  0.654495  1
  Li  Li3  1  0.528555  0.530881  0.402909  1
  Fe  Fe4  1  0.020510  0.352319  0.376801  1
  Fe  Fe5  1  0.262573  0.929557  0.880861  1
  Fe  Fe6  1  0.494122  0.148513  0.629879  1
  Fe  Fe7  1  0.233704  0.570931  0.131973  1
  Fe  Fe8  1  0.773013  0.443791  0.881729  1
  Fe  Fe9  1  0.526722  0.848769  0.378473  1
  Fe  Fe10  1  0.965390  0.659209  0.628550  1
  Fe  Fe11  1  0.734001  0.069391  0.133038  1
  B  B12  1  0.022326  0.686020  0.374123  1
  B  B13  1  0.265480  0.603012  0.874997  1
  B  B14  1  0.463563  0.814449  0.626919  1
  B  B15  1  0.235958  0.896576  0.131204  1
  B  B16  1  0.528186  0.191565  0.383100  1
  B  B17  1  0.765658  0.107154  0.879391  1
  B  B18  1  0.989653  0.317409  0.625449  1
  B  B19  1  0.732999  0.394735  0.126992  1
  O  O20  1  0.027599  0.097606  0.880316  1
  O  O21  1  0.110283  0.719959  0.849506  1
  O  O22  1  0.163135  0.504907  0.926675  1
  O  O23  1  0.131236  0.188751  0.624216  1
  O  O24  1  0.081399  0.431630  0.588839  1
  O  O25  1  0.255466  0.844951  0.688682  1
  O  O26  1  0.262704  0.649550  0.332081  1
  O  O27  1  0.501857  0.580046  0.844371  1
  O  O28  1  0.611831  0.208845  0.830554  1
  O  O29  1  0.429436  0.083365  0.427266  1
  O  O30  1  0.409618  0.324836  0.386866  1
  O  O31  1  0.638118  0.020970  0.930920  1
  O  O32  1  0.366555  0.982341  0.079599  1
  O  O33  1  0.578395  0.671883  0.603231  1
  O  O34  1  0.550208  0.923765  0.584060  1
  O  O35  1  0.370555  0.784857  0.170765  1
  O  O36  1  0.466223  0.403543  0.114616  1
  O  O37  1  0.746114  0.331845  0.662235  1
  O  O38  1  0.760910  0.153453  0.337234  1
  O  O39  1  0.913060  0.578872  0.412918  1
  O  O40  1  0.909881  0.822020  0.378834  1
  O  O41  1  0.868260  0.487371  0.084179  1
  O  O42  1  0.862412  0.285975  0.172436  1
  O  O43  1  0.988487  0.927641  0.146362  1
