# generated using pymatgen
data_LiFe4(PO4)3
_symmetry_space_group_name_H-M   'P 1'
_cell_length_a   9.35551588
_cell_length_b   6.46609037
_cell_length_c   14.92721306
_cell_angle_alpha   90.00000000
_cell_angle_beta   90.65375517
_cell_angle_gamma   90.00000000
_symmetry_Int_Tables_number   1
_chemical_formula_structural   LiFe4(PO4)3
_chemical_formula_sum   'Li4 Fe16 P12 O48'
_cell_volume   902.94224116
_cell_formula_units_Z   4
loop_
 _symmetry_equiv_pos_site_id
 _symmetry_equiv_pos_as_xyz
  1  'x, y, z'
loop_
 _atom_site_type_symbol
 _atom_site_label
 _atom_site_symmetry_multiplicity
 _atom_site_fract_x
 _atom_site_fract_y
 _atom_site_fract_z
 _atom_site_occupancy
  Li  Li0  1  0.163093  0.000000  0.844825  1
  Li  Li1  1  0.336002  0.500000  0.677901  1
  Li  Li2  1  0.335089  0.500000  0.343988  1
  Li  Li3  1  0.330289  0.500000  0.003745  1
  Fe  Fe4  1  0.020115  0.756885  0.334512  1
  Fe  Fe5  1  0.006046  0.758557  0.998983  1
  Fe  Fe6  1  0.004301  0.763072  0.664941  1
  Fe  Fe7  1  0.006046  0.241443  0.998983  1
  Fe  Fe8  1  0.004301  0.236928  0.664941  1
  Fe  Fe9  1  0.020115  0.243115  0.334512  1
  Fe  Fe10  1  0.498888  0.237807  0.836966  1
  Fe  Fe11  1  0.498888  0.762193  0.836966  1
  Fe  Fe12  1  0.482985  0.235310  0.511303  1
  Fe  Fe13  1  0.488218  0.245030  0.164274  1
  Fe  Fe14  1  0.482985  0.764690  0.511303  1
  Fe  Fe15  1  0.488218  0.754970  0.164274  1
  Fe  Fe16  1  0.651318  0.000000  0.323576  1
  Fe  Fe17  1  0.852089  0.500000  0.157928  1
  Fe  Fe18  1  0.858214  0.500000  0.498063  1
  Fe  Fe19  1  0.844015  0.500000  0.825026  1
  P  P20  1  0.179216  0.500000  0.839795  1
  P  P21  1  0.174392  0.500000  0.511286  1
  P  P22  1  0.174493  0.500000  0.174817  1
  P  P23  1  0.324505  0.000000  0.678741  1
  P  P24  1  0.328208  0.000000  0.342499  1
  P  P25  1  0.320802  0.000000  0.006649  1
  P  P26  1  0.674865  0.500000  0.653201  1
  P  P27  1  0.674913  0.500000  0.989147  1
  P  P28  1  0.684358  0.500000  0.325101  1
  P  P29  1  0.820170  0.000000  0.827441  1
  P  P30  1  0.816565  0.000000  0.159926  1
  P  P31  1  0.825353  0.000000  0.490510  1
  O  O32  1  0.114314  0.304194  0.882464  1
  O  O33  1  0.109480  0.305694  0.216884  1
  O  O34  1  0.106567  0.305827  0.551504  1
  O  O35  1  0.106567  0.694173  0.551504  1
  O  O36  1  0.109480  0.694306  0.216884  1
  O  O37  1  0.114314  0.695806  0.882464  1
  O  O38  1  0.141076  0.500000  0.737539  1
  O  O39  1  0.143075  0.500000  0.407050  1
  O  O40  1  0.137412  0.500000  0.071628  1
  O  O41  1  0.158197  0.000000  0.698530  1
  O  O42  1  0.153946  0.000000  0.014232  1
  O  O43  1  0.163603  0.000000  0.352050  1
  O  O44  1  0.344195  0.500000  0.860648  1
  O  O45  1  0.340021  0.500000  0.532267  1
  O  O46  1  0.341580  0.500000  0.194747  1
  O  O47  1  0.361800  0.000000  0.577787  1
  O  O48  1  0.361410  0.000000  0.905066  1
  O  O49  1  0.382426  0.000000  0.243887  1
  O  O50  1  0.377339  0.200561  0.050591  1
  O  O51  1  0.383781  0.200620  0.722035  1
  O  O52  1  0.389581  0.198441  0.388123  1
  O  O53  1  0.389581  0.801559  0.388123  1
  O  O54  1  0.377339  0.799439  0.050591  1
  O  O55  1  0.383781  0.799380  0.722035  1
  O  O56  1  0.617282  0.302879  0.946723  1
  O  O57  1  0.618581  0.303194  0.609370  1
  O  O58  1  0.617563  0.304850  0.281167  1
  O  O59  1  0.617282  0.697121  0.946723  1
  O  O60  1  0.618581  0.696806  0.609370  1
  O  O61  1  0.617563  0.695150  0.281167  1
  O  O62  1  0.646394  0.500000  0.756924  1
  O  O63  1  0.647056  0.500000  0.093654  1
  O  O64  1  0.660246  0.500000  0.427003  1
  O  O65  1  0.656556  0.000000  0.816963  1
  O  O66  1  0.649878  0.000000  0.156441  1
  O  O67  1  0.659099  0.000000  0.466934  1
  O  O68  1  0.848723  0.500000  0.301055  1
  O  O69  1  0.846123  0.500000  0.972545  1
  O  O70  1  0.845459  0.500000  0.638496  1
  O  O71  1  0.860506  0.000000  0.262186  1
  O  O72  1  0.868190  0.000000  0.589666  1
  O  O73  1  0.881454  0.000000  0.924386  1
  O  O74  1  0.875121  0.802769  0.113911  1
  O  O75  1  0.875121  0.197231  0.113911  1
  O  O76  1  0.883338  0.800986  0.442637  1
  O  O77  1  0.880045  0.801576  0.779019  1
  O  O78  1  0.880045  0.198424  0.779019  1
  O  O79  1  0.883338  0.199014  0.442637  1
