# generated using pymatgen
data_LiSb(PO3)4
_symmetry_space_group_name_H-M   'P 1'
_cell_length_a   7.50908641
_cell_length_b   7.50908641
_cell_length_c   17.88539909
_cell_angle_alpha   90.00000000
_cell_angle_beta   90.00000000
_cell_angle_gamma   95.82404091
_symmetry_Int_Tables_number   1
_chemical_formula_structural   LiSb(PO3)4
_chemical_formula_sum   'Li4 Sb4 P16 O48'
_cell_volume   1003.28726745
_cell_formula_units_Z   4
loop_
 _symmetry_equiv_pos_site_id
 _symmetry_equiv_pos_as_xyz
  1  'x, y, z'
loop_
 _atom_site_type_symbol
 _atom_site_label
 _atom_site_symmetry_multiplicity
 _atom_site_fract_x
 _atom_site_fract_y
 _atom_site_fract_z
 _atom_site_occupancy
  Li  Li0  1  0.972260  0.509027  0.135581  1
  Li  Li1  1  0.490973  0.027740  0.364419  1
  Li  Li2  1  0.027740  0.490973  0.635581  1
  Li  Li3  1  0.509027  0.972260  0.864419  1
  Sb  Sb4  1  0.053609  0.231237  0.361164  1
  Sb  Sb5  1  0.768763  0.946391  0.138836  1
  Sb  Sb6  1  0.946391  0.768763  0.861164  1
  Sb  Sb7  1  0.231237  0.053609  0.638836  1
  P  P8  1  0.768533  0.035490  0.649243  1
  P  P9  1  0.964510  0.231467  0.850757  1
  P  P10  1  0.795636  0.283071  0.003009  1
  P  P11  1  0.716929  0.204364  0.496991  1
  P  P12  1  0.654602  0.345398  0.250000  1
  P  P13  1  0.719086  0.656942  0.690667  1
  P  P14  1  0.343058  0.280914  0.809333  1
  P  P15  1  0.359623  0.359623  0.500000  1
  P  P16  1  0.640377  0.640377  0.000000  1
  P  P17  1  0.280914  0.343058  0.190667  1
  P  P18  1  0.656942  0.719086  0.309333  1
  P  P19  1  0.345398  0.654602  0.750000  1
  P  P20  1  0.283071  0.795636  0.996991  1
  P  P21  1  0.204364  0.716929  0.503009  1
  P  P22  1  0.035490  0.768533  0.350757  1
  P  P23  1  0.231467  0.964510  0.149243  1
  O  O24  1  0.970796  0.108790  0.641636  1
  O  O25  1  0.891210  0.029204  0.858364  1
  O  O26  1  0.664453  0.070835  0.715695  1
  O  O27  1  0.929165  0.335547  0.784305  1
  O  O28  1  0.695650  0.100166  0.005784  1
  O  O29  1  0.899834  0.304350  0.494216  1
  O  O30  1  0.673442  0.104392  0.576203  1
  O  O31  1  0.895608  0.326558  0.923797  1
  O  O32  1  0.664419  0.076875  0.436273  1
  O  O33  1  0.923125  0.335581  0.063727  1
  O  O34  1  0.827219  0.379371  0.209210  1
  O  O35  1  0.620629  0.172781  0.290790  1
  O  O36  1  0.785323  0.498342  0.656197  1
  O  O37  1  0.501658  0.214677  0.843803  1
  O  O38  1  0.566962  0.352015  0.502849  1
  O  O39  1  0.647985  0.433038  0.997151  1
  O  O40  1  0.823242  0.768077  0.366063  1
  O  O41  1  0.231923  0.176758  0.133937  1
  O  O42  1  0.630663  0.504941  0.309722  1
  O  O43  1  0.495059  0.369337  0.190278  1
  O  O44  1  0.282409  0.269349  0.427943  1
  O  O45  1  0.730651  0.717591  0.072057  1
  O  O46  1  0.280698  0.221175  0.729820  1
  O  O47  1  0.778825  0.719302  0.770180  1
  O  O48  1  0.221175  0.280698  0.270180  1
  O  O49  1  0.719302  0.778825  0.229820  1
  O  O50  1  0.269349  0.282409  0.572057  1
  O  O51  1  0.717591  0.730651  0.927943  1
  O  O52  1  0.504941  0.630663  0.690278  1
  O  O53  1  0.369337  0.495059  0.809722  1
  O  O54  1  0.176758  0.231923  0.866063  1
  O  O55  1  0.768077  0.823242  0.633937  1
  O  O56  1  0.433038  0.647985  0.002849  1
  O  O57  1  0.352015  0.566962  0.497151  1
  O  O58  1  0.214677  0.501658  0.156197  1
  O  O59  1  0.498342  0.785323  0.343803  1
  O  O60  1  0.379371  0.827219  0.790790  1
  O  O61  1  0.172781  0.620629  0.709210  1
  O  O62  1  0.076875  0.664419  0.563727  1
  O  O63  1  0.335581  0.923125  0.936273  1
  O  O64  1  0.104392  0.673442  0.423797  1
  O  O65  1  0.326558  0.895608  0.076203  1
  O  O66  1  0.304350  0.899834  0.505784  1
  O  O67  1  0.100166  0.695650  0.994216  1
  O  O68  1  0.070835  0.664453  0.284305  1
  O  O69  1  0.335547  0.929165  0.215695  1
  O  O70  1  0.108790  0.970796  0.358364  1
  O  O71  1  0.029204  0.891210  0.141636  1
