# generated using pymatgen
data_La2SiO5
_symmetry_space_group_name_H-M   'P 1'
_cell_length_a   8.30057759
_cell_length_b   8.30057759
_cell_length_c   11.79375425
_cell_angle_alpha   84.12526236
_cell_angle_beta   95.87473764
_cell_angle_gamma   88.86088211
_symmetry_Int_Tables_number   1
_chemical_formula_structural   La2SiO5
_chemical_formula_sum   'La12 Si6 O30'
_cell_volume   803.69344880
_cell_formula_units_Z   6
loop_
 _symmetry_equiv_pos_site_id
 _symmetry_equiv_pos_as_xyz
  1  'x, y, z'
loop_
 _atom_site_type_symbol
 _atom_site_label
 _atom_site_symmetry_multiplicity
 _atom_site_fract_x
 _atom_site_fract_y
 _atom_site_fract_z
 _atom_site_occupancy
  La  La0  1  0.714026  0.998225  0.068650  1
  La  La1  1  0.001775  0.285974  0.568650  1
  La  La2  1  0.360321  0.979643  0.255087  1
  La  La3  1  0.020357  0.639679  0.755087  1
  La  La4  1  0.385353  0.336884  0.429689  1
  La  La5  1  0.336884  0.385353  0.070311  1
  La  La6  1  0.663116  0.614647  0.929689  1
  La  La7  1  0.614647  0.663116  0.570311  1
  La  La8  1  0.979643  0.360321  0.244913  1
  La  La9  1  0.639679  0.020357  0.744913  1
  La  La10  1  0.998225  0.714026  0.431350  1
  La  La11  1  0.285974  0.001775  0.931350  1
  Si  Si12  1  0.731283  0.072058  0.448506  1
  Si  Si13  1  0.927942  0.268717  0.948506  1
  Si  Si14  1  0.632290  0.632290  0.250000  1
  Si  Si15  1  0.367710  0.367710  0.750000  1
  Si  Si16  1  0.072058  0.731283  0.051494  1
  Si  Si17  1  0.268717  0.927942  0.551494  1
  O  O18  1  0.875164  0.164673  0.382119  1
  O  O19  1  0.835327  0.124836  0.882119  1
  O  O20  1  0.851178  0.255451  0.074791  1
  O  O21  1  0.744549  0.148822  0.574791  1
  O  O22  1  0.550177  0.117237  0.381618  1
  O  O23  1  0.448430  0.115514  0.076822  1
  O  O24  1  0.882763  0.449823  0.881618  1
  O  O25  1  0.884486  0.551570  0.576822  1
  O  O26  1  0.830172  0.598833  0.281884  1
  O  O27  1  0.401167  0.169828  0.781884  1
  O  O28  1  0.874510  0.764222  0.030892  1
  O  O29  1  0.567526  0.542068  0.134591  1
  O  O30  1  0.235778  0.125490  0.530892  1
  O  O31  1  0.257253  0.257253  0.250000  1
  O  O32  1  0.457932  0.432474  0.634591  1
  O  O33  1  0.542068  0.567526  0.365409  1
  O  O34  1  0.742747  0.742747  0.750000  1
  O  O35  1  0.764222  0.874510  0.469108  1
  O  O36  1  0.432474  0.457932  0.865409  1
  O  O37  1  0.125490  0.235778  0.969108  1
  O  O38  1  0.598833  0.830172  0.218116  1
  O  O39  1  0.169828  0.401167  0.718116  1
  O  O40  1  0.115514  0.448430  0.423178  1
  O  O41  1  0.117237  0.550177  0.118382  1
  O  O42  1  0.551570  0.884486  0.923178  1
  O  O43  1  0.449823  0.882763  0.618382  1
  O  O44  1  0.255451  0.851178  0.425209  1
  O  O45  1  0.148822  0.744549  0.925209  1
  O  O46  1  0.164673  0.875164  0.117881  1
  O  O47  1  0.124836  0.835327  0.617881  1
