# generated using pymatgen
data_Li4CrFe2Ni3(PO4)6
_symmetry_space_group_name_H-M   'P 1'
_cell_length_a   8.34261605
_cell_length_b   8.41821320
_cell_length_c   8.42257661
_cell_angle_alpha   63.42160479
_cell_angle_beta   63.77132801
_cell_angle_gamma   63.84411511
_symmetry_Int_Tables_number   1
_chemical_formula_structural   Li4CrFe2Ni3(PO4)6
_chemical_formula_sum   'Li4 Cr1 Fe2 Ni3 P6 O24'
_cell_volume   452.23217969
_cell_formula_units_Z   1
loop_
 _symmetry_equiv_pos_site_id
 _symmetry_equiv_pos_as_xyz
  1  'x, y, z'
loop_
 _atom_site_type_symbol
 _atom_site_label
 _atom_site_symmetry_multiplicity
 _atom_site_fract_x
 _atom_site_fract_y
 _atom_site_fract_z
 _atom_site_occupancy
  Li  Li0  1  0.750746  0.144194  0.354594  1
  Li  Li1  1  0.267276  0.854262  0.645133  1
  Li  Li2  1  0.644199  0.266222  0.856336  1
  Li  Li3  1  0.856756  0.642858  0.269099  1
  Cr  Cr4  1  0.856716  0.852689  0.855612  1
  Fe  Fe5  1  0.014260  0.002312  0.997555  1
  Fe  Fe6  1  0.488344  0.500500  0.499177  1
  Ni  Ni7  1  0.142204  0.147403  0.146230  1
  Ni  Ni8  1  0.355536  0.352969  0.350243  1
  Ni  Ni9  1  0.646979  0.647435  0.650456  1
  P  P10  1  0.051952  0.747773  0.450334  1
  P  P11  1  0.447646  0.050947  0.751491  1
  P  P12  1  0.749051  0.449196  0.050831  1
  P  P13  1  0.247053  0.544520  0.952276  1
  P  P14  1  0.552062  0.952779  0.248726  1
  P  P15  1  0.944646  0.246575  0.544072  1
  O  O16  1  0.109603  0.305196  0.501007  1
  O  O17  1  0.314786  0.517434  0.104848  1
  O  O18  1  0.057158  0.907504  0.262471  1
  O  O19  1  0.545201  0.101130  0.311631  1
  O  O20  1  0.014962  0.812172  0.611920  1
  O  O21  1  0.252022  0.597621  0.436780  1
  O  O22  1  0.254984  0.075110  0.900117  1
  O  O23  1  0.452373  0.244741  0.588725  1
  O  O24  1  0.175690  0.394499  0.986585  1
  O  O25  1  0.600986  0.432179  0.254192  1
  O  O26  1  0.098098  0.749376  0.923537  1
  O  O27  1  0.388972  0.002626  0.187250  1
  O  O28  1  0.610793  0.010256  0.818604  1
  O  O29  1  0.894939  0.251188  0.077793  1
  O  O30  1  0.399683  0.567458  0.747748  1
  O  O31  1  0.814778  0.609746  0.013600  1
  O  O32  1  0.566425  0.750002  0.402405  1
  O  O33  1  0.753696  0.920119  0.095962  1
  O  O34  1  0.744025  0.402767  0.570199  1
  O  O35  1  0.957625  0.180315  0.397579  1
  O  O36  1  0.475310  0.898637  0.680585  1
  O  O37  1  0.924405  0.095719  0.747218  1
  O  O38  1  0.678313  0.475810  0.898954  1
  O  O39  1  0.899743  0.672760  0.481126  1
