# generated using pymatgen
data_Na4SnH32(SeO4)4
_symmetry_space_group_name_H-M   'P 1'
_cell_length_a   8.49651336
_cell_length_b   16.61370570
_cell_length_c   8.82256428
_cell_angle_alpha   90.00000000
_cell_angle_beta   92.05806052
_cell_angle_gamma   90.00000000
_symmetry_Int_Tables_number   1
_chemical_formula_structural   Na4SnH32(SeO4)4
_chemical_formula_sum   'Na8 Sn2 H64 Se8 O32'
_cell_volume   1244.57724466
_cell_formula_units_Z   2
loop_
 _symmetry_equiv_pos_site_id
 _symmetry_equiv_pos_as_xyz
  1  'x, y, z'
loop_
 _atom_site_type_symbol
 _atom_site_label
 _atom_site_symmetry_multiplicity
 _atom_site_fract_x
 _atom_site_fract_y
 _atom_site_fract_z
 _atom_site_occupancy
  Na  Na0  1  0.000000  0.000000  0.000000  1
  Na  Na1  1  0.000000  0.500000  0.000000  1
  Na  Na2  1  0.469937  0.364324  0.682282  1
  Na  Na3  1  0.469937  0.135676  0.682282  1
  Na  Na4  1  0.500000  0.000000  0.000000  1
  Na  Na5  1  0.500000  0.500000  0.000000  1
  Na  Na6  1  0.530063  0.864324  0.317718  1
  Na  Na7  1  0.530063  0.635676  0.317718  1
  Sn  Sn8  1  0.062538  0.750000  0.645387  1
  Sn  Sn9  1  0.937462  0.250000  0.354613  1
  H  H10  1  0.006682  0.858380  0.203917  1
  H  H11  1  0.006682  0.641620  0.203917  1
  H  H12  1  0.036491  0.438527  0.309365  1
  H  H13  1  0.036491  0.061473  0.309365  1
  H  H14  1  0.019349  0.829375  0.034863  1
  H  H15  1  0.019349  0.670625  0.034863  1
  H  H16  1  0.184126  0.250000  0.670720  1
  H  H17  1  0.206450  0.498678  0.568084  1
  H  H18  1  0.206450  0.001322  0.568084  1
  H  H19  1  0.159194  0.391715  0.218827  1
  H  H20  1  0.159194  0.108285  0.218827  1
  H  H21  1  0.160958  0.410489  0.598503  1
  H  H22  1  0.160958  0.089511  0.598503  1
  H  H23  1  0.249161  0.898717  0.880436  1
  H  H24  1  0.249161  0.601283  0.880436  1
  H  H25  1  0.248972  0.986021  0.805933  1
  H  H26  1  0.248972  0.513979  0.805933  1
  H  H27  1  0.271911  0.750000  0.297558  1
  H  H28  1  0.269765  0.360546  0.943956  1
  H  H29  1  0.269765  0.139454  0.943956  1
  H  H30  1  0.268500  0.250000  0.516917  1
  H  H31  1  0.292895  0.995041  0.251893  1
  H  H32  1  0.292895  0.504959  0.251893  1
  H  H33  1  0.337550  0.750000  0.134526  1
  H  H34  1  0.385262  0.860831  0.597419  1
  H  H35  1  0.385262  0.639169  0.597419  1
  H  H36  1  0.447983  0.470233  0.323108  1
  H  H37  1  0.447983  0.029767  0.323108  1
  H  H38  1  0.441488  0.331194  0.351684  1
  H  H39  1  0.441488  0.168806  0.351684  1
  H  H40  1  0.424453  0.171441  0.023322  1
  H  H41  1  0.424453  0.328559  0.023322  1
  H  H42  1  0.575547  0.828559  0.976678  1
  H  H43  1  0.575547  0.671441  0.976678  1
  H  H44  1  0.558512  0.831194  0.648316  1
  H  H45  1  0.558512  0.668806  0.648316  1
  H  H46  1  0.552017  0.970233  0.676892  1
  H  H47  1  0.552017  0.529767  0.676892  1
  H  H48  1  0.614738  0.360831  0.402581  1
  H  H49  1  0.614738  0.139169  0.402581  1
  H  H50  1  0.662450  0.250000  0.865474  1
  H  H51  1  0.707105  0.495041  0.748107  1
  H  H52  1  0.707105  0.004959  0.748107  1
  H  H53  1  0.731500  0.750000  0.483083  1
  H  H54  1  0.730235  0.860546  0.056044  1
  H  H55  1  0.730235  0.639454  0.056044  1
  H  H56  1  0.728089  0.250000  0.702442  1
  H  H57  1  0.751028  0.486021  0.194067  1
  H  H58  1  0.751028  0.013979  0.194067  1
  H  H59  1  0.750839  0.398717  0.119564  1
  H  H60  1  0.750839  0.101283  0.119564  1
  H  H61  1  0.839042  0.910489  0.401497  1
  H  H62  1  0.839042  0.589511  0.401497  1
  H  H63  1  0.840806  0.891715  0.781173  1
  H  H64  1  0.840806  0.608285  0.781173  1
  H  H65  1  0.793550  0.998678  0.431916  1
  H  H66  1  0.793550  0.501322  0.431916  1
  H  H67  1  0.815874  0.750000  0.329280  1
  H  H68  1  0.980651  0.329375  0.965137  1
  H  H69  1  0.980651  0.170625  0.965137  1
  H  H70  1  0.963509  0.938527  0.690635  1
  H  H71  1  0.963509  0.561473  0.690635  1
  H  H72  1  0.993318  0.358380  0.796083  1
  H  H73  1  0.993318  0.141620  0.796083  1
  Se  Se74  1  0.109780  0.871553  0.477643  1
  Se  Se75  1  0.109780  0.628447  0.477643  1
  Se  Se76  1  0.220484  0.250000  0.254336  1
  Se  Se77  1  0.252762  0.750000  0.876335  1
  Se  Se78  1  0.747238  0.250000  0.123665  1
  Se  Se79  1  0.779516  0.750000  0.745664  1
  Se  Se80  1  0.890220  0.371553  0.522357  1
  Se  Se81  1  0.890220  0.128447  0.522357  1
  O  O82  1  0.039523  0.365722  0.899608  1
  O  O83  1  0.039523  0.134278  0.899608  1
  O  O84  1  0.107864  0.445010  0.223602  1
  O  O85  1  0.107864  0.054990  0.223602  1
  O  O86  1  0.255049  0.956742  0.903841  1
  O  O87  1  0.255049  0.543258  0.903841  1
  O  O88  1  0.241540  0.451120  0.627728  1
  O  O89  1  0.241540  0.048880  0.627728  1
  O  O90  1  0.288830  0.250000  0.629158  1
  O  O91  1  0.370306  0.750000  0.243002  1
  O  O92  1  0.385461  0.366159  0.945596  1
  O  O93  1  0.385461  0.133841  0.945596  1
  O  O94  1  0.407518  0.984908  0.258980  1
  O  O95  1  0.407518  0.515092  0.258980  1
  O  O96  1  0.498782  0.873350  0.592548  1
  O  O97  1  0.498782  0.626650  0.592548  1
  O  O98  1  0.501218  0.126650  0.407452  1
  O  O99  1  0.501218  0.373350  0.407452  1
  O  O100  1  0.592482  0.484908  0.741020  1
  O  O101  1  0.592482  0.015092  0.741020  1
  O  O102  1  0.614539  0.866159  0.054404  1
  O  O103  1  0.614539  0.633841  0.054404  1
  O  O104  1  0.629694  0.250000  0.756998  1
  O  O105  1  0.711170  0.750000  0.370842  1
  O  O106  1  0.758460  0.951120  0.372272  1
  O  O107  1  0.758460  0.548880  0.372272  1
  O  O108  1  0.744951  0.456742  0.096159  1
  O  O109  1  0.744951  0.043258  0.096159  1
  O  O110  1  0.892136  0.945010  0.776398  1
  O  O111  1  0.892136  0.554990  0.776398  1
  O  O112  1  0.960477  0.865722  0.100392  1
  O  O113  1  0.960477  0.634278  0.100392  1
