# generated using pymatgen
data_Li5Mn2Fe17O32
_symmetry_space_group_name_H-M   'P 1'
_cell_length_a   8.45437883
_cell_length_b   8.47448208
_cell_length_c   8.47731798
_cell_angle_alpha   90.13157836
_cell_angle_beta   90.00141403
_cell_angle_gamma   90.08717468
_symmetry_Int_Tables_number   1
_chemical_formula_structural   Li5Mn2Fe17O32
_chemical_formula_sum   'Li5 Mn2 Fe17 O32'
_cell_volume   607.36770449
_cell_formula_units_Z   1
loop_
 _symmetry_equiv_pos_site_id
 _symmetry_equiv_pos_as_xyz
  1  'x, y, z'
loop_
 _atom_site_type_symbol
 _atom_site_label
 _atom_site_symmetry_multiplicity
 _atom_site_fract_x
 _atom_site_fract_y
 _atom_site_fract_z
 _atom_site_occupancy
  Li  Li0  1  0.003948  0.497743  0.503482  1
  Li  Li1  1  0.875217  0.871175  0.624223  1
  Li  Li2  1  0.624098  0.124853  0.126028  1
  Li  Li3  1  0.372696  0.624379  0.374764  1
  Li  Li4  1  0.124462  0.376580  0.870693  1
  Mn  Mn5  1  0.872600  0.124975  0.373683  1
  Mn  Mn6  1  0.876720  0.625645  0.869820  1
  Fe  Fe7  1  0.002360  0.996751  0.002767  1
  Fe  Fe8  1  0.874199  0.369883  0.122580  1
  Fe  Fe9  1  0.749432  0.255099  0.743445  1
  Fe  Fe10  1  0.752658  0.752430  0.249069  1
  Fe  Fe11  1  0.622182  0.375127  0.369286  1
  Fe  Fe12  1  0.629195  0.629698  0.620218  1
  Fe  Fe13  1  0.628699  0.881740  0.874111  1
  Fe  Fe14  1  0.501911  0.000416  0.502737  1
  Fe  Fe15  1  0.501942  0.499027  0.999872  1
  Fe  Fe16  1  0.374902  0.130593  0.880300  1
  Fe  Fe17  1  0.362004  0.381979  0.623450  1
  Fe  Fe18  1  0.380554  0.875473  0.130682  1
  Fe  Fe19  1  0.245573  0.251134  0.251228  1
  Fe  Fe20  1  0.244984  0.750024  0.747811  1
  Fe  Fe21  1  0.120056  0.129865  0.630505  1
  Fe  Fe22  1  0.130107  0.619014  0.131408  1
  Fe  Fe23  1  0.125900  0.862449  0.381611  1
  O  O24  1  0.880943  0.128998  0.607296  1
  O  O25  1  0.881731  0.616801  0.110352  1
  O  O26  1  0.870175  0.391815  0.883389  1
  O  O27  1  0.882392  0.894170  0.372915  1
  O  O28  1  0.876692  0.130465  0.139480  1
  O  O29  1  0.862188  0.351125  0.360541  1
  O  O30  1  0.861901  0.628559  0.651511  1
  O  O31  1  0.866767  0.858834  0.879645  1
  O  O32  1  0.643282  0.129870  0.376334  1
  O  O33  1  0.640780  0.634327  0.869633  1
  O  O34  1  0.634074  0.374689  0.133657  1
  O  O35  1  0.624688  0.866039  0.635618  1
  O  O36  1  0.614480  0.384718  0.613294  1
  O  O37  1  0.622464  0.116591  0.872390  1
  O  O38  1  0.616485  0.873822  0.115474  1
  O  O39  1  0.633543  0.616716  0.384221  1
  O  O40  1  0.386121  0.370338  0.381906  1
  O  O41  1  0.384984  0.617727  0.630462  1
  O  O42  1  0.372552  0.116593  0.116659  1
  O  O43  1  0.383863  0.883664  0.884034  1
  O  O44  1  0.368197  0.129995  0.634612  1
  O  O45  1  0.379140  0.364604  0.866950  1
  O  O46  1  0.366968  0.635107  0.118604  1
  O  O47  1  0.368100  0.880726  0.365483  1
  O  O48  1  0.140961  0.355303  0.629542  1
  O  O49  1  0.136165  0.866919  0.132981  1
  O  O50  1  0.128365  0.119548  0.866211  1
  O  O51  1  0.123535  0.639069  0.359576  1
  O  O52  1  0.107152  0.117755  0.381378  1
  O  O53  1  0.104576  0.627572  0.882046  1
  O  O54  1  0.113458  0.382752  0.123179  1
  O  O55  1  0.126876  0.888735  0.616852  1
