# generated using pymatgen
data_Li3CuP2O7
_symmetry_space_group_name_H-M   'P 1'
_cell_length_a   5.15523805
_cell_length_b   7.87236202
_cell_length_c   9.01740630
_cell_angle_alpha   109.91847950
_cell_angle_beta   92.30109845
_cell_angle_gamma   108.74591803
_symmetry_Int_Tables_number   1
_chemical_formula_structural   Li3CuP2O7
_chemical_formula_sum   'Li6 Cu2 P4 O14'
_cell_volume   321.18231436
_cell_formula_units_Z   2
loop_
 _symmetry_equiv_pos_site_id
 _symmetry_equiv_pos_as_xyz
  1  'x, y, z'
loop_
 _atom_site_type_symbol
 _atom_site_label
 _atom_site_symmetry_multiplicity
 _atom_site_fract_x
 _atom_site_fract_y
 _atom_site_fract_z
 _atom_site_occupancy
  Li  Li0  1  0.060714  0.863946  0.546062  1
  Li  Li1  1  0.657671  0.133341  0.974073  1
  Li  Li2  1  0.014566  0.186553  0.801704  1
  Li  Li3  1  0.985434  0.813447  0.198296  1
  Li  Li4  1  0.342329  0.866659  0.025927  1
  Li  Li5  1  0.939286  0.136054  0.453938  1
  Cu  Cu6  1  0.000000  0.500000  0.500000  1
  Cu  Cu7  1  0.000000  0.500000  0.000000  1
  P  P8  1  0.746638  0.717431  0.820106  1
  P  P9  1  0.533303  0.287180  0.680332  1
  P  P10  1  0.466697  0.712820  0.319668  1
  P  P11  1  0.253362  0.282569  0.179894  1
  O  O12  1  0.936389  0.726475  0.964428  1
  O  O13  1  0.592519  0.857067  0.877851  1
  O  O14  1  0.900451  0.737305  0.683324  1
  O  O15  1  0.675541  0.253759  0.816166  1
  O  O16  1  0.507949  0.499737  0.756302  1
  O  O17  1  0.298372  0.720911  0.455736  1
  O  O18  1  0.225070  0.151742  0.629859  1
  O  O19  1  0.774930  0.848258  0.370141  1
  O  O20  1  0.701628  0.279089  0.544264  1
  O  O21  1  0.492051  0.500263  0.243698  1
  O  O22  1  0.324459  0.746241  0.183834  1
  O  O23  1  0.099549  0.262695  0.316676  1
  O  O24  1  0.407481  0.142933  0.122149  1
  O  O25  1  0.063611  0.273525  0.035572  1
