# generated using pymatgen
data_LiNiF3
_symmetry_space_group_name_H-M   'P 1'
_cell_length_a   5.53490135
_cell_length_b   5.53490135
_cell_length_c   5.53490135
_cell_angle_alpha   55.36784057
_cell_angle_beta   55.36784057
_cell_angle_gamma   55.36784057
_symmetry_Int_Tables_number   1
_chemical_formula_structural   LiNiF3
_chemical_formula_sum   'Li2 Ni2 F6'
_cell_volume   106.99630046
_cell_formula_units_Z   2
loop_
 _symmetry_equiv_pos_site_id
 _symmetry_equiv_pos_as_xyz
  1  'x, y, z'
loop_
 _atom_site_type_symbol
 _atom_site_label
 _atom_site_symmetry_multiplicity
 _atom_site_fract_x
 _atom_site_fract_y
 _atom_site_fract_z
 _atom_site_occupancy
  Li  Li0  1  0.297424  0.297424  0.297424  1
  Li  Li1  1  0.702576  0.702576  0.702576  1
  Ni  Ni2  1  0.000000  0.000000  0.000000  1
  Ni  Ni3  1  0.500000  0.500000  0.500000  1
  F  F4  1  0.605462  0.891712  0.270970  1
  F  F5  1  0.270970  0.605462  0.891712  1
  F  F6  1  0.891712  0.270970  0.605462  1
  F  F7  1  0.108288  0.729030  0.394538  1
  F  F8  1  0.729030  0.394538  0.108288  1
  F  F9  1  0.394538  0.108288  0.729030  1
