# generated using pymatgen
data_Na3CrSiBO7
_symmetry_space_group_name_H-M   'P 1'
_cell_length_a   5.28154580
_cell_length_b   6.47330958
_cell_length_c   8.97760469
_cell_angle_alpha   90.00000000
_cell_angle_beta   91.42349729
_cell_angle_gamma   90.00000000
_symmetry_Int_Tables_number   1
_chemical_formula_structural   Na3CrSiBO7
_chemical_formula_sum   'Na6 Cr2 Si2 B2 O14'
_cell_volume   306.84132909
_cell_formula_units_Z   2
loop_
 _symmetry_equiv_pos_site_id
 _symmetry_equiv_pos_as_xyz
  1  'x, y, z'
loop_
 _atom_site_type_symbol
 _atom_site_label
 _atom_site_symmetry_multiplicity
 _atom_site_fract_x
 _atom_site_fract_y
 _atom_site_fract_z
 _atom_site_occupancy
  Na  Na0  1  0.239991  0.750000  0.079152  1
  Na  Na1  1  0.743504  0.993642  0.258547  1
  Na  Na2  1  0.743504  0.506358  0.258547  1
  Na  Na3  1  0.256496  0.493642  0.741453  1
  Na  Na4  1  0.256496  0.006358  0.741453  1
  Na  Na5  1  0.760009  0.250000  0.920848  1
  Cr  Cr6  1  0.210430  0.250000  0.333192  1
  Cr  Cr7  1  0.789570  0.750000  0.666808  1
  Si  Si8  1  0.290004  0.750000  0.428313  1
  Si  Si9  1  0.709996  0.250000  0.571687  1
  B  B10  1  0.265956  0.250000  0.066033  1
  B  B11  1  0.734044  0.750000  0.933967  1
  O  O12  1  0.698448  0.750000  0.081019  1
  O  O13  1  0.030292  0.250000  0.134583  1
  O  O14  1  0.462349  0.250000  0.176015  1
  O  O15  1  0.224135  0.950412  0.320143  1
  O  O16  1  0.224135  0.549588  0.320143  1
  O  O17  1  0.592655  0.750000  0.474759  1
  O  O18  1  0.886281  0.250000  0.424501  1
  O  O19  1  0.113719  0.750000  0.575499  1
  O  O20  1  0.407345  0.250000  0.525241  1
  O  O21  1  0.775865  0.450412  0.679857  1
  O  O22  1  0.775865  0.049588  0.679857  1
  O  O23  1  0.537651  0.750000  0.823985  1
  O  O24  1  0.969708  0.750000  0.865417  1
  O  O25  1  0.301552  0.250000  0.918981  1
