# generated using pymatgen
data_LiNiPO4
_symmetry_space_group_name_H-M   'P 1'
_cell_length_a   8.36010032
_cell_length_b   8.36010032
_cell_length_c   8.36010032
_cell_angle_alpha   33.53158475
_cell_angle_beta   33.53158475
_cell_angle_gamma   33.53158475
_symmetry_Int_Tables_number   1
_chemical_formula_structural   LiNiPO4
_chemical_formula_sum   'Li2 Ni2 P2 O8'
_cell_volume   158.80384210
_cell_formula_units_Z   2
loop_
 _symmetry_equiv_pos_site_id
 _symmetry_equiv_pos_as_xyz
  1  'x, y, z'
loop_
 _atom_site_type_symbol
 _atom_site_label
 _atom_site_symmetry_multiplicity
 _atom_site_fract_x
 _atom_site_fract_y
 _atom_site_fract_z
 _atom_site_occupancy
  Li  Li0  1  0.715696  0.715696  0.715696  1
  Li  Li1  1  0.284304  0.284304  0.284304  1
  Ni  Ni2  1  0.162256  0.162256  0.162256  1
  Ni  Ni3  1  0.837744  0.837744  0.837744  1
  P  P4  1  0.574289  0.574289  0.574289  1
  P  P5  1  0.425711  0.425711  0.425711  1
  O  O6  1  0.534959  0.869020  0.252385  1
  O  O7  1  0.130980  0.747615  0.465041  1
  O  O8  1  0.869020  0.252385  0.534959  1
  O  O9  1  0.465041  0.130980  0.747615  1
  O  O10  1  0.747615  0.465041  0.130980  1
  O  O11  1  0.637655  0.637655  0.637655  1
  O  O12  1  0.362345  0.362345  0.362345  1
  O  O13  1  0.252385  0.534959  0.869020  1
