# generated using pymatgen
data_Li5Ti2V5O12
_symmetry_space_group_name_H-M   'P 1'
_cell_length_a   5.21740194
_cell_length_b   5.21740194
_cell_length_c   10.04908845
_cell_angle_alpha   84.58322751
_cell_angle_beta   95.41677249
_cell_angle_gamma   59.12177943
_symmetry_Int_Tables_number   1
_chemical_formula_structural   Li5Ti2V5O12
_chemical_formula_sum   'Li5 Ti2 V5 O12'
_cell_volume   230.43824781
_cell_formula_units_Z   1
loop_
 _symmetry_equiv_pos_site_id
 _symmetry_equiv_pos_as_xyz
  1  'x, y, z'
loop_
 _atom_site_type_symbol
 _atom_site_label
 _atom_site_symmetry_multiplicity
 _atom_site_fract_x
 _atom_site_fract_y
 _atom_site_fract_z
 _atom_site_occupancy
  Li  Li0  1  0.329095  0.840878  0.755398  1
  Li  Li1  1  0.164653  0.675154  0.244514  1
  Li  Li2  1  0.840878  0.329095  0.244602  1
  Li  Li3  1  0.675154  0.164653  0.755486  1
  Li  Li4  1  0.080492  0.080492  0.000000  1
  Ti  Ti5  1  0.748054  0.748054  0.000000  1
  Ti  Ti6  1  0.249140  0.249141  0.500000  1
  V  V7  1  0.494320  0.003136  0.245553  1
  V  V8  1  0.003136  0.494320  0.754447  1
  V  V9  1  0.577838  0.577838  0.500000  1
  V  V10  1  0.420326  0.420326  0.000000  1
  V  V11  1  0.917126  0.917126  0.500000  1
  O  O12  1  0.780101  0.034240  0.115245  1
  O  O13  1  0.034240  0.780101  0.884755  1
  O  O14  1  0.612890  0.882336  0.618374  1
  O  O15  1  0.882336  0.612890  0.381626  1
  O  O16  1  0.482809  0.700364  0.115678  1
  O  O17  1  0.700364  0.482809  0.884322  1
  O  O18  1  0.294607  0.514976  0.620950  1
  O  O19  1  0.514976  0.294607  0.379050  1
  O  O20  1  0.118987  0.395973  0.113940  1
  O  O21  1  0.395973  0.118987  0.886060  1
  O  O22  1  0.978272  0.204234  0.622333  1
  O  O23  1  0.204234  0.978272  0.377667  1
