# generated using pymatgen
data_Li2CrFeO4
_symmetry_space_group_name_H-M   'P 1'
_cell_length_a   5.11403306
_cell_length_b   5.92958871
_cell_length_c   7.83227530
_cell_angle_alpha   79.01172612
_cell_angle_beta   77.50814029
_cell_angle_gamma   73.42267669
_symmetry_Int_Tables_number   1
_chemical_formula_structural   Li2CrFeO4
_chemical_formula_sum   'Li6 Cr3 Fe3 O12'
_cell_volume   220.12755652
_cell_formula_units_Z   3
loop_
 _symmetry_equiv_pos_site_id
 _symmetry_equiv_pos_as_xyz
  1  'x, y, z'
loop_
 _atom_site_type_symbol
 _atom_site_label
 _atom_site_symmetry_multiplicity
 _atom_site_fract_x
 _atom_site_fract_y
 _atom_site_fract_z
 _atom_site_occupancy
  Li  Li0  1  0.996577  0.667457  0.332980  1
  Li  Li1  1  0.498810  0.833833  0.167541  1
  Li  Li2  1  0.003804  0.332009  0.666784  1
  Li  Li3  1  0.999481  0.000747  0.000028  1
  Li  Li4  1  0.499918  0.499614  0.499320  1
  Li  Li5  1  0.501170  0.166425  0.833267  1
  Cr  Cr6  1  0.000009  0.835462  0.664450  1
  Cr  Cr7  1  0.000040  0.165045  0.334944  1
  Cr  Cr8  1  0.499762  0.330788  0.169302  1
  Fe  Fe9  1  0.999943  0.500094  0.000084  1
  Fe  Fe10  1  0.500123  0.669227  0.830815  1
  Fe  Fe11  1  0.500171  0.999856  0.499877  1
  O  O12  1  0.741088  0.686938  0.587307  1
  O  O13  1  0.757445  0.482357  0.244488  1
  O  O14  1  0.759239  0.821065  0.907969  1
  O  O15  1  0.258474  0.651269  0.078162  1
  O  O16  1  0.737776  0.015183  0.262605  1
  O  O17  1  0.740834  0.346816  0.924711  1
  O  O18  1  0.245762  0.852603  0.425978  1
  O  O19  1  0.260244  0.987399  0.737425  1
  O  O20  1  0.754460  0.147744  0.573691  1
  O  O21  1  0.261643  0.311615  0.410638  1
  O  O22  1  0.241185  0.516548  0.754912  1
  O  O23  1  0.242044  0.179905  0.092721  1
