# generated using pymatgen
data_Li4Mn3Fe(BO3)4
_symmetry_space_group_name_H-M   'P 1'
_cell_length_a   5.23854252
_cell_length_b   5.25101068
_cell_length_c   20.93088882
_cell_angle_alpha   91.11298575
_cell_angle_beta   90.76029290
_cell_angle_gamma   119.79410827
_symmetry_Int_Tables_number   1
_chemical_formula_structural   Li4Mn3Fe(BO3)4
_chemical_formula_sum   'Li8 Mn6 Fe2 B8 O24'
_cell_volume   499.38493991
_cell_formula_units_Z   2
loop_
 _symmetry_equiv_pos_site_id
 _symmetry_equiv_pos_as_xyz
  1  'x, y, z'
loop_
 _atom_site_type_symbol
 _atom_site_label
 _atom_site_symmetry_multiplicity
 _atom_site_fract_x
 _atom_site_fract_y
 _atom_site_fract_z
 _atom_site_occupancy
  Li  Li0  1  0.349014  0.321194  0.666283  1
  Li  Li1  1  0.321310  0.347404  0.916374  1
  Li  Li2  1  0.348027  0.321673  0.165960  1
  Li  Li3  1  0.321340  0.348754  0.415925  1
  Li  Li4  1  0.664709  0.652182  0.791159  1
  Li  Li5  1  0.651333  0.661773  0.541259  1
  Li  Li6  1  0.661780  0.653163  0.291558  1
  Li  Li7  1  0.651274  0.662085  0.041244  1
  Mn  Mn8  1  0.996116  0.329328  0.558574  1
  Mn  Mn9  1  0.993474  0.326532  0.058893  1
  Mn  Mn10  1  0.999530  0.678377  0.932934  1
  Mn  Mn11  1  0.997572  0.676651  0.433359  1
  Mn  Mn12  1  0.675379  0.998025  0.684328  1
  Mn  Mn13  1  0.330412  0.996069  0.307504  1
  Fe  Fe14  1  0.682271  0.994897  0.183734  1
  Fe  Fe15  1  0.324250  0.999697  0.808622  1
  B  B16  1  0.659477  0.003499  0.936435  1
  B  B17  1  0.658589  0.002795  0.436996  1
  B  B18  1  0.994088  0.331900  0.811843  1
  B  B19  1  0.996423  0.334652  0.311481  1
  B  B20  1  0.002330  0.659382  0.687804  1
  B  B21  1  0.003371  0.660807  0.186839  1
  B  B22  1  0.334426  0.995290  0.562161  1
  B  B23  1  0.333675  0.994139  0.062814  1
  O  O24  1  0.745419  0.068192  0.792718  1
  O  O25  1  0.754017  0.070231  0.290324  1
  O  O26  1  0.930487  0.253782  0.951838  1
  O  O27  1  0.421543  0.033759  0.915869  1
  O  O28  1  0.930415  0.253270  0.452085  1
  O  O29  1  0.421208  0.033739  0.416308  1
  O  O30  1  0.973158  0.581461  0.826215  1
  O  O31  1  0.359327  0.269140  0.569441  1
  O  O32  1  0.962448  0.577504  0.326792  1
  O  O33  1  0.358669  0.268479  0.069635  1
  O  O34  1  0.267770  0.349144  0.818172  1
  O  O35  1  0.270345  0.358911  0.319062  1
  O  O36  1  0.726743  0.629972  0.694693  1
  O  O37  1  0.728572  0.639699  0.193717  1
  O  O38  1  0.629451  0.728358  0.943788  1
  O  O39  1  0.033513  0.422041  0.667002  1
  O  O40  1  0.628682  0.727832  0.444216  1
  O  O41  1  0.022207  0.415274  0.168017  1
  O  O42  1  0.577483  0.961816  0.577593  1
  O  O43  1  0.577236  0.961423  0.078333  1
  O  O44  1  0.069547  0.752668  0.541057  1
  O  O45  1  0.069759  0.751679  0.041432  1
  O  O46  1  0.252618  0.930746  0.703198  1
  O  O47  1  0.258013  0.929409  0.200615  1
