# generated using pymatgen
data_NaV3O8
_symmetry_space_group_name_H-M   'P 1'
_cell_length_a   7.33148389
_cell_length_b   3.62177656
_cell_length_c   12.28009954
_cell_angle_alpha   90.00000000
_cell_angle_beta   106.61194284
_cell_angle_gamma   90.00000000
_symmetry_Int_Tables_number   1
_chemical_formula_structural   NaV3O8
_chemical_formula_sum   'Na2 V6 O16'
_cell_volume   312.46411438
_cell_formula_units_Z   2
loop_
 _symmetry_equiv_pos_site_id
 _symmetry_equiv_pos_as_xyz
  1  'x, y, z'
loop_
 _atom_site_type_symbol
 _atom_site_label
 _atom_site_symmetry_multiplicity
 _atom_site_fract_x
 _atom_site_fract_y
 _atom_site_fract_z
 _atom_site_occupancy
  Na  Na0  1  0.184000  0.750000  0.683266  1
  Na  Na1  1  0.816000  0.250000  0.316734  1
  V  V2  1  0.118619  0.250000  0.920754  1
  V  V3  1  0.315772  0.250000  0.459736  1
  V  V4  1  0.258148  0.250000  0.191346  1
  V  V5  1  0.741852  0.750000  0.808654  1
  V  V6  1  0.684228  0.750000  0.540264  1
  V  V7  1  0.881381  0.750000  0.079246  1
  O  O8  1  0.046926  0.750000  0.927889  1
  O  O9  1  0.222279  0.250000  0.818851  1
  O  O10  1  0.192516  0.250000  0.552817  1
  O  O11  1  0.147348  0.250000  0.325841  1
  O  O12  1  0.173947  0.750000  0.173182  1
  O  O13  1  0.523165  0.750000  0.726968  1
  O  O14  1  0.398665  0.750000  0.461167  1
  O  O15  1  0.692991  0.750000  0.950307  1
  O  O16  1  0.307009  0.250000  0.049693  1
  O  O17  1  0.601335  0.250000  0.538833  1
  O  O18  1  0.476835  0.250000  0.273032  1
  O  O19  1  0.826053  0.250000  0.826818  1
  O  O20  1  0.852652  0.750000  0.674159  1
  O  O21  1  0.807484  0.750000  0.447183  1
  O  O22  1  0.777721  0.750000  0.181149  1
  O  O23  1  0.953074  0.250000  0.072111  1
