# generated using pymatgen
data_Ba4La6Mn(Co3O10)3
_symmetry_space_group_name_H-M   'P 1'
_cell_length_a   5.59716384
_cell_length_b   5.59716384
_cell_length_c   19.31652690
_cell_angle_alpha   90.00000000
_cell_angle_beta   90.00000000
_cell_angle_gamma   90.00000000
_symmetry_Int_Tables_number   1
_chemical_formula_structural   Ba4La6Mn(Co3O10)3
_chemical_formula_sum   'Ba4 La6 Mn1 Co9 O30'
_cell_volume   605.15285066
_cell_formula_units_Z   1
loop_
 _symmetry_equiv_pos_site_id
 _symmetry_equiv_pos_as_xyz
  1  'x, y, z'
loop_
 _atom_site_type_symbol
 _atom_site_label
 _atom_site_symmetry_multiplicity
 _atom_site_fract_x
 _atom_site_fract_y
 _atom_site_fract_z
 _atom_site_occupancy
  Ba  Ba0  1  0.500000  0.000000  0.600221  1
  Ba  Ba1  1  0.000000  0.500000  0.600221  1
  Ba  Ba2  1  0.000000  0.500000  0.399779  1
  Ba  Ba3  1  0.500000  0.000000  0.399779  1
  La  La4  1  0.000000  0.500000  0.000000  1
  La  La5  1  0.500000  0.000000  0.000000  1
  La  La6  1  0.000000  0.500000  0.199287  1
  La  La7  1  0.000000  0.500000  0.800713  1
  La  La8  1  0.500000  0.000000  0.199287  1
  La  La9  1  0.500000  0.000000  0.800713  1
  Mn  Mn10  1  0.500000  0.500000  0.500000  1
  Co  Co11  1  0.000000  0.000000  0.300112  1
  Co  Co12  1  0.000000  0.000000  0.500000  1
  Co  Co13  1  0.000000  0.000000  0.900511  1
  Co  Co14  1  0.000000  0.000000  0.099489  1
  Co  Co15  1  0.000000  0.000000  0.699888  1
  Co  Co16  1  0.500000  0.500000  0.293902  1
  Co  Co17  1  0.500000  0.500000  0.901244  1
  Co  Co18  1  0.500000  0.500000  0.098756  1
  Co  Co19  1  0.500000  0.500000  0.706098  1
  O  O20  1  0.742217  0.742217  0.716300  1
  O  O21  1  0.500000  0.500000  0.397474  1
  O  O22  1  0.500000  0.500000  0.602526  1
  O  O23  1  0.500000  0.500000  0.000000  1
  O  O24  1  0.500000  0.500000  0.191199  1
  O  O25  1  0.500000  0.500000  0.808801  1
  O  O26  1  0.751072  0.248928  0.500000  1
  O  O27  1  0.742217  0.257783  0.283700  1
  O  O28  1  0.750484  0.249516  0.095271  1
  O  O29  1  0.750484  0.249516  0.904729  1
  O  O30  1  0.742217  0.257783  0.716300  1
  O  O31  1  0.742217  0.742217  0.283700  1
  O  O32  1  0.257783  0.257783  0.716300  1
  O  O33  1  0.000000  0.000000  0.390684  1
  O  O34  1  0.751072  0.751072  0.500000  1
  O  O35  1  0.750484  0.750484  0.904729  1
  O  O36  1  0.000000  0.000000  0.609316  1
  O  O37  1  0.750484  0.750484  0.095271  1
  O  O38  1  0.000000  0.000000  0.195313  1
  O  O39  1  0.000000  0.000000  0.000000  1
  O  O40  1  0.000000  0.000000  0.804687  1
  O  O41  1  0.257783  0.742217  0.283700  1
  O  O42  1  0.248928  0.751072  0.500000  1
  O  O43  1  0.249516  0.750484  0.904729  1
  O  O44  1  0.249516  0.750484  0.095271  1
  O  O45  1  0.257783  0.742217  0.716300  1
  O  O46  1  0.248928  0.248928  0.500000  1
  O  O47  1  0.257783  0.257783  0.283700  1
  O  O48  1  0.249516  0.249516  0.095271  1
  O  O49  1  0.249516  0.249516  0.904729  1
