# generated using pymatgen
data_Lu(PO3)3
_symmetry_space_group_name_H-M   'P 1'
_cell_length_a   6.98170694
_cell_length_b   9.70985293
_cell_length_c   10.91431359
_cell_angle_alpha   90.00000000
_cell_angle_beta   91.75440101
_cell_angle_gamma   90.00000000
_symmetry_Int_Tables_number   1
_chemical_formula_structural   Lu(PO3)3
_chemical_formula_sum   'Lu4 P12 O36'
_cell_volume   739.54919457
_cell_formula_units_Z   4
loop_
 _symmetry_equiv_pos_site_id
 _symmetry_equiv_pos_as_xyz
  1  'x, y, z'
loop_
 _atom_site_type_symbol
 _atom_site_label
 _atom_site_symmetry_multiplicity
 _atom_site_fract_x
 _atom_site_fract_y
 _atom_site_fract_z
 _atom_site_occupancy
  Lu  Lu0  1  0.810145  0.250000  0.981014  1
  Lu  Lu1  1  0.673048  0.250000  0.462664  1
  Lu  Lu2  1  0.326952  0.750000  0.537336  1
  Lu  Lu3  1  0.189855  0.750000  0.018986  1
  P  P4  1  0.825165  0.464033  0.715838  1
  P  P5  1  0.825165  0.035967  0.715838  1
  P  P6  1  0.814560  0.750000  0.625078  1
  P  P7  1  0.765739  0.487817  0.232157  1
  P  P8  1  0.765739  0.012183  0.232157  1
  P  P9  1  0.677911  0.750000  0.101878  1
  P  P10  1  0.322089  0.250000  0.898122  1
  P  P11  1  0.234261  0.987817  0.767843  1
  P  P12  1  0.234261  0.512183  0.767843  1
  P  P13  1  0.185440  0.250000  0.374922  1
  P  P14  1  0.174835  0.964033  0.284162  1
  P  P15  1  0.174835  0.535967  0.284162  1
  O  O16  1  0.987761  0.250000  0.425417  1
  O  O17  1  0.948624  0.948416  0.306161  1
  O  O18  1  0.948624  0.551584  0.306161  1
  O  O19  1  0.876865  0.750000  0.053533  1
  O  O20  1  0.826976  0.087433  0.119677  1
  O  O21  1  0.826976  0.412567  0.119677  1
  O  O22  1  0.794531  0.872805  0.723315  1
  O  O23  1  0.794531  0.627195  0.723315  1
  O  O24  1  0.779394  0.092406  0.838995  1
  O  O25  1  0.779394  0.407594  0.838995  1
  O  O26  1  0.726333  0.405710  0.603596  1
  O  O27  1  0.726333  0.094290  0.603596  1
  O  O28  1  0.649382  0.875909  0.196174  1
  O  O29  1  0.649382  0.624091  0.196174  1
  O  O30  1  0.648923  0.411093  0.322609  1
  O  O31  1  0.648923  0.088907  0.322609  1
  O  O32  1  0.643884  0.750000  0.537704  1
  O  O33  1  0.507458  0.750000  0.014956  1
  O  O34  1  0.492542  0.250000  0.985044  1
  O  O35  1  0.356116  0.250000  0.462296  1
  O  O36  1  0.351077  0.911093  0.677391  1
  O  O37  1  0.351077  0.588907  0.677391  1
  O  O38  1  0.350618  0.375909  0.803826  1
  O  O39  1  0.350618  0.124091  0.803826  1
  O  O40  1  0.273667  0.905710  0.396404  1
  O  O41  1  0.273667  0.594290  0.396404  1
  O  O42  1  0.220606  0.907594  0.161005  1
  O  O43  1  0.220606  0.592406  0.161005  1
  O  O44  1  0.205469  0.372805  0.276685  1
  O  O45  1  0.205469  0.127195  0.276685  1
  O  O46  1  0.173024  0.912567  0.880323  1
  O  O47  1  0.173024  0.587433  0.880323  1
  O  O48  1  0.123135  0.250000  0.946467  1
  O  O49  1  0.051376  0.448416  0.693839  1
  O  O50  1  0.051376  0.051584  0.693839  1
  O  O51  1  0.012239  0.750000  0.574583  1
