# generated using pymatgen
data_FeOF
_symmetry_space_group_name_H-M   'P 1'
_cell_length_a   4.76322305
_cell_length_b   4.77035940
_cell_length_c   13.24032132
_cell_angle_alpha   90.00000000
_cell_angle_beta   111.16116276
_cell_angle_gamma   90.00000000
_symmetry_Int_Tables_number   1
_chemical_formula_structural   FeOF
_chemical_formula_sum   'Fe8 O8 F8'
_cell_volume   280.56363739
_cell_formula_units_Z   8
loop_
 _symmetry_equiv_pos_site_id
 _symmetry_equiv_pos_as_xyz
  1  'x, y, z'
loop_
 _atom_site_type_symbol
 _atom_site_label
 _atom_site_symmetry_multiplicity
 _atom_site_fract_x
 _atom_site_fract_y
 _atom_site_fract_z
 _atom_site_occupancy
  Fe  Fe0  1  0.891331  0.004903  0.188890  1
  Fe  Fe1  1  0.223376  0.962932  0.437632  1
  Fe  Fe2  1  0.408654  0.026253  0.686141  1
  Fe  Fe3  1  0.646784  0.994646  0.937325  1
  Fe  Fe4  1  0.776624  0.462932  0.562368  1
  Fe  Fe5  1  0.353216  0.494646  0.062675  1
  Fe  Fe6  1  0.591346  0.526253  0.313859  1
  Fe  Fe7  1  0.108669  0.504903  0.811110  1
  O  O8  1  0.883218  0.810834  0.316137  1
  O  O9  1  0.368139  0.817443  0.808689  1
  O  O10  1  0.613240  0.813919  0.063218  1
  O  O11  1  0.116782  0.310834  0.683863  1
  O  O12  1  0.386760  0.313919  0.936782  1
  O  O13  1  0.631861  0.317443  0.191311  1
  O  O14  1  0.507488  0.674169  0.438352  1
  O  O15  1  0.492512  0.174169  0.561648  1
  F  F16  1  0.111329  0.789821  0.561950  1
  F  F17  1  0.888671  0.289821  0.438050  1
  F  F18  1  0.733875  0.695011  0.687800  1
  F  F19  1  0.990543  0.703616  0.936152  1
  F  F20  1  0.240803  0.706454  0.187598  1
  F  F21  1  0.759197  0.206454  0.812402  1
  F  F22  1  0.009457  0.203616  0.063848  1
  F  F23  1  0.266125  0.195011  0.312200  1
