# generated using pymatgen
data_VCr2Fe3(PO4)6
_symmetry_space_group_name_H-M   'P 1'
_cell_length_a   8.49874580
_cell_length_b   8.49874580
_cell_length_c   8.49874580
_cell_angle_alpha   61.80762428
_cell_angle_beta   61.80762428
_cell_angle_gamma   61.80762428
_symmetry_Int_Tables_number   1
_chemical_formula_structural   VCr2Fe3(PO4)6
_chemical_formula_sum   'V1 Cr2 Fe3 P6 O24'
_cell_volume   451.63406444
_cell_formula_units_Z   1
loop_
 _symmetry_equiv_pos_site_id
 _symmetry_equiv_pos_as_xyz
  1  'x, y, z'
loop_
 _atom_site_type_symbol
 _atom_site_label
 _atom_site_symmetry_multiplicity
 _atom_site_fract_x
 _atom_site_fract_y
 _atom_site_fract_z
 _atom_site_occupancy
  V  V0  1  0.143719  0.143719  0.143719  1
  Cr  Cr1  1  0.999940  0.999940  0.999940  1
  Cr  Cr2  1  0.499635  0.499635  0.499635  1
  Fe  Fe3  1  0.646041  0.646041  0.646041  1
  Fe  Fe4  1  0.854319  0.854319  0.854319  1
  Fe  Fe5  1  0.353566  0.353566  0.353566  1
  P  P6  1  0.952321  0.250525  0.546712  1
  P  P7  1  0.546712  0.952321  0.250525  1
  P  P8  1  0.250525  0.546712  0.952321  1
  P  P9  1  0.749681  0.453398  0.048835  1
  P  P10  1  0.453398  0.048835  0.749681  1
  P  P11  1  0.048835  0.749681  0.453398  1
  O  O12  1  0.502930  0.104409  0.326634  1
  O  O13  1  0.326634  0.502930  0.104409  1
  O  O14  1  0.104409  0.326634  0.502930  1
  O  O15  1  0.938535  0.095391  0.747633  1
  O  O16  1  0.998396  0.176394  0.390367  1
  O  O17  1  0.750674  0.404478  0.558821  1
  O  O18  1  0.747633  0.938535  0.095391  1
  O  O19  1  0.558821  0.750674  0.404478  1
  O  O20  1  0.824869  0.605862  0.005700  1
  O  O21  1  0.404478  0.558821  0.750674  1
  O  O22  1  0.905088  0.250698  0.065204  1
  O  O23  1  0.605862  0.005700  0.824869  1
  O  O24  1  0.390367  0.998396  0.176394  1
  O  O25  1  0.095391  0.747633  0.938535  1
  O  O26  1  0.595202  0.437774  0.250178  1
  O  O27  1  0.176394  0.390367  0.998396  1
  O  O28  1  0.437774  0.250178  0.595202  1
  O  O29  1  0.250698  0.065204  0.905088  1
  O  O30  1  0.250178  0.595202  0.437774  1
  O  O31  1  0.005700  0.824869  0.605862  1
  O  O32  1  0.065204  0.905088  0.250698  1
  O  O33  1  0.893648  0.679495  0.492941  1
  O  O34  1  0.679495  0.492941  0.893648  1
  O  O35  1  0.492941  0.893648  0.679495  1
