# generated using pymatgen
data_Li5Fe6(BO3)6
_symmetry_space_group_name_H-M   'P 1'
_cell_length_a   9.05999656
_cell_length_b   9.05999656
_cell_length_c   11.33445102
_cell_angle_alpha   68.07928912
_cell_angle_beta   111.92071088
_cell_angle_gamma   120.20175299
_symmetry_Int_Tables_number   1
_chemical_formula_structural   Li5Fe6(BO3)6
_chemical_formula_sum   'Li10 Fe12 B12 O36'
_cell_volume   725.70393475
_cell_formula_units_Z   2
loop_
 _symmetry_equiv_pos_site_id
 _symmetry_equiv_pos_as_xyz
  1  'x, y, z'
loop_
 _atom_site_type_symbol
 _atom_site_label
 _atom_site_symmetry_multiplicity
 _atom_site_fract_x
 _atom_site_fract_y
 _atom_site_fract_z
 _atom_site_occupancy
  Li  Li0  1  0.007804  0.505446  0.165719  1
  Li  Li1  1  0.851052  0.633522  0.413881  1
  Li  Li2  1  0.825076  0.646890  0.668958  1
  Li  Li3  1  0.670987  0.840461  0.160518  1
  Li  Li4  1  0.687944  0.816359  0.894375  1
  Li  Li5  1  0.494554  0.992196  0.665719  1
  Li  Li6  1  0.353110  0.174924  0.168958  1
  Li  Li7  1  0.366478  0.148948  0.913881  1
  Li  Li8  1  0.183641  0.312056  0.394375  1
  Li  Li9  1  0.159539  0.329013  0.660518  1
  Fe  Fe10  1  0.659408  0.521084  0.125819  1
  Fe  Fe11  1  0.517484  0.668107  0.386549  1
  Fe  Fe12  1  0.158369  0.670022  0.637807  1
  Fe  Fe13  1  0.329978  0.841631  0.137807  1
  Fe  Fe14  1  0.021707  0.803971  0.884881  1
  Fe  Fe15  1  0.196029  0.978293  0.384881  1
  Fe  Fe16  1  0.833330  0.008402  0.631077  1
  Fe  Fe17  1  0.991598  0.166670  0.131077  1
  Fe  Fe18  1  0.692600  0.173332  0.878222  1
  Fe  Fe19  1  0.826668  0.307400  0.378222  1
  Fe  Fe20  1  0.478916  0.340592  0.625819  1
  Fe  Fe21  1  0.331893  0.482516  0.886549  1
  B  B22  1  0.316660  0.502152  0.132852  1
  B  B23  1  0.168931  0.644013  0.375406  1
  B  B24  1  0.497848  0.683340  0.632852  1
  B  B25  1  0.986512  0.849620  0.121772  1
  B  B26  1  0.355987  0.831069  0.875406  1
  B  B27  1  0.857350  0.986852  0.376220  1
  B  B28  1  0.150380  0.013488  0.621772  1
  B  B29  1  0.659139  0.185559  0.126211  1
  B  B30  1  0.013148  0.142650  0.876220  1
  B  B31  1  0.511118  0.331030  0.371722  1
  B  B32  1  0.814441  0.340861  0.626211  1
  B  B33  1  0.668970  0.488882  0.871722  1
  O  O34  1  0.893417  0.520124  0.609347  1
  O  O35  1  0.423480  0.668585  0.160686  1
  O  O36  1  0.331415  0.576520  0.660686  1
  O  O37  1  0.058912  0.767043  0.093379  1
  O  O38  1  0.574391  0.612012  0.595851  1
  O  O39  1  0.808103  0.780377  0.109354  1
  O  O40  1  0.835819  0.577162  0.854103  1
  O  O41  1  0.094487  0.716708  0.413865  1
  O  O42  1  0.599018  0.557778  0.917205  1
  O  O43  1  0.329471  0.748681  0.340759  1
  O  O44  1  0.251319  0.670529  0.840759  1
  O  O45  1  0.765065  0.818518  0.359756  1
  O  O46  1  0.588246  0.856286  0.644128  1
  O  O47  1  0.097407  0.010397  0.159760  1
  O  O48  1  0.989603  0.902593  0.659760  1
  O  O49  1  0.232957  0.941088  0.593379  1
  O  O50  1  0.742459  0.109187  0.098117  1
  O  O51  1  0.479876  0.106583  0.109347  1
  O  O52  1  0.529473  0.919213  0.866823  1
  O  O53  1  0.283292  0.905513  0.913865  1
  O  O54  1  0.805803  0.052498  0.440730  1
  O  O55  1  0.009367  0.100673  0.324489  1
  O  O56  1  0.899327  0.990633  0.824489  1
  O  O57  1  0.422838  0.164181  0.354103  1
  O  O58  1  0.219623  0.191897  0.609354  1
  O  O59  1  0.761910  0.341250  0.166629  1
  O  O60  1  0.658750  0.238090  0.666629  1
  O  O61  1  0.387988  0.425609  0.095851  1
  O  O62  1  0.890813  0.257541  0.598117  1
  O  O63  1  0.143714  0.411754  0.144128  1
  O  O64  1  0.181482  0.234935  0.859756  1
  O  O65  1  0.442222  0.400982  0.417205  1
  O  O66  1  0.947502  0.194197  0.940730  1
  O  O67  1  0.677468  0.434943  0.341602  1
  O  O68  1  0.565057  0.322532  0.841602  1
  O  O69  1  0.080787  0.470527  0.366823  1
