# generated using pymatgen
data_Li13Mn8O24
_symmetry_space_group_name_H-M   'P 1'
_cell_length_a   4.98005910
_cell_length_b   4.98005910
_cell_length_c   19.26638941
_cell_angle_alpha   87.18832420
_cell_angle_beta   92.81167580
_cell_angle_gamma   60.31952101
_symmetry_Int_Tables_number   1
_chemical_formula_structural   Li13Mn8O24
_chemical_formula_sum   'Li13 Mn8 O24'
_cell_volume   413.15151482
_cell_formula_units_Z   1
loop_
 _symmetry_equiv_pos_site_id
 _symmetry_equiv_pos_as_xyz
  1  'x, y, z'
loop_
 _atom_site_type_symbol
 _atom_site_label
 _atom_site_symmetry_multiplicity
 _atom_site_fract_x
 _atom_site_fract_y
 _atom_site_fract_z
 _atom_site_occupancy
  Li  Li0  1  0.508051  0.993139  0.750393  1
  Li  Li1  1  0.374832  0.132439  0.376108  1
  Li  Li2  1  0.993139  0.508051  0.249607  1
  Li  Li3  1  0.753953  0.753953  0.500000  1
  Li  Li4  1  0.902280  0.902280  0.000000  1
  Li  Li5  1  0.250091  0.250091  0.000000  1
  Li  Li6  1  0.346282  0.839486  0.250283  1
  Li  Li7  1  0.153879  0.660700  0.749743  1
  Li  Li8  1  0.839486  0.346282  0.749717  1
  Li  Li9  1  0.660700  0.153879  0.250257  1
  Li  Li10  1  0.092726  0.092726  0.500000  1
  Li  Li11  1  0.132439  0.374832  0.623892  1
  Li  Li12  1  0.597871  0.597871  0.000000  1
  Mn  Mn13  1  0.454598  0.706835  0.624844  1
  Mn  Mn14  1  0.957944  0.207600  0.124988  1
  Mn  Mn15  1  0.785767  0.046028  0.624509  1
  Mn  Mn16  1  0.293015  0.542532  0.125004  1
  Mn  Mn17  1  0.706835  0.454598  0.375156  1
  Mn  Mn18  1  0.207600  0.957944  0.875012  1
  Mn  Mn19  1  0.046028  0.785767  0.375491  1
  Mn  Mn20  1  0.542532  0.293015  0.874996  1
  O  O21  1  0.463319  0.028135  0.569496  1
  O  O22  1  0.786302  0.712602  0.682793  1
  O  O23  1  0.976943  0.523483  0.066578  1
  O  O24  1  0.354248  0.497894  0.318394  1
  O  O25  1  0.497894  0.354248  0.681606  1
  O  O26  1  0.271244  0.229003  0.183041  1
  O  O27  1  0.396233  0.753109  0.428489  1
  O  O28  1  0.854042  0.018561  0.817896  1
  O  O29  1  0.018561  0.854042  0.182104  1
  O  O30  1  0.761473  0.095956  0.429758  1
  O  O31  1  0.753109  0.396233  0.571511  1
  O  O32  1  0.896122  0.230820  0.932119  1
  O  O33  1  0.095956  0.761473  0.570242  1
  O  O34  1  0.269305  0.603764  0.932100  1
  O  O35  1  0.230820  0.896122  0.067881  1
  O  O36  1  0.997877  0.143436  0.318747  1
  O  O37  1  0.143436  0.997877  0.681253  1
  O  O38  1  0.603764  0.269305  0.067900  1
  O  O39  1  0.712602  0.786302  0.317207  1
  O  O40  1  0.481462  0.645902  0.817865  1
  O  O41  1  0.645902  0.481462  0.182135  1
  O  O42  1  0.028135  0.463319  0.430504  1
  O  O43  1  0.229003  0.271244  0.816959  1
  O  O44  1  0.523483  0.976943  0.933422  1
