# generated using pymatgen
data_Mg2P2H12O13
_symmetry_space_group_name_H-M   'P 1'
_cell_length_a   7.27879999
_cell_length_b   18.44245813
_cell_length_c   10.34086794
_cell_angle_alpha   90.00000000
_cell_angle_beta   132.01584717
_cell_angle_gamma   90.00000000
_symmetry_Int_Tables_number   1
_chemical_formula_structural   Mg2P2H12O13
_chemical_formula_sum   'Mg8 P8 H48 O52'
_cell_volume   1031.33761138
_cell_formula_units_Z   4
loop_
 _symmetry_equiv_pos_site_id
 _symmetry_equiv_pos_as_xyz
  1  'x, y, z'
loop_
 _atom_site_type_symbol
 _atom_site_label
 _atom_site_symmetry_multiplicity
 _atom_site_fract_x
 _atom_site_fract_y
 _atom_site_fract_z
 _atom_site_occupancy
  Mg  Mg0  1  0.500000  0.500000  0.000000  1
  Mg  Mg1  1  0.500000  0.000000  0.500000  1
  Mg  Mg2  1  0.500000  0.500000  0.500000  1
  Mg  Mg3  1  0.500000  0.000000  0.000000  1
  Mg  Mg4  1  0.827420  0.756458  0.524339  1
  Mg  Mg5  1  0.827420  0.743542  0.024339  1
  Mg  Mg6  1  0.172580  0.243542  0.475661  1
  Mg  Mg7  1  0.172580  0.256458  0.975661  1
  P  P8  1  0.998704  0.596785  0.701117  1
  P  P9  1  0.998704  0.903215  0.201117  1
  P  P10  1  0.001296  0.403215  0.298883  1
  P  P11  1  0.001296  0.096785  0.798883  1
  P  P12  1  0.653554  0.604921  0.321350  1
  P  P13  1  0.653554  0.895079  0.821350  1
  P  P14  1  0.346446  0.395079  0.678650  1
  P  P15  1  0.346446  0.104921  0.178650  1
  H  H16  1  0.076408  0.495819  0.913643  1
  H  H17  1  0.076408  0.004181  0.413643  1
  H  H18  1  0.923592  0.504181  0.086357  1
  H  H19  1  0.923592  0.995819  0.586357  1
  H  H20  1  0.284518  0.510856  0.120390  1
  H  H21  1  0.284518  0.989144  0.620390  1
  H  H22  1  0.715482  0.489144  0.879610  1
  H  H23  1  0.715482  0.010856  0.379610  1
  H  H24  1  0.767471  0.888727  0.400296  1
  H  H25  1  0.767471  0.611273  0.900296  1
  H  H26  1  0.232529  0.111273  0.599704  1
  H  H27  1  0.232529  0.388727  0.099704  1
  H  H28  1  0.799008  0.835427  0.292529  1
  H  H29  1  0.799008  0.664573  0.792529  1
  H  H30  1  0.200992  0.164573  0.707471  1
  H  H31  1  0.200992  0.335427  0.207471  1
  H  H32  1  0.179086  0.856714  0.782233  1
  H  H33  1  0.179086  0.643286  0.282233  1
  H  H34  1  0.820914  0.143286  0.217767  1
  H  H35  1  0.820914  0.356714  0.717767  1
  H  H36  1  0.918568  0.870375  0.724614  1
  H  H37  1  0.918568  0.629625  0.224614  1
  H  H38  1  0.081432  0.129625  0.275386  1
  H  H39  1  0.081432  0.370375  0.775386  1
  H  H40  1  0.559755  0.789032  0.604465  1
  H  H41  1  0.559755  0.710968  0.104465  1
  H  H42  1  0.440245  0.210968  0.395535  1
  H  H43  1  0.440245  0.289032  0.895535  1
  H  H44  1  0.432613  0.829539  0.428579  1
  H  H45  1  0.432613  0.670461  0.928579  1
  H  H46  1  0.567387  0.170461  0.571421  1
  H  H47  1  0.567387  0.329539  0.071421  1
  H  H48  1  0.547124  0.385094  0.358610  1
  H  H49  1  0.547124  0.114906  0.858610  1
  H  H50  1  0.452876  0.614906  0.641390  1
  H  H51  1  0.452876  0.885094  0.141390  1
  H  H52  1  0.799986  0.426638  0.466399  1
  H  H53  1  0.799986  0.073362  0.966399  1
  H  H54  1  0.200014  0.573362  0.533601  1
  H  H55  1  0.200014  0.926638  0.033601  1
  H  H56  1  0.140646  0.742296  0.464029  1
  H  H57  1  0.140646  0.757704  0.964029  1
  H  H58  1  0.859354  0.257704  0.535971  1
  H  H59  1  0.859354  0.242296  0.035971  1
  H  H60  1  0.315099  0.764634  0.661818  1
  H  H61  1  0.315099  0.735366  0.161818  1
  H  H62  1  0.684901  0.235366  0.338182  1
  H  H63  1  0.684901  0.264634  0.838182  1
  O  O64  1  0.682088  0.574053  0.199248  1
  O  O65  1  0.682088  0.925947  0.699248  1
  O  O66  1  0.317912  0.425947  0.800752  1
  O  O67  1  0.317912  0.074053  0.300752  1
  O  O68  1  0.629315  0.688356  0.308707  1
  O  O69  1  0.629315  0.811644  0.808707  1
  O  O70  1  0.370685  0.311644  0.691293  1
  O  O71  1  0.370685  0.188356  0.191293  1
  O  O72  1  0.910948  0.673611  0.694816  1
  O  O73  1  0.910948  0.826389  0.194816  1
  O  O74  1  0.089052  0.326389  0.305184  1
  O  O75  1  0.089052  0.173611  0.805184  1
  O  O76  1  0.924415  0.585613  0.513322  1
  O  O77  1  0.924415  0.914387  0.013322  1
  O  O78  1  0.075585  0.414387  0.486678  1
  O  O79  1  0.075585  0.085613  0.986678  1
  O  O80  1  0.453278  0.569184  0.310769  1
  O  O81  1  0.453278  0.930816  0.810769  1
  O  O82  1  0.546722  0.430816  0.689231  1
  O  O83  1  0.546722  0.069184  0.189231  1
  O  O84  1  0.277984  0.587789  0.837623  1
  O  O85  1  0.277984  0.912211  0.337623  1
  O  O86  1  0.722016  0.412211  0.162377  1
  O  O87  1  0.722016  0.087789  0.662377  1
  O  O88  1  0.858462  0.538021  0.710916  1
  O  O89  1  0.858462  0.961979  0.210916  1
  O  O90  1  0.141538  0.461979  0.289084  1
  O  O91  1  0.141538  0.038021  0.789084  1
  O  O92  1  0.234995  0.477283  0.025931  1
  O  O93  1  0.234995  0.022717  0.525931  1
  O  O94  1  0.765005  0.522717  0.974069  1
  O  O95  1  0.765005  0.977283  0.474069  1
  O  O96  1  0.720555  0.840373  0.343369  1
  O  O97  1  0.720555  0.659627  0.843369  1
  O  O98  1  0.279445  0.159627  0.656631  1
  O  O99  1  0.279445  0.340373  0.156631  1
  O  O100  1  0.020686  0.833494  0.727379  1
  O  O101  1  0.020686  0.666506  0.227379  1
  O  O102  1  0.979314  0.166506  0.272621  1
  O  O103  1  0.979314  0.333494  0.772621  1
  O  O104  1  0.521539  0.783794  0.493292  1
  O  O105  1  0.521539  0.716206  0.993292  1
  O  O106  1  0.478461  0.216206  0.506708  1
  O  O107  1  0.478461  0.283794  0.006708  1
  O  O108  1  0.654719  0.420328  0.454202  1
  O  O109  1  0.654719  0.079672  0.954202  1
  O  O110  1  0.345281  0.579672  0.545798  1
  O  O111  1  0.345281  0.920328  0.045798  1
  O  O112  1  0.152640  0.743119  0.564169  1
  O  O113  1  0.152640  0.756881  0.064169  1
  O  O114  1  0.847360  0.256881  0.435831  1
  O  O115  1  0.847360  0.243119  0.935831  1
