# generated using pymatgen
data_Sm2WO6
_symmetry_space_group_name_H-M   'P 1'
_cell_length_a   10.08227384
_cell_length_b   10.08227384
_cell_length_c   5.52264216
_cell_angle_alpha   75.79597435
_cell_angle_beta   104.20402565
_cell_angle_gamma   111.36150258
_symmetry_Int_Tables_number   1
_chemical_formula_structural   Sm2WO6
_chemical_formula_sum   'Sm8 W4 O24'
_cell_volume   499.21507865
_cell_formula_units_Z   4
loop_
 _symmetry_equiv_pos_site_id
 _symmetry_equiv_pos_as_xyz
  1  'x, y, z'
loop_
 _atom_site_type_symbol
 _atom_site_label
 _atom_site_symmetry_multiplicity
 _atom_site_fract_x
 _atom_site_fract_y
 _atom_site_fract_z
 _atom_site_occupancy
  Sm  Sm0  1  0.942386  0.287607  0.615527  1
  Sm  Sm1  1  0.712393  0.057614  0.115527  1
  Sm  Sm2  1  0.367803  0.367803  0.750000  1
  Sm  Sm3  1  0.892633  0.892633  0.750000  1
  Sm  Sm4  1  0.107367  0.107367  0.250000  1
  Sm  Sm5  1  0.632197  0.632197  0.250000  1
  Sm  Sm6  1  0.287607  0.942386  0.884473  1
  Sm  Sm7  1  0.057614  0.712393  0.384473  1
  W  W8  1  0.800074  0.495154  0.934886  1
  W  W9  1  0.504846  0.199926  0.434886  1
  W  W10  1  0.495154  0.800074  0.565114  1
  W  W11  1  0.199926  0.504846  0.065114  1
  O  O12  1  0.892998  0.077199  0.921477  1
  O  O13  1  0.922801  0.107002  0.421477  1
  O  O14  1  0.527459  0.063953  0.732381  1
  O  O15  1  0.783467  0.320779  0.853723  1
  O  O16  1  0.936047  0.472541  0.232381  1
  O  O17  1  0.679221  0.216533  0.353723  1
  O  O18  1  0.825023  0.618282  0.622582  1
  O  O19  1  0.381718  0.174977  0.122582  1
  O  O20  1  0.613850  0.456175  0.977660  1
  O  O21  1  0.315817  0.161022  0.579424  1
  O  O22  1  0.543825  0.386150  0.477660  1
  O  O23  1  0.838978  0.684183  0.079424  1
  O  O24  1  0.161022  0.315817  0.920576  1
  O  O25  1  0.456175  0.613850  0.522340  1
  O  O26  1  0.684183  0.838978  0.420576  1
  O  O27  1  0.386150  0.543825  0.022340  1
  O  O28  1  0.618282  0.825023  0.877418  1
  O  O29  1  0.174977  0.381718  0.377418  1
  O  O30  1  0.320779  0.783467  0.646277  1
  O  O31  1  0.063953  0.527459  0.767619  1
  O  O32  1  0.216533  0.679221  0.146277  1
  O  O33  1  0.472541  0.936047  0.267619  1
  O  O34  1  0.077199  0.892998  0.578523  1
  O  O35  1  0.107002  0.922801  0.078523  1
