# generated using pymatgen
data_Li2(CoO2)3
_symmetry_space_group_name_H-M   'P 1'
_cell_length_a   4.87688805
_cell_length_b   4.87688805
_cell_length_c   10.12380364
_cell_angle_alpha   75.91600809
_cell_angle_beta   104.08399191
_cell_angle_gamma   119.98528919
_symmetry_Int_Tables_number   1
_chemical_formula_structural   Li2(CoO2)3
_chemical_formula_sum   'Li4 Co6 O12'
_cell_volume   200.15291581
_cell_formula_units_Z   2
loop_
 _symmetry_equiv_pos_site_id
 _symmetry_equiv_pos_as_xyz
  1  'x, y, z'
loop_
 _atom_site_type_symbol
 _atom_site_label
 _atom_site_symmetry_multiplicity
 _atom_site_fract_x
 _atom_site_fract_y
 _atom_site_fract_z
 _atom_site_occupancy
  Li  Li0  1  0.080728  0.086820  0.243503  1
  Li  Li1  1  0.246967  0.584151  0.743391  1
  Li  Li2  1  0.415849  0.753033  0.243391  1
  Li  Li3  1  0.913180  0.919272  0.743503  1
  Co  Co4  1  0.999422  0.831041  0.001988  1
  Co  Co5  1  0.168959  0.000578  0.501988  1
  Co  Co6  1  0.335197  0.498898  0.002016  1
  Co  Co7  1  0.501102  0.664803  0.502016  1
  Co  Co8  1  0.664515  0.170379  0.993643  1
  Co  Co9  1  0.829621  0.335485  0.493643  1
  O  O10  1  0.031682  0.456525  0.102848  1
  O  O11  1  0.136740  0.706381  0.396485  1
  O  O12  1  0.186181  0.298902  0.602706  1
  O  O13  1  0.293619  0.863260  0.896485  1
  O  O14  1  0.370719  0.125910  0.102899  1
  O  O15  1  0.460636  0.368682  0.395246  1
  O  O16  1  0.543475  0.968318  0.602848  1
  O  O17  1  0.631318  0.539364  0.895246  1
  O  O18  1  0.701098  0.813819  0.102706  1
  O  O19  1  0.874090  0.629281  0.602899  1
  O  O20  1  0.798622  0.029840  0.396856  1
  O  O21  1  0.970160  0.201378  0.896856  1
