# generated using pymatgen
data_SrCe2O4
_symmetry_space_group_name_H-M   'P 1'
_cell_length_a   3.58126181
_cell_length_b   10.21857327
_cell_length_c   12.30871125
_cell_angle_alpha   90.00000000
_cell_angle_beta   90.00000000
_cell_angle_gamma   90.00000000
_symmetry_Int_Tables_number   1
_chemical_formula_structural   SrCe2O4
_chemical_formula_sum   'Sr4 Ce8 O16'
_cell_volume   450.44204214
_cell_formula_units_Z   4
loop_
 _symmetry_equiv_pos_site_id
 _symmetry_equiv_pos_as_xyz
  1  'x, y, z'
loop_
 _atom_site_type_symbol
 _atom_site_label
 _atom_site_symmetry_multiplicity
 _atom_site_fract_x
 _atom_site_fract_y
 _atom_site_fract_z
 _atom_site_occupancy
  Sr  Sr0  1  0.250000  0.248712  0.146031  1
  Sr  Sr1  1  0.750000  0.251288  0.646031  1
  Sr  Sr2  1  0.250000  0.748712  0.353969  1
  Sr  Sr3  1  0.750000  0.751288  0.853969  1
  Ce  Ce4  1  0.750000  0.091440  0.892385  1
  Ce  Ce5  1  0.750000  0.074128  0.385176  1
  Ce  Ce6  1  0.250000  0.425872  0.885176  1
  Ce  Ce7  1  0.250000  0.408560  0.392385  1
  Ce  Ce8  1  0.750000  0.591440  0.607615  1
  Ce  Ce9  1  0.750000  0.574128  0.114824  1
  Ce  Ce10  1  0.250000  0.925872  0.614824  1
  Ce  Ce11  1  0.250000  0.908560  0.107615  1
  O  O12  1  0.750000  0.998991  0.713826  1
  O  O13  1  0.750000  0.066883  0.083107  1
  O  O14  1  0.250000  0.135054  0.513824  1
  O  O15  1  0.250000  0.221345  0.806920  1
  O  O16  1  0.750000  0.278655  0.306920  1
  O  O17  1  0.750000  0.364946  0.013824  1
  O  O18  1  0.250000  0.433117  0.583107  1
  O  O19  1  0.250000  0.501009  0.213826  1
  O  O20  1  0.750000  0.498991  0.786174  1
  O  O21  1  0.750000  0.566883  0.416893  1
  O  O22  1  0.250000  0.635054  0.986176  1
  O  O23  1  0.250000  0.721345  0.693080  1
  O  O24  1  0.750000  0.778655  0.193080  1
  O  O25  1  0.750000  0.864946  0.486176  1
  O  O26  1  0.250000  0.933117  0.916893  1
  O  O27  1  0.250000  0.001009  0.286174  1
