# generated using pymatgen
data_ScP2O7
_symmetry_space_group_name_H-M   'P 1'
_cell_length_a   5.10186066
_cell_length_b   8.40385860
_cell_length_c   7.23299687
_cell_angle_alpha   90.00000000
_cell_angle_beta   110.54252515
_cell_angle_gamma   90.00000000
_symmetry_Int_Tables_number   1
_chemical_formula_structural   ScP2O7
_chemical_formula_sum   'Sc2 P4 O14'
_cell_volume   290.39730371
_cell_formula_units_Z   2
loop_
 _symmetry_equiv_pos_site_id
 _symmetry_equiv_pos_as_xyz
  1  'x, y, z'
loop_
 _atom_site_type_symbol
 _atom_site_label
 _atom_site_symmetry_multiplicity
 _atom_site_fract_x
 _atom_site_fract_y
 _atom_site_fract_z
 _atom_site_occupancy
  Sc  Sc0  1  0.207980  0.006973  0.721216  1
  Sc  Sc1  1  0.792020  0.506973  0.278784  1
  P  P2  1  0.794170  0.783521  0.920448  1
  P  P3  1  0.408698  0.678282  0.533755  1
  P  P4  1  0.591302  0.178282  0.466245  1
  P  P5  1  0.205830  0.283521  0.079552  1
  O  O6  1  0.044759  0.835142  0.865647  1
  O  O7  1  0.126528  0.194632  0.884592  1
  O  O8  1  0.607183  0.928751  0.912367  1
  O  O9  1  0.616673  0.653219  0.759140  1
  O  O10  1  0.413652  0.167529  0.597827  1
  O  O11  1  0.196148  0.542119  0.488519  1
  O  O12  1  0.266801  0.839432  0.523292  1
  O  O13  1  0.733199  0.339432  0.476708  1
  O  O14  1  0.803852  0.042119  0.511481  1
  O  O15  1  0.586348  0.667529  0.402173  1
  O  O16  1  0.383327  0.153219  0.240860  1
  O  O17  1  0.392817  0.428751  0.087633  1
  O  O18  1  0.873472  0.694632  0.115408  1
  O  O19  1  0.955241  0.335142  0.134353  1
