# generated using pymatgen
data_HoBrO
_symmetry_space_group_name_H-M   'P 1'
_cell_length_a   10.26721929
_cell_length_b   10.26721929
_cell_length_c   10.26721929
_cell_angle_alpha   21.49069307
_cell_angle_beta   21.49069307
_cell_angle_gamma   21.49069307
_symmetry_Int_Tables_number   1
_chemical_formula_structural   HoBrO
_chemical_formula_sum   'Ho2 Br2 O2'
_cell_volume   127.27465042
_cell_formula_units_Z   2
loop_
 _symmetry_equiv_pos_site_id
 _symmetry_equiv_pos_as_xyz
  1  'x, y, z'
loop_
 _atom_site_type_symbol
 _atom_site_label
 _atom_site_symmetry_multiplicity
 _atom_site_fract_x
 _atom_site_fract_y
 _atom_site_fract_z
 _atom_site_occupancy
  Ho  Ho0  1  0.880232  0.880232  0.880232  1
  Ho  Ho1  1  0.119768  0.119768  0.119768  1
  Br  Br2  1  0.611052  0.611052  0.611052  1
  Br  Br3  1  0.388948  0.388948  0.388948  1
  O  O4  1  0.194993  0.194993  0.194993  1
  O  O5  1  0.805007  0.805007  0.805007  1
