# generated using pymatgen
data_LiFeF4
_symmetry_space_group_name_H-M   'P 1'
_cell_length_a   7.63416130
_cell_length_b   8.45545674
_cell_length_c   9.84756663
_cell_angle_alpha   90.00000000
_cell_angle_beta   90.00000000
_cell_angle_gamma   90.00000000
_symmetry_Int_Tables_number   1
_chemical_formula_structural   LiFeF4
_chemical_formula_sum   'Li8 Fe8 F32'
_cell_volume   635.66358328
_cell_formula_units_Z   8
loop_
 _symmetry_equiv_pos_site_id
 _symmetry_equiv_pos_as_xyz
  1  'x, y, z'
loop_
 _atom_site_type_symbol
 _atom_site_label
 _atom_site_symmetry_multiplicity
 _atom_site_fract_x
 _atom_site_fract_y
 _atom_site_fract_z
 _atom_site_occupancy
  Li  Li0  1  0.890320  0.469105  0.243337  1
  Li  Li1  1  0.890320  0.030895  0.243337  1
  Li  Li2  1  0.390320  0.969105  0.256663  1
  Li  Li3  1  0.390320  0.530895  0.256663  1
  Li  Li4  1  0.609680  0.030895  0.743337  1
  Li  Li5  1  0.609680  0.469105  0.743337  1
  Li  Li6  1  0.109680  0.530895  0.756663  1
  Li  Li7  1  0.109680  0.969105  0.756663  1
  Fe  Fe8  1  0.640996  0.250000  0.031046  1
  Fe  Fe9  1  0.221456  0.250000  0.092684  1
  Fe  Fe10  1  0.721456  0.750000  0.407316  1
  Fe  Fe11  1  0.140996  0.750000  0.468954  1
  Fe  Fe12  1  0.859004  0.250000  0.531046  1
  Fe  Fe13  1  0.278544  0.250000  0.592684  1
  Fe  Fe14  1  0.778544  0.750000  0.907316  1
  Fe  Fe15  1  0.359004  0.750000  0.968954  1
  F  F16  1  0.795081  0.088868  0.073995  1
  F  F17  1  0.795081  0.411132  0.073995  1
  F  F18  1  0.441552  0.390922  0.093854  1
  F  F19  1  0.441552  0.109078  0.093854  1
  F  F20  1  0.863833  0.750000  0.079811  1
  F  F21  1  0.362432  0.750000  0.159280  1
  F  F22  1  0.136125  0.419786  0.198178  1
  F  F23  1  0.136125  0.080214  0.198178  1
  F  F24  1  0.636125  0.919786  0.301822  1
  F  F25  1  0.636125  0.580214  0.301822  1
  F  F26  1  0.862432  0.250000  0.340720  1
  F  F27  1  0.363833  0.250000  0.420189  1
  F  F28  1  0.941552  0.890922  0.406146  1
  F  F29  1  0.941552  0.609078  0.406146  1
  F  F30  1  0.295081  0.911132  0.426005  1
  F  F31  1  0.295081  0.588868  0.426005  1
  F  F32  1  0.704919  0.411132  0.573995  1
  F  F33  1  0.704919  0.088868  0.573995  1
  F  F34  1  0.058448  0.390922  0.593854  1
  F  F35  1  0.058448  0.109078  0.593854  1
  F  F36  1  0.636167  0.750000  0.579811  1
  F  F37  1  0.137568  0.750000  0.659280  1
  F  F38  1  0.363875  0.419786  0.698178  1
  F  F39  1  0.363875  0.080214  0.698178  1
  F  F40  1  0.863875  0.919786  0.801822  1
  F  F41  1  0.863875  0.580214  0.801822  1
  F  F42  1  0.637568  0.250000  0.840720  1
  F  F43  1  0.136167  0.250000  0.920189  1
  F  F44  1  0.558448  0.890922  0.906146  1
  F  F45  1  0.558448  0.609078  0.906146  1
  F  F46  1  0.204919  0.911132  0.926005  1
  F  F47  1  0.204919  0.588868  0.926005  1
