# generated using pymatgen
data_LiFe(PO3)3
_symmetry_space_group_name_H-M   'P 1'
_cell_length_a   7.31154057
_cell_length_b   9.15363756
_cell_length_c   12.23496211
_cell_angle_alpha   90.00000000
_cell_angle_beta   90.00000000
_cell_angle_gamma   90.00000000
_symmetry_Int_Tables_number   1
_chemical_formula_structural   LiFe(PO3)3
_chemical_formula_sum   'Li4 Fe4 P12 O36'
_cell_volume   818.85166293
_cell_formula_units_Z   4
loop_
 _symmetry_equiv_pos_site_id
 _symmetry_equiv_pos_as_xyz
  1  'x, y, z'
loop_
 _atom_site_type_symbol
 _atom_site_label
 _atom_site_symmetry_multiplicity
 _atom_site_fract_x
 _atom_site_fract_y
 _atom_site_fract_z
 _atom_site_occupancy
  Li  Li0  1  0.750000  0.952642  0.997635  1
  Li  Li1  1  0.750000  0.452642  0.502365  1
  Li  Li2  1  0.250000  0.547358  0.497635  1
  Li  Li3  1  0.250000  0.047358  0.002365  1
  Fe  Fe4  1  0.750000  0.528477  0.717242  1
  Fe  Fe5  1  0.750000  0.028477  0.782758  1
  Fe  Fe6  1  0.250000  0.971523  0.217242  1
  Fe  Fe7  1  0.250000  0.471523  0.282758  1
  P  P8  1  0.954805  0.747885  0.351225  1
  P  P9  1  0.954805  0.247885  0.148775  1
  P  P10  1  0.750000  0.308802  0.957419  1
  P  P11  1  0.750000  0.808802  0.542581  1
  P  P12  1  0.545195  0.247885  0.148775  1
  P  P13  1  0.545195  0.747885  0.351225  1
  P  P14  1  0.454805  0.252115  0.648775  1
  P  P15  1  0.454805  0.752115  0.851225  1
  P  P16  1  0.250000  0.191198  0.457419  1
  P  P17  1  0.250000  0.691198  0.042581  1
  P  P18  1  0.045195  0.252115  0.648775  1
  P  P19  1  0.045195  0.752115  0.851225  1
  O  O20  1  0.973124  0.654461  0.763869  1
  O  O21  1  0.973124  0.154461  0.736131  1
  O  O22  1  0.940175  0.888457  0.882833  1
  O  O23  1  0.940175  0.388457  0.617167  1
  O  O24  1  0.919960  0.343776  0.039286  1
  O  O25  1  0.919960  0.843776  0.460714  1
  O  O26  1  0.750000  0.694761  0.318418  1
  O  O27  1  0.750000  0.914184  0.633594  1
  O  O28  1  0.750000  0.414184  0.866406  1
  O  O29  1  0.750000  0.145651  0.936399  1
  O  O30  1  0.750000  0.194761  0.181582  1
  O  O31  1  0.750000  0.645651  0.563601  1
  O  O32  1  0.580040  0.343776  0.039286  1
  O  O33  1  0.580040  0.843776  0.460714  1
  O  O34  1  0.559825  0.888457  0.882833  1
  O  O35  1  0.559825  0.388457  0.617167  1
  O  O36  1  0.526876  0.654461  0.763869  1
  O  O37  1  0.526876  0.154461  0.736131  1
  O  O38  1  0.473124  0.845539  0.263869  1
  O  O39  1  0.473124  0.345539  0.236131  1
  O  O40  1  0.440175  0.111543  0.117167  1
  O  O41  1  0.440175  0.611543  0.382833  1
  O  O42  1  0.419960  0.156224  0.539286  1
  O  O43  1  0.419960  0.656224  0.960714  1
  O  O44  1  0.250000  0.854349  0.063601  1
  O  O45  1  0.250000  0.585816  0.133594  1
  O  O46  1  0.250000  0.354349  0.436399  1
  O  O47  1  0.250000  0.085816  0.366406  1
  O  O48  1  0.250000  0.305239  0.681582  1
  O  O49  1  0.250000  0.805239  0.818418  1
  O  O50  1  0.080040  0.156224  0.539286  1
  O  O51  1  0.080040  0.656224  0.960714  1
  O  O52  1  0.059825  0.611543  0.382833  1
  O  O53  1  0.059825  0.111543  0.117167  1
  O  O54  1  0.026876  0.345539  0.236131  1
  O  O55  1  0.026876  0.845539  0.263869  1
