# generated using pymatgen
data_Li2FeP4(H4O5)4
_symmetry_space_group_name_H-M   'P 1'
_cell_length_a   7.12821383
_cell_length_b   10.66736933
_cell_length_c   12.05782777
_cell_angle_alpha   90.00000000
_cell_angle_beta   116.12412567
_cell_angle_gamma   90.00000000
_symmetry_Int_Tables_number   1
_chemical_formula_structural   Li2FeP4(H4O5)4
_chemical_formula_sum   'Li4 Fe2 P8 H32 O40'
_cell_volume   823.20341800
_cell_formula_units_Z   2
loop_
 _symmetry_equiv_pos_site_id
 _symmetry_equiv_pos_as_xyz
  1  'x, y, z'
loop_
 _atom_site_type_symbol
 _atom_site_label
 _atom_site_symmetry_multiplicity
 _atom_site_fract_x
 _atom_site_fract_y
 _atom_site_fract_z
 _atom_site_occupancy
  Li  Li0  1  0.700578  0.339325  0.952727  1
  Li  Li1  1  0.299422  0.839325  0.547273  1
  Li  Li2  1  0.700578  0.160675  0.452727  1
  Li  Li3  1  0.299422  0.660675  0.047273  1
  Fe  Fe4  1  0.000000  0.000000  0.000000  1
  Fe  Fe5  1  0.000000  0.500000  0.500000  1
  P  P6  1  0.537500  0.044010  0.776786  1
  P  P7  1  0.462500  0.544010  0.723214  1
  P  P8  1  0.179921  0.238717  0.416513  1
  P  P9  1  0.820079  0.738717  0.083487  1
  P  P10  1  0.179921  0.261283  0.916513  1
  P  P11  1  0.820079  0.761283  0.583487  1
  P  P12  1  0.537500  0.455990  0.276786  1
  P  P13  1  0.462500  0.955990  0.223214  1
  H  H14  1  0.645040  0.708468  0.711589  1
  H  H15  1  0.405924  0.411905  0.574291  1
  H  H16  1  0.399651  0.103800  0.555328  1
  H  H17  1  0.243962  0.594509  0.398231  1
  H  H18  1  0.178375  0.962873  0.316793  1
  H  H19  1  0.983131  0.565140  0.099888  1
  H  H20  1  0.600349  0.603800  0.944672  1
  H  H21  1  0.594076  0.911905  0.925709  1
  H  H22  1  0.967741  0.170400  0.157184  1
  H  H23  1  0.995889  0.376924  0.185451  1
  H  H24  1  0.004111  0.876924  0.314549  1
  H  H25  1  0.354960  0.208468  0.788411  1
  H  H26  1  0.032259  0.670400  0.342816  1
  H  H27  1  0.016869  0.065140  0.400112  1
  H  H28  1  0.821625  0.462873  0.183207  1
  H  H29  1  0.756038  0.094509  0.101769  1
  H  H30  1  0.243962  0.905491  0.898231  1
  H  H31  1  0.178375  0.537127  0.816793  1
  H  H32  1  0.983131  0.934860  0.599888  1
  H  H33  1  0.967741  0.329600  0.657184  1
  H  H34  1  0.645040  0.791532  0.211589  1
  H  H35  1  0.995889  0.123076  0.685451  1
  H  H36  1  0.004111  0.623076  0.814549  1
  H  H37  1  0.032259  0.829600  0.842816  1
  H  H38  1  0.405924  0.088095  0.074291  1
  H  H39  1  0.399651  0.396200  0.055328  1
  H  H40  1  0.016869  0.434860  0.900112  1
  H  H41  1  0.821625  0.037127  0.683207  1
  H  H42  1  0.756038  0.405491  0.601769  1
  H  H43  1  0.600349  0.896200  0.444672  1
  H  H44  1  0.594076  0.588095  0.425709  1
  H  H45  1  0.354960  0.291532  0.288411  1
  O  O46  1  0.770638  0.027966  0.815224  1
  O  O47  1  0.533414  0.457239  0.640647  1
  O  O48  1  0.393076  0.165707  0.483882  1
  O  O49  1  0.494050  0.686042  0.693895  1
  O  O50  1  0.602445  0.513280  0.858279  1
  O  O51  1  0.139636  0.257629  0.281850  1
  O  O52  1  0.397555  0.013280  0.641721  1
  O  O53  1  0.000228  0.655506  0.076385  1
  O  O54  1  0.505950  0.186042  0.806105  1
  O  O55  1  0.466586  0.957239  0.859353  1
  O  O56  1  0.110680  0.937511  0.370194  1
  O  O57  1  0.143100  0.636152  0.421493  1
  O  O58  1  0.193636  0.361508  0.484461  1
  O  O59  1  0.806364  0.861508  0.015539  1
  O  O60  1  0.856900  0.136152  0.078507  1
  O  O61  1  0.889320  0.437511  0.129806  1
  O  O62  1  0.229362  0.527966  0.684776  1
  O  O63  1  0.999772  0.155506  0.423615  1
  O  O64  1  0.860364  0.757629  0.218150  1
  O  O65  1  0.393076  0.334293  0.983882  1
  O  O66  1  0.606924  0.665707  0.016118  1
  O  O67  1  0.139636  0.242371  0.781850  1
  O  O68  1  0.000228  0.844494  0.576385  1
  O  O69  1  0.770638  0.472034  0.315224  1
  O  O70  1  0.110680  0.562489  0.870194  1
  O  O71  1  0.143100  0.863848  0.921493  1
  O  O72  1  0.193636  0.138492  0.984461  1
  O  O73  1  0.806364  0.638492  0.515539  1
  O  O74  1  0.856900  0.363848  0.578507  1
  O  O75  1  0.889320  0.062489  0.629806  1
  O  O76  1  0.533414  0.042761  0.140647  1
  O  O77  1  0.494050  0.813958  0.193895  1
  O  O78  1  0.999772  0.344494  0.923615  1
  O  O79  1  0.602445  0.986720  0.358279  1
  O  O80  1  0.860364  0.742371  0.718150  1
  O  O81  1  0.397555  0.486720  0.141721  1
  O  O82  1  0.505950  0.313958  0.306105  1
  O  O83  1  0.606924  0.834293  0.516118  1
  O  O84  1  0.466586  0.542761  0.359353  1
  O  O85  1  0.229362  0.972034  0.184776  1
