# generated using pymatgen
data_LiNbPO5
_symmetry_space_group_name_H-M   'P 1'
_cell_length_a   7.11307104
_cell_length_b   7.43215518
_cell_length_c   8.18300640
_cell_angle_alpha   89.43045202
_cell_angle_beta   92.54247083
_cell_angle_gamma   115.73781239
_symmetry_Int_Tables_number   1
_chemical_formula_structural   LiNbPO5
_chemical_formula_sum   'Li4 Nb4 P4 O20'
_cell_volume   389.27600454
_cell_formula_units_Z   4
loop_
 _symmetry_equiv_pos_site_id
 _symmetry_equiv_pos_as_xyz
  1  'x, y, z'
loop_
 _atom_site_type_symbol
 _atom_site_label
 _atom_site_symmetry_multiplicity
 _atom_site_fract_x
 _atom_site_fract_y
 _atom_site_fract_z
 _atom_site_occupancy
  Li  Li0  1  0.296951  0.827463  0.425295  1
  Li  Li1  1  0.218106  0.308984  0.076127  1
  Li  Li2  1  0.781894  0.691016  0.923873  1
  Li  Li3  1  0.703049  0.172537  0.574705  1
  Nb  Nb4  1  0.243995  0.509960  0.737281  1
  Nb  Nb5  1  0.246118  0.013740  0.765961  1
  Nb  Nb6  1  0.753882  0.986260  0.234039  1
  Nb  Nb7  1  0.756005  0.490040  0.262719  1
  P  P8  1  0.231074  0.745926  0.093289  1
  P  P9  1  0.262702  0.238591  0.408547  1
  P  P10  1  0.737298  0.761409  0.591453  1
  P  P11  1  0.768926  0.254074  0.906711  1
  O  O12  1  0.124114  0.843136  0.975459  1
  O  O13  1  0.086691  0.643560  0.237227  1
  O  O14  1  0.240451  0.752992  0.666624  1
  O  O15  1  0.274007  0.591058  0.995085  1
  O  O16  1  0.194581  0.368790  0.515372  1
  O  O17  1  0.431315  0.905683  0.177923  1
  O  O18  1  0.075409  0.093622  0.303021  1
  O  O19  1  0.266487  0.262382  0.842235  1
  O  O20  1  0.645049  0.878168  0.479477  1
  O  O21  1  0.424679  0.369831  0.284249  1
  O  O22  1  0.575321  0.630169  0.715751  1
  O  O23  1  0.354951  0.121832  0.520523  1
  O  O24  1  0.733513  0.737618  0.157765  1
  O  O25  1  0.924591  0.906378  0.696979  1
  O  O26  1  0.568685  0.094317  0.822077  1
  O  O27  1  0.805419  0.631210  0.484628  1
  O  O28  1  0.725993  0.408942  0.004915  1
  O  O29  1  0.759549  0.247008  0.333376  1
  O  O30  1  0.913309  0.356440  0.762773  1
  O  O31  1  0.875886  0.156864  0.024541  1
