# generated using pymatgen
data_Li2Fe2(SO4)3
_symmetry_space_group_name_H-M   'P 1'
_cell_length_a   7.96796349
_cell_length_b   7.96796349
_cell_length_c   8.86178728
_cell_angle_alpha   68.09915264
_cell_angle_beta   111.90084736
_cell_angle_gamma   113.92989352
_symmetry_Int_Tables_number   1
_chemical_formula_structural   Li2Fe2(SO4)3
_chemical_formula_sum   'Li4 Fe4 S6 O24'
_cell_volume   460.55298642
_cell_formula_units_Z   2
loop_
 _symmetry_equiv_pos_site_id
 _symmetry_equiv_pos_as_xyz
  1  'x, y, z'
loop_
 _atom_site_type_symbol
 _atom_site_label
 _atom_site_symmetry_multiplicity
 _atom_site_fract_x
 _atom_site_fract_y
 _atom_site_fract_z
 _atom_site_occupancy
  Li  Li0  1  0.137215  0.668834  0.555862  1
  Li  Li1  1  0.331166  0.862785  0.055862  1
  Li  Li2  1  0.668834  0.137215  0.944138  1
  Li  Li3  1  0.862785  0.331166  0.444138  1
  Fe  Fe4  1  0.126661  0.367749  0.985390  1
  Fe  Fe5  1  0.632251  0.873339  0.485390  1
  Fe  Fe6  1  0.367749  0.126661  0.514610  1
  Fe  Fe7  1  0.873339  0.632251  0.014610  1
  S  S8  1  0.458751  0.750757  0.823092  1
  S  S9  1  0.249243  0.541249  0.323092  1
  S  S10  1  0.060018  0.060018  0.750000  1
  S  S11  1  0.939982  0.939982  0.250000  1
  S  S12  1  0.750757  0.458751  0.676908  1
  S  S13  1  0.541249  0.249243  0.176908  1
  O  O14  1  0.048407  0.873127  0.883620  1
  O  O15  1  0.126873  0.951593  0.383620  1
  O  O16  1  0.496038  0.874438  0.928187  1
  O  O17  1  0.261952  0.612218  0.812097  1
  O  O18  1  0.455812  0.867636  0.641068  1
  O  O19  1  0.125562  0.503962  0.428187  1
  O  O20  1  0.097917  0.212490  0.823758  1
  O  O21  1  0.601934  0.654009  0.882661  1
  O  O22  1  0.387782  0.738048  0.312097  1
  O  O23  1  0.132364  0.544188  0.141068  1
  O  O24  1  0.787510  0.902083  0.323758  1
  O  O25  1  0.654009  0.601934  0.617339  1
  O  O26  1  0.345991  0.398066  0.382661  1
  O  O27  1  0.212490  0.097917  0.676242  1
  O  O28  1  0.867636  0.455812  0.858932  1
  O  O29  1  0.612218  0.261952  0.687903  1
  O  O30  1  0.398066  0.345991  0.117339  1
  O  O31  1  0.902083  0.787510  0.176242  1
  O  O32  1  0.874438  0.496038  0.571813  1
  O  O33  1  0.544188  0.132364  0.358932  1
  O  O34  1  0.738048  0.387782  0.187903  1
  O  O35  1  0.503962  0.125562  0.071813  1
  O  O36  1  0.873127  0.048407  0.616380  1
  O  O37  1  0.951593  0.126873  0.116380  1
