# generated using pymatgen
data_LiNiP2O7
_symmetry_space_group_name_H-M   'P 1'
_cell_length_a   5.07854945
_cell_length_b   13.32881744
_cell_length_c   9.63256862
_cell_angle_alpha   90.00000000
_cell_angle_beta   120.49274790
_cell_angle_gamma   90.00000000
_symmetry_Int_Tables_number   1
_chemical_formula_structural   LiNiP2O7
_chemical_formula_sum   'Li4 Ni4 P8 O28'
_cell_volume   561.85749710
_cell_formula_units_Z   4
loop_
 _symmetry_equiv_pos_site_id
 _symmetry_equiv_pos_as_xyz
  1  'x, y, z'
loop_
 _atom_site_type_symbol
 _atom_site_label
 _atom_site_symmetry_multiplicity
 _atom_site_fract_x
 _atom_site_fract_y
 _atom_site_fract_z
 _atom_site_occupancy
  Li  Li0  1  0.013921  0.628598  0.360190  1
  Li  Li1  1  0.986079  0.371402  0.639810  1
  Li  Li2  1  0.013921  0.871402  0.860190  1
  Li  Li3  1  0.986079  0.128598  0.139810  1
  Ni  Ni4  1  0.962290  0.330899  0.263506  1
  Ni  Ni5  1  0.962290  0.169101  0.763506  1
  Ni  Ni6  1  0.037710  0.830899  0.236494  1
  Ni  Ni7  1  0.037710  0.669101  0.736494  1
  P  P8  1  0.527531  0.967727  0.224686  1
  P  P9  1  0.527531  0.532273  0.724686  1
  P  P10  1  0.267546  0.180488  0.536397  1
  P  P11  1  0.732454  0.819512  0.463603  1
  P  P12  1  0.732454  0.680488  0.963603  1
  P  P13  1  0.472469  0.467727  0.275314  1
  P  P14  1  0.267546  0.319512  0.036397  1
  P  P15  1  0.472469  0.032273  0.775314  1
  O  O16  1  0.966154  0.811025  0.642987  1
  O  O17  1  0.682332  0.937363  0.416584  1
  O  O18  1  0.422356  0.776454  0.422882  1
  O  O19  1  0.966154  0.688975  0.142987  1
  O  O20  1  0.151716  0.270694  0.139309  1
  O  O21  1  0.151716  0.229306  0.639309  1
  O  O22  1  0.422356  0.723546  0.922882  1
  O  O23  1  0.783069  0.542280  0.684993  1
  O  O24  1  0.577644  0.223546  0.577118  1
  O  O25  1  0.736774  0.391290  0.370421  1
  O  O26  1  0.577644  0.276454  0.077118  1
  O  O27  1  0.848284  0.729306  0.860691  1
  O  O28  1  0.736774  0.108710  0.870421  1
  O  O29  1  0.605293  0.928746  0.794934  1
  O  O30  1  0.394707  0.071254  0.205066  1
  O  O31  1  0.216931  0.457720  0.315007  1
  O  O32  1  0.783069  0.957720  0.184993  1
  O  O33  1  0.605293  0.571254  0.294934  1
  O  O34  1  0.317668  0.437363  0.083416  1
  O  O35  1  0.263226  0.891290  0.129579  1
  O  O36  1  0.033846  0.311025  0.857013  1
  O  O37  1  0.682332  0.562637  0.916584  1
  O  O38  1  0.394707  0.428746  0.705066  1
  O  O39  1  0.317668  0.062637  0.583416  1
  O  O40  1  0.848284  0.770694  0.360691  1
  O  O41  1  0.216931  0.042280  0.815007  1
  O  O42  1  0.033846  0.188975  0.357013  1
  O  O43  1  0.263226  0.608710  0.629579  1
