# generated using pymatgen
data_Ba4LiY2Cu5O14
_symmetry_space_group_name_H-M   'P 1'
_cell_length_a   5.50372468
_cell_length_b   5.50372468
_cell_length_c   12.50736582
_cell_angle_alpha   77.52371143
_cell_angle_beta   102.47628857
_cell_angle_gamma   89.02359506
_symmetry_Int_Tables_number   1
_chemical_formula_structural   Ba4LiY2Cu5O14
_chemical_formula_sum   'Ba4 Li1 Y2 Cu5 O14'
_cell_volume   360.37101503
_cell_formula_units_Z   1
loop_
 _symmetry_equiv_pos_site_id
 _symmetry_equiv_pos_as_xyz
  1  'x, y, z'
loop_
 _atom_site_type_symbol
 _atom_site_label
 _atom_site_symmetry_multiplicity
 _atom_site_fract_x
 _atom_site_fract_y
 _atom_site_fract_z
 _atom_site_occupancy
  Ba  Ba0  1  0.904849  0.595320  0.812745  1
  Ba  Ba1  1  0.590667  0.907931  0.181926  1
  Ba  Ba2  1  0.404680  0.095151  0.812745  1
  Ba  Ba3  1  0.092069  0.409333  0.181926  1
  Li  Li4  1  0.829572  0.170428  0.663169  1
  Y  Y5  1  0.750456  0.751195  0.502565  1
  Y  Y6  1  0.248805  0.249544  0.502565  1
  Cu  Cu7  1  0.998661  0.001339  0.997276  1
  Cu  Cu8  1  0.498985  0.501015  0.000142  1
  Cu  Cu9  1  0.176327  0.823673  0.353340  1
  Cu  Cu10  1  0.676562  0.323438  0.354321  1
  Cu  Cu11  1  0.311742  0.688258  0.628284  1
  O  O12  1  0.736348  0.764151  0.998747  1
  O  O13  1  0.546847  0.931871  0.619167  1
  O  O14  1  0.422078  0.577922  0.844886  1
  O  O15  1  0.065143  0.934857  0.618505  1
  O  O16  1  0.235849  0.263652  0.998747  1
  O  O17  1  0.936174  0.562327  0.378583  1
  O  O18  1  0.068129  0.453153  0.619167  1
  O  O19  1  0.081178  0.918822  0.155174  1
  O  O20  1  0.921255  0.078745  0.838829  1
  O  O21  1  0.438231  0.561769  0.376925  1
  O  O22  1  0.549748  0.450252  0.618392  1
  O  O23  1  0.437673  0.063826  0.378583  1
  O  O24  1  0.582325  0.417675  0.157261  1
  O  O25  1  0.937494  0.062506  0.376644  1
