# generated using pymatgen
data_Li4MnNb2WO12
_symmetry_space_group_name_H-M   'P 1'
_cell_length_a   5.16973706
_cell_length_b   5.46757168
_cell_length_c   7.52633567
_cell_angle_alpha   94.46096505
_cell_angle_beta   90.02093631
_cell_angle_gamma   90.15846697
_symmetry_Int_Tables_number   1
_chemical_formula_structural   Li4MnNb2WO12
_chemical_formula_sum   'Li4 Mn1 Nb2 W1 O12'
_cell_volume   212.09338407
_cell_formula_units_Z   1
loop_
 _symmetry_equiv_pos_site_id
 _symmetry_equiv_pos_as_xyz
  1  'x, y, z'
loop_
 _atom_site_type_symbol
 _atom_site_label
 _atom_site_symmetry_multiplicity
 _atom_site_fract_x
 _atom_site_fract_y
 _atom_site_fract_z
 _atom_site_occupancy
  Li  Li0  1  0.997716  0.435096  0.310317  1
  Li  Li1  1  0.498037  0.908358  0.768438  1
  Li  Li2  1  0.006477  0.486195  0.739034  1
  Li  Li3  1  0.496300  0.925837  0.308605  1
  Mn  Mn4  1  0.500035  0.499010  0.498949  1
  Nb  Nb5  1  0.004333  0.000534  0.511266  1
  Nb  Nb6  1  0.498322  0.472295  0.000647  1
  W  W7  1  0.003635  0.987315  0.008202  1
  O  O8  1  0.298579  0.212466  0.436163  1
  O  O9  1  0.123556  0.017737  0.758003  1
  O  O10  1  0.313570  0.830261  0.056782  1
  O  O11  1  0.205319  0.707455  0.436882  1
  O  O12  1  0.819010  0.700316  0.931159  1
  O  O13  1  0.391349  0.524748  0.745833  1
  O  O14  1  0.613643  0.511535  0.244476  1
  O  O15  1  0.171400  0.319376  0.056729  1
  O  O16  1  0.803533  0.318532  0.543385  1
  O  O17  1  0.691643  0.183156  0.929280  1
  O  O18  1  0.872341  0.008498  0.239599  1
  O  O19  1  0.691203  0.808877  0.547454  1
