# generated using pymatgen
data_NbCu3(PO4)4
_symmetry_space_group_name_H-M   'P 1'
_cell_length_a   5.00566503
_cell_length_b   6.04011295
_cell_length_c   9.89929248
_cell_angle_alpha   90.00000000
_cell_angle_beta   91.24049314
_cell_angle_gamma   90.00000000
_symmetry_Int_Tables_number   1
_chemical_formula_structural   NbCu3(PO4)4
_chemical_formula_sum   'Nb1 Cu3 P4 O16'
_cell_volume   299.23280543
_cell_formula_units_Z   1
loop_
 _symmetry_equiv_pos_site_id
 _symmetry_equiv_pos_as_xyz
  1  'x, y, z'
loop_
 _atom_site_type_symbol
 _atom_site_label
 _atom_site_symmetry_multiplicity
 _atom_site_fract_x
 _atom_site_fract_y
 _atom_site_fract_z
 _atom_site_occupancy
  Nb  Nb0  1  0.032112  0.000000  0.281221  1
  Cu  Cu1  1  0.948910  0.500000  0.722509  1
  Cu  Cu2  1  0.605157  0.500000  0.202984  1
  Cu  Cu3  1  0.411124  0.000000  0.784279  1
  P  P4  1  0.911434  0.000000  0.612605  1
  P  P5  1  0.596142  0.000000  0.091114  1
  P  P6  1  0.422007  0.500000  0.898286  1
  P  P7  1  0.066545  0.500000  0.406173  1
  O  O8  1  0.855326  0.000000  0.449399  1
  O  O9  1  0.772120  0.204949  0.669360  1
  O  O10  1  0.772120  0.795051  0.669360  1
  O  O11  1  0.765670  0.500000  0.378136  1
  O  O12  1  0.724999  0.500000  0.881513  1
  O  O13  1  0.755226  0.192209  0.167546  1
  O  O14  1  0.755226  0.807791  0.167546  1
  O  O15  1  0.638504  0.000000  0.941703  1
  O  O16  1  0.370057  0.500000  0.052506  1
  O  O17  1  0.267221  0.697461  0.828415  1
  O  O18  1  0.267221  0.302539  0.828415  1
  O  O19  1  0.303531  0.000000  0.133262  1
  O  O20  1  0.217614  0.000000  0.618705  1
  O  O21  1  0.195115  0.708308  0.330946  1
  O  O22  1  0.195115  0.291692  0.330946  1
  O  O23  1  0.151501  0.500000  0.553073  1
