# generated using pymatgen
data_Na2NiPCO7
_symmetry_space_group_name_H-M   'P 1'
_cell_length_a   8.41318726
_cell_length_b   8.45412448
_cell_length_c   8.91174515
_cell_angle_alpha   90.96506025
_cell_angle_beta   91.65483058
_cell_angle_gamma   104.21347497
_symmetry_Int_Tables_number   1
_chemical_formula_structural   Na2NiPCO7
_chemical_formula_sum   'Na8 Ni4 P4 C4 O28'
_cell_volume   614.01042767
_cell_formula_units_Z   4
loop_
 _symmetry_equiv_pos_site_id
 _symmetry_equiv_pos_as_xyz
  1  'x, y, z'
loop_
 _atom_site_type_symbol
 _atom_site_label
 _atom_site_symmetry_multiplicity
 _atom_site_fract_x
 _atom_site_fract_y
 _atom_site_fract_z
 _atom_site_occupancy
  Na  Na0  1  0.886127  0.865734  0.264554  1
  Na  Na1  1  0.383088  0.375610  0.249772  1
  Na  Na2  1  0.615989  0.136794  0.266024  1
  Na  Na3  1  0.123263  0.633237  0.247361  1
  Na  Na4  1  0.892801  0.381208  0.738121  1
  Na  Na5  1  0.594175  0.630388  0.737444  1
  Na  Na6  1  0.129369  0.131112  0.744154  1
  Na  Na7  1  0.752738  0.018510  0.910679  1
  Ni  Ni8  1  0.985404  0.232841  0.348858  1
  Ni  Ni9  1  0.485321  0.737137  0.352488  1
  Ni  Ni10  1  0.021873  0.766340  0.652706  1
  Ni  Ni11  1  0.518268  0.262667  0.650963  1
  P  P12  1  0.766103  0.516842  0.423905  1
  P  P13  1  0.265127  0.013680  0.424954  1
  P  P14  1  0.735931  0.984061  0.577467  1
  P  P15  1  0.231075  0.479423  0.577021  1
  C  C16  1  0.521659  0.767734  0.079078  1
  C  C17  1  0.011249  0.261893  0.072650  1
  C  C18  1  0.980799  0.736403  0.925241  1
  C  C19  1  0.487481  0.235000  0.925527  1
  O  O20  1  0.961706  0.721812  0.064458  1
  O  O21  1  0.475627  0.222824  0.065471  1
  O  O22  1  0.406818  0.657829  0.139955  1
  O  O23  1  0.898336  0.150926  0.137548  1
  O  O24  1  0.616005  0.869504  0.176605  1
  O  O25  1  0.111671  0.362398  0.164450  1
  O  O26  1  0.322929  0.884928  0.329718  1
  O  O27  1  0.823085  0.386816  0.329951  1
  O  O28  1  0.636409  0.575532  0.327613  1
  O  O29  1  0.138988  0.073971  0.324369  1
  O  O30  1  0.806753  0.051396  0.426931  1
  O  O31  1  0.299227  0.553085  0.427038  1
  O  O32  1  0.916578  0.666737  0.459013  1
  O  O33  1  0.415595  0.163294  0.460080  1
  O  O34  1  0.589928  0.832865  0.540515  1
  O  O35  1  0.083563  0.326657  0.540475  1
  O  O36  1  0.191759  0.946980  0.574096  1
  O  O37  1  0.696236  0.448934  0.575780  1
  O  O38  1  0.862384  0.927255  0.680929  1
  O  O39  1  0.160372  0.596300  0.674589  1
  O  O40  1  0.682194  0.115854  0.673267  1
  O  O41  1  0.361366  0.421148  0.672276  1
  O  O42  1  0.885534  0.641431  0.824425  1
  O  O43  1  0.391038  0.138792  0.828169  1
  O  O44  1  0.602871  0.344557  0.863774  1
  O  O45  1  0.095041  0.848334  0.867962  1
  O  O46  1  0.543030  0.777220  0.940234  1
  O  O47  1  0.015161  0.263898  0.931016  1
