# generated using pymatgen
data_Li6MnFe3(PO4)6
_symmetry_space_group_name_H-M   'P 1'
_cell_length_a   8.51272245
_cell_length_b   8.53990888
_cell_length_c   8.68836139
_cell_angle_alpha   61.24253175
_cell_angle_beta   62.19147990
_cell_angle_gamma   62.09669454
_symmetry_Int_Tables_number   1
_chemical_formula_structural   Li6MnFe3(PO4)6
_chemical_formula_sum   'Li6 Mn1 Fe3 P6 O24'
_cell_volume   464.99168565
_cell_formula_units_Z   1
loop_
 _symmetry_equiv_pos_site_id
 _symmetry_equiv_pos_as_xyz
  1  'x, y, z'
loop_
 _atom_site_type_symbol
 _atom_site_label
 _atom_site_symmetry_multiplicity
 _atom_site_fract_x
 _atom_site_fract_y
 _atom_site_fract_z
 _atom_site_occupancy
  Li  Li0  1  0.989555  0.022419  0.015756  1
  Li  Li1  1  0.350904  0.753409  0.144776  1
  Li  Li2  1  0.494336  0.477378  0.503761  1
  Li  Li3  1  0.651144  0.241213  0.846356  1
  Li  Li4  1  0.841672  0.663680  0.254894  1
  Li  Li5  1  0.247541  0.839029  0.645409  1
  Mn  Mn6  1  0.857224  0.852282  0.849889  1
  Fe  Fe7  1  0.137065  0.145367  0.147960  1
  Fe  Fe8  1  0.352601  0.352524  0.364983  1
  Fe  Fe9  1  0.648484  0.648680  0.648353  1
  P  P10  1  0.451405  0.049099  0.753046  1
  P  P11  1  0.748187  0.452743  0.048314  1
  P  P12  1  0.054110  0.748714  0.448407  1
  P  P13  1  0.952160  0.248120  0.542799  1
  P  P14  1  0.249926  0.546411  0.960230  1
  P  P15  1  0.538472  0.955508  0.253528  1
  O  O16  1  0.483584  0.125381  0.306535  1
  O  O17  1  0.112919  0.304819  0.511764  1
  O  O18  1  0.270932  0.043073  0.920996  1
  O  O19  1  0.297129  0.533110  0.117443  1
  O  O20  1  0.429780  0.240945  0.596195  1
  O  O21  1  0.615285  0.018662  0.809881  1
  O  O22  1  0.908106  0.264531  0.066677  1
  O  O23  1  0.582049  0.450217  0.229430  1
  O  O24  1  0.247874  0.593319  0.421530  1
  O  O25  1  0.988309  0.196122  0.381291  1
  O  O26  1  0.935548  0.082012  0.734132  1
  O  O27  1  0.204200  0.372910  0.006257  1
  O  O28  1  0.805139  0.619330  0.012131  1
  O  O29  1  0.068199  0.905899  0.254864  1
  O  O30  1  0.031622  0.807431  0.600181  1
  O  O31  1  0.757995  0.404513  0.570273  1
  O  O32  1  0.407578  0.567018  0.769691  1
  O  O33  1  0.084860  0.735875  0.931013  1
  O  O34  1  0.383285  0.970739  0.197391  1
  O  O35  1  0.563078  0.763617  0.416929  1
  O  O36  1  0.691322  0.486965  0.886782  1
  O  O37  1  0.731767  0.942890  0.100578  1
  O  O38  1  0.891085  0.686084  0.488876  1
  O  O39  1  0.494564  0.887959  0.689698  1
