# generated using pymatgen
data_Li3Fe4(PO4)6
_symmetry_space_group_name_H-M   'P 1'
_cell_length_a   8.64030523
_cell_length_b   8.68119423
_cell_length_c   8.81867207
_cell_angle_alpha   60.60731953
_cell_angle_beta   60.72090652
_cell_angle_gamma   60.50050249
_symmetry_Int_Tables_number   1
_chemical_formula_structural   Li3Fe4(PO4)6
_chemical_formula_sum   'Li3 Fe4 P6 O24'
_cell_volume   474.16720748
_cell_formula_units_Z   1
loop_
 _symmetry_equiv_pos_site_id
 _symmetry_equiv_pos_as_xyz
  1  'x, y, z'
loop_
 _atom_site_type_symbol
 _atom_site_label
 _atom_site_symmetry_multiplicity
 _atom_site_fract_x
 _atom_site_fract_y
 _atom_site_fract_z
 _atom_site_occupancy
  Li  Li0  1  0.963940  0.828517  0.554823  1
  Li  Li1  1  0.636172  0.344571  0.050190  1
  Li  Li2  1  0.102541  0.295806  0.342945  1
  Fe  Fe3  1  0.151945  0.129206  0.070940  1
  Fe  Fe4  1  0.642551  0.642652  0.568939  1
  Fe  Fe5  1  0.849951  0.864136  0.933867  1
  Fe  Fe6  1  0.357083  0.363507  0.435426  1
  P  P7  1  0.249095  0.540727  0.741499  1
  P  P8  1  0.531538  0.959261  0.756024  1
  P  P9  1  0.472680  0.041494  0.241407  1
  P  P10  1  0.037348  0.745191  0.258512  1
  P  P11  1  0.755532  0.463689  0.255409  1
  P  P12  1  0.958012  0.244871  0.752541  1
  O  O13  1  0.994132  0.198848  0.928023  1
  O  O14  1  0.873104  0.708636  0.445731  1
  O  O15  1  0.235520  0.356282  0.898732  1
  O  O16  1  0.538874  0.791720  0.728157  1
  O  O17  1  0.273945  0.541235  0.555304  1
  O  O18  1  0.064446  0.907366  0.262561  1
  O  O19  1  0.380846  0.964090  0.943972  1
  O  O20  1  0.066598  0.709221  0.772170  1
  O  O21  1  0.414538  0.568661  0.740261  1
  O  O22  1  0.768613  0.413228  0.765248  1
  O  O23  1  0.729339  0.920687  0.749023  1
  O  O24  1  0.486080  0.147293  0.603330  1
  O  O25  1  0.505600  0.854363  0.399439  1
  O  O26  1  0.213808  0.566048  0.257753  1
  O  O27  1  0.277264  0.080785  0.241162  1
  O  O28  1  0.602535  0.417693  0.257108  1
  O  O29  1  0.628838  0.043273  0.053956  1
  O  O30  1  0.948553  0.307224  0.218451  1
  O  O31  1  0.942764  0.077338  0.747540  1
  O  O32  1  0.726533  0.466581  0.442072  1
  O  O33  1  0.455313  0.211164  0.272313  1
  O  O34  1  0.753898  0.653226  0.099689  1
  O  O35  1  0.115626  0.294351  0.568635  1
  O  O36  1  0.991299  0.797037  0.089493  1
