# generated using pymatgen
data_Na3BiBPO7
_symmetry_space_group_name_H-M   'P 1'
_cell_length_a   5.41038362
_cell_length_b   7.15139776
_cell_length_c   9.31541792
_cell_angle_alpha   90.00000000
_cell_angle_beta   91.07186822
_cell_angle_gamma   90.00000000
_symmetry_Int_Tables_number   1
_chemical_formula_structural   Na3BiBPO7
_chemical_formula_sum   'Na6 Bi2 B2 P2 O14'
_cell_volume   360.36726702
_cell_formula_units_Z   2
loop_
 _symmetry_equiv_pos_site_id
 _symmetry_equiv_pos_as_xyz
  1  'x, y, z'
loop_
 _atom_site_type_symbol
 _atom_site_label
 _atom_site_symmetry_multiplicity
 _atom_site_fract_x
 _atom_site_fract_y
 _atom_site_fract_z
 _atom_site_occupancy
  Na  Na0  1  0.757068  0.250000  0.070769  1
  Na  Na1  1  0.249091  0.007494  0.241730  1
  Na  Na2  1  0.249091  0.492506  0.241730  1
  Na  Na3  1  0.750909  0.507494  0.758270  1
  Na  Na4  1  0.750909  0.992506  0.758270  1
  Na  Na5  1  0.242932  0.750000  0.929231  1
  Bi  Bi6  1  0.770579  0.750000  0.347933  1
  Bi  Bi7  1  0.229421  0.250000  0.652067  1
  B  B8  1  0.733765  0.750000  0.057803  1
  B  B9  1  0.266235  0.250000  0.942197  1
  P  P10  1  0.703645  0.250000  0.403546  1
  P  P11  1  0.296355  0.750000  0.596454  1
  O  O12  1  0.283305  0.250000  0.085912  1
  O  O13  1  0.963506  0.750000  0.135397  1
  O  O14  1  0.523360  0.750000  0.147024  1
  O  O15  1  0.807080  0.077861  0.319869  1
  O  O16  1  0.807080  0.422139  0.319869  1
  O  O17  1  0.417846  0.250000  0.398169  1
  O  O18  1  0.211817  0.750000  0.434122  1
  O  O19  1  0.788183  0.250000  0.565878  1
  O  O20  1  0.582154  0.750000  0.601831  1
  O  O21  1  0.192920  0.577861  0.680131  1
  O  O22  1  0.192920  0.922139  0.680131  1
  O  O23  1  0.476640  0.250000  0.852976  1
  O  O24  1  0.036494  0.250000  0.864603  1
  O  O25  1  0.716695  0.750000  0.914088  1
