# generated using pymatgen
data_Li4Mn3V2Cu3O16
_symmetry_space_group_name_H-M   'P 1'
_cell_length_a   5.87680873
_cell_length_b   5.87680873
_cell_length_c   9.60741371
_cell_angle_alpha   88.51540438
_cell_angle_beta   91.48459562
_cell_angle_gamma   120.64887796
_symmetry_Int_Tables_number   1
_chemical_formula_structural   Li4Mn3V2Cu3O16
_chemical_formula_sum   'Li4 Mn3 V2 Cu3 O16'
_cell_volume   285.33176570
_cell_formula_units_Z   1
loop_
 _symmetry_equiv_pos_site_id
 _symmetry_equiv_pos_as_xyz
  1  'x, y, z'
loop_
 _atom_site_type_symbol
 _atom_site_label
 _atom_site_symmetry_multiplicity
 _atom_site_fract_x
 _atom_site_fract_y
 _atom_site_fract_z
 _atom_site_occupancy
  Li  Li0  1  0.671785  0.328215  0.098270  1
  Li  Li1  1  0.997668  0.002332  0.005334  1
  Li  Li2  1  0.000656  0.999344  0.513011  1
  Li  Li3  1  0.324318  0.675682  0.594585  1
  Mn  Mn4  1  0.824493  0.175507  0.781224  1
  Mn  Mn5  1  0.664282  0.832197  0.282879  1
  Mn  Mn6  1  0.167803  0.335718  0.282879  1
  V  V7  1  0.639023  0.360977  0.519378  1
  V  V8  1  0.333822  0.666178  0.006812  1
  Cu  Cu9  1  0.827007  0.665144  0.792591  1
  Cu  Cu10  1  0.334856  0.172993  0.792591  1
  Cu  Cu11  1  0.171097  0.828903  0.287072  1
  O  O12  1  0.821185  0.656938  0.410406  1
  O  O13  1  0.510251  0.489749  0.629065  1
  O  O14  1  0.667541  0.332459  0.886211  1
  O  O15  1  0.996201  0.003799  0.703737  1
  O  O16  1  0.002533  0.997467  0.193976  1
  O  O17  1  0.343062  0.178815  0.410406  1
  O  O18  1  0.956531  0.469212  0.653434  1
  O  O19  1  0.530788  0.043469  0.653434  1
  O  O20  1  0.178105  0.821895  0.936198  1
  O  O21  1  0.843513  0.156487  0.391209  1
  O  O22  1  0.506957  0.954115  0.150907  1
  O  O23  1  0.045885  0.493043  0.150907  1
  O  O24  1  0.337777  0.662223  0.384327  1
  O  O25  1  0.654766  0.837924  0.907084  1
  O  O26  1  0.485935  0.514065  0.166803  1
  O  O27  1  0.162076  0.345234  0.907084  1
