# generated using pymatgen
data_LiCr(PO3)3
_symmetry_space_group_name_H-M   'P 1'
_cell_length_a   6.59834311
_cell_length_b   6.84113438
_cell_length_c   7.42078168
_cell_angle_alpha   83.56951933
_cell_angle_beta   88.84840639
_cell_angle_gamma   83.35421392
_symmetry_Int_Tables_number   1
_chemical_formula_structural   LiCr(PO3)3
_chemical_formula_sum   'Li2 Cr2 P6 O18'
_cell_volume   330.62239528
_cell_formula_units_Z   2
loop_
 _symmetry_equiv_pos_site_id
 _symmetry_equiv_pos_as_xyz
  1  'x, y, z'
loop_
 _atom_site_type_symbol
 _atom_site_label
 _atom_site_symmetry_multiplicity
 _atom_site_fract_x
 _atom_site_fract_y
 _atom_site_fract_z
 _atom_site_occupancy
  Li  Li0  1  0.136860  0.545641  0.174171  1
  Li  Li1  1  0.863140  0.454359  0.825829  1
  Cr  Cr2  1  0.182459  0.072518  0.132025  1
  Cr  Cr3  1  0.817541  0.927482  0.867975  1
  P  P4  1  0.153523  0.222336  0.541408  1
  P  P5  1  0.315634  0.869436  0.770341  1
  P  P6  1  0.370364  0.423486  0.797109  1
  P  P7  1  0.629636  0.576514  0.202891  1
  P  P8  1  0.684366  0.130564  0.229659  1
  P  P9  1  0.846477  0.777664  0.458592  1
  O  O10  1  0.036600  0.735074  0.351431  1
  O  O11  1  0.148394  0.261291  0.336220  1
  O  O12  1  0.140325  0.899734  0.908534  1
  O  O13  1  0.196747  0.386101  0.927902  1
  O  O14  1  0.241822  0.989064  0.580084  1
  O  O15  1  0.337823  0.328881  0.609763  1
  O  O16  1  0.336327  0.655054  0.711132  1
  O  O17  1  0.412787  0.631046  0.149499  1
  O  O18  1  0.490870  0.063908  0.172525  1
  O  O19  1  0.509130  0.936092  0.827475  1
  O  O20  1  0.587213  0.368954  0.850501  1
  O  O21  1  0.663673  0.344946  0.288868  1
  O  O22  1  0.662177  0.671119  0.390237  1
  O  O23  1  0.758178  0.010936  0.419916  1
  O  O24  1  0.803253  0.613899  0.072098  1
  O  O25  1  0.859675  0.100266  0.091466  1
  O  O26  1  0.851606  0.738709  0.663780  1
  O  O27  1  0.963400  0.264926  0.648569  1
