# generated using pymatgen
data_Li4Fe5Ni3O16
_symmetry_space_group_name_H-M   'P 1'
_cell_length_a   5.86197561
_cell_length_b   5.86197561
_cell_length_c   9.45438503
_cell_angle_alpha   89.51246483
_cell_angle_beta   90.48753517
_cell_angle_gamma   120.39447676
_symmetry_Int_Tables_number   1
_chemical_formula_structural   Li4Fe5Ni3O16
_chemical_formula_sum   'Li4 Fe5 Ni3 O16'
_cell_volume   280.21473207
_cell_formula_units_Z   1
loop_
 _symmetry_equiv_pos_site_id
 _symmetry_equiv_pos_as_xyz
  1  'x, y, z'
loop_
 _atom_site_type_symbol
 _atom_site_label
 _atom_site_symmetry_multiplicity
 _atom_site_fract_x
 _atom_site_fract_y
 _atom_site_fract_z
 _atom_site_occupancy
  Li  Li0  1  0.664113  0.335887  0.892606  1
  Li  Li1  1  0.994537  0.005463  0.993337  1
  Li  Li2  1  0.998752  0.001248  0.496863  1
  Li  Li3  1  0.336204  0.663796  0.396327  1
  Fe  Fe4  1  0.339261  0.169531  0.214426  1
  Fe  Fe5  1  0.670130  0.329870  0.489376  1
  Fe  Fe6  1  0.830469  0.660739  0.214426  1
  Fe  Fe7  1  0.170548  0.829452  0.714860  1
  Fe  Fe8  1  0.332771  0.667229  0.987907  1
  Ni  Ni9  1  0.829327  0.170673  0.212110  1
  Ni  Ni10  1  0.169324  0.339890  0.713014  1
  Ni  Ni11  1  0.660110  0.830676  0.713014  1
  O  O12  1  0.333484  0.159952  0.600487  1
  O  O13  1  0.518967  0.481033  0.342647  1
  O  O14  1  0.666348  0.333652  0.103817  1
  O  O15  1  0.995977  0.004023  0.307552  1
  O  O16  1  0.995452  0.004548  0.804272  1
  O  O17  1  0.840048  0.666516  0.600487  1
  O  O18  1  0.519062  0.035582  0.343255  1
  O  O19  1  0.964418  0.480938  0.343255  1
  O  O20  1  0.163283  0.836717  0.098850  1
  O  O21  1  0.838702  0.161298  0.601156  1
  O  O22  1  0.035746  0.520655  0.841807  1
  O  O23  1  0.479345  0.964254  0.841807  1
  O  O24  1  0.337275  0.662725  0.608237  1
  O  O25  1  0.166543  0.333117  0.097804  1
  O  O26  1  0.478916  0.521084  0.836466  1
  O  O27  1  0.666883  0.833457  0.097804  1
