# generated using pymatgen
data_Dy2V2O7
_symmetry_space_group_name_H-M   'P 1'
_cell_length_a   5.83576022
_cell_length_b   5.83576022
_cell_length_c   5.24109911
_cell_angle_alpha   83.73985677
_cell_angle_beta   96.26014323
_cell_angle_gamma   70.56996433
_symmetry_Int_Tables_number   1
_chemical_formula_structural   Dy2V2O7
_chemical_formula_sum   'Dy2 V2 O7'
_cell_volume   165.29967497
_cell_formula_units_Z   1
loop_
 _symmetry_equiv_pos_site_id
 _symmetry_equiv_pos_as_xyz
  1  'x, y, z'
loop_
 _atom_site_type_symbol
 _atom_site_label
 _atom_site_symmetry_multiplicity
 _atom_site_fract_x
 _atom_site_fract_y
 _atom_site_fract_z
 _atom_site_occupancy
  Dy  Dy0  1  0.687876  0.687876  0.000000  1
  Dy  Dy1  1  0.312124  0.312124  0.000000  1
  V  V2  1  0.757271  0.242729  0.599524  1
  V  V3  1  0.242729  0.757271  0.400476  1
  O  O4  1  0.931812  0.390958  0.793783  1
  O  O5  1  0.609042  0.068188  0.793783  1
  O  O6  1  0.581790  0.418210  0.278035  1
  O  O7  1  0.418210  0.581790  0.721965  1
  O  O8  1  0.000000  0.000000  0.500000  1
  O  O9  1  0.390958  0.931812  0.206217  1
  O  O10  1  0.068188  0.609042  0.206217  1
