# generated using pymatgen
data_Na6CuO4
_symmetry_space_group_name_H-M   'P 1'
_cell_length_a   7.69573035
_cell_length_b   7.69573035
_cell_length_c   5.85500320
_cell_angle_alpha   89.02906876
_cell_angle_beta   90.97093124
_cell_angle_gamma   59.58760861
_symmetry_Int_Tables_number   1
_chemical_formula_structural   Na6CuO4
_chemical_formula_sum   'Na12 Cu2 O8'
_cell_volume   298.87183843
_cell_formula_units_Z   2
loop_
 _symmetry_equiv_pos_site_id
 _symmetry_equiv_pos_as_xyz
  1  'x, y, z'
loop_
 _atom_site_type_symbol
 _atom_site_label
 _atom_site_symmetry_multiplicity
 _atom_site_fract_x
 _atom_site_fract_y
 _atom_site_fract_z
 _atom_site_occupancy
  Na  Na0  1  0.355775  0.786472  0.536445  1
  Na  Na1  1  0.213528  0.644225  0.036445  1
  Na  Na2  1  0.031685  0.432470  0.870064  1
  Na  Na3  1  0.567530  0.968315  0.370064  1
  Na  Na4  1  0.958231  0.968731  0.368991  1
  Na  Na5  1  0.031269  0.041769  0.868991  1
  Na  Na6  1  0.638420  0.645471  0.035883  1
  Na  Na7  1  0.354529  0.361580  0.535883  1
  Na  Na8  1  0.422290  0.041866  0.876299  1
  Na  Na9  1  0.958134  0.577710  0.376299  1
  Na  Na10  1  0.780270  0.362375  0.535153  1
  Na  Na11  1  0.637625  0.219730  0.035153  1
  Cu  Cu12  1  0.159304  0.173485  0.263580  1
  Cu  Cu13  1  0.826515  0.840696  0.763580  1
  O  O14  1  0.871099  0.309785  0.151661  1
  O  O15  1  0.690215  0.128901  0.651661  1
  O  O16  1  0.157194  0.181855  0.599356  1
  O  O17  1  0.818145  0.842806  0.099356  1
  O  O18  1  0.691297  0.684742  0.651001  1
  O  O19  1  0.315258  0.308703  0.151001  1
  O  O20  1  0.118701  0.692667  0.640521  1
  O  O21  1  0.307333  0.881299  0.140521  1
