# generated using pymatgen
data_UGeO4
_symmetry_space_group_name_H-M   'P 1'
_cell_length_a   6.66520799
_cell_length_b   6.66520799
_cell_length_c   6.66520799
_cell_angle_alpha   134.64666963
_cell_angle_beta   134.64666963
_cell_angle_gamma   66.07969358
_symmetry_Int_Tables_number   1
_chemical_formula_structural   UGeO4
_chemical_formula_sum   'U2 Ge2 O8'
_cell_volume   147.57514807
_cell_formula_units_Z   2
loop_
 _symmetry_equiv_pos_site_id
 _symmetry_equiv_pos_as_xyz
  1  'x, y, z'
loop_
 _atom_site_type_symbol
 _atom_site_label
 _atom_site_symmetry_multiplicity
 _atom_site_fract_x
 _atom_site_fract_y
 _atom_site_fract_z
 _atom_site_occupancy
  U  U0  1  0.000000  0.000000  0.000000  1
  U  U1  1  0.750000  0.250000  0.500000  1
  Ge  Ge2  1  0.500000  0.500000  0.000000  1
  Ge  Ge3  1  0.250000  0.750000  0.500000  1
  O  O4  1  0.326695  0.925622  0.915225  1
  O  O5  1  0.675622  0.260397  0.098927  1
  O  O6  1  0.161470  0.576695  0.901073  1
  O  O7  1  0.010397  0.411470  0.084775  1
  O  O8  1  0.739603  0.838530  0.415225  1
  O  O9  1  0.588530  0.673305  0.598927  1
  O  O10  1  0.074378  0.989603  0.401073  1
  O  O11  1  0.423305  0.324378  0.584775  1
