# generated using pymatgen
data_Mn2O2F3
_symmetry_space_group_name_H-M   'P 1'
_cell_length_a   5.55561491
_cell_length_b   5.55561491
_cell_length_c   6.93381883
_cell_angle_alpha   73.05685994
_cell_angle_beta   106.94314006
_cell_angle_gamma   125.95008798
_symmetry_Int_Tables_number   1
_chemical_formula_structural   Mn2O2F3
_chemical_formula_sum   'Mn4 O4 F6'
_cell_volume   163.71525377
_cell_formula_units_Z   2
loop_
 _symmetry_equiv_pos_site_id
 _symmetry_equiv_pos_as_xyz
  1  'x, y, z'
loop_
 _atom_site_type_symbol
 _atom_site_label
 _atom_site_symmetry_multiplicity
 _atom_site_fract_x
 _atom_site_fract_y
 _atom_site_fract_z
 _atom_site_occupancy
  Mn  Mn0  1  0.689199  0.294414  0.383135  1
  Mn  Mn1  1  0.705586  0.310801  0.883135  1
  Mn  Mn2  1  0.294414  0.689199  0.116865  1
  Mn  Mn3  1  0.310801  0.705586  0.616865  1
  O  O4  1  0.467658  0.877330  0.362943  1
  O  O5  1  0.877330  0.467658  0.137057  1
  O  O6  1  0.122670  0.532342  0.862943  1
  O  O7  1  0.532342  0.122670  0.637057  1
  F  F8  1  0.309742  0.067548  0.961700  1
  F  F9  1  0.932452  0.690258  0.461700  1
  F  F10  1  0.621911  0.621911  0.750000  1
  F  F11  1  0.378089  0.378089  0.250000  1
  F  F12  1  0.067548  0.309742  0.538300  1
  F  F13  1  0.690258  0.932452  0.038300  1
