# generated using pymatgen
data_Li6Fe3Co7O20
_symmetry_space_group_name_H-M   'P 1'
_cell_length_a   5.89634007
_cell_length_b   2.87608691
_cell_length_c   20.70436929
_cell_angle_alpha   90.00000000
_cell_angle_beta   95.70069535
_cell_angle_gamma   90.00000000
_symmetry_Int_Tables_number   1
_chemical_formula_structural   Li6Fe3Co7O20
_chemical_formula_sum   'Li6 Fe3 Co7 O20'
_cell_volume   349.37622080
_cell_formula_units_Z   1
loop_
 _symmetry_equiv_pos_site_id
 _symmetry_equiv_pos_as_xyz
  1  'x, y, z'
loop_
 _atom_site_type_symbol
 _atom_site_label
 _atom_site_symmetry_multiplicity
 _atom_site_fract_x
 _atom_site_fract_y
 _atom_site_fract_z
 _atom_site_occupancy
  Li  Li0  1  0.000000  0.500000  0.500000  1
  Li  Li1  1  0.643225  0.500000  0.685399  1
  Li  Li2  1  0.399210  0.000000  0.803981  1
  Li  Li3  1  0.000000  0.000000  0.000000  1
  Li  Li4  1  0.600790  0.000000  0.196019  1
  Li  Li5  1  0.356775  0.500000  0.314601  1
  Fe  Fe6  1  0.921108  0.000000  0.800378  1
  Fe  Fe7  1  0.500000  0.000000  0.000000  1
  Fe  Fe8  1  0.078892  0.000000  0.199622  1
  Co  Co9  1  0.698168  0.000000  0.401773  1
  Co  Co10  1  0.500000  0.500000  0.500000  1
  Co  Co11  1  0.301832  0.000000  0.598227  1
  Co  Co12  1  0.106558  0.500000  0.695791  1
  Co  Co13  1  0.703444  0.500000  0.899088  1
  Co  Co14  1  0.296556  0.500000  0.100912  1
  Co  Co15  1  0.893442  0.500000  0.304209  1
  O  O16  1  0.490732  0.500000  0.407322  1
  O  O17  1  0.717217  0.000000  0.492641  1
  O  O18  1  0.282783  0.000000  0.507359  1
  O  O19  1  0.094582  0.500000  0.602554  1
  O  O20  1  0.509268  0.500000  0.592678  1
  O  O21  1  0.885709  0.000000  0.702242  1
  O  O22  1  0.324874  0.000000  0.689752  1
  O  O23  1  0.150352  0.500000  0.789393  1
  O  O24  1  0.677380  0.500000  0.806983  1
  O  O25  1  0.912223  0.000000  0.898519  1
  O  O26  1  0.493800  0.000000  0.901180  1
  O  O27  1  0.733646  0.500000  0.990467  1
  O  O28  1  0.266354  0.500000  0.009533  1
  O  O29  1  0.087777  0.000000  0.101481  1
  O  O30  1  0.506200  0.000000  0.098820  1
  O  O31  1  0.849648  0.500000  0.210607  1
  O  O32  1  0.322620  0.500000  0.193017  1
  O  O33  1  0.114291  0.000000  0.297758  1
  O  O34  1  0.675126  0.000000  0.310248  1
  O  O35  1  0.905418  0.500000  0.397446  1
