# generated using pymatgen
data_AlH20C2S2NO14
_symmetry_space_group_name_H-M   'P 1'
_cell_length_a   6.47439849
_cell_length_b   10.76436994
_cell_length_c   12.08384383
_cell_angle_alpha   90.00000000
_cell_angle_beta   112.35087393
_cell_angle_gamma   90.00000000
_symmetry_Int_Tables_number   1
_chemical_formula_structural   AlH20C2S2NO14
_chemical_formula_sum   'Al2 H40 C4 S4 N2 O28'
_cell_volume   778.88793622
_cell_formula_units_Z   2
loop_
 _symmetry_equiv_pos_site_id
 _symmetry_equiv_pos_as_xyz
  1  'x, y, z'
loop_
 _atom_site_type_symbol
 _atom_site_label
 _atom_site_symmetry_multiplicity
 _atom_site_fract_x
 _atom_site_fract_y
 _atom_site_fract_z
 _atom_site_occupancy
  Al  Al0  1  0.505701  0.748264  0.507258  1
  Al  Al1  1  0.505701  0.251736  0.007258  1
  H  H2  1  0.100177  0.695391  0.916094  1
  H  H3  1  0.100177  0.304609  0.416094  1
  H  H4  1  0.033892  0.848743  0.912228  1
  H  H5  1  0.033892  0.151257  0.412228  1
  H  H6  1  0.691478  0.720983  0.354337  1
  H  H7  1  0.691478  0.279017  0.854337  1
  H  H8  1  0.536082  0.597177  0.342050  1
  H  H9  1  0.536082  0.402823  0.842050  1
  H  H10  1  0.329979  0.781111  0.665531  1
  H  H11  1  0.329979  0.218889  0.165531  1
  H  H12  1  0.501565  0.897171  0.681140  1
  H  H13  1  0.501565  0.102829  0.181140  1
  H  H14  1  0.081045  0.730560  0.386305  1
  H  H15  1  0.081045  0.269440  0.886305  1
  H  H16  1  0.191214  0.591868  0.409661  1
  H  H17  1  0.191214  0.408132  0.909661  1
  H  H18  1  0.931046  0.772031  0.626389  1
  H  H19  1  0.931046  0.227969  0.126389  1
  H  H20  1  0.811904  0.908782  0.599148  1
  H  H21  1  0.811904  0.091218  0.099148  1
  H  H22  1  0.747302  0.561392  0.618433  1
  H  H23  1  0.747302  0.438608  0.118433  1
  H  H24  1  0.520132  0.569461  0.651616  1
  H  H25  1  0.520132  0.430539  0.151616  1
  H  H26  1  0.266715  0.935742  0.390626  1
  H  H27  1  0.266715  0.064258  0.890626  1
  H  H28  1  0.495393  0.927523  0.360927  1
  H  H29  1  0.495393  0.072477  0.860927  1
  H  H30  1  0.361937  0.813889  0.083455  1
  H  H31  1  0.361937  0.186111  0.583455  1
  H  H32  1  0.228573  0.687159  0.127912  1
  H  H33  1  0.228573  0.312841  0.627912  1
  H  H34  1  0.132559  0.842138  0.130291  1
  H  H35  1  0.132559  0.157862  0.630291  1
  H  H36  1  0.824628  0.641406  0.994651  1
  H  H37  1  0.824628  0.358594  0.494651  1
  H  H38  1  0.757391  0.802625  0.995660  1
  H  H39  1  0.757391  0.197375  0.495660  1
  H  H40  1  0.703997  0.723805  0.854994  1
  H  H41  1  0.703997  0.276195  0.354994  1
  C  C42  1  0.203832  0.778037  0.083983  1
  C  C43  1  0.203832  0.221963  0.583983  1
  C  C44  1  0.814214  0.730641  0.949716  1
  C  C45  1  0.814214  0.269359  0.449716  1
  S  S46  1  0.182319  0.427632  0.242515  1
  S  S47  1  0.182319  0.572368  0.742515  1
  S  S48  1  0.831969  0.934699  0.270046  1
  S  S49  1  0.831969  0.065301  0.770046  1
  N  N50  1  0.042605  0.764871  0.957851  1
  N  N51  1  0.042605  0.235129  0.457851  1
  O  O52  1  0.601898  0.672211  0.391234  1
  O  O53  1  0.601898  0.327789  0.891234  1
  O  O54  1  0.423110  0.825837  0.627980  1
  O  O55  1  0.423110  0.174163  0.127980  1
  O  O56  1  0.212897  0.680572  0.439211  1
  O  O57  1  0.212897  0.319428  0.939211  1
  O  O58  1  0.795487  0.818518  0.573203  1
  O  O59  1  0.795487  0.181482  0.073203  1
  O  O60  1  0.594011  0.600112  0.597453  1
  O  O61  1  0.594011  0.399888  0.097453  1
  O  O62  1  0.417156  0.894060  0.411995  1
  O  O63  1  0.417156  0.105940  0.911995  1
  O  O64  1  0.170903  0.289003  0.221815  1
  O  O65  1  0.170903  0.710997  0.721815  1
  O  O66  1  0.172493  0.449532  0.362672  1
  O  O67  1  0.172493  0.550468  0.862672  1
  O  O68  1  0.400036  0.476438  0.243595  1
  O  O69  1  0.400036  0.523562  0.743595  1
  O  O70  1  0.993108  0.489084  0.147335  1
  O  O71  1  0.993108  0.510916  0.647335  1
  O  O72  1  0.847357  0.798922  0.298983  1
  O  O73  1  0.847357  0.201078  0.798983  1
  O  O74  1  0.623048  0.987466  0.277748  1
  O  O75  1  0.623048  0.012534  0.777748  1
  O  O76  1  0.826638  0.952651  0.147608  1
  O  O77  1  0.826638  0.047349  0.647608  1
  O  O78  1  0.030510  0.999498  0.359451  1
  O  O79  1  0.030510  0.000502  0.859451  1
