# generated using pymatgen
data_V6O5F19
_symmetry_space_group_name_H-M   'P 1'
_cell_length_a   5.36934097
_cell_length_b   5.50306520
_cell_length_c   15.13682988
_cell_angle_alpha   100.29694905
_cell_angle_beta   89.94513749
_cell_angle_gamma   90.68651327
_symmetry_Int_Tables_number   1
_chemical_formula_structural   V6O5F19
_chemical_formula_sum   'V6 O5 F19'
_cell_volume   440.02529295
_cell_formula_units_Z   1
loop_
 _symmetry_equiv_pos_site_id
 _symmetry_equiv_pos_as_xyz
  1  'x, y, z'
loop_
 _atom_site_type_symbol
 _atom_site_label
 _atom_site_symmetry_multiplicity
 _atom_site_fract_x
 _atom_site_fract_y
 _atom_site_fract_z
 _atom_site_occupancy
  V  V0  1  0.951155  0.979275  0.004160  1
  V  V1  1  0.507200  0.812898  0.667147  1
  V  V2  1  0.975140  0.732491  0.336247  1
  V  V3  1  0.449378  0.522908  0.995706  1
  V  V4  1  0.028132  0.282479  0.664341  1
  V  V5  1  0.520696  0.229605  0.335289  1
  O  O6  1  0.806893  0.985017  0.359647  1
  O  O7  1  0.734628  0.770792  0.017368  1
  O  O8  1  0.693483  0.483874  0.357913  1
  O  O9  1  0.233657  0.726762  0.982773  1
  O  O10  1  0.205979  0.037141  0.645099  1
  F  F11  1  0.275190  0.849557  0.307156  1
  F  F12  1  0.952647  0.958103  0.886109  1
  F  F13  1  0.567273  0.805561  0.551710  1
  F  F14  1  0.903064  0.606109  0.223429  1
  F  F15  1  0.407141  0.886567  0.779944  1
  F  F16  1  0.074853  0.678249  0.442509  1
  F  F17  1  0.453674  0.540694  0.113597  1
  F  F18  1  0.784592  0.638828  0.689826  1
  F  F19  1  0.772788  0.262071  0.020038  1
  F  F20  1  0.298604  0.514779  0.642182  1
  F  F21  1  0.226026  0.346818  0.305783  1
  F  F22  1  0.580009  0.441361  0.886785  1
  F  F23  1  0.916641  0.306142  0.556585  1
  F  F24  1  0.597301  0.098929  0.223499  1
  F  F25  1  0.077326  0.402706  0.778946  1
  F  F26  1  0.423588  0.180885  0.442602  1
  F  F27  1  0.083757  0.059626  0.112900  1
  F  F28  1  0.726470  0.126526  0.691005  1
  F  F29  1  0.272715  0.233250  0.979706  1
