# generated using pymatgen
data_VH8C2N2O6F
_symmetry_space_group_name_H-M   'P 1'
_cell_length_a   7.29852291
_cell_length_b   9.58382410
_cell_length_c   11.44350965
_cell_angle_alpha   90.00000000
_cell_angle_beta   95.02434682
_cell_angle_gamma   90.00000000
_symmetry_Int_Tables_number   1
_chemical_formula_structural   VH8C2N2O6F
_chemical_formula_sum   'V4 H32 C8 N8 O24 F4'
_cell_volume   797.37220171
_cell_formula_units_Z   4
loop_
 _symmetry_equiv_pos_site_id
 _symmetry_equiv_pos_as_xyz
  1  'x, y, z'
loop_
 _atom_site_type_symbol
 _atom_site_label
 _atom_site_symmetry_multiplicity
 _atom_site_fract_x
 _atom_site_fract_y
 _atom_site_fract_z
 _atom_site_occupancy
  V  V0  1  0.347083  0.531782  0.263370  1
  V  V1  1  0.152917  0.031782  0.736630  1
  V  V2  1  0.652917  0.468218  0.736630  1
  V  V3  1  0.847083  0.968218  0.263370  1
  H  H4  1  0.362190  0.960790  0.165222  1
  H  H5  1  0.137810  0.460790  0.834778  1
  H  H6  1  0.637810  0.039210  0.834778  1
  H  H7  1  0.862190  0.539210  0.165222  1
  H  H8  1  0.252616  0.804191  0.135991  1
  H  H9  1  0.247384  0.304191  0.864009  1
  H  H10  1  0.747384  0.195809  0.864009  1
  H  H11  1  0.752616  0.695809  0.135991  1
  H  H12  1  0.155563  0.957509  0.091407  1
  H  H13  1  0.344437  0.457509  0.908593  1
  H  H14  1  0.844437  0.042491  0.908593  1
  H  H15  1  0.655563  0.542491  0.091407  1
  H  H16  1  0.341769  0.895718  0.027996  1
  H  H17  1  0.158231  0.395718  0.972004  1
  H  H18  1  0.658231  0.104282  0.972004  1
  H  H19  1  0.841769  0.604282  0.027996  1
  H  H20  1  0.257842  0.879907  0.386641  1
  H  H21  1  0.242158  0.379907  0.613359  1
  H  H22  1  0.742158  0.120093  0.613359  1
  H  H23  1  0.757842  0.620093  0.386641  1
  H  H24  1  0.349270  0.739496  0.454854  1
  H  H25  1  0.150730  0.239496  0.545146  1
  H  H26  1  0.650730  0.260504  0.545146  1
  H  H27  1  0.849270  0.760504  0.454854  1
  H  H28  1  0.491868  0.869142  0.417817  1
  H  H29  1  0.008132  0.369142  0.582183  1
  H  H30  1  0.508132  0.130858  0.582183  1
  H  H31  1  0.991868  0.630858  0.417817  1
  H  H32  1  0.349943  0.894207  0.525782  1
  H  H33  1  0.150057  0.394207  0.474218  1
  H  H34  1  0.650057  0.105793  0.474218  1
  H  H35  1  0.849943  0.605793  0.525782  1
  C  C36  1  0.049817  0.774275  0.844393  1
  C  C37  1  0.450183  0.274275  0.155607  1
  C  C38  1  0.950183  0.225725  0.155607  1
  C  C39  1  0.549817  0.725725  0.844393  1
  C  C40  1  0.123761  0.730577  0.726526  1
  C  C41  1  0.376239  0.230577  0.273474  1
  C  C42  1  0.876239  0.269423  0.273474  1
  C  C43  1  0.623761  0.769423  0.726526  1
  N  N44  1  0.278404  0.904377  0.104834  1
  N  N45  1  0.221596  0.404377  0.895166  1
  N  N46  1  0.721596  0.095623  0.895166  1
  N  N47  1  0.778404  0.595623  0.104834  1
  N  N48  1  0.364543  0.846050  0.446584  1
  N  N49  1  0.135457  0.346050  0.553416  1
  N  N50  1  0.635457  0.153950  0.553416  1
  N  N51  1  0.864543  0.653950  0.446584  1
  O  O52  1  0.205320  0.617219  0.167538  1
  O  O53  1  0.294680  0.117219  0.832462  1
  O  O54  1  0.794680  0.382781  0.832462  1
  O  O55  1  0.705320  0.882781  0.167538  1
  O  O56  1  0.036047  0.873588  0.292190  1
  O  O57  1  0.463953  0.373588  0.707810  1
  O  O58  1  0.963953  0.126412  0.707810  1
  O  O59  1  0.536047  0.626412  0.292190  1
  O  O60  1  0.051480  0.909167  0.859819  1
  O  O61  1  0.448520  0.409167  0.140181  1
  O  O62  1  0.948520  0.090833  0.140181  1
  O  O63  1  0.551480  0.590833  0.859819  1
  O  O64  1  0.172442  0.837391  0.665902  1
  O  O65  1  0.327558  0.337391  0.334098  1
  O  O66  1  0.827558  0.162609  0.334098  1
  O  O67  1  0.672442  0.662609  0.665902  1
  O  O68  1  0.494829  0.813069  0.912896  1
  O  O69  1  0.005171  0.313069  0.087104  1
  O  O70  1  0.505171  0.186931  0.087104  1
  O  O71  1  0.994829  0.686931  0.912896  1
  O  O72  1  0.131298  0.607041  0.696419  1
  O  O73  1  0.368702  0.107041  0.303581  1
  O  O74  1  0.868702  0.392959  0.303581  1
  O  O75  1  0.631298  0.892959  0.696419  1
  F  F76  1  0.229228  0.574222  0.403193  1
  F  F77  1  0.270772  0.074222  0.596807  1
  F  F78  1  0.770772  0.425778  0.596807  1
  F  F79  1  0.729228  0.925778  0.403193  1
