# generated using pymatgen
data_CaH4NClO5
_symmetry_space_group_name_H-M   'P 1'
_cell_length_a   6.72120843
_cell_length_b   9.14581509
_cell_length_c   19.97831450
_cell_angle_alpha   90.00000000
_cell_angle_beta   90.00000000
_cell_angle_gamma   90.00000000
_symmetry_Int_Tables_number   1
_chemical_formula_structural   CaH4NClO5
_chemical_formula_sum   'Ca8 H32 N8 Cl8 O40'
_cell_volume   1228.08556180
_cell_formula_units_Z   8
loop_
 _symmetry_equiv_pos_site_id
 _symmetry_equiv_pos_as_xyz
  1  'x, y, z'
loop_
 _atom_site_type_symbol
 _atom_site_label
 _atom_site_symmetry_multiplicity
 _atom_site_fract_x
 _atom_site_fract_y
 _atom_site_fract_z
 _atom_site_occupancy
  Ca  Ca0  1  0.547450  0.945852  0.344247  1
  Ca  Ca1  1  0.952550  0.445852  0.655753  1
  Ca  Ca2  1  0.047450  0.054148  0.155753  1
  Ca  Ca3  1  0.452550  0.554148  0.844247  1
  Ca  Ca4  1  0.452550  0.054148  0.655753  1
  Ca  Ca5  1  0.047450  0.554148  0.344247  1
  Ca  Ca6  1  0.952550  0.945852  0.844247  1
  Ca  Ca7  1  0.547450  0.445852  0.155753  1
  H  H8  1  0.741067  0.211375  0.401901  1
  H  H9  1  0.758933  0.711375  0.598099  1
  H  H10  1  0.241067  0.788625  0.098099  1
  H  H11  1  0.258933  0.288625  0.901901  1
  H  H12  1  0.258933  0.788625  0.598099  1
  H  H13  1  0.241067  0.288625  0.401901  1
  H  H14  1  0.758933  0.211375  0.901901  1
  H  H15  1  0.741067  0.711375  0.098099  1
  H  H16  1  0.895431  0.082949  0.411652  1
  H  H17  1  0.604569  0.582949  0.588348  1
  H  H18  1  0.395431  0.917051  0.088348  1
  H  H19  1  0.104569  0.417051  0.911652  1
  H  H20  1  0.104569  0.917051  0.588348  1
  H  H21  1  0.395431  0.417051  0.411652  1
  H  H22  1  0.604569  0.082949  0.911652  1
  H  H23  1  0.895431  0.582949  0.088348  1
  H  H24  1  0.651515  0.703978  0.445196  1
  H  H25  1  0.848485  0.203978  0.554804  1
  H  H26  1  0.151515  0.296022  0.054804  1
  H  H27  1  0.348485  0.796022  0.945196  1
  H  H28  1  0.348485  0.296022  0.554804  1
  H  H29  1  0.151515  0.796022  0.445196  1
  H  H30  1  0.848485  0.703978  0.945196  1
  H  H31  1  0.651515  0.203978  0.054804  1
  H  H32  1  0.632058  0.854711  0.483658  1
  H  H33  1  0.867942  0.354711  0.516342  1
  H  H34  1  0.132058  0.145289  0.016342  1
  H  H35  1  0.367942  0.645289  0.983658  1
  H  H36  1  0.367942  0.145289  0.516342  1
  H  H37  1  0.132058  0.645289  0.483658  1
  H  H38  1  0.867942  0.854711  0.983658  1
  H  H39  1  0.632058  0.354711  0.016342  1
  N  N40  1  0.901988  0.847578  0.263416  1
  N  N41  1  0.598012  0.347578  0.736584  1
  N  N42  1  0.401988  0.152422  0.236584  1
  N  N43  1  0.098012  0.652422  0.763416  1
  N  N44  1  0.098012  0.152422  0.736584  1
  N  N45  1  0.401988  0.652422  0.263416  1
  N  N46  1  0.598012  0.847578  0.763416  1
  N  N47  1  0.901988  0.347578  0.236584  1
  Cl  Cl48  1  0.226290  0.045791  0.418505  1
  Cl  Cl49  1  0.273710  0.545791  0.581495  1
  Cl  Cl50  1  0.726290  0.954209  0.081495  1
  Cl  Cl51  1  0.773710  0.454209  0.918505  1
  Cl  Cl52  1  0.773710  0.954209  0.581495  1
  Cl  Cl53  1  0.726290  0.454209  0.418505  1
  Cl  Cl54  1  0.273710  0.045791  0.918505  1
  Cl  Cl55  1  0.226290  0.545791  0.081495  1
  O  O56  1  0.819780  0.971245  0.252839  1
  O  O57  1  0.680220  0.471245  0.747161  1
  O  O58  1  0.319780  0.028755  0.247161  1
  O  O59  1  0.180220  0.528755  0.752839  1
  O  O60  1  0.180220  0.028755  0.747161  1
  O  O61  1  0.319780  0.528755  0.252839  1
  O  O62  1  0.680220  0.971245  0.752839  1
  O  O63  1  0.819780  0.471245  0.247161  1
  O  O64  1  0.026152  0.797995  0.222868  1
  O  O65  1  0.473848  0.297995  0.777132  1
  O  O66  1  0.526152  0.202005  0.277132  1
  O  O67  1  0.973848  0.702005  0.722868  1
  O  O68  1  0.973848  0.202005  0.777132  1
  O  O69  1  0.526152  0.702005  0.222868  1
  O  O70  1  0.473848  0.797995  0.722868  1
  O  O71  1  0.026152  0.297995  0.277132  1
  O  O72  1  0.852858  0.778252  0.316304  1
  O  O73  1  0.647142  0.278252  0.683696  1
  O  O74  1  0.352858  0.221748  0.183696  1
  O  O75  1  0.147142  0.721748  0.816304  1
  O  O76  1  0.147142  0.221748  0.683696  1
  O  O77  1  0.352858  0.721748  0.316304  1
  O  O78  1  0.647142  0.778252  0.816304  1
  O  O79  1  0.852858  0.278252  0.183696  1
  O  O80  1  0.754620  0.104337  0.402776  1
  O  O81  1  0.745380  0.604337  0.597224  1
  O  O82  1  0.254620  0.895663  0.097224  1
  O  O83  1  0.245380  0.395663  0.902776  1
  O  O84  1  0.245380  0.895663  0.597224  1
  O  O85  1  0.254620  0.395663  0.402776  1
  O  O86  1  0.745380  0.104337  0.902776  1
  O  O87  1  0.754620  0.604337  0.097224  1
  O  O88  1  0.596768  0.803838  0.441822  1
  O  O89  1  0.903232  0.303838  0.558178  1
  O  O90  1  0.096768  0.196162  0.058178  1
  O  O91  1  0.403232  0.696162  0.941822  1
  O  O92  1  0.403232  0.196162  0.558178  1
  O  O93  1  0.096768  0.696162  0.441822  1
  O  O94  1  0.903232  0.803838  0.941822  1
  O  O95  1  0.596768  0.303838  0.058178  1
