# generated using pymatgen
data_Li3Mn4(BO3)4
_symmetry_space_group_name_H-M   'P 1'
_cell_length_a   5.89372378
_cell_length_b   9.07375311
_cell_length_c   9.84392876
_cell_angle_alpha   81.82087222
_cell_angle_beta   80.15443604
_cell_angle_gamma   77.22773115
_symmetry_Int_Tables_number   1
_chemical_formula_structural   Li3Mn4(BO3)4
_chemical_formula_sum   'Li6 Mn8 B8 O24'
_cell_volume   502.84996689
_cell_formula_units_Z   2
loop_
 _symmetry_equiv_pos_site_id
 _symmetry_equiv_pos_as_xyz
  1  'x, y, z'
loop_
 _atom_site_type_symbol
 _atom_site_label
 _atom_site_symmetry_multiplicity
 _atom_site_fract_x
 _atom_site_fract_y
 _atom_site_fract_z
 _atom_site_occupancy
  Li  Li0  1  0.575392  0.218218  0.585103  1
  Li  Li1  1  0.644423  0.280606  0.170164  1
  Li  Li2  1  0.355577  0.719394  0.829836  1
  Li  Li3  1  0.424608  0.781782  0.414897  1
  Li  Li4  1  0.102276  0.216333  0.086623  1
  Li  Li5  1  0.897724  0.783667  0.913377  1
  Mn  Mn6  1  0.663583  0.556360  0.595325  1
  Mn  Mn7  1  0.858439  0.448932  0.888515  1
  Mn  Mn8  1  0.604307  0.938667  0.144261  1
  Mn  Mn9  1  0.336417  0.443640  0.404675  1
  Mn  Mn10  1  0.395693  0.061333  0.855739  1
  Mn  Mn11  1  0.141561  0.551068  0.111485  1
  Mn  Mn12  1  0.900050  0.034482  0.354622  1
  Mn  Mn13  1  0.099950  0.965518  0.645378  1
  B  B14  1  0.858451  0.114400  0.911107  1
  B  B15  1  0.599202  0.614990  0.151783  1
  B  B16  1  0.641939  0.889533  0.605045  1
  B  B17  1  0.358061  0.110467  0.394955  1
  B  B18  1  0.400798  0.385010  0.848217  1
  B  B19  1  0.112915  0.624870  0.648784  1
  B  B20  1  0.141549  0.885600  0.088893  1
  B  B21  1  0.887085  0.375130  0.351216  1
  O  O22  1  0.783609  0.610230  0.040162  1
  O  O23  1  0.695403  0.391925  0.459434  1
  O  O24  1  0.762941  0.009937  0.568179  1
  O  O25  1  0.810947  0.232964  0.989867  1
  O  O26  1  0.529742  0.736559  0.227800  1
  O  O27  1  0.685324  0.774840  0.521946  1
  O  O28  1  0.718975  0.002305  0.933062  1
  O  O29  1  0.483809  0.492422  0.188167  1
  O  O30  1  0.530387  0.105417  0.279255  1
  O  O31  1  0.304597  0.608075  0.540566  1
  O  O32  1  0.516191  0.507578  0.811833  1
  O  O33  1  0.314676  0.225160  0.478054  1
  O  O34  1  0.470258  0.263441  0.772200  1
  O  O35  1  0.237059  0.990063  0.431821  1
  O  O36  1  0.469613  0.894583  0.720745  1
  O  O37  1  0.216391  0.389770  0.959838  1
  O  O38  1  0.281025  0.997695  0.066938  1
  O  O39  1  0.027309  0.483777  0.323778  1
  O  O40  1  0.072551  0.741127  0.731210  1
  O  O41  1  0.189053  0.767036  0.010133  1
  O  O42  1  0.927449  0.258873  0.268790  1
  O  O43  1  0.972691  0.516223  0.676222  1
  O  O44  1  0.058094  0.089303  0.813055  1
  O  O45  1  0.941906  0.910697  0.186945  1
