# generated using pymatgen
data_Ba3LiTi5(SbO7)3
_symmetry_space_group_name_H-M   'P 1'
_cell_length_a   9.17870647
_cell_length_b   9.17870647
_cell_length_c   11.79944146
_cell_angle_alpha   90.00000000
_cell_angle_beta   90.00000000
_cell_angle_gamma   120.13423306
_symmetry_Int_Tables_number   1
_chemical_formula_structural   Ba3LiTi5(SbO7)3
_chemical_formula_sum   'Ba6 Li2 Ti10 Sb6 O42'
_cell_volume   859.73779399
_cell_formula_units_Z   2
loop_
 _symmetry_equiv_pos_site_id
 _symmetry_equiv_pos_as_xyz
  1  'x, y, z'
loop_
 _atom_site_type_symbol
 _atom_site_label
 _atom_site_symmetry_multiplicity
 _atom_site_fract_x
 _atom_site_fract_y
 _atom_site_fract_z
 _atom_site_occupancy
  Ba  Ba0  1  0.404723  0.998472  0.749900  1
  Ba  Ba1  1  0.595277  0.001528  0.249900  1
  Ba  Ba2  1  0.998472  0.404723  0.749900  1
  Ba  Ba3  1  0.001528  0.595277  0.249900  1
  Ba  Ba4  1  0.401604  0.401604  0.251817  1
  Ba  Ba5  1  0.598396  0.598396  0.751817  1
  Li  Li6  1  0.996947  0.996947  0.754788  1
  Li  Li7  1  0.003053  0.003053  0.254788  1
  Ti  Ti8  1  0.248738  0.991933  0.404128  1
  Ti  Ti9  1  0.253755  0.003500  0.087391  1
  Ti  Ti10  1  0.746245  0.996500  0.587391  1
  Ti  Ti11  1  0.751262  0.008067  0.904128  1
  Ti  Ti12  1  0.991933  0.248738  0.404128  1
  Ti  Ti13  1  0.003500  0.253755  0.087391  1
  Ti  Ti14  1  0.253163  0.253163  0.912881  1
  Ti  Ti15  1  0.008067  0.751262  0.904128  1
  Ti  Ti16  1  0.996500  0.746245  0.587391  1
  Ti  Ti17  1  0.746837  0.746837  0.412881  1
  Sb  Sb18  1  0.667904  0.334595  0.000206  1
  Sb  Sb19  1  0.665405  0.332096  0.500206  1
  Sb  Sb20  1  0.242847  0.242847  0.586388  1
  Sb  Sb21  1  0.334595  0.667904  0.000206  1
  Sb  Sb22  1  0.332096  0.665405  0.500206  1
  Sb  Sb23  1  0.757153  0.757153  0.086388  1
  O  O24  1  0.204886  0.004614  0.574187  1
  O  O25  1  0.203249  0.997190  0.927355  1
  O  O26  1  0.205755  0.999949  0.249331  1
  O  O27  1  0.484848  0.167919  0.102392  1
  O  O28  1  0.480513  0.166567  0.400765  1
  O  O29  1  0.794245  0.000051  0.749331  1
  O  O30  1  0.483660  0.317224  0.900211  1
  O  O31  1  0.488318  0.318162  0.608900  1
  O  O32  1  0.796751  0.002810  0.427355  1
  O  O33  1  0.795114  0.995386  0.074187  1
  O  O34  1  0.683880  0.171015  0.894594  1
  O  O35  1  0.688162  0.168399  0.600285  1
  O  O36  1  0.828985  0.316120  0.394594  1
  O  O37  1  0.831601  0.311838  0.100285  1
  O  O38  1  0.004614  0.204886  0.574187  1
  O  O39  1  0.997190  0.203249  0.927355  1
  O  O40  1  0.682776  0.516340  0.400211  1
  O  O41  1  0.681838  0.511682  0.108900  1
  O  O42  1  0.999949  0.205755  0.249331  1
  O  O43  1  0.832081  0.515152  0.602392  1
  O  O44  1  0.833433  0.519487  0.900765  1
  O  O45  1  0.201185  0.201185  0.420058  1
  O  O46  1  0.204130  0.204130  0.072645  1
  O  O47  1  0.202425  0.202425  0.752141  1
  O  O48  1  0.167919  0.484848  0.102392  1
  O  O49  1  0.166567  0.480513  0.400765  1
  O  O50  1  0.000051  0.794245  0.749331  1
  O  O51  1  0.317224  0.483660  0.900211  1
  O  O52  1  0.318162  0.488318  0.608900  1
  O  O53  1  0.002810  0.796751  0.427355  1
  O  O54  1  0.995386  0.795114  0.074187  1
  O  O55  1  0.171015  0.683880  0.894594  1
  O  O56  1  0.168399  0.688162  0.600285  1
  O  O57  1  0.316120  0.828985  0.394594  1
  O  O58  1  0.311838  0.831601  0.100285  1
  O  O59  1  0.516340  0.682776  0.400211  1
  O  O60  1  0.511682  0.681838  0.108900  1
  O  O61  1  0.515152  0.832081  0.602392  1
  O  O62  1  0.519487  0.833433  0.900765  1
  O  O63  1  0.797575  0.797575  0.252141  1
  O  O64  1  0.795870  0.795870  0.572645  1
  O  O65  1  0.798815  0.798815  0.920058  1
