# generated using pymatgen
data_LiFeB2O5
_symmetry_space_group_name_H-M   'P 1'
_cell_length_a   5.71753560
_cell_length_b   9.59086187
_cell_length_c   6.95362328
_cell_angle_alpha   90.00000000
_cell_angle_beta   105.94317729
_cell_angle_gamma   90.00000000
_symmetry_Int_Tables_number   1
_chemical_formula_structural   LiFeB2O5
_chemical_formula_sum   'Li4 Fe4 B8 O20'
_cell_volume   366.64231151
_cell_formula_units_Z   4
loop_
 _symmetry_equiv_pos_site_id
 _symmetry_equiv_pos_as_xyz
  1  'x, y, z'
loop_
 _atom_site_type_symbol
 _atom_site_label
 _atom_site_symmetry_multiplicity
 _atom_site_fract_x
 _atom_site_fract_y
 _atom_site_fract_z
 _atom_site_occupancy
  Li  Li0  1  0.686648  0.425447  0.217948  1
  Li  Li1  1  0.186648  0.074553  0.217948  1
  Li  Li2  1  0.813352  0.925447  0.782052  1
  Li  Li3  1  0.313352  0.574553  0.782052  1
  Fe  Fe4  1  0.783358  0.828971  0.246097  1
  Fe  Fe5  1  0.283358  0.671029  0.246097  1
  Fe  Fe6  1  0.716642  0.328971  0.753903  1
  Fe  Fe7  1  0.216642  0.171029  0.753903  1
  B  B8  1  0.670736  0.118183  0.085170  1
  B  B9  1  0.170736  0.381817  0.085170  1
  B  B10  1  0.744269  0.093106  0.451796  1
  B  B11  1  0.755731  0.593106  0.548204  1
  B  B12  1  0.244269  0.406894  0.451796  1
  B  B13  1  0.255731  0.906894  0.548204  1
  B  B14  1  0.829264  0.618183  0.914830  1
  B  B15  1  0.329264  0.881817  0.914830  1
  O  O16  1  0.929849  0.704839  0.073509  1
  O  O17  1  0.786356  0.996511  0.068053  1
  O  O18  1  0.429849  0.795161  0.073509  1
  O  O19  1  0.286356  0.503489  0.068053  1
  O  O20  1  0.653423  0.168592  0.271631  1
  O  O21  1  0.658155  0.667884  0.376584  1
  O  O22  1  0.153423  0.331408  0.271631  1
  O  O23  1  0.738187  0.951789  0.461442  1
  O  O24  1  0.158155  0.832116  0.376584  1
  O  O25  1  0.761813  0.451789  0.538558  1
  O  O26  1  0.238187  0.548211  0.461442  1
  O  O27  1  0.841845  0.167884  0.623416  1
  O  O28  1  0.261813  0.048211  0.538558  1
  O  O29  1  0.846577  0.668592  0.728369  1
  O  O30  1  0.341845  0.332116  0.623416  1
  O  O31  1  0.346577  0.831408  0.728369  1
  O  O32  1  0.713644  0.496511  0.931947  1
  O  O33  1  0.570151  0.204839  0.926491  1
  O  O34  1  0.213644  0.003489  0.931947  1
  O  O35  1  0.070151  0.295161  0.926491  1
