# generated using pymatgen
data_ZrO2
_symmetry_space_group_name_H-M   'P 1'
_cell_length_a   3.48182176
_cell_length_b   3.88098548
_cell_length_c   10.41383531
_cell_angle_alpha   90.00000000
_cell_angle_beta   90.00000000
_cell_angle_gamma   90.00000000
_symmetry_Int_Tables_number   1
_chemical_formula_structural   ZrO2
_chemical_formula_sum   'Zr4 O8'
_cell_volume   140.72111198
_cell_formula_units_Z   4
loop_
 _symmetry_equiv_pos_site_id
 _symmetry_equiv_pos_as_xyz
  1  'x, y, z'
loop_
 _atom_site_type_symbol
 _atom_site_label
 _atom_site_symmetry_multiplicity
 _atom_site_fract_x
 _atom_site_fract_y
 _atom_site_fract_z
 _atom_site_occupancy
  Zr  Zr0  1  0.750000  0.748067  0.881390  1
  Zr  Zr1  1  0.750000  0.751933  0.381390  1
  Zr  Zr2  1  0.250000  0.251933  0.118610  1
  Zr  Zr3  1  0.250000  0.248067  0.618610  1
  O  O4  1  0.750000  0.431177  0.213945  1
  O  O5  1  0.750000  0.068823  0.713945  1
  O  O6  1  0.750000  0.263396  0.474832  1
  O  O7  1  0.750000  0.236604  0.974832  1
  O  O8  1  0.250000  0.736604  0.525168  1
  O  O9  1  0.250000  0.763396  0.025168  1
  O  O10  1  0.250000  0.568823  0.786055  1
  O  O11  1  0.250000  0.931177  0.286055  1
