# generated using pymatgen
data_K2Al4Fe5Si5(HO6)4
_symmetry_space_group_name_H-M   'P 1'
_cell_length_a   6.65624106
_cell_length_b   7.79562061
_cell_length_c   11.49506196
_cell_angle_alpha   78.35222543
_cell_angle_beta   83.75605082
_cell_angle_gamma   78.02415105
_symmetry_Int_Tables_number   1
_chemical_formula_structural   K2Al4Fe5Si5(HO6)4
_chemical_formula_sum   'K2 Al4 Fe5 Si5 H4 O24'
_cell_volume   570.08193686
_cell_formula_units_Z   1
loop_
 _symmetry_equiv_pos_site_id
 _symmetry_equiv_pos_as_xyz
  1  'x, y, z'
loop_
 _atom_site_type_symbol
 _atom_site_label
 _atom_site_symmetry_multiplicity
 _atom_site_fract_x
 _atom_site_fract_y
 _atom_site_fract_z
 _atom_site_occupancy
  K  K0  1  0.072518  0.891279  0.892949  1
  K  K1  1  0.903828  0.511627  0.436085  1
  Al  Al2  1  0.957421  0.538034  0.708343  1
  Al  Al3  1  0.229495  0.738941  0.495832  1
  Al  Al4  1  0.491649  0.554931  0.704031  1
  Al  Al5  1  0.265820  0.259948  0.812044  1
  Fe  Fe6  1  0.508282  0.424870  0.311919  1
  Fe  Fe7  1  0.611665  0.062508  0.747221  1
  Fe  Fe8  1  0.885296  0.098931  0.410296  1
  Fe  Fe9  1  0.183011  0.796283  0.250342  1
  Fe  Fe10  1  0.329560  0.487356  0.034121  1
  Si  Si11  1  0.824284  0.432852  0.131913  1
  Si  Si12  1  0.845258  0.755522  0.184761  1
  Si  Si13  1  0.485572  0.094043  0.224452  1
  Si  Si14  1  0.344097  0.096784  0.482827  1
  Si  Si15  1  0.670091  0.691226  0.894488  1
  H  H16  1  0.400343  0.213959  0.554599  1
  H  H17  1  0.416682  0.786598  0.068934  1
  H  H18  1  0.861309  0.280954  0.986576  1
  H  H19  1  0.744529  0.899309  0.583181  1
  O  O20  1  0.677707  0.620038  0.220293  1
  O  O21  1  0.816087  0.306311  0.276565  1
  O  O22  1  0.284807  0.340801  0.942200  1
  O  O23  1  0.997353  0.572860  0.102769  1
  O  O24  1  0.376698  0.883453  0.526728  1
  O  O25  1  0.444653  0.310087  0.169665  1
  O  O26  1  0.510290  0.319236  0.736830  1
  O  O27  1  0.009524  0.856089  0.414381  1
  O  O28  1  0.294048  0.732845  0.091066  1
  O  O29  1  0.658332  0.899801  0.904737  1
  O  O30  1  0.690695  0.960860  0.174815  1
  O  O31  1  0.526817  0.117849  0.365592  1
  O  O32  1  0.758423  0.021530  0.587396  1
  O  O33  1  0.109315  0.188854  0.447541  1
  O  O34  1  0.283173  0.010256  0.233234  1
  O  O35  1  0.903132  0.254958  0.068119  1
  O  O36  1  0.213371  0.604008  0.641002  1
  O  O37  1  0.311422  0.604889  0.382755  1
  O  O38  1  0.020032  0.312854  0.762176  1
  O  O39  1  0.728944  0.599383  0.628392  1
  O  O40  1  0.897390  0.648452  0.827845  1
  O  O41  1  0.650437  0.541750  0.021670  1
  O  O42  1  0.471410  0.652185  0.834186  1
  O  O43  1  0.342654  0.043752  0.774545  1
