# generated using pymatgen
data_SrCa2I6
_symmetry_space_group_name_H-M   'P 1'
_cell_length_a   7.96062851
_cell_length_b   7.96062851
_cell_length_c   7.33017121
_cell_angle_alpha   90.00000000
_cell_angle_beta   90.00000000
_cell_angle_gamma   120.00000000
_symmetry_Int_Tables_number   1
_chemical_formula_structural   SrCa2I6
_chemical_formula_sum   'Sr1 Ca2 I6'
_cell_volume   402.29021149
_cell_formula_units_Z   1
loop_
 _symmetry_equiv_pos_site_id
 _symmetry_equiv_pos_as_xyz
  1  'x, y, z'
loop_
 _atom_site_type_symbol
 _atom_site_label
 _atom_site_symmetry_multiplicity
 _atom_site_fract_x
 _atom_site_fract_y
 _atom_site_fract_z
 _atom_site_occupancy
  Sr  Sr0  1  0.000000  0.000000  0.000000  1
  Ca  Ca1  1  0.333333  0.666667  0.500000  1
  Ca  Ca2  1  0.666667  0.333333  0.500000  1
  I  I3  1  0.000000  0.653411  0.743467  1
  I  I4  1  0.000000  0.346589  0.256533  1
  I  I5  1  0.346589  0.346589  0.743467  1
  I  I6  1  0.653411  0.653411  0.256533  1
  I  I7  1  0.346589  0.000000  0.256533  1
  I  I8  1  0.653411  0.000000  0.743467  1
