# generated using pymatgen
data_K4P4(H2O5)3
_symmetry_space_group_name_H-M   'P 1'
_cell_length_a   9.76564458
_cell_length_b   9.76564458
_cell_length_c   14.40702176
_cell_angle_alpha   61.43812254
_cell_angle_beta   118.56187746
_cell_angle_gamma   137.87261189
_symmetry_Int_Tables_number   1
_chemical_formula_structural   K4P4(H2O5)3
_chemical_formula_sum   'K8 P8 H12 O30'
_cell_volume   791.47968529
_cell_formula_units_Z   2
loop_
 _symmetry_equiv_pos_site_id
 _symmetry_equiv_pos_as_xyz
  1  'x, y, z'
loop_
 _atom_site_type_symbol
 _atom_site_label
 _atom_site_symmetry_multiplicity
 _atom_site_fract_x
 _atom_site_fract_y
 _atom_site_fract_z
 _atom_site_occupancy
  K  K0  1  0.184930  0.636372  0.126137  1
  K  K1  1  0.636372  0.184930  0.373863  1
  K  K2  1  0.815070  0.363628  0.873863  1
  K  K3  1  0.363628  0.815070  0.626137  1
  K  K4  1  0.794850  0.763770  0.896196  1
  K  K5  1  0.763770  0.794850  0.603804  1
  K  K6  1  0.205150  0.236230  0.103804  1
  K  K7  1  0.236230  0.205150  0.396196  1
  P  P8  1  0.049896  0.764940  0.286202  1
  P  P9  1  0.764940  0.049896  0.213798  1
  P  P10  1  0.950104  0.235060  0.713798  1
  P  P11  1  0.235060  0.950104  0.786202  1
  P  P12  1  0.281075  0.616943  0.407661  1
  P  P13  1  0.616943  0.281075  0.092339  1
  P  P14  1  0.718925  0.383057  0.592339  1
  P  P15  1  0.383057  0.718925  0.907661  1
  H  H16  1  0.794393  0.607535  0.151616  1
  H  H17  1  0.607535  0.794393  0.348384  1
  H  H18  1  0.205607  0.392465  0.848384  1
  H  H19  1  0.392465  0.205607  0.651616  1
  H  H20  1  0.098236  0.386865  0.535793  1
  H  H21  1  0.386865  0.098236  0.964207  1
  H  H22  1  0.901763  0.613135  0.464207  1
  H  H23  1  0.613135  0.901764  0.035793  1
  H  H24  1  0.635887  0.537516  0.286826  1
  H  H25  1  0.537516  0.635887  0.213174  1
  H  H26  1  0.364113  0.462484  0.713174  1
  H  H27  1  0.462484  0.364113  0.786826  1
  O  O28  1  0.929124  0.758316  0.163215  1
  O  O29  1  0.758316  0.929124  0.336785  1
  O  O30  1  0.070876  0.241684  0.836785  1
  O  O31  1  0.241684  0.070876  0.663215  1
  O  O32  1  0.892687  0.602964  0.359272  1
  O  O33  1  0.602964  0.892687  0.140728  1
  O  O34  1  0.107313  0.397036  0.640728  1
  O  O35  1  0.397036  0.107313  0.859272  1
  O  O36  1  0.217003  0.985565  0.301368  1
  O  O37  1  0.985565  0.217003  0.198632  1
  O  O38  1  0.782997  0.014435  0.698632  1
  O  O39  1  0.014435  0.782997  0.801368  1
  O  O40  1  0.155115  0.680297  0.298179  1
  O  O41  1  0.680297  0.155115  0.201821  1
  O  O42  1  0.844885  0.319703  0.701821  1
  O  O43  1  0.319703  0.844885  0.798179  1
  O  O44  1  0.379887  0.600031  0.363041  1
  O  O45  1  0.600031  0.379887  0.136959  1
  O  O46  1  0.620113  0.399969  0.636959  1
  O  O47  1  0.399969  0.620113  0.863041  1
  O  O48  1  0.425189  0.772359  0.478489  1
  O  O49  1  0.772359  0.425189  0.021511  1
  O  O50  1  0.574811  0.227640  0.521511  1
  O  O51  1  0.227640  0.574811  0.978489  1
  O  O52  1  0.100558  0.389519  0.463748  1
  O  O53  1  0.389519  0.100558  0.036252  1
  O  O54  1  0.899442  0.610481  0.536252  1
  O  O55  1  0.610481  0.899442  0.963748  1
  O  O56  1  0.499508  0.499508  0.250000  1
  O  O57  1  0.500492  0.500492  0.750000  1
