# generated using pymatgen
data_Na2VPCO7
_symmetry_space_group_name_H-M   'P 1'
_cell_length_a   5.37722753
_cell_length_b   6.50473299
_cell_length_c   8.90111422
_cell_angle_alpha   90.00000000
_cell_angle_beta   92.36345732
_cell_angle_gamma   90.00000000
_symmetry_Int_Tables_number   1
_chemical_formula_structural   Na2VPCO7
_chemical_formula_sum   'Na4 V2 P2 C2 O14'
_cell_volume   311.07324912
_cell_formula_units_Z   2
loop_
 _symmetry_equiv_pos_site_id
 _symmetry_equiv_pos_as_xyz
  1  'x, y, z'
loop_
 _atom_site_type_symbol
 _atom_site_label
 _atom_site_symmetry_multiplicity
 _atom_site_fract_x
 _atom_site_fract_y
 _atom_site_fract_z
 _atom_site_occupancy
  Na  Na0  1  0.774838  0.242973  0.913107  1
  Na  Na1  1  0.259165  0.467319  0.721334  1
  Na  Na2  1  0.740835  0.967319  0.278666  1
  Na  Na3  1  0.225162  0.742973  0.086893  1
  V  V4  1  0.783986  0.758388  0.665481  1
  V  V5  1  0.216014  0.258388  0.334519  1
  P  P6  1  0.723803  0.253026  0.572805  1
  P  P7  1  0.276197  0.753026  0.427195  1
  C  C8  1  0.705569  0.747276  0.940578  1
  C  C9  1  0.294431  0.247276  0.059422  1
  O  O10  1  0.343186  0.262010  0.921953  1
  O  O11  1  0.933036  0.755077  0.891509  1
  O  O12  1  0.530886  0.726884  0.832842  1
  O  O13  1  0.773987  0.064156  0.677757  1
  O  O14  1  0.798772  0.440130  0.675605  1
  O  O15  1  0.117797  0.743311  0.567861  1
  O  O16  1  0.443994  0.267466  0.527031  1
  O  O17  1  0.556006  0.767466  0.472969  1
  O  O18  1  0.882203  0.243311  0.432139  1
  O  O19  1  0.201228  0.940130  0.324395  1
  O  O20  1  0.226013  0.564156  0.322243  1
  O  O21  1  0.469114  0.226884  0.167158  1
  O  O22  1  0.066964  0.255077  0.108491  1
  O  O23  1  0.656814  0.762010  0.078047  1
