# generated using pymatgen
data_Li3Co4SnO8
_symmetry_space_group_name_H-M   'P 1'
_cell_length_a   6.01339836
_cell_length_b   6.01339836
_cell_length_c   6.09163413
_cell_angle_alpha   60.07872847
_cell_angle_beta   119.92127153
_cell_angle_gamma   119.44014263
_symmetry_Int_Tables_number   1
_chemical_formula_structural   Li3Co4SnO8
_chemical_formula_sum   'Li3 Co4 Sn1 O8'
_cell_volume   156.59679481
_cell_formula_units_Z   1
loop_
 _symmetry_equiv_pos_site_id
 _symmetry_equiv_pos_as_xyz
  1  'x, y, z'
loop_
 _atom_site_type_symbol
 _atom_site_label
 _atom_site_symmetry_multiplicity
 _atom_site_fract_x
 _atom_site_fract_y
 _atom_site_fract_z
 _atom_site_occupancy
  Li  Li0  1  0.500000  0.000000  0.000000  1
  Li  Li1  1  0.000000  0.000000  0.500000  1
  Li  Li2  1  0.000000  0.500000  0.000000  1
  Co  Co3  1  0.500000  0.500000  0.500000  1
  Co  Co4  1  0.000000  0.000000  0.000000  1
  Co  Co5  1  0.500000  0.000000  0.500000  1
  Co  Co6  1  0.000000  0.500000  0.500000  1
  Sn  Sn7  1  0.500000  0.500000  0.000000  1
  O  O8  1  0.744702  0.255298  0.262151  1
  O  O9  1  0.259802  0.253363  0.760126  1
  O  O10  1  0.746637  0.740198  0.760126  1
  O  O11  1  0.249607  0.750393  0.266036  1
  O  O12  1  0.750393  0.249607  0.733964  1
  O  O13  1  0.253363  0.259802  0.239874  1
  O  O14  1  0.740198  0.746637  0.239874  1
  O  O15  1  0.255298  0.744702  0.737849  1
