# generated using pymatgen
data_Fe(CO3)2
_symmetry_space_group_name_H-M   'P 1'
_cell_length_a   6.04975456
_cell_length_b   6.04975456
_cell_length_c   6.04975456
_cell_angle_alpha   46.51429891
_cell_angle_beta   46.51429891
_cell_angle_gamma   46.51429891
_symmetry_Int_Tables_number   1
_chemical_formula_structural   Fe(CO3)2
_chemical_formula_sum   'Fe1 C2 O6'
_cell_volume   106.43419546
_cell_formula_units_Z   1
loop_
 _symmetry_equiv_pos_site_id
 _symmetry_equiv_pos_as_xyz
  1  'x, y, z'
loop_
 _atom_site_type_symbol
 _atom_site_label
 _atom_site_symmetry_multiplicity
 _atom_site_fract_x
 _atom_site_fract_y
 _atom_site_fract_z
 _atom_site_occupancy
  Fe  Fe0  1  0.500000  0.500000  0.500000  1
  C  C1  1  0.761842  0.761842  0.761842  1
  C  C2  1  0.238158  0.238158  0.238158  1
  O  O3  1  0.274642  0.488242  0.953167  1
  O  O4  1  0.046833  0.725358  0.511758  1
  O  O5  1  0.511758  0.046833  0.725358  1
  O  O6  1  0.488242  0.953167  0.274642  1
  O  O7  1  0.953167  0.274642  0.488242  1
  O  O8  1  0.725358  0.511758  0.046833  1
