# generated using pymatgen
data_Fe5(O4F)2
_symmetry_space_group_name_H-M   'P 1'
_cell_length_a   4.65205092
_cell_length_b   7.60503433
_cell_length_c   9.77847027
_cell_angle_alpha   70.07019822
_cell_angle_beta   88.55800432
_cell_angle_gamma   88.76710393
_symmetry_Int_Tables_number   1
_chemical_formula_structural   Fe5(O4F)2
_chemical_formula_sum   'Fe10 O16 F4'
_cell_volume   325.09998907
_cell_formula_units_Z   2
loop_
 _symmetry_equiv_pos_site_id
 _symmetry_equiv_pos_as_xyz
  1  'x, y, z'
loop_
 _atom_site_type_symbol
 _atom_site_label
 _atom_site_symmetry_multiplicity
 _atom_site_fract_x
 _atom_site_fract_y
 _atom_site_fract_z
 _atom_site_occupancy
  Fe  Fe0  1  0.506482  0.698384  0.895489  1
  Fe  Fe1  1  0.490979  0.897196  0.311211  1
  Fe  Fe2  1  0.531446  0.106313  0.708179  1
  Fe  Fe3  1  0.464294  0.307238  0.092662  1
  Fe  Fe4  1  0.472852  0.492056  0.491668  1
  Fe  Fe5  1  0.008419  0.395979  0.805306  1
  Fe  Fe6  1  0.002782  0.794567  0.603720  1
  Fe  Fe7  1  0.993827  0.197853  0.397846  1
  Fe  Fe8  1  0.003475  0.615719  0.199365  1
  Fe  Fe9  1  0.021442  0.994793  0.995574  1
  O  O10  1  0.187828  0.234530  0.976107  1
  O  O11  1  0.174801  0.435976  0.370335  1
  O  O12  1  0.187821  0.632326  0.776402  1
  O  O13  1  0.197646  0.853554  0.173001  1
  O  O14  1  0.325919  0.935967  0.872549  1
  O  O15  1  0.305481  0.335723  0.677986  1
  O  O16  1  0.302161  0.548845  0.072556  1
  O  O17  1  0.301111  0.141049  0.278606  1
  O  O18  1  0.298497  0.730323  0.485529  1
  O  O19  1  0.704815  0.861882  0.721923  1
  O  O20  1  0.695060  0.259729  0.523207  1
  O  O21  1  0.686213  0.659348  0.325345  1
  O  O22  1  0.691462  0.461521  0.919319  1
  O  O23  1  0.811891  0.960196  0.427996  1
  O  O24  1  0.823709  0.160822  0.830197  1
  O  O25  1  0.815596  0.771079  0.022404  1
  F  F26  1  0.206221  0.038543  0.581064  1
  F  F27  1  0.695346  0.066951  0.124584  1
  F  F28  1  0.801009  0.550525  0.624957  1
  F  F29  1  0.791417  0.361012  0.214917  1
