# generated using pymatgen
data_Mn2Fe3Cu(PO4)6
_symmetry_space_group_name_H-M   'P 1'
_cell_length_a   8.54793034
_cell_length_b   8.54793034
_cell_length_c   8.54793034
_cell_angle_alpha   60.82612427
_cell_angle_beta   60.82612427
_cell_angle_gamma   60.82612427
_symmetry_Int_Tables_number   1
_chemical_formula_structural   Mn2Fe3Cu(PO4)6
_chemical_formula_sum   'Mn2 Fe3 Cu1 P6 O24'
_cell_volume   449.86731456
_cell_formula_units_Z   1
loop_
 _symmetry_equiv_pos_site_id
 _symmetry_equiv_pos_as_xyz
  1  'x, y, z'
loop_
 _atom_site_type_symbol
 _atom_site_label
 _atom_site_symmetry_multiplicity
 _atom_site_fract_x
 _atom_site_fract_y
 _atom_site_fract_z
 _atom_site_occupancy
  Mn  Mn0  1  0.000651  0.000651  0.000651  1
  Mn  Mn1  1  0.500324  0.500324  0.500324  1
  Fe  Fe2  1  0.855084  0.855084  0.855084  1
  Fe  Fe3  1  0.646229  0.646229  0.646229  1
  Fe  Fe4  1  0.354754  0.354754  0.354754  1
  Cu  Cu5  1  0.145123  0.145123  0.145123  1
  P  P6  1  0.954424  0.250113  0.545134  1
  P  P7  1  0.545134  0.954424  0.250113  1
  P  P8  1  0.250113  0.545134  0.954424  1
  P  P9  1  0.750319  0.455530  0.045918  1
  P  P10  1  0.455530  0.045918  0.750319  1
  P  P11  1  0.045918  0.750319  0.455530  1
  O  O12  1  0.890429  0.681784  0.496376  1
  O  O13  1  0.681784  0.496376  0.890429  1
  O  O14  1  0.941541  0.089855  0.742432  1
  O  O15  1  0.496376  0.890429  0.681784  1
  O  O16  1  0.983150  0.186798  0.390710  1
  O  O17  1  0.756389  0.410427  0.562949  1
  O  O18  1  0.742432  0.941541  0.089855  1
  O  O19  1  0.562949  0.756389  0.410427  1
  O  O20  1  0.816909  0.611232  0.006174  1
  O  O21  1  0.410427  0.562949  0.756389  1
  O  O22  1  0.910745  0.258471  0.055095  1
  O  O23  1  0.611232  0.006174  0.816909  1
  O  O24  1  0.390710  0.983150  0.186798  1
  O  O25  1  0.089855  0.742432  0.941541  1
  O  O26  1  0.590544  0.440174  0.243452  1
  O  O27  1  0.186798  0.390710  0.983150  1
  O  O28  1  0.440174  0.243452  0.590544  1
  O  O29  1  0.258471  0.055095  0.910745  1
  O  O30  1  0.243452  0.590544  0.440174  1
  O  O31  1  0.006174  0.816909  0.611232  1
  O  O32  1  0.503127  0.111209  0.316423  1
  O  O33  1  0.055095  0.910745  0.258471  1
  O  O34  1  0.316423  0.503127  0.111209  1
  O  O35  1  0.111209  0.316423  0.503127  1
