# generated using pymatgen
data_Li4CrF6
_symmetry_space_group_name_H-M   'P 1'
_cell_length_a   4.96913538
_cell_length_b   4.96018162
_cell_length_c   10.35520993
_cell_angle_alpha   90.00000000
_cell_angle_beta   115.60170294
_cell_angle_gamma   90.00000000
_symmetry_Int_Tables_number   1
_chemical_formula_structural   Li4CrF6
_chemical_formula_sum   'Li8 Cr2 F12'
_cell_volume   230.17440302
_cell_formula_units_Z   2
loop_
 _symmetry_equiv_pos_site_id
 _symmetry_equiv_pos_as_xyz
  1  'x, y, z'
loop_
 _atom_site_type_symbol
 _atom_site_label
 _atom_site_symmetry_multiplicity
 _atom_site_fract_x
 _atom_site_fract_y
 _atom_site_fract_z
 _atom_site_occupancy
  Li  Li0  1  0.630101  0.014613  0.641021  1
  Li  Li1  1  0.245839  0.485291  0.248749  1
  Li  Li2  1  0.369899  0.514613  0.858979  1
  Li  Li3  1  0.245839  0.014709  0.748749  1
  Li  Li4  1  0.754161  0.985291  0.251251  1
  Li  Li5  1  0.630101  0.485387  0.141021  1
  Li  Li6  1  0.754161  0.514709  0.751251  1
  Li  Li7  1  0.369899  0.985387  0.358979  1
  Cr  Cr8  1  0.000000  0.000000  0.000000  1
  Cr  Cr9  1  0.000000  0.500000  0.500000  1
  F  F10  1  0.597225  0.222634  0.811782  1
  F  F11  1  0.962707  0.198401  0.170058  1
  F  F12  1  0.284355  0.206574  0.494355  1
  F  F13  1  0.715645  0.706574  0.005645  1
  F  F14  1  0.402775  0.722634  0.688218  1
  F  F15  1  0.037293  0.698401  0.329942  1
  F  F16  1  0.962707  0.301599  0.670058  1
  F  F17  1  0.597225  0.277366  0.311782  1
  F  F18  1  0.284355  0.293426  0.994355  1
  F  F19  1  0.715645  0.793426  0.505645  1
  F  F20  1  0.037293  0.801599  0.829942  1
  F  F21  1  0.402775  0.777366  0.188218  1
