# generated using pymatgen
data_Li4V3OF11
_symmetry_space_group_name_H-M   'P 1'
_cell_length_a   5.30296200
_cell_length_b   5.51074466
_cell_length_c   16.17460901
_cell_angle_alpha   99.28151924
_cell_angle_beta   89.88220359
_cell_angle_gamma   90.73061919
_symmetry_Int_Tables_number   1
_chemical_formula_structural   Li4V3OF11
_chemical_formula_sum   'Li8 V6 O2 F22'
_cell_volume   466.44867224
_cell_formula_units_Z   2
loop_
 _symmetry_equiv_pos_site_id
 _symmetry_equiv_pos_as_xyz
  1  'x, y, z'
loop_
 _atom_site_type_symbol
 _atom_site_label
 _atom_site_symmetry_multiplicity
 _atom_site_fract_x
 _atom_site_fract_y
 _atom_site_fract_z
 _atom_site_occupancy
  Li  Li0  1  0.314584  0.133791  0.823712  1
  Li  Li1  1  0.011813  0.092543  0.225363  1
  Li  Li2  1  0.540411  0.078003  0.110303  1
  Li  Li3  1  0.683666  0.520844  0.507947  1
  Li  Li4  1  0.835047  0.711782  0.839968  1
  Li  Li5  1  0.481612  0.551148  0.232590  1
  Li  Li6  1  0.958149  0.640920  0.116436  1
  Li  Li7  1  0.203115  0.976317  0.487124  1
  V  V8  1  0.520089  0.170911  0.334240  1
  V  V9  1  0.991611  0.015243  0.007949  1
  V  V10  1  0.000249  0.332700  0.666149  1
  V  V11  1  0.495269  0.506871  0.997639  1
  V  V12  1  0.988555  0.641303  0.332783  1
  V  V13  1  0.500358  0.832641  0.666274  1
  O  O14  1  0.886756  0.989044  0.113895  1
  O  O15  1  0.805288  0.345575  0.303046  1
  F  F16  1  0.802465  0.020253  0.647349  1
  F  F17  1  0.661442  0.184976  0.983954  1
  F  F18  1  0.297061  0.144153  0.700619  1
  F  F19  1  0.581128  0.201956  0.452642  1
  F  F20  1  0.907540  0.397878  0.781870  1
  F  F21  1  0.374640  0.153440  0.216029  1
  F  F22  1  0.092334  0.271280  0.550680  1
  F  F23  1  0.405003  0.449348  0.884075  1
  F  F24  1  0.702911  0.520948  0.632460  1
  F  F25  1  0.812093  0.681499  0.964944  1
  F  F26  1  0.171654  0.344669  0.034735  1
  F  F27  1  0.323320  0.488066  0.354536  1
  F  F28  1  0.198275  0.646293  0.687221  1
  F  F29  1  0.612885  0.517076  0.116121  1
  F  F30  1  0.578365  0.877171  0.785339  1
  F  F31  1  0.918741  0.713977  0.451607  1
  F  F32  1  0.423980  0.787910  0.547866  1
  F  F33  1  0.131404  0.644988  0.218020  1
  F  F34  1  0.083575  0.968469  0.885651  1
  F  F35  1  0.690978  0.836302  0.294331  1
  F  F36  1  0.328403  0.827490  0.032295  1
  F  F37  1  0.196021  0.974622  0.358137  1
