# generated using pymatgen
data_Li2Ti3CoO8
_symmetry_space_group_name_H-M   'P 1'
_cell_length_a   5.94604362
_cell_length_b   5.94604362
_cell_length_c   9.73646652
_cell_angle_alpha   90.00000000
_cell_angle_beta   90.00000000
_cell_angle_gamma   120.00000000
_symmetry_Int_Tables_number   1
_chemical_formula_structural   Li2Ti3CoO8
_chemical_formula_sum   'Li4 Ti6 Co2 O16'
_cell_volume   298.11799251
_cell_formula_units_Z   2
loop_
 _symmetry_equiv_pos_site_id
 _symmetry_equiv_pos_as_xyz
  1  'x, y, z'
loop_
 _atom_site_type_symbol
 _atom_site_label
 _atom_site_symmetry_multiplicity
 _atom_site_fract_x
 _atom_site_fract_y
 _atom_site_fract_z
 _atom_site_occupancy
  Li  Li0  1  0.333333  0.666667  0.888302  1
  Li  Li1  1  0.000000  0.000000  0.998823  1
  Li  Li2  1  0.000000  0.000000  0.498823  1
  Li  Li3  1  0.666667  0.333333  0.388302  1
  Ti  Ti4  1  0.170307  0.829693  0.215423  1
  Ti  Ti5  1  0.170307  0.340614  0.215423  1
  Ti  Ti6  1  0.659386  0.829693  0.215423  1
  Ti  Ti7  1  0.340614  0.170307  0.715423  1
  Ti  Ti8  1  0.829693  0.659386  0.715423  1
  Ti  Ti9  1  0.829693  0.170307  0.715423  1
  Co  Co10  1  0.333333  0.666667  0.492779  1
  Co  Co11  1  0.666667  0.333333  0.992779  1
  O  O12  1  0.159918  0.840082  0.607079  1
  O  O13  1  0.037520  0.518760  0.329154  1
  O  O14  1  0.333333  0.666667  0.104197  1
  O  O15  1  0.000000  0.000000  0.314644  1
  O  O16  1  0.000000  0.000000  0.814644  1
  O  O17  1  0.159918  0.319835  0.607079  1
  O  O18  1  0.481240  0.962480  0.329154  1
  O  O19  1  0.481240  0.518760  0.329154  1
  O  O20  1  0.319835  0.159918  0.107079  1
  O  O21  1  0.680165  0.840082  0.607079  1
  O  O22  1  0.518760  0.481240  0.829154  1
  O  O23  1  0.518760  0.037520  0.829154  1
  O  O24  1  0.666667  0.333333  0.604197  1
  O  O25  1  0.840082  0.680165  0.107079  1
  O  O26  1  0.962480  0.481240  0.829154  1
  O  O27  1  0.840082  0.159918  0.107079  1
