# generated using pymatgen
data_ZnH4(IO4)2
_symmetry_space_group_name_H-M   'P 1'
_cell_length_a   4.99005688
_cell_length_b   6.75596600
_cell_length_c   10.98951504
_cell_angle_alpha   99.10161690
_cell_angle_beta   91.49988846
_cell_angle_gamma   91.29920675
_symmetry_Int_Tables_number   1
_chemical_formula_structural   ZnH4(IO4)2
_chemical_formula_sum   'Zn2 H8 I4 O16'
_cell_volume   365.56076925
_cell_formula_units_Z   2
loop_
 _symmetry_equiv_pos_site_id
 _symmetry_equiv_pos_as_xyz
  1  'x, y, z'
loop_
 _atom_site_type_symbol
 _atom_site_label
 _atom_site_symmetry_multiplicity
 _atom_site_fract_x
 _atom_site_fract_y
 _atom_site_fract_z
 _atom_site_occupancy
  Zn  Zn0  1  0.000000  0.000000  0.500000  1
  Zn  Zn1  1  0.000000  0.000000  0.000000  1
  H  H2  1  0.212767  0.361932  0.007028  1
  H  H3  1  0.290707  0.348112  0.551947  1
  H  H4  1  0.440819  0.222908  0.043606  1
  H  H5  1  0.447752  0.204538  0.447527  1
  H  H6  1  0.552248  0.795462  0.552473  1
  H  H7  1  0.559181  0.777092  0.956394  1
  H  H8  1  0.709293  0.651888  0.448053  1
  H  H9  1  0.787233  0.638068  0.992972  1
  I  I10  1  0.109996  0.711305  0.729187  1
  I  I11  1  0.357226  0.771153  0.228589  1
  I  I12  1  0.642774  0.228847  0.771411  1
  I  I13  1  0.890004  0.288695  0.270813  1
  O  O14  1  0.151820  0.565346  0.143785  1
  O  O15  1  0.203100  0.985676  0.168433  1
  O  O16  1  0.202065  0.791735  0.379007  1
  O  O17  1  0.245654  0.794757  0.887269  1
  O  O18  1  0.258722  0.903343  0.644953  1
  O  O19  1  0.266878  0.239017  0.478545  1
  O  O20  1  0.291570  0.228528  0.982100  1
  O  O21  1  0.348319  0.514970  0.679815  1
  O  O22  1  0.651681  0.485030  0.320185  1
  O  O23  1  0.708430  0.771472  0.017900  1
  O  O24  1  0.733122  0.760983  0.521455  1
  O  O25  1  0.741278  0.096657  0.355047  1
  O  O26  1  0.754346  0.205243  0.112731  1
  O  O27  1  0.797935  0.208265  0.620993  1
  O  O28  1  0.796900  0.014324  0.831567  1
  O  O29  1  0.848180  0.434654  0.856215  1
