# generated using pymatgen
data_Li4CrBi(TeO6)2
_symmetry_space_group_name_H-M   'P 1'
_cell_length_a   5.22317848
_cell_length_b   5.48819165
_cell_length_c   7.58922919
_cell_angle_alpha   94.06721745
_cell_angle_beta   90.09768564
_cell_angle_gamma   90.13367374
_symmetry_Int_Tables_number   1
_chemical_formula_structural   Li4CrBi(TeO6)2
_chemical_formula_sum   'Li4 Cr1 Bi1 Te2 O12'
_cell_volume   217.00249148
_cell_formula_units_Z   1
loop_
 _symmetry_equiv_pos_site_id
 _symmetry_equiv_pos_as_xyz
  1  'x, y, z'
loop_
 _atom_site_type_symbol
 _atom_site_label
 _atom_site_symmetry_multiplicity
 _atom_site_fract_x
 _atom_site_fract_y
 _atom_site_fract_z
 _atom_site_occupancy
  Li  Li0  1  0.509065  0.043618  0.750344  1
  Li  Li1  1  0.497889  0.056716  0.192124  1
  Li  Li2  1  0.993601  0.594878  0.185944  1
  Li  Li3  1  0.000025  0.587228  0.735968  1
  Cr  Cr4  1  0.999103  0.009905  0.998822  1
  Bi  Bi5  1  0.501552  0.503842  0.494278  1
  Te  Te6  1  0.001068  0.004433  0.499687  1
  Te  Te7  1  0.499036  0.499507  0.998435  1
  O  O8  1  0.321267  0.189314  0.950067  1
  O  O9  1  0.674923  0.149369  0.434999  1
  O  O10  1  0.167567  0.309164  0.583043  1
  O  O11  1  0.787924  0.306833  0.072044  1
  O  O12  1  0.640465  0.466893  0.757347  1
  O  O13  1  0.351926  0.485098  0.238072  1
  O  O14  1  0.195859  0.681059  0.947417  1
  O  O15  1  0.854757  0.676773  0.434877  1
  O  O16  1  0.303817  0.827744  0.586100  1
  O  O17  1  0.695187  0.789821  0.067150  1
  O  O18  1  0.876305  0.969041  0.739773  1
  O  O19  1  0.128664  0.991162  0.262309  1
