# generated using pymatgen
data_LiV2P4(HO8)2
_symmetry_space_group_name_H-M   'P 1'
_cell_length_a   7.74621243
_cell_length_b   7.90114627
_cell_length_c   9.76351320
_cell_angle_alpha   90.39907808
_cell_angle_beta   112.89319337
_cell_angle_gamma   89.86959601
_symmetry_Int_Tables_number   1
_chemical_formula_structural   LiV2P4(HO8)2
_chemical_formula_sum   'Li2 V4 P8 H4 O32'
_cell_volume   550.48295807
_cell_formula_units_Z   2
loop_
 _symmetry_equiv_pos_site_id
 _symmetry_equiv_pos_as_xyz
  1  'x, y, z'
loop_
 _atom_site_type_symbol
 _atom_site_label
 _atom_site_symmetry_multiplicity
 _atom_site_fract_x
 _atom_site_fract_y
 _atom_site_fract_z
 _atom_site_occupancy
  Li  Li0  1  0.348525  0.367346  0.223710  1
  Li  Li1  1  0.649765  0.635543  0.776521  1
  V  V2  1  0.985438  0.503221  0.247247  1
  V  V3  1  0.506567  0.989398  0.256922  1
  V  V4  1  0.006592  0.496833  0.749672  1
  V  V5  1  0.496273  0.008979  0.748406  1
  P  P6  1  0.772943  0.855146  0.070217  1
  P  P7  1  0.263177  0.653570  0.067626  1
  P  P8  1  0.732285  0.344517  0.432687  1
  P  P9  1  0.774341  0.854493  0.577465  1
  P  P10  1  0.231792  0.152727  0.428477  1
  P  P11  1  0.260079  0.654711  0.567390  1
  P  P12  1  0.730717  0.352555  0.928349  1
  P  P13  1  0.233569  0.150658  0.930986  1
  H  H14  1  0.490028  0.509760  0.010029  1
  H  H15  1  0.486218  0.506360  0.508433  1
  H  H16  1  0.010181  0.007699  0.489225  1
  H  H17  1  0.012660  0.007108  0.990699  1
  O  O18  1  0.950626  0.947939  0.096528  1
  O  O19  1  0.866998  0.342390  0.098283  1
  O  O20  1  0.826370  0.671971  0.144753  1
  O  O21  1  0.652275  0.938669  0.148986  1
  O  O22  1  0.441342  0.546100  0.096614  1
  O  O23  1  0.361841  0.167498  0.100489  1
  O  O24  1  0.324920  0.829492  0.143196  1
  O  O25  1  0.157913  0.555209  0.149790  1
  O  O26  1  0.848383  0.438947  0.352617  1
  O  O27  1  0.678258  0.167797  0.354922  1
  O  O28  1  0.635529  0.839037  0.405302  1
  O  O29  1  0.553311  0.441006  0.405208  1
  O  O30  1  0.349444  0.057245  0.351881  1
  O  O31  1  0.182454  0.327448  0.348253  1
  O  O32  1  0.947111  0.946689  0.589804  1
  O  O33  1  0.864899  0.326888  0.595904  1
  O  O34  1  0.132884  0.661662  0.399276  1
  O  O35  1  0.050973  0.056947  0.402464  1
  O  O36  1  0.808916  0.674924  0.644470  1
  O  O37  1  0.652343  0.947879  0.649379  1
  O  O38  1  0.443809  0.556197  0.592786  1
  O  O39  1  0.360759  0.175401  0.593740  1
  O  O40  1  0.314987  0.828898  0.636751  1
  O  O41  1  0.150717  0.556196  0.644545  1
  O  O42  1  0.843836  0.448371  0.850041  1
  O  O43  1  0.684426  0.173338  0.867704  1
  O  O44  1  0.642056  0.827262  0.904861  1
  O  O45  1  0.562760  0.462795  0.908512  1
  O  O46  1  0.347774  0.057141  0.853746  1
  O  O47  1  0.184370  0.328220  0.865416  1
  O  O48  1  0.137663  0.672914  0.903024  1
  O  O49  1  0.054441  0.050657  0.905112  1
