# generated using pymatgen
data_Li3V4FeO12
_symmetry_space_group_name_H-M   'P 1'
_cell_length_a   6.91493639
_cell_length_b   6.91493639
_cell_length_c   5.86094232
_cell_angle_alpha   74.12592462
_cell_angle_beta   105.87407538
_cell_angle_gamma   97.06540269
_symmetry_Int_Tables_number   1
_chemical_formula_structural   Li3V4FeO12
_chemical_formula_sum   'Li3 V4 Fe1 O12'
_cell_volume   258.92999871
_cell_formula_units_Z   1
loop_
 _symmetry_equiv_pos_site_id
 _symmetry_equiv_pos_as_xyz
  1  'x, y, z'
loop_
 _atom_site_type_symbol
 _atom_site_label
 _atom_site_symmetry_multiplicity
 _atom_site_fract_x
 _atom_site_fract_y
 _atom_site_fract_z
 _atom_site_occupancy
  Li  Li0  1  0.903449  0.903449  0.000000  1
  Li  Li1  1  0.753722  0.753722  0.500000  1
  Li  Li2  1  0.239013  0.239013  0.000000  1
  V  V3  1  0.390595  0.798907  0.018683  1
  V  V4  1  0.198291  0.611021  0.519847  1
  V  V5  1  0.798907  0.390595  0.981317  1
  V  V6  1  0.611021  0.198291  0.480153  1
  Fe  Fe7  1  0.084354  0.084354  0.500000  1
  O  O8  1  0.218413  0.984678  0.894852  1
  O  O9  1  0.628244  0.899362  0.075962  1
  O  O10  1  0.020965  0.791988  0.417478  1
  O  O11  1  0.359120  0.638761  0.814977  1
  O  O12  1  0.899362  0.628244  0.924038  1
  O  O13  1  0.360357  0.648654  0.309417  1
  O  O14  1  0.638761  0.359120  0.185023  1
  O  O15  1  0.104241  0.365864  0.577251  1
  O  O16  1  0.648654  0.360357  0.690583  1
  O  O17  1  0.984678  0.218413  0.105148  1
  O  O18  1  0.365864  0.104241  0.422749  1
  O  O19  1  0.791988  0.020965  0.582522  1
