# generated using pymatgen
data_LiTi(SiO3)2
_symmetry_space_group_name_H-M   'P 1'
_cell_length_a   7.05185650
_cell_length_b   7.38217377
_cell_length_c   7.46008735
_cell_angle_alpha   81.40882286
_cell_angle_beta   62.29267478
_cell_angle_gamma   76.96920975
_symmetry_Int_Tables_number   1
_chemical_formula_structural   LiTi(SiO3)2
_chemical_formula_sum   'Li3 Ti3 Si6 O18'
_cell_volume   334.52522101
_cell_formula_units_Z   3
loop_
 _symmetry_equiv_pos_site_id
 _symmetry_equiv_pos_as_xyz
  1  'x, y, z'
loop_
 _atom_site_type_symbol
 _atom_site_label
 _atom_site_symmetry_multiplicity
 _atom_site_fract_x
 _atom_site_fract_y
 _atom_site_fract_z
 _atom_site_occupancy
  Li  Li0  1  0.578291  0.793132  0.744024  1
  Li  Li1  1  0.500000  0.500000  0.500000  1
  Li  Li2  1  0.421709  0.206868  0.255976  1
  Ti  Ti3  1  0.051946  0.772452  0.740319  1
  Ti  Ti4  1  0.000000  0.500000  0.500000  1
  Ti  Ti5  1  0.948054  0.227548  0.259681  1
  Si  Si6  1  0.756521  0.838526  0.283430  1
  Si  Si7  1  0.323131  0.831311  0.244660  1
  Si  Si8  1  0.794638  0.395047  0.976029  1
  Si  Si9  1  0.205362  0.604953  0.023971  1
  Si  Si10  1  0.676869  0.168689  0.755340  1
  Si  Si11  1  0.243479  0.161474  0.716570  1
  O  O12  1  0.798677  0.955663  0.759628  1
  O  O13  1  0.248969  0.949375  0.684151  1
  O  O14  1  0.556199  0.839238  0.230991  1
  O  O15  1  0.976713  0.761922  0.070301  1
  O  O16  1  0.749261  0.692025  0.472273  1
  O  O17  1  0.851013  0.567381  0.806593  1
  O  O18  1  0.188029  0.701994  0.445614  1
  O  O19  1  0.287941  0.573140  0.787705  1
  O  O20  1  0.373126  0.717986  0.044999  1
  O  O21  1  0.626874  0.282014  0.955001  1
  O  O22  1  0.712059  0.426860  0.212295  1
  O  O23  1  0.811971  0.298006  0.554386  1
  O  O24  1  0.148987  0.432619  0.193407  1
  O  O25  1  0.250739  0.307975  0.527727  1
  O  O26  1  0.023287  0.238078  0.929699  1
  O  O27  1  0.443801  0.160762  0.769009  1
  O  O28  1  0.751031  0.050625  0.315849  1
  O  O29  1  0.201323  0.044337  0.240372  1
