# generated using pymatgen
data_V2Co3Te3O16
_symmetry_space_group_name_H-M   'P 1'
_cell_length_a   6.16897819
_cell_length_b   6.16897819
_cell_length_c   9.21539550
_cell_angle_alpha   88.72716913
_cell_angle_beta   91.27283087
_cell_angle_gamma   120.49970554
_symmetry_Int_Tables_number   1
_chemical_formula_structural   V2Co3Te3O16
_chemical_formula_sum   'V2 Co3 Te3 O16'
_cell_volume   302.07859810
_cell_formula_units_Z   1
loop_
 _symmetry_equiv_pos_site_id
 _symmetry_equiv_pos_as_xyz
  1  'x, y, z'
loop_
 _atom_site_type_symbol
 _atom_site_label
 _atom_site_symmetry_multiplicity
 _atom_site_fract_x
 _atom_site_fract_y
 _atom_site_fract_z
 _atom_site_occupancy
  V  V0  1  0.681267  0.318733  0.505706  1
  V  V1  1  0.357883  0.642117  0.962387  1
  Co  Co2  1  0.826752  0.173248  0.204978  1
  Co  Co3  1  0.171193  0.329656  0.699447  1
  Co  Co4  1  0.670344  0.828807  0.699447  1
  Te  Te5  1  0.328491  0.174050  0.214683  1
  Te  Te6  1  0.825950  0.671509  0.214683  1
  Te  Te7  1  0.171496  0.828504  0.711593  1
  O  O8  1  0.352460  0.157866  0.601422  1
  O  O9  1  0.514271  0.485729  0.340760  1
  O  O10  1  0.646935  0.353065  0.095123  1
  O  O11  1  0.002577  0.997423  0.324896  1
  O  O12  1  0.010103  0.989897  0.800708  1
  O  O13  1  0.842134  0.647540  0.601422  1
  O  O14  1  0.506819  0.055437  0.334549  1
  O  O15  1  0.944563  0.493181  0.334549  1
  O  O16  1  0.154766  0.845234  0.107017  1
  O  O17  1  0.824314  0.175686  0.593720  1
  O  O18  1  0.052710  0.535538  0.850701  1
  O  O19  1  0.464462  0.947290  0.850701  1
  O  O20  1  0.325584  0.674416  0.602295  1
  O  O21  1  0.172405  0.330792  0.106712  1
  O  O22  1  0.482234  0.517766  0.851123  1
  O  O23  1  0.669208  0.827595  0.106712  1
