# generated using pymatgen
data_Li5Fe2P2(CO7)2
_symmetry_space_group_name_H-M   'P 1'
_cell_length_a   5.11056517
_cell_length_b   6.45758303
_cell_length_c   8.47066365
_cell_angle_alpha   94.84087139
_cell_angle_beta   94.87873505
_cell_angle_gamma   94.06366399
_symmetry_Int_Tables_number   1
_chemical_formula_structural   Li5Fe2P2(CO7)2
_chemical_formula_sum   'Li5 Fe2 P2 C2 O14'
_cell_volume   276.68282351
_cell_formula_units_Z   1
loop_
 _symmetry_equiv_pos_site_id
 _symmetry_equiv_pos_as_xyz
  1  'x, y, z'
loop_
 _atom_site_type_symbol
 _atom_site_label
 _atom_site_symmetry_multiplicity
 _atom_site_fract_x
 _atom_site_fract_y
 _atom_site_fract_z
 _atom_site_occupancy
  Li  Li0  1  0.303579  0.044464  0.718731  1
  Li  Li1  1  0.378492  0.568502  0.740697  1
  Li  Li2  1  0.641911  0.597066  0.214732  1
  Li  Li3  1  0.814046  0.836476  0.875911  1
  Li  Li4  1  0.754996  0.143152  0.225465  1
  Fe  Fe5  1  0.211128  0.840168  0.317697  1
  Fe  Fe6  1  0.831754  0.333526  0.630014  1
  P  P7  1  0.294548  0.344506  0.393525  1
  P  P8  1  0.737198  0.829690  0.555660  1
  C  C9  1  0.336164  0.853641  0.020652  1
  C  C10  1  0.751214  0.343809  0.920388  1
  O  O11  1  0.091675  0.840063  0.045252  1
  O  O12  1  0.184734  0.400883  0.559165  1
  O  O13  1  0.128592  0.153108  0.310438  1
  O  O14  1  0.295057  0.527970  0.290574  1
  O  O15  1  0.414915  0.839341  0.877546  1
  O  O16  1  0.447230  0.883108  0.536343  1
  O  O17  1  0.556468  0.302393  0.802806  1
  O  O18  1  0.512764  0.876399  0.143345  1
  O  O19  1  0.591957  0.293073  0.428829  1
  O  O20  1  0.706545  0.353618  0.064924  1
  O  O21  1  0.757317  0.648003  0.668211  1
  O  O22  1  0.844011  0.769125  0.396390  1
  O  O23  1  0.982224  0.374938  0.869277  1
  O  O24  1  0.905403  0.020777  0.652232  1
