# generated using pymatgen
data_Li2Mn2C2O7
_symmetry_space_group_name_H-M   'P 1'
_cell_length_a   9.62748570
_cell_length_b   6.85324901
_cell_length_c   10.33578867
_cell_angle_alpha   90.00000000
_cell_angle_beta   115.41748937
_cell_angle_gamma   90.00000000
_symmetry_Int_Tables_number   1
_chemical_formula_structural   Li2Mn2C2O7
_chemical_formula_sum   'Li8 Mn8 C8 O28'
_cell_volume   615.94086878
_cell_formula_units_Z   4
loop_
 _symmetry_equiv_pos_site_id
 _symmetry_equiv_pos_as_xyz
  1  'x, y, z'
loop_
 _atom_site_type_symbol
 _atom_site_label
 _atom_site_symmetry_multiplicity
 _atom_site_fract_x
 _atom_site_fract_y
 _atom_site_fract_z
 _atom_site_occupancy
  Li  Li0  1  0.260656  0.252850  0.996376  1
  Li  Li1  1  0.423829  0.646070  0.850770  1
  Li  Li2  1  0.076171  0.146070  0.149230  1
  Li  Li3  1  0.239344  0.752850  0.003624  1
  Li  Li4  1  0.760656  0.247150  0.996376  1
  Li  Li5  1  0.923829  0.853930  0.850770  1
  Li  Li6  1  0.576171  0.353930  0.149230  1
  Li  Li7  1  0.739344  0.747150  0.003624  1
  Mn  Mn8  1  0.414279  0.952871  0.336108  1
  Mn  Mn9  1  0.914279  0.547129  0.336108  1
  Mn  Mn10  1  0.085721  0.452871  0.663892  1
  Mn  Mn11  1  0.585721  0.047129  0.663892  1
  Mn  Mn12  1  0.273535  0.635376  0.484956  1
  Mn  Mn13  1  0.773535  0.864624  0.484956  1
  Mn  Mn14  1  0.226465  0.135376  0.515044  1
  Mn  Mn15  1  0.726465  0.364624  0.515044  1
  C  C16  1  0.350321  0.355187  0.283232  1
  C  C17  1  0.065056  0.761843  0.150582  1
  C  C18  1  0.434944  0.261843  0.849418  1
  C  C19  1  0.850321  0.144813  0.283232  1
  C  C20  1  0.149679  0.855187  0.716768  1
  C  C21  1  0.565056  0.738157  0.150582  1
  C  C22  1  0.934944  0.238157  0.849418  1
  C  C23  1  0.649679  0.644813  0.716768  1
  O  O24  1  0.382038  0.512104  0.355199  1
  O  O25  1  0.129453  0.408116  0.487076  1
  O  O26  1  0.399477  0.320557  0.185162  1
  O  O27  1  0.268166  0.215567  0.305203  1
  O  O28  1  0.444195  0.760953  0.030721  1
  O  O29  1  0.068892  0.700597  0.269935  1
  O  O30  1  0.184504  0.852638  0.148579  1
  O  O31  1  0.882038  0.987896  0.355199  1
  O  O32  1  0.629453  0.091884  0.487076  1
  O  O33  1  0.899477  0.179443  0.185162  1
  O  O34  1  0.768166  0.284433  0.305203  1
  O  O35  1  0.315496  0.352638  0.851421  1
  O  O36  1  0.431108  0.200597  0.730065  1
  O  O37  1  0.944195  0.739047  0.030721  1
  O  O38  1  0.055805  0.260953  0.969279  1
  O  O39  1  0.568892  0.799403  0.269935  1
  O  O40  1  0.684504  0.647362  0.148579  1
  O  O41  1  0.231834  0.715567  0.694797  1
  O  O42  1  0.100523  0.820557  0.814838  1
  O  O43  1  0.370547  0.908116  0.512924  1
  O  O44  1  0.117962  0.012104  0.644801  1
  O  O45  1  0.815496  0.147362  0.851421  1
  O  O46  1  0.931108  0.299403  0.730065  1
  O  O47  1  0.555805  0.239047  0.969279  1
  O  O48  1  0.731834  0.784433  0.694797  1
  O  O49  1  0.600523  0.679443  0.814838  1
  O  O50  1  0.870547  0.591884  0.512924  1
  O  O51  1  0.617962  0.487896  0.644801  1
