# generated using pymatgen
data_Cs2TiV3(PO6)3
_symmetry_space_group_name_H-M   'P 1'
_cell_length_a   13.90710889
_cell_length_b   13.90710889
_cell_length_c   9.68810421
_cell_angle_alpha   90.00000000
_cell_angle_beta   90.00000000
_cell_angle_gamma   120.00000000
_symmetry_Int_Tables_number   1
_chemical_formula_structural   Cs2TiV3(PO6)3
_chemical_formula_sum   'Cs8 Ti4 V12 P12 O72'
_cell_volume   1622.71833672
_cell_formula_units_Z   4
loop_
 _symmetry_equiv_pos_site_id
 _symmetry_equiv_pos_as_xyz
  1  'x, y, z'
loop_
 _atom_site_type_symbol
 _atom_site_label
 _atom_site_symmetry_multiplicity
 _atom_site_fract_x
 _atom_site_fract_y
 _atom_site_fract_z
 _atom_site_occupancy
  Cs  Cs0  1  0.000000  0.000000  0.090566  1
  Cs  Cs1  1  0.500000  0.500000  0.549478  1
  Cs  Cs2  1  0.500000  0.000000  0.549478  1
  Cs  Cs3  1  0.000000  0.500000  0.049478  1
  Cs  Cs4  1  0.500000  0.000000  0.049478  1
  Cs  Cs5  1  0.000000  0.500000  0.549478  1
  Cs  Cs6  1  0.000000  0.000000  0.590566  1
  Cs  Cs7  1  0.500000  0.500000  0.049478  1
  Ti  Ti8  1  0.666667  0.333333  0.543101  1
  Ti  Ti9  1  0.333333  0.666667  0.043101  1
  Ti  Ti10  1  0.666667  0.333333  0.043101  1
  Ti  Ti11  1  0.333333  0.666667  0.543101  1
  V  V12  1  0.234470  0.973960  0.340370  1
  V  V13  1  0.973960  0.234470  0.840370  1
  V  V14  1  0.739490  0.765530  0.340370  1
  V  V15  1  0.234470  0.260510  0.840370  1
  V  V16  1  0.765530  0.026040  0.340370  1
  V  V17  1  0.260510  0.234470  0.340370  1
  V  V18  1  0.260510  0.026040  0.840370  1
  V  V19  1  0.026040  0.260510  0.340370  1
  V  V20  1  0.026040  0.765530  0.840370  1
  V  V21  1  0.765530  0.739490  0.840370  1
  V  V22  1  0.973960  0.739490  0.340370  1
  V  V23  1  0.739490  0.973960  0.840370  1
  P  P24  1  0.474035  0.199177  0.293275  1
  P  P25  1  0.725141  0.525965  0.293275  1
  P  P26  1  0.199177  0.725141  0.293275  1
  P  P27  1  0.800823  0.525965  0.793275  1
  P  P28  1  0.274859  0.800823  0.793275  1
  P  P29  1  0.725141  0.199177  0.793275  1
  P  P30  1  0.474035  0.274859  0.793275  1
  P  P31  1  0.199177  0.474035  0.793275  1
  P  P32  1  0.525965  0.800823  0.293275  1
  P  P33  1  0.525965  0.725141  0.793275  1
  P  P34  1  0.800823  0.274859  0.293275  1
  P  P35  1  0.274859  0.474035  0.293275  1
  O  O36  1  0.321723  0.774589  0.924445  1
  O  O37  1  0.261842  0.237205  0.507843  1
  O  O38  1  0.547134  0.225411  0.424445  1
  O  O39  1  0.321281  0.392877  0.292778  1
  O  O40  1  0.785015  0.875577  0.794982  1
  O  O41  1  0.774589  0.452866  0.924445  1
  O  O42  1  0.124423  0.214985  0.294982  1
  O  O43  1  0.261842  0.024636  0.007843  1
  O  O44  1  0.452866  0.774589  0.424445  1
  O  O45  1  0.225411  0.678277  0.424445  1
  O  O46  1  0.678277  0.452866  0.424445  1
  O  O47  1  0.774589  0.321723  0.424445  1
  O  O48  1  0.909438  0.785015  0.794982  1
  O  O49  1  0.024636  0.762795  0.007843  1
  O  O50  1  0.146471  0.733064  0.791973  1
  O  O51  1  0.090562  0.875577  0.294982  1
  O  O52  1  0.738158  0.975364  0.007843  1
  O  O53  1  0.975364  0.237205  0.007843  1
  O  O54  1  0.547502  0.225380  0.163034  1
  O  O55  1  0.678277  0.225411  0.924445  1
  O  O56  1  0.762795  0.738158  0.007843  1
  O  O57  1  0.733064  0.586593  0.791973  1
  O  O58  1  0.547502  0.322122  0.663034  1
  O  O59  1  0.266936  0.413407  0.791973  1
  O  O60  1  0.774620  0.322122  0.163034  1
  O  O61  1  0.452498  0.774620  0.163034  1
  O  O62  1  0.146471  0.413407  0.291973  1
  O  O63  1  0.875577  0.785015  0.294982  1
  O  O64  1  0.321723  0.547134  0.424445  1
  O  O65  1  0.677878  0.225380  0.663034  1
  O  O66  1  0.607123  0.928404  0.292778  1
  O  O67  1  0.392877  0.321281  0.792778  1
  O  O68  1  0.928404  0.607123  0.792778  1
  O  O69  1  0.322122  0.774620  0.663034  1
  O  O70  1  0.071596  0.392877  0.792778  1
  O  O71  1  0.738158  0.762795  0.507843  1
  O  O72  1  0.225411  0.547134  0.924445  1
  O  O73  1  0.266936  0.853529  0.291973  1
  O  O74  1  0.071596  0.678719  0.292778  1
  O  O75  1  0.392877  0.071596  0.292778  1
  O  O76  1  0.607123  0.678719  0.792778  1
  O  O77  1  0.413407  0.146471  0.791973  1
  O  O78  1  0.090562  0.214985  0.794982  1
  O  O79  1  0.214985  0.124423  0.794982  1
  O  O80  1  0.225380  0.547502  0.663034  1
  O  O81  1  0.975364  0.738158  0.507843  1
  O  O82  1  0.321281  0.928404  0.792778  1
  O  O83  1  0.024636  0.261842  0.507843  1
  O  O84  1  0.586593  0.853529  0.791973  1
  O  O85  1  0.678719  0.607123  0.292778  1
  O  O86  1  0.733064  0.146471  0.291973  1
  O  O87  1  0.678719  0.071596  0.792778  1
  O  O88  1  0.677878  0.452498  0.163034  1
  O  O89  1  0.785015  0.909438  0.294982  1
  O  O90  1  0.237205  0.261842  0.007843  1
  O  O91  1  0.853529  0.266936  0.791973  1
  O  O92  1  0.322122  0.547502  0.163034  1
  O  O93  1  0.547134  0.321723  0.924445  1
  O  O94  1  0.909438  0.124423  0.294982  1
  O  O95  1  0.762795  0.024636  0.507843  1
  O  O96  1  0.452866  0.678277  0.924445  1
  O  O97  1  0.413407  0.266936  0.291973  1
  O  O98  1  0.124423  0.909438  0.794982  1
  O  O99  1  0.853529  0.586593  0.291973  1
  O  O100  1  0.928404  0.321281  0.292778  1
  O  O101  1  0.237205  0.975364  0.507843  1
  O  O102  1  0.225380  0.677878  0.163034  1
  O  O103  1  0.452498  0.677878  0.663034  1
  O  O104  1  0.774620  0.452498  0.663034  1
  O  O105  1  0.586593  0.733064  0.291973  1
  O  O106  1  0.214985  0.090562  0.294982  1
  O  O107  1  0.875577  0.090562  0.794982  1
