# generated using pymatgen
data_Li5CuF8
_symmetry_space_group_name_H-M   'P 1'
_cell_length_a   5.06304248
_cell_length_b   5.06304248
_cell_length_c   5.91046229
_cell_angle_alpha   90.00000000
_cell_angle_beta   90.00000000
_cell_angle_gamma   109.88067327
_symmetry_Int_Tables_number   1
_chemical_formula_structural   Li5CuF8
_chemical_formula_sum   'Li5 Cu1 F8'
_cell_volume   142.48152259
_cell_formula_units_Z   1
loop_
 _symmetry_equiv_pos_site_id
 _symmetry_equiv_pos_as_xyz
  1  'x, y, z'
loop_
 _atom_site_type_symbol
 _atom_site_label
 _atom_site_symmetry_multiplicity
 _atom_site_fract_x
 _atom_site_fract_y
 _atom_site_fract_z
 _atom_site_occupancy
  Li  Li0  1  0.500000  1.000000  0.271577  1
  Li  Li1  1  0.500000  1.000000  0.728423  1
  Li  Li2  1  0.500000  0.500000  0.500000  1
  Li  Li3  1  0.000000  0.500000  0.271577  1
  Li  Li4  1  0.000000  0.500000  0.728423  1
  Cu  Cu5  1  0.500000  0.500000  0.000000  1
  F  F6  1  0.736415  0.263585  0.500000  1
  F  F7  1  0.731830  0.268170  0.000000  1
  F  F8  1  0.275140  0.275140  0.237677  1
  F  F9  1  0.275140  0.275140  0.762323  1
  F  F10  1  0.724860  0.724860  0.237677  1
  F  F11  1  0.724860  0.724860  0.762323  1
  F  F12  1  0.268170  0.731830  0.000000  1
  F  F13  1  0.263585  0.736415  0.500000  1
