# generated using pymatgen
data_Li4Mn5FeO12
_symmetry_space_group_name_H-M   'P 1'
_cell_length_a   5.16074675
_cell_length_b   5.16074675
_cell_length_c   10.28459209
_cell_angle_alpha   89.97210927
_cell_angle_beta   90.02789073
_cell_angle_gamma   60.47654408
_symmetry_Int_Tables_number   1
_chemical_formula_structural   Li4Mn5FeO12
_chemical_formula_sum   'Li4 Mn5 Fe1 O12'
_cell_volume   238.34612853
_cell_formula_units_Z   1
loop_
 _symmetry_equiv_pos_site_id
 _symmetry_equiv_pos_as_xyz
  1  'x, y, z'
loop_
 _atom_site_type_symbol
 _atom_site_label
 _atom_site_symmetry_multiplicity
 _atom_site_fract_x
 _atom_site_fract_y
 _atom_site_fract_z
 _atom_site_occupancy
  Li  Li0  1  0.845565  0.652916  0.751099  1
  Li  Li1  1  0.652916  0.845565  0.248901  1
  Li  Li2  1  0.347084  0.154435  0.751099  1
  Li  Li3  1  0.154435  0.347084  0.248901  1
  Mn  Mn4  1  0.836045  0.836045  0.500000  1
  Mn  Mn5  1  0.336924  0.336924  0.000000  1
  Mn  Mn6  1  0.663076  0.663076  0.000000  1
  Mn  Mn7  1  0.163955  0.163955  0.500000  1
  Mn  Mn8  1  0.500000  0.500000  0.500000  1
  Fe  Fe9  1  0.000000  0.000000  0.000000  1
  O  O10  1  0.978767  0.666994  0.106403  1
  O  O11  1  0.666994  0.978767  0.893597  1
  O  O12  1  0.842477  0.521388  0.392711  1
  O  O13  1  0.478612  0.157523  0.392711  1
  O  O14  1  0.521388  0.842477  0.607289  1
  O  O15  1  0.826121  0.173879  0.591504  1
  O  O16  1  0.157523  0.478612  0.607289  1
  O  O17  1  0.333006  0.021233  0.106403  1
  O  O18  1  0.662284  0.337716  0.095678  1
  O  O19  1  0.021233  0.333006  0.893597  1
  O  O20  1  0.337716  0.662284  0.904322  1
  O  O21  1  0.173879  0.826121  0.408496  1
