# generated using pymatgen
data_ZnSeO4
_symmetry_space_group_name_H-M   'P 1'
_cell_length_a   4.99602538
_cell_length_b   4.99602538
_cell_length_c   6.59716693
_cell_angle_alpha   90.00000000
_cell_angle_beta   90.00000000
_cell_angle_gamma   112.14916325
_symmetry_Int_Tables_number   1
_chemical_formula_structural   ZnSeO4
_chemical_formula_sum   'Zn2 Se2 O8'
_cell_volume   152.51553570
_cell_formula_units_Z   2
loop_
 _symmetry_equiv_pos_site_id
 _symmetry_equiv_pos_as_xyz
  1  'x, y, z'
loop_
 _atom_site_type_symbol
 _atom_site_label
 _atom_site_symmetry_multiplicity
 _atom_site_fract_x
 _atom_site_fract_y
 _atom_site_fract_z
 _atom_site_occupancy
  Zn  Zn0  1  0.000000  0.000000  0.000000  1
  Zn  Zn1  1  0.000000  0.000000  0.500000  1
  Se  Se2  1  0.649084  0.350916  0.250000  1
  Se  Se3  1  0.350916  0.649084  0.750000  1
  O  O4  1  0.228303  0.280836  0.750000  1
  O  O5  1  0.280836  0.228303  0.250000  1
  O  O6  1  0.754886  0.245114  0.036716  1
  O  O7  1  0.754886  0.245114  0.463284  1
  O  O8  1  0.245114  0.754886  0.536716  1
  O  O9  1  0.245114  0.754886  0.963284  1
  O  O10  1  0.771697  0.719164  0.250000  1
  O  O11  1  0.719164  0.771697  0.750000  1
