# generated using pymatgen
data_SbSeO5
_symmetry_space_group_name_H-M   'P 1'
_cell_length_a   5.25913373
_cell_length_b   9.28539397
_cell_length_c   9.88781160
_cell_angle_alpha   90.00000000
_cell_angle_beta   90.00000000
_cell_angle_gamma   90.00000000
_symmetry_Int_Tables_number   1
_chemical_formula_structural   SbSeO5
_chemical_formula_sum   'Sb4 Se4 O20'
_cell_volume   482.85277567
_cell_formula_units_Z   4
loop_
 _symmetry_equiv_pos_site_id
 _symmetry_equiv_pos_as_xyz
  1  'x, y, z'
loop_
 _atom_site_type_symbol
 _atom_site_label
 _atom_site_symmetry_multiplicity
 _atom_site_fract_x
 _atom_site_fract_y
 _atom_site_fract_z
 _atom_site_occupancy
  Sb  Sb0  1  0.621340  0.340325  0.595518  1
  Sb  Sb1  1  0.121340  0.159675  0.404482  1
  Sb  Sb2  1  0.878660  0.659675  0.095518  1
  Sb  Sb3  1  0.378660  0.840325  0.904482  1
  Se  Se4  1  0.894669  0.023466  0.710033  1
  Se  Se5  1  0.394669  0.476534  0.289967  1
  Se  Se6  1  0.605331  0.976534  0.210033  1
  Se  Se7  1  0.105331  0.523466  0.789967  1
  O  O8  1  0.317354  0.394408  0.747267  1
  O  O9  1  0.220855  0.693499  0.758906  1
  O  O10  1  0.833591  0.515892  0.697655  1
  O  O11  1  0.954960  0.004238  0.539662  1
  O  O12  1  0.415713  0.178819  0.525956  1
  O  O13  1  0.915713  0.321181  0.474044  1
  O  O14  1  0.454960  0.495762  0.460338  1
  O  O15  1  0.333591  0.984108  0.302345  1
  O  O16  1  0.720855  0.806501  0.241094  1
  O  O17  1  0.817354  0.105592  0.252733  1
  O  O18  1  0.182646  0.605592  0.247267  1
  O  O19  1  0.279145  0.306501  0.258906  1
  O  O20  1  0.666409  0.484108  0.197655  1
  O  O21  1  0.545040  0.995762  0.039662  1
  O  O22  1  0.084287  0.821181  0.025956  1
  O  O23  1  0.584287  0.678819  0.974044  1
  O  O24  1  0.045040  0.504238  0.960338  1
  O  O25  1  0.166409  0.015892  0.802345  1
  O  O26  1  0.779145  0.193499  0.741094  1
  O  O27  1  0.682646  0.894408  0.752733  1
