# generated using pymatgen
data_Li4Mn3P3O12F
_symmetry_space_group_name_H-M   'P 1'
_cell_length_a   8.50484944
_cell_length_b   8.50484944
_cell_length_c   8.50484944
_cell_angle_alpha   90.00000000
_cell_angle_beta   90.00000000
_cell_angle_gamma   90.00000000
_symmetry_Int_Tables_number   1
_chemical_formula_structural   Li4Mn3P3O12F
_chemical_formula_sum   'Li8 Mn6 P6 O24 F2'
_cell_volume   615.17671592
_cell_formula_units_Z   2
loop_
 _symmetry_equiv_pos_site_id
 _symmetry_equiv_pos_as_xyz
  1  'x, y, z'
loop_
 _atom_site_type_symbol
 _atom_site_label
 _atom_site_symmetry_multiplicity
 _atom_site_fract_x
 _atom_site_fract_y
 _atom_site_fract_z
 _atom_site_occupancy
  Li  Li0  1  0.142354  0.142354  0.142354  1
  Li  Li1  1  0.142354  0.857646  0.857646  1
  Li  Li2  1  0.357646  0.357646  0.642354  1
  Li  Li3  1  0.357646  0.642354  0.357646  1
  Li  Li4  1  0.642354  0.357646  0.357646  1
  Li  Li5  1  0.642354  0.642354  0.642354  1
  Li  Li6  1  0.857646  0.142354  0.857646  1
  Li  Li7  1  0.857646  0.857646  0.142354  1
  Mn  Mn8  1  0.000000  0.500000  0.250000  1
  Mn  Mn9  1  0.000000  0.500000  0.750000  1
  Mn  Mn10  1  0.250000  0.000000  0.500000  1
  Mn  Mn11  1  0.500000  0.250000  0.000000  1
  Mn  Mn12  1  0.500000  0.750000  0.000000  1
  Mn  Mn13  1  0.750000  0.000000  0.500000  1
  P  P14  1  0.000000  0.250000  0.500000  1
  P  P15  1  0.000000  0.750000  0.500000  1
  P  P16  1  0.250000  0.500000  0.000000  1
  P  P17  1  0.500000  0.000000  0.250000  1
  P  P18  1  0.500000  0.000000  0.750000  1
  P  P19  1  0.750000  0.500000  0.000000  1
  O  O20  1  0.117929  0.351252  0.596836  1
  O  O21  1  0.117929  0.648748  0.403164  1
  O  O22  1  0.096836  0.148748  0.382071  1
  O  O23  1  0.096836  0.851252  0.617929  1
  O  O24  1  0.148748  0.382071  0.096836  1
  O  O25  1  0.148748  0.617929  0.903164  1
  O  O26  1  0.351252  0.403164  0.882071  1
  O  O27  1  0.351252  0.596836  0.117929  1
  O  O28  1  0.403164  0.117929  0.648748  1
  O  O29  1  0.403164  0.882071  0.351252  1
  O  O30  1  0.382071  0.096836  0.148748  1
  O  O31  1  0.382071  0.903164  0.851252  1
  O  O32  1  0.617929  0.096836  0.851252  1
  O  O33  1  0.617929  0.903164  0.148748  1
  O  O34  1  0.596836  0.882071  0.648748  1
  O  O35  1  0.596836  0.117929  0.351252  1
  O  O36  1  0.648748  0.596836  0.882071  1
  O  O37  1  0.648748  0.403164  0.117929  1
  O  O38  1  0.851252  0.382071  0.903164  1
  O  O39  1  0.851252  0.617929  0.096836  1
  O  O40  1  0.903164  0.148748  0.617929  1
  O  O41  1  0.903164  0.851252  0.382071  1
  O  O42  1  0.882071  0.351252  0.403164  1
  O  O43  1  0.882071  0.648748  0.596836  1
  F  F44  1  0.000000  0.000000  0.000000  1
  F  F45  1  0.500000  0.500000  0.500000  1
