# generated using pymatgen
data_Na4MnO3
_symmetry_space_group_name_H-M   'P 1'
_cell_length_a   9.89947861
_cell_length_b   9.89947861
_cell_length_c   9.89947861
_cell_angle_alpha   147.75077986
_cell_angle_beta   115.52665528
_cell_angle_gamma   73.93867622
_symmetry_Int_Tables_number   1
_chemical_formula_structural   Na4MnO3
_chemical_formula_sum   'Na16 Mn4 O12'
_cell_volume   459.31082346
_cell_formula_units_Z   4
loop_
 _symmetry_equiv_pos_site_id
 _symmetry_equiv_pos_as_xyz
  1  'x, y, z'
loop_
 _atom_site_type_symbol
 _atom_site_label
 _atom_site_symmetry_multiplicity
 _atom_site_fract_x
 _atom_site_fract_y
 _atom_site_fract_z
 _atom_site_occupancy
  Na  Na0  1  0.623141  0.044460  0.006513  1
  Na  Na1  1  0.972644  0.222644  0.250000  1
  Na  Na2  1  0.123141  0.616627  0.078680  1
  Na  Na3  1  0.250000  0.848281  0.098281  1
  Na  Na4  1  0.750000  0.651719  0.401719  1
  Na  Na5  1  0.537947  0.544460  0.421320  1
  Na  Na6  1  0.962053  0.883373  0.506513  1
  Na  Na7  1  0.472644  0.722644  0.250000  1
  Na  Na8  1  0.527356  0.277356  0.750000  1
  Na  Na9  1  0.037947  0.116627  0.493487  1
  Na  Na10  1  0.462053  0.455540  0.578680  1
  Na  Na11  1  0.250000  0.348281  0.598281  1
  Na  Na12  1  0.750000  0.151719  0.901719  1
  Na  Na13  1  0.876859  0.383373  0.921320  1
  Na  Na14  1  0.027356  0.777356  0.750000  1
  Na  Na15  1  0.376859  0.955540  0.993487  1
  Mn  Mn16  1  0.671512  0.921512  0.250000  1
  Mn  Mn17  1  0.171512  0.421512  0.250000  1
  Mn  Mn18  1  0.828488  0.578488  0.750000  1
  Mn  Mn19  1  0.328488  0.078488  0.750000  1
  O  O20  1  0.858294  0.750000  0.108294  1
  O  O21  1  0.958427  0.501033  0.289156  1
  O  O22  1  0.541573  0.330729  0.042606  1
  O  O23  1  0.641706  0.250000  0.391706  1
  O  O24  1  0.211877  0.169271  0.210844  1
  O  O25  1  0.288123  0.998967  0.457394  1
  O  O26  1  0.788123  0.830729  0.789156  1
  O  O27  1  0.711877  0.001033  0.542606  1
  O  O28  1  0.358294  0.750000  0.608294  1
  O  O29  1  0.041573  0.498967  0.710844  1
  O  O30  1  0.458427  0.669271  0.957394  1
  O  O31  1  0.141706  0.250000  0.891706  1
