# generated using pymatgen
data_Li4Co5Te3O16
_symmetry_space_group_name_H-M   'P 1'
_cell_length_a   6.17039673
_cell_length_b   6.18917477
_cell_length_c   9.86318491
_cell_angle_alpha   89.62660908
_cell_angle_beta   91.72547694
_cell_angle_gamma   119.87815393
_symmetry_Int_Tables_number   1
_chemical_formula_structural   Li4Co5Te3O16
_chemical_formula_sum   'Li4 Co5 Te3 O16'
_cell_volume   326.44332326
_cell_formula_units_Z   1
loop_
 _symmetry_equiv_pos_site_id
 _symmetry_equiv_pos_as_xyz
  1  'x, y, z'
loop_
 _atom_site_type_symbol
 _atom_site_label
 _atom_site_symmetry_multiplicity
 _atom_site_fract_x
 _atom_site_fract_y
 _atom_site_fract_z
 _atom_site_occupancy
  Li  Li0  1  0.676386  0.331809  0.130979  1
  Li  Li1  1  0.039222  0.020818  0.011740  1
  Li  Li2  1  0.019221  0.011985  0.492754  1
  Li  Li3  1  0.355090  0.674688  0.596734  1
  Co  Co4  1  0.644662  0.329323  0.480482  1
  Co  Co5  1  0.337913  0.167405  0.783473  1
  Co  Co6  1  0.296150  0.650494  0.027947  1
  Co  Co7  1  0.159371  0.824798  0.286940  1
  Co  Co8  1  0.161560  0.333734  0.285745  1
  Te  Te9  1  0.830771  0.662900  0.785074  1
  Te  Te10  1  0.832515  0.169387  0.783411  1
  Te  Te11  1  0.653462  0.827399  0.283518  1
  O  O12  1  0.821728  0.684937  0.399880  1
  O  O13  1  0.971889  0.474910  0.667460  1
  O  O14  1  0.690533  0.331847  0.898655  1
  O  O15  1  0.982611  0.002437  0.678137  1
  O  O16  1  0.968647  0.985980  0.188433  1
  O  O17  1  0.820235  0.141050  0.396758  1
  O  O18  1  0.522307  0.488720  0.669816  1
  O  O19  1  0.530001  0.033563  0.672424  1
  O  O20  1  0.695736  0.860225  0.895372  1
  O  O21  1  0.312669  0.176775  0.391898  1
  O  O22  1  0.490024  0.961265  0.162915  1
  O  O23  1  0.496020  0.530016  0.164002  1
  O  O24  1  0.356274  0.676431  0.396007  1
  O  O25  1  0.153902  0.838490  0.898132  1
  O  O26  1  0.037832  0.498165  0.171083  1
  O  O27  1  0.143267  0.310746  0.892389  1
