# generated using pymatgen
data_Na2CrO4
_symmetry_space_group_name_H-M   'P 1'
_cell_length_a   5.56375244
_cell_length_b   5.76456997
_cell_length_c   8.81328451
_cell_angle_alpha   83.07430871
_cell_angle_beta   73.02047820
_cell_angle_gamma   65.75508287
_symmetry_Int_Tables_number   1
_chemical_formula_structural   Na2CrO4
_chemical_formula_sum   'Na4 Cr2 O8'
_cell_volume   246.49889743
_cell_formula_units_Z   2
loop_
 _symmetry_equiv_pos_site_id
 _symmetry_equiv_pos_as_xyz
  1  'x, y, z'
loop_
 _atom_site_type_symbol
 _atom_site_label
 _atom_site_symmetry_multiplicity
 _atom_site_fract_x
 _atom_site_fract_y
 _atom_site_fract_z
 _atom_site_occupancy
  Na  Na0  1  0.596980  0.720017  0.145247  1
  Na  Na1  1  0.771967  0.246295  0.437251  1
  Na  Na2  1  0.228033  0.753705  0.562749  1
  Na  Na3  1  0.403020  0.279983  0.854753  1
  Cr  Cr4  1  0.297142  0.296029  0.254198  1
  Cr  Cr5  1  0.702858  0.703971  0.745802  1
  O  O6  1  0.541410  0.183603  0.088945  1
  O  O7  1  0.997645  0.463328  0.215381  1
  O  O8  1  0.269427  0.049007  0.367975  1
  O  O9  1  0.383035  0.476178  0.347127  1
  O  O10  1  0.616965  0.523822  0.652873  1
  O  O11  1  0.730573  0.950993  0.632025  1
  O  O12  1  0.002355  0.536672  0.784619  1
  O  O13  1  0.458590  0.816397  0.911055  1
