# generated using pymatgen
data_Mn3FeCo2(PO4)6
_symmetry_space_group_name_H-M   'P 1'
_cell_length_a   8.47402710
_cell_length_b   8.47402710
_cell_length_c   8.47402710
_cell_angle_alpha   60.87582403
_cell_angle_beta   60.87582403
_cell_angle_gamma   60.87582403
_symmetry_Int_Tables_number   1
_chemical_formula_structural   Mn3FeCo2(PO4)6
_chemical_formula_sum   'Mn3 Fe1 Co2 P6 O24'
_cell_volume   438.77901790
_cell_formula_units_Z   1
loop_
 _symmetry_equiv_pos_site_id
 _symmetry_equiv_pos_as_xyz
  1  'x, y, z'
loop_
 _atom_site_type_symbol
 _atom_site_label
 _atom_site_symmetry_multiplicity
 _atom_site_fract_x
 _atom_site_fract_y
 _atom_site_fract_z
 _atom_site_occupancy
  Mn  Mn0  1  0.642343  0.642343  0.642343  1
  Mn  Mn1  1  0.856943  0.856943  0.856943  1
  Mn  Mn2  1  0.356893  0.356893  0.356893  1
  Fe  Fe3  1  0.143955  0.143955  0.143955  1
  Co  Co4  1  0.001464  0.001464  0.001464  1
  Co  Co5  1  0.499331  0.499331  0.499331  1
  P  P6  1  0.956552  0.250038  0.545349  1
  P  P7  1  0.545349  0.956552  0.250038  1
  P  P8  1  0.250038  0.545349  0.956552  1
  P  P9  1  0.749304  0.457706  0.039583  1
  P  P10  1  0.457706  0.039583  0.749304  1
  P  P11  1  0.039583  0.749304  0.457706  1
  O  O12  1  0.511717  0.115680  0.311766  1
  O  O13  1  0.311766  0.511717  0.115680  1
  O  O14  1  0.115680  0.311766  0.511717  1
  O  O15  1  0.937859  0.090595  0.745267  1
  O  O16  1  0.991973  0.187552  0.387703  1
  O  O17  1  0.756932  0.415444  0.558870  1
  O  O18  1  0.745267  0.937859  0.090595  1
  O  O19  1  0.558870  0.756932  0.415444  1
  O  O20  1  0.813503  0.615009  0.006330  1
  O  O21  1  0.415444  0.558870  0.756932  1
  O  O22  1  0.908046  0.259824  0.056253  1
  O  O23  1  0.615009  0.006330  0.813503  1
  O  O24  1  0.387703  0.991973  0.187552  1
  O  O25  1  0.090595  0.745267  0.937859  1
  O  O26  1  0.585664  0.446056  0.238039  1
  O  O27  1  0.187552  0.387703  0.991973  1
  O  O28  1  0.446056  0.238039  0.585664  1
  O  O29  1  0.259824  0.056253  0.908046  1
  O  O30  1  0.238039  0.585664  0.446056  1
  O  O31  1  0.006330  0.813503  0.615009  1
  O  O32  1  0.056253  0.908046  0.259824  1
  O  O33  1  0.879815  0.683064  0.497589  1
  O  O34  1  0.683064  0.497589  0.879815  1
  O  O35  1  0.497589  0.879815  0.683064  1
