# generated using pymatgen
data_Ba4Lu6O13
_symmetry_space_group_name_H-M   'P 1'
_cell_length_a   5.98452639
_cell_length_b   12.17591040
_cell_length_c   12.55726004
_cell_angle_alpha   118.92688959
_cell_angle_beta   103.75121281
_cell_angle_gamma   89.98747431
_symmetry_Int_Tables_number   1
_chemical_formula_structural   Ba4Lu6O13
_chemical_formula_sum   'Ba8 Lu12 O26'
_cell_volume   770.77721639
_cell_formula_units_Z   2
loop_
 _symmetry_equiv_pos_site_id
 _symmetry_equiv_pos_as_xyz
  1  'x, y, z'
loop_
 _atom_site_type_symbol
 _atom_site_label
 _atom_site_symmetry_multiplicity
 _atom_site_fract_x
 _atom_site_fract_y
 _atom_site_fract_z
 _atom_site_occupancy
  Ba  Ba0  1  0.841694  0.969935  0.680370  1
  Ba  Ba1  1  0.665588  0.785073  0.328384  1
  Ba  Ba2  1  0.167449  0.541388  0.328961  1
  Ba  Ba3  1  0.339025  0.707693  0.681732  1
  Ba  Ba4  1  0.661400  0.292793  0.320005  1
  Ba  Ba5  1  0.836567  0.456206  0.671923  1
  Ba  Ba6  1  0.338402  0.213496  0.672058  1
  Ba  Ba7  1  0.165136  0.028127  0.319340  1
  Lu  Lu8  1  0.605915  0.908867  0.071950  1
  Lu  Lu9  1  0.252093  0.875992  0.505095  1
  Lu  Lu10  1  0.063767  0.653474  0.096487  1
  Lu  Lu11  1  0.564985  0.441465  0.096666  1
  Lu  Lu12  1  0.752937  0.628760  0.507389  1
  Lu  Lu13  1  0.034030  0.837283  0.928747  1
  Lu  Lu14  1  0.106802  0.163106  0.072443  1
  Lu  Lu15  1  0.246936  0.371572  0.495178  1
  Lu  Lu16  1  0.465912  0.557736  0.903787  1
  Lu  Lu17  1  0.966205  0.345243  0.903999  1
  Lu  Lu18  1  0.747782  0.122597  0.495188  1
  Lu  Lu19  1  0.534135  0.090055  0.927968  1
  O  O20  1  0.302128  0.999426  0.999235  1
  O  O21  1  0.803008  0.999224  0.999430  1
  O  O22  1  0.640351  0.007319  0.265377  1
  O  O23  1  0.907834  0.804743  0.060996  1
  O  O24  1  0.495376  0.992043  0.487452  1
  O  O25  1  0.122881  0.765517  0.291753  1
  O  O26  1  0.420335  0.615550  0.097314  1
  O  O27  1  0.505445  0.754691  0.509691  1
  O  O28  1  0.007439  0.756587  0.515209  1
  O  O29  1  0.920306  0.480327  0.097003  1
  O  O30  1  0.881697  0.740259  0.734512  1
  O  O31  1  0.626709  0.522758  0.292058  1
  O  O32  1  0.347249  0.744671  0.940909  1
  O  O33  1  0.995235  0.495074  0.488979  1
  O  O34  1  0.506716  0.505862  0.513837  1
  O  O35  1  0.407305  0.254842  0.059747  1
  O  O36  1  0.329761  0.475892  0.708496  1
  O  O37  1  0.147922  0.262096  0.266909  1
  O  O38  1  0.820775  0.519414  0.903327  1
  O  O39  1  0.497878  0.246034  0.489571  1
  O  O40  1  0.998063  0.241755  0.488458  1
  O  O41  1  0.319919  0.383861  0.903092  1
  O  O42  1  0.827283  0.232156  0.708690  1
  O  O43  1  0.006946  0.006130  0.512086  1
  O  O44  1  0.847050  0.196716  0.942485  1
  O  O45  1  0.382332  0.992761  0.733712  1
