# generated using pymatgen
data_Fe(Bi5O8)5
_symmetry_space_group_name_H-M   'P 1'
_cell_length_a   10.36248543
_cell_length_b   10.36248543
_cell_length_c   10.36248543
_cell_angle_alpha   90.00000000
_cell_angle_beta   90.00000000
_cell_angle_gamma   90.00000000
_symmetry_Int_Tables_number   1
_chemical_formula_structural   Fe(Bi5O8)5
_chemical_formula_sum   'Fe1 Bi25 O40'
_cell_volume   1112.73512863
_cell_formula_units_Z   1
loop_
 _symmetry_equiv_pos_site_id
 _symmetry_equiv_pos_as_xyz
  1  'x, y, z'
loop_
 _atom_site_type_symbol
 _atom_site_label
 _atom_site_symmetry_multiplicity
 _atom_site_fract_x
 _atom_site_fract_y
 _atom_site_fract_z
 _atom_site_occupancy
  Fe  Fe0  1  0.000000  0.000000  0.000000  1
  Bi  Bi1  1  0.986872  0.314677  0.174520  1
  Bi  Bi2  1  0.986872  0.685323  0.825480  1
  Bi  Bi3  1  0.825480  0.013128  0.314677  1
  Bi  Bi4  1  0.825480  0.986872  0.685323  1
  Bi  Bi5  1  0.823690  0.680722  0.484871  1
  Bi  Bi6  1  0.823690  0.319278  0.515129  1
  Bi  Bi7  1  0.685323  0.174520  0.013128  1
  Bi  Bi8  1  0.685323  0.825480  0.986872  1
  Bi  Bi9  1  0.680722  0.515129  0.176310  1
  Bi  Bi10  1  0.680722  0.484871  0.823690  1
  Bi  Bi11  1  0.515129  0.176310  0.680722  1
  Bi  Bi12  1  0.515129  0.823690  0.319278  1
  Bi  Bi13  1  0.500000  0.500000  0.500000  1
  Bi  Bi14  1  0.484871  0.823690  0.680722  1
  Bi  Bi15  1  0.484871  0.176310  0.319278  1
  Bi  Bi16  1  0.319278  0.515129  0.823690  1
  Bi  Bi17  1  0.319278  0.484871  0.176310  1
  Bi  Bi18  1  0.314677  0.825480  0.013128  1
  Bi  Bi19  1  0.314677  0.174520  0.986872  1
  Bi  Bi20  1  0.176310  0.319278  0.484871  1
  Bi  Bi21  1  0.176310  0.680722  0.515129  1
  Bi  Bi22  1  0.174520  0.986872  0.314677  1
  Bi  Bi23  1  0.174520  0.013128  0.685323  1
  Bi  Bi24  1  0.013128  0.685323  0.174520  1
  Bi  Bi25  1  0.013128  0.314677  0.825480  1
  O  O26  1  0.989448  0.247690  0.632912  1
  O  O27  1  0.989448  0.752310  0.367088  1
  O  O28  1  0.892289  0.892289  0.107711  1
  O  O29  1  0.892289  0.107711  0.892289  1
  O  O30  1  0.869272  0.488444  0.246635  1
  O  O31  1  0.869272  0.511556  0.753365  1
  O  O32  1  0.808928  0.808928  0.808928  1
  O  O33  1  0.808928  0.191072  0.191072  1
  O  O34  1  0.752310  0.632912  0.010552  1
  O  O35  1  0.752310  0.367088  0.989448  1
  O  O36  1  0.753365  0.130728  0.488444  1
  O  O37  1  0.753365  0.869272  0.511556  1
  O  O38  1  0.685676  0.685676  0.314324  1
  O  O39  1  0.685676  0.314324  0.685676  1
  O  O40  1  0.632912  0.989448  0.247690  1
  O  O41  1  0.632912  0.010552  0.752310  1
  O  O42  1  0.613858  0.386142  0.386142  1
  O  O43  1  0.613858  0.613858  0.613858  1
  O  O44  1  0.511556  0.246635  0.130728  1
  O  O45  1  0.511556  0.753365  0.869272  1
  O  O46  1  0.488444  0.753365  0.130728  1
  O  O47  1  0.488444  0.246635  0.869272  1
  O  O48  1  0.386142  0.613858  0.386142  1
  O  O49  1  0.386142  0.386142  0.613858  1
  O  O50  1  0.367088  0.989448  0.752310  1
  O  O51  1  0.367088  0.010552  0.247690  1
  O  O52  1  0.314324  0.314324  0.314324  1
  O  O53  1  0.314324  0.685676  0.685676  1
  O  O54  1  0.246635  0.130728  0.511556  1
  O  O55  1  0.246635  0.869272  0.488444  1
  O  O56  1  0.247690  0.367088  0.010552  1
  O  O57  1  0.247690  0.632912  0.989448  1
  O  O58  1  0.191072  0.808928  0.191072  1
  O  O59  1  0.191072  0.191072  0.808928  1
  O  O60  1  0.130728  0.511556  0.246635  1
  O  O61  1  0.130728  0.488444  0.753365  1
  O  O62  1  0.107711  0.107711  0.107711  1
  O  O63  1  0.107711  0.892289  0.892289  1
  O  O64  1  0.010552  0.752310  0.632912  1
  O  O65  1  0.010552  0.247690  0.367088  1
