# generated using pymatgen
data_Gd2(MoO4)3
_symmetry_space_group_name_H-M   'P 1'
_cell_length_a   7.51431879
_cell_length_b   7.51431879
_cell_length_c   10.81530351
_cell_angle_alpha   90.00000000
_cell_angle_beta   90.00000000
_cell_angle_gamma   90.00000000
_symmetry_Int_Tables_number   1
_chemical_formula_structural   Gd2(MoO4)3
_chemical_formula_sum   'Gd4 Mo6 O24'
_cell_volume   610.68597022
_cell_formula_units_Z   2
loop_
 _symmetry_equiv_pos_site_id
 _symmetry_equiv_pos_as_xyz
  1  'x, y, z'
loop_
 _atom_site_type_symbol
 _atom_site_label
 _atom_site_symmetry_multiplicity
 _atom_site_fract_x
 _atom_site_fract_y
 _atom_site_fract_z
 _atom_site_occupancy
  Gd  Gd0  1  0.312593  0.187407  0.261811  1
  Gd  Gd1  1  0.687407  0.812593  0.261811  1
  Gd  Gd2  1  0.187407  0.687407  0.738189  1
  Gd  Gd3  1  0.812593  0.312593  0.738189  1
  Mo  Mo4  1  0.292755  0.207245  0.643038  1
  Mo  Mo5  1  0.707245  0.792755  0.643038  1
  Mo  Mo6  1  0.207245  0.707245  0.356962  1
  Mo  Mo7  1  0.792755  0.292755  0.356962  1
  Mo  Mo8  1  0.000000  0.000000  0.000000  1
  Mo  Mo9  1  0.500000  0.500000  0.000000  1
  O  O10  1  0.304855  0.195145  0.478958  1
  O  O11  1  0.695145  0.804855  0.478958  1
  O  O12  1  0.195145  0.695145  0.521042  1
  O  O13  1  0.804855  0.304855  0.521042  1
  O  O14  1  0.873163  0.626837  0.689598  1
  O  O15  1  0.126837  0.373163  0.689598  1
  O  O16  1  0.626837  0.126837  0.310402  1
  O  O17  1  0.373163  0.873163  0.310402  1
  O  O18  1  0.996157  0.775485  0.298354  1
  O  O19  1  0.003843  0.224515  0.298354  1
  O  O20  1  0.724515  0.503843  0.298354  1
  O  O21  1  0.275485  0.496157  0.298354  1
  O  O22  1  0.775485  0.003843  0.701646  1
  O  O23  1  0.224515  0.996157  0.701646  1
  O  O24  1  0.496157  0.724515  0.701646  1
  O  O25  1  0.503843  0.275485  0.701646  1
  O  O26  1  0.040818  0.810775  0.903224  1
  O  O27  1  0.959182  0.189225  0.903224  1
  O  O28  1  0.689225  0.459182  0.903224  1
  O  O29  1  0.310775  0.540818  0.903224  1
  O  O30  1  0.810775  0.959182  0.096776  1
  O  O31  1  0.189225  0.040818  0.096776  1
  O  O32  1  0.540818  0.689225  0.096776  1
  O  O33  1  0.459182  0.310775  0.096776  1
