# generated using pymatgen
data_H8C2SeS2(N2Cl)2
_symmetry_space_group_name_H-M   'P 1'
_cell_length_a   8.20348588
_cell_length_b   16.75984067
_cell_length_c   8.66881621
_cell_angle_alpha   90.00000000
_cell_angle_beta   118.78476349
_cell_angle_gamma   90.00000000
_symmetry_Int_Tables_number   1
_chemical_formula_structural   H8C2SeS2(N2Cl)2
_chemical_formula_sum   'H32 C8 Se4 S8 N16 Cl8'
_cell_volume   1044.59444074
_cell_formula_units_Z   4
loop_
 _symmetry_equiv_pos_site_id
 _symmetry_equiv_pos_as_xyz
  1  'x, y, z'
loop_
 _atom_site_type_symbol
 _atom_site_label
 _atom_site_symmetry_multiplicity
 _atom_site_fract_x
 _atom_site_fract_y
 _atom_site_fract_z
 _atom_site_occupancy
  H  H0  1  0.769595  0.614112  0.466649  1
  H  H1  1  0.230405  0.114112  0.033351  1
  H  H2  1  0.230405  0.385888  0.533351  1
  H  H3  1  0.769595  0.885888  0.966649  1
  H  H4  1  0.733357  0.516827  0.513223  1
  H  H5  1  0.266643  0.016827  0.986777  1
  H  H6  1  0.266643  0.483173  0.486777  1
  H  H7  1  0.733357  0.983173  0.013223  1
  H  H8  1  0.782540  0.639867  0.193077  1
  H  H9  1  0.217460  0.139867  0.306923  1
  H  H10  1  0.217460  0.360133  0.806923  1
  H  H11  1  0.782540  0.860133  0.693077  1
  H  H12  1  0.752865  0.558343  0.054902  1
  H  H13  1  0.247135  0.058343  0.445098  1
  H  H14  1  0.247135  0.441657  0.945098  1
  H  H15  1  0.752865  0.941657  0.554902  1
  H  H16  1  0.960171  0.103775  0.513508  1
  H  H17  1  0.039829  0.603775  0.986492  1
  H  H18  1  0.039829  0.896225  0.486492  1
  H  H19  1  0.960171  0.396225  0.013508  1
  H  H20  1  0.088015  0.182011  0.658733  1
  H  H21  1  0.911985  0.682011  0.841267  1
  H  H22  1  0.911985  0.817989  0.341267  1
  H  H23  1  0.088015  0.317989  0.158733  1
  H  H24  1  0.653477  0.126367  0.298234  1
  H  H25  1  0.346523  0.626367  0.201766  1
  H  H26  1  0.346523  0.873633  0.701766  1
  H  H27  1  0.653477  0.373633  0.798234  1
  H  H28  1  0.548737  0.221354  0.279366  1
  H  H29  1  0.451263  0.721354  0.220634  1
  H  H30  1  0.451263  0.778646  0.720634  1
  H  H31  1  0.548737  0.278646  0.779366  1
  C  C32  1  0.742829  0.530560  0.281067  1
  C  C33  1  0.257171  0.030560  0.218933  1
  C  C34  1  0.257171  0.469440  0.718933  1
  C  C35  1  0.742829  0.969440  0.781067  1
  C  C36  1  0.820379  0.209320  0.471923  1
  C  C37  1  0.179621  0.709320  0.028077  1
  C  C38  1  0.179621  0.790680  0.528077  1
  C  C39  1  0.820379  0.290680  0.971923  1
  Se  Se40  1  0.589625  0.372456  0.372244  1
  Se  Se41  1  0.410375  0.872456  0.127756  1
  Se  Se42  1  0.410375  0.627544  0.627756  1
  Se  Se43  1  0.589625  0.127544  0.872244  1
  S  S44  1  0.695429  0.431134  0.206913  1
  S  S45  1  0.304571  0.931134  0.293087  1
  S  S46  1  0.304571  0.568866  0.793087  1
  S  S47  1  0.695429  0.068866  0.706913  1
  S  S48  1  0.848215  0.306339  0.558253  1
  S  S49  1  0.151785  0.806339  0.941747  1
  S  S50  1  0.151785  0.693661  0.441747  1
  S  S51  1  0.848215  0.193661  0.058253  1
  N  N52  1  0.754199  0.554520  0.431311  1
  N  N53  1  0.245801  0.054520  0.068689  1
  N  N54  1  0.245801  0.445480  0.568689  1
  N  N55  1  0.754199  0.945480  0.931311  1
  N  N56  1  0.765863  0.579177  0.172389  1
  N  N57  1  0.234137  0.079177  0.327611  1
  N  N58  1  0.234137  0.420823  0.827611  1
  N  N59  1  0.765863  0.920823  0.672389  1
  N  N60  1  0.968624  0.162558  0.550518  1
  N  N61  1  0.031376  0.662558  0.949482  1
  N  N62  1  0.031376  0.837442  0.449482  1
  N  N63  1  0.968624  0.337442  0.050518  1
  N  N64  1  0.661067  0.184315  0.341271  1
  N  N65  1  0.338933  0.684315  0.158729  1
  N  N66  1  0.338933  0.815685  0.658729  1
  N  N67  1  0.661067  0.315685  0.841271  1
  Cl  Cl68  1  0.254942  0.496696  0.191828  1
  Cl  Cl69  1  0.745058  0.996696  0.308172  1
  Cl  Cl70  1  0.745058  0.503304  0.808172  1
  Cl  Cl71  1  0.254942  0.003304  0.691828  1
  Cl  Cl72  1  0.291650  0.269184  0.440153  1
  Cl  Cl73  1  0.708350  0.769184  0.059847  1
  Cl  Cl74  1  0.708350  0.730816  0.559847  1
  Cl  Cl75  1  0.291650  0.230816  0.940153  1
