# generated using pymatgen
data_Na3VSiBO7
_symmetry_space_group_name_H-M   'P 1'
_cell_length_a   5.33930726
_cell_length_b   6.61558707
_cell_length_c   8.92759986
_cell_angle_alpha   90.00000000
_cell_angle_beta   91.52996591
_cell_angle_gamma   90.00000000
_symmetry_Int_Tables_number   1
_chemical_formula_structural   Na3VSiBO7
_chemical_formula_sum   'Na6 V2 Si2 B2 O14'
_cell_volume   315.23408171
_cell_formula_units_Z   2
loop_
 _symmetry_equiv_pos_site_id
 _symmetry_equiv_pos_as_xyz
  1  'x, y, z'
loop_
 _atom_site_type_symbol
 _atom_site_label
 _atom_site_symmetry_multiplicity
 _atom_site_fract_x
 _atom_site_fract_y
 _atom_site_fract_z
 _atom_site_occupancy
  Na  Na0  1  0.237193  0.750000  0.084821  1
  Na  Na1  1  0.745712  0.995757  0.252948  1
  Na  Na2  1  0.745712  0.504243  0.252948  1
  Na  Na3  1  0.254288  0.495757  0.747052  1
  Na  Na4  1  0.254288  0.004243  0.747052  1
  Na  Na5  1  0.762807  0.250000  0.915179  1
  V  V6  1  0.210864  0.250000  0.338355  1
  V  V7  1  0.789136  0.750000  0.661645  1
  Si  Si8  1  0.277833  0.750000  0.426978  1
  Si  Si9  1  0.722167  0.250000  0.573022  1
  B  B10  1  0.265347  0.250000  0.065437  1
  B  B11  1  0.734653  0.750000  0.934563  1
  O  O12  1  0.683641  0.750000  0.080724  1
  O  O13  1  0.029202  0.250000  0.128780  1
  O  O14  1  0.454823  0.250000  0.181825  1
  O  O15  1  0.210548  0.946839  0.322518  1
  O  O16  1  0.210548  0.553161  0.322518  1
  O  O17  1  0.574052  0.750000  0.483002  1
  O  O18  1  0.893060  0.250000  0.421234  1
  O  O19  1  0.106940  0.750000  0.578766  1
  O  O20  1  0.425948  0.250000  0.516998  1
  O  O21  1  0.789452  0.446839  0.677482  1
  O  O22  1  0.789452  0.053161  0.677482  1
  O  O23  1  0.545177  0.750000  0.818175  1
  O  O24  1  0.970798  0.750000  0.871220  1
  O  O25  1  0.316359  0.250000  0.919276  1
