# generated using pymatgen
data_NaCuCSO7
_symmetry_space_group_name_H-M   'P 1'
_cell_length_a   5.03179420
_cell_length_b   7.19687830
_cell_length_c   8.83600115
_cell_angle_alpha   90.00000000
_cell_angle_beta   92.00926392
_cell_angle_gamma   90.00000000
_symmetry_Int_Tables_number   1
_chemical_formula_structural   NaCuCSO7
_chemical_formula_sum   'Na2 Cu2 C2 S2 O14'
_cell_volume   319.78323638
_cell_formula_units_Z   2
loop_
 _symmetry_equiv_pos_site_id
 _symmetry_equiv_pos_as_xyz
  1  'x, y, z'
loop_
 _atom_site_type_symbol
 _atom_site_label
 _atom_site_symmetry_multiplicity
 _atom_site_fract_x
 _atom_site_fract_y
 _atom_site_fract_z
 _atom_site_occupancy
  Na  Na0  1  0.763409  0.524277  0.240192  1
  Na  Na1  1  0.236591  0.024277  0.759808  1
  Cu  Cu2  1  0.222098  0.235860  0.348559  1
  Cu  Cu3  1  0.777902  0.735860  0.651441  1
  C  C4  1  0.276309  0.252971  0.083651  1
  C  C5  1  0.723691  0.752971  0.916349  1
  S  S6  1  0.273292  0.748082  0.423307  1
  S  S7  1  0.726708  0.248082  0.576693  1
  O  O8  1  0.698867  0.750760  0.054874  1
  O  O9  1  0.049172  0.249171  0.153421  1
  O  O10  1  0.473665  0.257451  0.187036  1
  O  O11  1  0.224491  0.915036  0.333763  1
  O  O12  1  0.196849  0.578665  0.339605  1
  O  O13  1  0.860890  0.258097  0.425752  1
  O  O14  1  0.571936  0.731779  0.464219  1
  O  O15  1  0.428064  0.231779  0.535781  1
  O  O16  1  0.139110  0.758097  0.574248  1
  O  O17  1  0.803151  0.078665  0.660395  1
  O  O18  1  0.775509  0.415036  0.666237  1
  O  O19  1  0.526335  0.757451  0.812964  1
  O  O20  1  0.950828  0.749171  0.846579  1
  O  O21  1  0.301133  0.250760  0.945126  1
