# generated using pymatgen
data_Li3Fe8(BO3)8
_symmetry_space_group_name_H-M   'P 1'
_cell_length_a   5.25739478
_cell_length_b   9.12361338
_cell_length_c   10.13883016
_cell_angle_alpha   89.49764431
_cell_angle_beta   89.33835283
_cell_angle_gamma   89.02579643
_symmetry_Int_Tables_number   1
_chemical_formula_structural   Li3Fe8(BO3)8
_chemical_formula_sum   'Li3 Fe8 B8 O24'
_cell_volume   486.20297484
_cell_formula_units_Z   1
loop_
 _symmetry_equiv_pos_site_id
 _symmetry_equiv_pos_as_xyz
  1  'x, y, z'
loop_
 _atom_site_type_symbol
 _atom_site_label
 _atom_site_symmetry_multiplicity
 _atom_site_fract_x
 _atom_site_fract_y
 _atom_site_fract_z
 _atom_site_occupancy
  Li  Li0  1  0.182065  0.169361  0.142852  1
  Li  Li1  1  0.321891  0.333500  0.411668  1
  Li  Li2  1  0.659533  0.673187  0.657134  1
  Fe  Fe3  1  0.154352  0.849393  0.630106  1
  Fe  Fe4  1  0.182216  0.503984  0.128212  1
  Fe  Fe5  1  0.329968  0.999072  0.868916  1
  Fe  Fe6  1  0.327818  0.670711  0.378848  1
  Fe  Fe7  1  0.663078  0.334749  0.635047  1
  Fe  Fe8  1  0.673119  0.995357  0.122954  1
  Fe  Fe9  1  0.830240  0.152908  0.384340  1
  Fe  Fe10  1  0.832653  0.491987  0.883386  1
  B  B11  1  0.168305  0.505406  0.621426  1
  B  B12  1  0.169746  0.836981  0.133266  1
  B  B13  1  0.338860  0.001806  0.371846  1
  B  B14  1  0.324050  0.665125  0.873811  1
  B  B15  1  0.658711  0.995850  0.627431  1
  B  B16  1  0.673267  0.323420  0.129888  1
  B  B17  1  0.829808  0.493875  0.378640  1
  B  B18  1  0.829345  0.166792  0.883866  1
  O  O19  1  0.091588  0.501272  0.349502  1
  O  O20  1  0.084927  0.148111  0.891667  1
  O  O21  1  0.218914  0.801473  0.841819  1
  O  O22  1  0.241216  0.874644  0.422457  1
  O  O23  1  0.192369  0.129146  0.360717  1
  O  O24  1  0.169104  0.556891  0.925749  1
  O  O25  1  0.298677  0.376878  0.603805  1
  O  O26  1  0.314299  0.958211  0.089041  1
  O  O27  1  0.281211  0.638266  0.581743  1
  O  O28  1  0.290997  0.713270  0.183681  1
  O  O29  1  0.415229  0.328101  0.144355  1
  O  O30  1  0.411843  0.010480  0.678799  1
  O  O31  1  0.590741  0.005277  0.326310  1
  O  O32  1  0.577452  0.636951  0.850340  1
  O  O33  1  0.720145  0.296205  0.838277  1
  O  O34  1  0.728469  0.356287  0.410500  1
  O  O35  1  0.674830  0.613805  0.380518  1
  O  O36  1  0.667870  0.055200  0.928907  1
  O  O37  1  0.814418  0.437914  0.078556  1
  O  O38  1  0.784027  0.865016  0.628771  1
  O  O39  1  0.767439  0.122005  0.572498  1
  O  O40  1  0.812133  0.194151  0.168825  1
  O  O41  1  0.913245  0.847084  0.127055  1
  O  O42  1  0.918689  0.510006  0.673872  1
