# generated using pymatgen
data_Li24Ti5Cr7O36
_symmetry_space_group_name_H-M   'P 1'
_cell_length_a   5.05823437
_cell_length_b   9.79399005
_cell_length_c   13.40285359
_cell_angle_alpha   97.15466234
_cell_angle_beta   100.68910394
_cell_angle_gamma   94.81454635
_symmetry_Int_Tables_number   1
_chemical_formula_structural   Li24Ti5Cr7O36
_chemical_formula_sum   'Li24 Ti5 Cr7 O36'
_cell_volume   643.46707560
_cell_formula_units_Z   1
loop_
 _symmetry_equiv_pos_site_id
 _symmetry_equiv_pos_as_xyz
  1  'x, y, z'
loop_
 _atom_site_type_symbol
 _atom_site_label
 _atom_site_symmetry_multiplicity
 _atom_site_fract_x
 _atom_site_fract_y
 _atom_site_fract_z
 _atom_site_occupancy
  Li  Li0  1  0.175145  0.998977  0.832160  1
  Li  Li1  1  0.045623  0.000428  0.613108  1
  Li  Li2  1  0.000365  0.748935  0.248912  1
  Li  Li3  1  0.331163  0.749051  0.917165  1
  Li  Li4  1  0.048220  0.500389  0.113133  1
  Li  Li5  1  0.376717  0.500128  0.779307  1
  Li  Li6  1  0.166185  0.501615  0.333142  1
  Li  Li7  1  0.504565  0.499480  0.999377  1
  Li  Li8  1  0.286671  0.502569  0.555559  1
  Li  Li9  1  0.333399  0.249634  0.416914  1
  Li  Li10  1  0.508001  0.997963  0.499997  1
  Li  Li11  1  0.283562  0.997398  0.052231  1
  Li  Li12  1  0.614818  0.998962  0.719946  1
  Li  Li13  1  0.383340  0.998490  0.280370  1
  Li  Li14  1  0.714657  0.001896  0.946805  1
  Li  Li15  1  0.666140  0.750387  0.582559  1
  Li  Li16  1  0.707928  0.498724  0.444926  1
  Li  Li17  1  0.843937  0.499689  0.665898  1
  Li  Li18  1  0.619488  0.500424  0.221419  1
  Li  Li19  1  0.946280  0.498435  0.885754  1
  Li  Li20  1  0.664153  0.249481  0.083499  1
  Li  Li21  1  0.827580  0.002727  0.166897  1
  Li  Li22  1  0.998964  0.250359  0.748757  1
  Li  Li23  1  0.952545  0.002170  0.387198  1
  Ti  Ti24  1  0.107499  0.246820  0.971904  1
  Ti  Ti25  1  0.118174  0.757709  0.473698  1
  Ti  Ti26  1  0.222285  0.247836  0.194042  1
  Ti  Ti27  1  0.453522  0.257417  0.640311  1
  Ti  Ti28  1  0.775083  0.746699  0.807752  1
  Cr  Cr29  1  0.217919  0.750230  0.693852  1
  Cr  Cr30  1  0.550482  0.249462  0.859699  1
  Cr  Cr31  1  0.437437  0.746971  0.135137  1
  Cr  Cr32  1  0.562740  0.748628  0.358518  1
  Cr  Cr33  1  0.772059  0.249173  0.307305  1
  Cr  Cr34  1  0.899024  0.249828  0.526509  1
  Cr  Cr35  1  0.890007  0.751213  0.031523  1
  O  O36  1  0.998167  0.862363  0.930781  1
  O  O37  1  0.068402  0.633651  0.786724  1
  O  O38  1  0.002973  0.362353  0.433167  1
  O  O39  1  0.147773  0.364058  0.644548  1
  O  O40  1  0.271067  0.364192  0.880404  1
  O  O41  1  0.339438  0.866059  0.594750  1
  O  O42  1  0.066988  0.135960  0.286980  1
  O  O43  1  0.182141  0.137281  0.522677  1
  O  O44  1  0.400982  0.133128  0.952750  1
  O  O45  1  0.133206  0.861750  0.140967  1
  O  O46  1  0.265375  0.864798  0.379732  1
  O  O47  1  0.471890  0.861620  0.809071  1
  O  O48  1  0.336043  0.138398  0.741007  1
  O  O49  1  0.196854  0.636933  0.025861  1
  O  O50  1  0.404343  0.635688  0.449851  1
  O  O51  1  0.519063  0.638787  0.689171  1
  O  O52  1  0.330579  0.637075  0.234912  1
  O  O53  1  0.666177  0.637422  0.906916  1
  O  O54  1  0.331118  0.363608  0.095640  1
  O  O55  1  0.672418  0.365234  0.761329  1
  O  O56  1  0.484707  0.362605  0.311835  1
  O  O57  1  0.598986  0.364918  0.546808  1
  O  O58  1  0.805944  0.361196  0.975351  1
  O  O59  1  0.663725  0.859521  0.263352  1
  O  O60  1  0.519043  0.135137  0.189415  1
  O  O61  1  0.738469  0.136123  0.616352  1
  O  O62  1  0.851879  0.138427  0.854871  1
  O  O63  1  0.590944  0.864370  0.052528  1
  O  O64  1  0.813602  0.864270  0.477170  1
  O  O65  1  0.937906  0.864750  0.714377  1
  O  O66  1  0.663045  0.138295  0.400719  1
  O  O67  1  0.742992  0.635253  0.116122  1
  O  O68  1  0.849413  0.637075  0.355814  1
  O  O69  1  0.003393  0.638859  0.574515  1
  O  O70  1  0.928033  0.363835  0.217188  1
  O  O71  1  0.997243  0.134710  0.071064  1
