# generated using pymatgen
data_NaH4CSNO2
_symmetry_space_group_name_H-M   'P 1'
_cell_length_a   9.21847756
_cell_length_b   9.21847756
_cell_length_c   6.43037876
_cell_angle_alpha   77.33707561
_cell_angle_beta   102.66292439
_cell_angle_gamma   82.24949440
_symmetry_Int_Tables_number   1
_chemical_formula_structural   NaH4CSNO2
_chemical_formula_sum   'Na4 H16 C4 S4 N4 O8'
_cell_volume   510.50227103
_cell_formula_units_Z   4
loop_
 _symmetry_equiv_pos_site_id
 _symmetry_equiv_pos_as_xyz
  1  'x, y, z'
loop_
 _atom_site_type_symbol
 _atom_site_label
 _atom_site_symmetry_multiplicity
 _atom_site_fract_x
 _atom_site_fract_y
 _atom_site_fract_z
 _atom_site_occupancy
  Na  Na0  1  0.934150  0.934150  0.250000  1
  Na  Na1  1  0.065850  0.065850  0.750000  1
  Na  Na2  1  0.199324  0.199324  0.250000  1
  Na  Na3  1  0.800676  0.800676  0.750000  1
  H  H4  1  0.975343  0.367284  0.835153  1
  H  H5  1  0.367284  0.975343  0.664847  1
  H  H6  1  0.024657  0.632716  0.164847  1
  H  H7  1  0.632716  0.024657  0.335153  1
  H  H8  1  0.138351  0.370580  0.811142  1
  H  H9  1  0.370580  0.138351  0.688858  1
  H  H10  1  0.861649  0.629420  0.188858  1
  H  H11  1  0.629420  0.861649  0.311142  1
  H  H12  1  0.241158  0.495147  0.395539  1
  H  H13  1  0.495147  0.241158  0.104461  1
  H  H14  1  0.758842  0.504853  0.604461  1
  H  H15  1  0.504853  0.758842  0.895539  1
  H  H16  1  0.259590  0.504174  0.156721  1
  H  H17  1  0.504174  0.259590  0.343279  1
  H  H18  1  0.740410  0.495826  0.843279  1
  H  H19  1  0.495826  0.740410  0.656721  1
  C  C20  1  0.850286  0.298138  0.294889  1
  C  C21  1  0.298138  0.850286  0.205111  1
  C  C22  1  0.149714  0.701862  0.705111  1
  C  C23  1  0.701862  0.149714  0.794889  1
  S  S24  1  0.717108  0.447537  0.242589  1
  S  S25  1  0.447537  0.717108  0.257411  1
  S  S26  1  0.282892  0.552463  0.757411  1
  S  S27  1  0.552463  0.282892  0.742589  1
  N  N28  1  0.944920  0.188194  0.330230  1
  N  N29  1  0.188194  0.944920  0.169770  1
  N  N30  1  0.055080  0.811806  0.669770  1
  N  N31  1  0.811806  0.055080  0.830230  1
  O  O32  1  0.073852  0.299577  0.859542  1
  O  O33  1  0.299577  0.073852  0.640458  1
  O  O34  1  0.926148  0.700423  0.140458  1
  O  O35  1  0.700423  0.926148  0.359542  1
  O  O36  1  0.196928  0.470220  0.256668  1
  O  O37  1  0.470220  0.196928  0.243332  1
  O  O38  1  0.803072  0.529780  0.743332  1
  O  O39  1  0.529780  0.803072  0.756668  1
