# generated using pymatgen
data_K2U2MoO10
_symmetry_space_group_name_H-M   'P 1'
_cell_length_a   8.39681089
_cell_length_b   15.58684742
_cell_length_c   8.43671764
_cell_angle_alpha   90.00000000
_cell_angle_beta   104.60796063
_cell_angle_gamma   90.00000000
_symmetry_Int_Tables_number   1
_chemical_formula_structural   K2U2MoO10
_chemical_formula_sum   'K8 U8 Mo4 O40'
_cell_volume   1068.50191584
_cell_formula_units_Z   4
loop_
 _symmetry_equiv_pos_site_id
 _symmetry_equiv_pos_as_xyz
  1  'x, y, z'
loop_
 _atom_site_type_symbol
 _atom_site_label
 _atom_site_symmetry_multiplicity
 _atom_site_fract_x
 _atom_site_fract_y
 _atom_site_fract_z
 _atom_site_occupancy
  K  K0  1  0.175133  0.263870  0.425342  1
  K  K1  1  0.555426  0.541960  0.773672  1
  K  K2  1  0.555426  0.958040  0.273672  1
  K  K3  1  0.175133  0.236130  0.925342  1
  K  K4  1  0.444574  0.458040  0.226328  1
  K  K5  1  0.824867  0.763870  0.074658  1
  K  K6  1  0.444574  0.041960  0.726328  1
  K  K7  1  0.824867  0.736130  0.574658  1
  U  U8  1  0.116192  0.928790  0.394148  1
  U  U9  1  0.883808  0.428790  0.105852  1
  U  U10  1  0.866059  0.425831  0.582707  1
  U  U11  1  0.866059  0.074169  0.082707  1
  U  U12  1  0.883808  0.071210  0.605852  1
  U  U13  1  0.116192  0.571210  0.894148  1
  U  U14  1  0.133941  0.574169  0.417293  1
  U  U15  1  0.133941  0.925831  0.917293  1
  Mo  Mo16  1  0.378240  0.763273  0.709835  1
  Mo  Mo17  1  0.378240  0.736727  0.209835  1
  Mo  Mo18  1  0.621760  0.263273  0.790165  1
  Mo  Mo19  1  0.621760  0.236727  0.290165  1
  O  O20  1  0.026820  0.956667  0.131701  1
  O  O21  1  0.752852  0.331828  0.320605  1
  O  O22  1  0.973180  0.043333  0.868299  1
  O  O23  1  0.901929  0.465789  0.854825  1
  O  O24  1  0.284550  0.492617  0.906369  1
  O  O25  1  0.335664  0.665769  0.035205  1
  O  O26  1  0.690444  0.499410  0.509953  1
  O  O27  1  0.959524  0.655845  0.879748  1
  O  O28  1  0.030925  0.346276  0.654272  1
  O  O29  1  0.344381  0.671061  0.374221  1
  O  O30  1  0.309556  0.999410  0.990047  1
  O  O31  1  0.752852  0.168172  0.820605  1
  O  O32  1  0.586065  0.729189  0.758559  1
  O  O33  1  0.284550  0.007383  0.406369  1
  O  O34  1  0.664336  0.165769  0.464795  1
  O  O35  1  0.030925  0.153724  0.154272  1
  O  O36  1  0.309556  0.500590  0.490047  1
  O  O37  1  0.335664  0.834231  0.535205  1
  O  O38  1  0.026820  0.543333  0.631701  1
  O  O39  1  0.413935  0.270811  0.241441  1
  O  O40  1  0.715450  0.507383  0.093631  1
  O  O41  1  0.969075  0.846276  0.845728  1
  O  O42  1  0.664336  0.334231  0.964795  1
  O  O43  1  0.040476  0.155845  0.620252  1
  O  O44  1  0.247148  0.668172  0.679395  1
  O  O45  1  0.973180  0.456667  0.368299  1
  O  O46  1  0.413935  0.229189  0.741441  1
  O  O47  1  0.959524  0.844155  0.379748  1
  O  O48  1  0.901929  0.034211  0.354825  1
  O  O49  1  0.655619  0.328939  0.625779  1
  O  O50  1  0.715450  0.992617  0.593631  1
  O  O51  1  0.098071  0.965789  0.645175  1
  O  O52  1  0.969075  0.653724  0.345728  1
  O  O53  1  0.655619  0.171061  0.125779  1
  O  O54  1  0.098071  0.534211  0.145175  1
  O  O55  1  0.247148  0.831828  0.179395  1
  O  O56  1  0.586065  0.770811  0.258559  1
  O  O57  1  0.690444  0.000590  0.009953  1
  O  O58  1  0.040476  0.344155  0.120252  1
  O  O59  1  0.344381  0.828939  0.874221  1
