# generated using pymatgen
data_LiVB2O5
_symmetry_space_group_name_H-M   'P 1'
_cell_length_a   7.33112952
_cell_length_b   7.33112952
_cell_length_c   9.82921664
_cell_angle_alpha   69.62785517
_cell_angle_beta   110.37214483
_cell_angle_gamma   89.12023890
_symmetry_Int_Tables_number   1
_chemical_formula_structural   LiVB2O5
_chemical_formula_sum   'Li4 V4 B8 O20'
_cell_volume   458.61910648
_cell_formula_units_Z   4
loop_
 _symmetry_equiv_pos_site_id
 _symmetry_equiv_pos_as_xyz
  1  'x, y, z'
loop_
 _atom_site_type_symbol
 _atom_site_label
 _atom_site_symmetry_multiplicity
 _atom_site_fract_x
 _atom_site_fract_y
 _atom_site_fract_z
 _atom_site_occupancy
  Li  Li0  1  0.839960  0.839960  0.750000  1
  Li  Li1  1  0.379555  0.379555  0.750000  1
  Li  Li2  1  0.620445  0.620445  0.250000  1
  Li  Li3  1  0.160040  0.160040  0.250000  1
  V  V4  1  0.958979  0.357068  0.849524  1
  V  V5  1  0.642932  0.041021  0.349524  1
  V  V6  1  0.357068  0.958979  0.650476  1
  V  V7  1  0.041021  0.642932  0.150476  1
  B  B8  1  0.761077  0.227507  0.596432  1
  B  B9  1  0.736258  0.598186  0.524578  1
  B  B10  1  0.772493  0.238923  0.096432  1
  B  B11  1  0.401814  0.263742  0.024578  1
  B  B12  1  0.598186  0.736258  0.975422  1
  B  B13  1  0.227507  0.761077  0.903568  1
  B  B14  1  0.263742  0.401814  0.475422  1
  B  B15  1  0.238923  0.772493  0.403568  1
  O  O16  1  0.703895  0.081255  0.541086  1
  O  O17  1  0.854461  0.175470  0.753150  1
  O  O18  1  0.918745  0.296105  0.041086  1
  O  O19  1  0.814317  0.597434  0.672116  1
  O  O20  1  0.334334  0.236050  0.609490  1
  O  O21  1  0.824530  0.145539  0.253150  1
  O  O22  1  0.574829  0.281785  0.988667  1
  O  O23  1  0.281785  0.574829  0.511333  1
  O  O24  1  0.402566  0.185683  0.172116  1
  O  O25  1  0.763950  0.665666  0.109490  1
  O  O26  1  0.236050  0.334334  0.890510  1
  O  O27  1  0.597434  0.814317  0.827884  1
  O  O28  1  0.718215  0.425171  0.488667  1
  O  O29  1  0.425171  0.718215  0.011333  1
  O  O30  1  0.175470  0.854461  0.746850  1
  O  O31  1  0.665666  0.763950  0.390510  1
  O  O32  1  0.185683  0.402566  0.327884  1
  O  O33  1  0.081255  0.703895  0.958914  1
  O  O34  1  0.145539  0.824530  0.246850  1
  O  O35  1  0.296105  0.918745  0.458914  1
