# generated using pymatgen
data_Cr3P6WO24
_symmetry_space_group_name_H-M   'P 1'
_cell_length_a   8.82356355
_cell_length_b   8.82356355
_cell_length_c   8.82356355
_cell_angle_alpha   58.38235842
_cell_angle_beta   58.38235842
_cell_angle_gamma   58.38235842
_symmetry_Int_Tables_number   1
_chemical_formula_structural   Cr3P6WO24
_chemical_formula_sum   'Cr3 P6 W1 O24'
_cell_volume   467.76760841
_cell_formula_units_Z   1
loop_
 _symmetry_equiv_pos_site_id
 _symmetry_equiv_pos_as_xyz
  1  'x, y, z'
loop_
 _atom_site_type_symbol
 _atom_site_label
 _atom_site_symmetry_multiplicity
 _atom_site_fract_x
 _atom_site_fract_y
 _atom_site_fract_z
 _atom_site_occupancy
  Cr  Cr0  1  0.856614  0.856614  0.856614  1
  Cr  Cr1  1  0.642224  0.642224  0.642224  1
  Cr  Cr2  1  0.357304  0.357304  0.357304  1
  P  P3  1  0.250842  0.540080  0.963818  1
  P  P4  1  0.963818  0.250842  0.540080  1
  P  P5  1  0.540080  0.963818  0.250842  1
  P  P6  1  0.473470  0.032648  0.740782  1
  P  P7  1  0.032648  0.740782  0.473470  1
  P  P8  1  0.740782  0.473470  0.032648  1
  W  W9  1  0.140684  0.140684  0.140684  1
  O  O10  1  0.725297  0.489449  0.860405  1
  O  O11  1  0.489449  0.860405  0.725297  1
  O  O12  1  0.077341  0.717715  0.936581  1
  O  O13  1  0.860405  0.725297  0.489449  1
  O  O14  1  0.424513  0.557581  0.783602  1
  O  O15  1  0.218163  0.362562  0.998794  1
  O  O16  1  0.936581  0.077341  0.717715  1
  O  O17  1  0.783602  0.424513  0.557581  1
  O  O18  1  0.557581  0.783602  0.424513  1
  O  O19  1  0.636120  0.007537  0.779144  1
  O  O20  1  0.287505  0.063529  0.922661  1
  O  O21  1  0.007537  0.779144  0.636120  1
  O  O22  1  0.998794  0.218163  0.362562  1
  O  O23  1  0.717715  0.936581  0.077341  1
  O  O24  1  0.362562  0.998794  0.218163  1
  O  O25  1  0.437684  0.215951  0.576143  1
  O  O26  1  0.215951  0.576143  0.437684  1
  O  O27  1  0.063529  0.922661  0.287505  1
  O  O28  1  0.779144  0.636120  0.007537  1
  O  O29  1  0.576143  0.437684  0.215951  1
  O  O30  1  0.135621  0.279669  0.507967  1
  O  O31  1  0.922661  0.287505  0.063529  1
  O  O32  1  0.507967  0.135621  0.279669  1
  O  O33  1  0.279669  0.507967  0.135621  1
