# generated using pymatgen
data_Li7V(O2F)2
_symmetry_space_group_name_H-M   'P 1'
_cell_length_a   5.50375627
_cell_length_b   5.60522621
_cell_length_c   5.81916445
_cell_angle_alpha   62.72239751
_cell_angle_beta   63.85118092
_cell_angle_gamma   61.67792997
_symmetry_Int_Tables_number   1
_chemical_formula_structural   Li7V(O2F)2
_chemical_formula_sum   'Li7 V1 O4 F2'
_cell_volume   134.61648890
_cell_formula_units_Z   1
loop_
 _symmetry_equiv_pos_site_id
 _symmetry_equiv_pos_as_xyz
  1  'x, y, z'
loop_
 _atom_site_type_symbol
 _atom_site_label
 _atom_site_symmetry_multiplicity
 _atom_site_fract_x
 _atom_site_fract_y
 _atom_site_fract_z
 _atom_site_occupancy
  Li  Li0  1  0.479016  0.888396  0.381665  1
  Li  Li1  1  0.749738  0.491659  0.676460  1
  Li  Li2  1  0.073563  0.770270  0.652132  1
  Li  Li3  1  0.380461  0.276145  0.994105  1
  Li  Li4  1  0.877031  0.242551  0.362223  1
  Li  Li5  1  0.423920  0.598010  0.149896  1
  Li  Li6  1  0.481817  0.083586  0.653924  1
  V  V7  1  0.974737  0.996304  0.018973  1
  O  O8  1  0.354106  0.750285  0.794859  1
  O  O9  1  0.202117  0.938342  0.245128  1
  O  O10  1  0.762159  0.104757  0.757389  1
  O  O11  1  0.610386  0.203000  0.250931  1
  F  F12  1  0.862466  0.618892  0.282758  1
  F  F13  1  0.094883  0.376826  0.771532  1
