# generated using pymatgen
data_Li5Sn5(PO4)6
_symmetry_space_group_name_H-M   'P 1'
_cell_length_a   9.15519183
_cell_length_b   9.15616872
_cell_length_c   9.27718041
_cell_angle_alpha   61.64082585
_cell_angle_beta   61.44506556
_cell_angle_gamma   60.08990596
_symmetry_Int_Tables_number   1
_chemical_formula_structural   Li5Sn5(PO4)6
_chemical_formula_sum   'Li5 Sn5 P6 O24'
_cell_volume   562.77018849
_cell_formula_units_Z   1
loop_
 _symmetry_equiv_pos_site_id
 _symmetry_equiv_pos_as_xyz
  1  'x, y, z'
loop_
 _atom_site_type_symbol
 _atom_site_label
 _atom_site_symmetry_multiplicity
 _atom_site_fract_x
 _atom_site_fract_y
 _atom_site_fract_z
 _atom_site_occupancy
  Li  Li0  1  0.865675  0.649428  0.221835  1
  Li  Li1  1  0.180347  0.317737  0.656508  1
  Li  Li2  1  0.861803  0.172559  0.648937  1
  Li  Li3  1  0.308003  0.850940  0.658932  1
  Li  Li4  1  0.197086  0.186774  0.443373  1
  Sn  Sn5  1  0.011615  0.033174  0.959834  1
  Sn  Sn6  1  0.501500  0.501059  0.484350  1
  Sn  Sn7  1  0.845745  0.844493  0.468890  1
  Sn  Sn8  1  0.646511  0.653205  0.041564  1
  Sn  Sn9  1  0.342720  0.331886  0.974564  1
  P  P10  1  0.244033  0.562651  0.265276  1
  P  P11  1  0.934713  0.239060  0.268082  1
  P  P12  1  0.439058  0.029832  0.762467  1
  P  P13  1  0.027132  0.761225  0.782562  1
  P  P14  1  0.766975  0.445361  0.743707  1
  P  P15  1  0.560125  0.929666  0.268969  1
  O  O16  1  0.679112  0.481935  0.917414  1
  O  O17  1  0.459212  0.910044  0.942113  1
  O  O18  1  0.080734  0.733205  0.301811  1
  O  O19  1  0.919807  0.685626  0.972163  1
  O  O20  1  0.223777  0.395476  0.418417  1
  O  O21  1  0.412574  0.586154  0.250360  1
  O  O22  1  0.875762  0.084181  0.314999  1
  O  O23  1  0.760965  0.414523  0.264688  1
  O  O24  1  0.603334  0.972194  0.613642  1
  O  O25  1  0.592383  0.742443  0.265148  1
  O  O26  1  0.275987  0.022363  0.751146  1
  O  O27  1  0.948350  0.777623  0.657296  1
  O  O28  1  0.993632  0.213764  0.411042  1
  O  O29  1  0.741966  0.883349  0.290270  1
  O  O30  1  0.389877  0.227872  0.734717  1
  O  O31  1  0.397437  0.971486  0.422812  1
  O  O32  1  0.227620  0.649307  0.738133  1
  O  O33  1  0.013077  0.950020  0.758137  1
  O  O34  1  0.656718  0.377548  0.720454  1
  O  O35  1  0.798118  0.607559  0.583642  1
  O  O36  1  0.073229  0.261040  0.088502  1
  O  O37  1  0.952733  0.289340  0.742524  1
  O  O38  1  0.551981  0.072066  0.095421  1
  O  O39  1  0.261574  0.558829  0.095303  1
