# generated using pymatgen
data_V3OF11
_symmetry_space_group_name_H-M   'P 1'
_cell_length_a   5.45794285
_cell_length_b   5.26240131
_cell_length_c   14.89432450
_cell_angle_alpha   90.00000000
_cell_angle_beta   100.21868963
_cell_angle_gamma   90.00000000
_symmetry_Int_Tables_number   1
_chemical_formula_structural   V3OF11
_chemical_formula_sum   'V6 O2 F22'
_cell_volume   421.00734104
_cell_formula_units_Z   2
loop_
 _symmetry_equiv_pos_site_id
 _symmetry_equiv_pos_as_xyz
  1  'x, y, z'
loop_
 _atom_site_type_symbol
 _atom_site_label
 _atom_site_symmetry_multiplicity
 _atom_site_fract_x
 _atom_site_fract_y
 _atom_site_fract_z
 _atom_site_occupancy
  V  V0  1  0.122977  0.024612  0.169675  1
  V  V1  1  0.249943  0.500156  0.499962  1
  V  V2  1  0.406273  0.007893  0.834162  1
  V  V3  1  0.593727  0.507893  0.165838  1
  V  V4  1  0.750057  0.000156  0.500038  1
  V  V5  1  0.877023  0.524612  0.830325  1
  O  O6  1  0.625817  0.705562  0.811354  1
  O  O7  1  0.374183  0.205562  0.188646  1
  F  F8  1  0.107209  0.790269  0.808930  1
  F  F9  1  0.279706  0.713322  0.142806  1
  F  F10  1  0.222228  0.293103  0.856601  1
  F  F11  1  0.114586  0.907615  0.280602  1
  F  F12  1  0.291894  0.585694  0.616423  1
  F  F13  1  0.464500  0.912179  0.949939  1
  F  F14  1  0.208914  0.412925  0.383661  1
  F  F15  1  0.379414  0.075977  0.716444  1
  F  F16  1  0.535500  0.412179  0.050061  1
  F  F17  1  0.439614  0.802026  0.475389  1
  F  F18  1  0.777772  0.793103  0.143399  1
  F  F19  1  0.560386  0.302026  0.524611  1
  F  F20  1  0.720294  0.213322  0.857194  1
  F  F21  1  0.620586  0.575977  0.283556  1
  F  F22  1  0.791086  0.912925  0.616339  1
  F  F23  1  0.977557  0.570705  0.948802  1
  F  F24  1  0.708106  0.085694  0.383577  1
  F  F25  1  0.885414  0.407615  0.719398  1
  F  F26  1  0.022443  0.070705  0.051198  1
  F  F27  1  0.939945  0.697964  0.475528  1
  F  F28  1  0.892791  0.290269  0.191070  1
  F  F29  1  0.060055  0.197964  0.524472  1
