# generated using pymatgen
data_Li3Fe3SbO8
_symmetry_space_group_name_H-M   'P 1'
_cell_length_a   6.10683551
_cell_length_b   6.10683551
_cell_length_c   6.10251562
_cell_angle_alpha   60.19535413
_cell_angle_beta   119.80464587
_cell_angle_gamma   120.23487091
_symmetry_Int_Tables_number   1
_chemical_formula_structural   Li3Fe3SbO8
_chemical_formula_sum   'Li3 Fe3 Sb1 O8'
_cell_volume   161.10948615
_cell_formula_units_Z   1
loop_
 _symmetry_equiv_pos_site_id
 _symmetry_equiv_pos_as_xyz
  1  'x, y, z'
loop_
 _atom_site_type_symbol
 _atom_site_label
 _atom_site_symmetry_multiplicity
 _atom_site_fract_x
 _atom_site_fract_y
 _atom_site_fract_z
 _atom_site_occupancy
  Li  Li0  1  0.000000  0.500000  0.500000  1
  Li  Li1  1  0.000000  0.000000  0.000000  1
  Li  Li2  1  0.500000  1.000000  0.500000  1
  Fe  Fe3  1  0.500000  0.000000  0.000000  1
  Fe  Fe4  1  0.500000  0.500000  0.500000  1
  Fe  Fe5  1  0.000000  0.500000  0.000000  1
  Sb  Sb6  1  0.000000  1.000000  0.500000  1
  O  O7  1  0.251190  0.748810  0.220047  1
  O  O8  1  0.775422  0.759365  0.739904  1
  O  O9  1  0.766178  0.233822  0.258093  1
  O  O10  1  0.748810  0.251190  0.779953  1
  O  O11  1  0.240635  0.224578  0.739904  1
  O  O12  1  0.224578  0.240635  0.260096  1
  O  O13  1  0.233822  0.766178  0.741907  1
  O  O14  1  0.759365  0.775422  0.260096  1
