# generated using pymatgen
data_NaV(PO4)2
_symmetry_space_group_name_H-M   'P 1'
_cell_length_a   6.25428996
_cell_length_b   13.72471766
_cell_length_c   7.63566565
_cell_angle_alpha   90.00000000
_cell_angle_beta   98.47756266
_cell_angle_gamma   90.00000000
_symmetry_Int_Tables_number   1
_chemical_formula_structural   NaV(PO4)2
_chemical_formula_sum   'Na4 V4 P8 O32'
_cell_volume   648.27156833
_cell_formula_units_Z   4
loop_
 _symmetry_equiv_pos_site_id
 _symmetry_equiv_pos_as_xyz
  1  'x, y, z'
loop_
 _atom_site_type_symbol
 _atom_site_label
 _atom_site_symmetry_multiplicity
 _atom_site_fract_x
 _atom_site_fract_y
 _atom_site_fract_z
 _atom_site_occupancy
  Na  Na0  1  0.345387  0.204049  0.916953  1
  Na  Na1  1  0.845387  0.295951  0.916953  1
  Na  Na2  1  0.154613  0.704049  0.083047  1
  Na  Na3  1  0.654613  0.795951  0.083047  1
  V  V4  1  0.233121  0.923787  0.760999  1
  V  V5  1  0.733121  0.576213  0.760999  1
  V  V6  1  0.266879  0.423787  0.239001  1
  V  V7  1  0.766879  0.076213  0.239001  1
  P  P8  1  0.246824  0.517167  0.828830  1
  P  P9  1  0.746824  0.982833  0.828830  1
  P  P10  1  0.466353  0.368688  0.640224  1
  P  P11  1  0.966353  0.131312  0.640224  1
  P  P12  1  0.033647  0.868688  0.359776  1
  P  P13  1  0.533647  0.631312  0.359776  1
  P  P14  1  0.253176  0.017167  0.171170  1
  P  P15  1  0.753176  0.482833  0.171170  1
  O  O16  1  0.258899  0.018806  0.970592  1
  O  O17  1  0.758899  0.481194  0.970592  1
  O  O18  1  0.300918  0.829867  0.891462  1
  O  O19  1  0.800918  0.670133  0.891462  1
  O  O20  1  0.299905  0.409677  0.771974  1
  O  O21  1  0.022311  0.542022  0.727807  1
  O  O22  1  0.420025  0.587528  0.782275  1
  O  O23  1  0.036954  0.228141  0.718654  1
  O  O24  1  0.799905  0.090323  0.771974  1
  O  O25  1  0.522311  0.957978  0.727807  1
  O  O26  1  0.920025  0.912472  0.782275  1
  O  O27  1  0.536954  0.271859  0.718654  1
  O  O28  1  0.141545  0.055040  0.635178  1
  O  O29  1  0.641545  0.444960  0.635178  1
  O  O30  1  0.178277  0.859171  0.544639  1
  O  O31  1  0.678277  0.640829  0.544639  1
  O  O32  1  0.321723  0.359171  0.455361  1
  O  O33  1  0.821723  0.140829  0.455361  1
  O  O34  1  0.358455  0.555040  0.364822  1
  O  O35  1  0.858455  0.944960  0.364822  1
  O  O36  1  0.463046  0.728141  0.281346  1
  O  O37  1  0.079975  0.087528  0.217725  1
  O  O38  1  0.477689  0.042022  0.272193  1
  O  O39  1  0.200095  0.909677  0.228026  1
  O  O40  1  0.963046  0.771859  0.281346  1
  O  O41  1  0.579975  0.412472  0.217725  1
  O  O42  1  0.977689  0.457978  0.272193  1
  O  O43  1  0.700095  0.590323  0.228026  1
  O  O44  1  0.199082  0.329867  0.108538  1
  O  O45  1  0.699082  0.170133  0.108538  1
  O  O46  1  0.241101  0.518806  0.029408  1
  O  O47  1  0.741101  0.981194  0.029408  1
