# generated using pymatgen
data_Ba2B2O5
_symmetry_space_group_name_H-M   'P 1'
_cell_length_a   4.22529096
_cell_length_b   6.76494913
_cell_length_c   11.07208827
_cell_angle_alpha   106.33148270
_cell_angle_beta   90.80447614
_cell_angle_gamma   90.11711668
_symmetry_Int_Tables_number   1
_chemical_formula_structural   Ba2B2O5
_chemical_formula_sum   'Ba4 B4 O10'
_cell_volume   303.67756183
_cell_formula_units_Z   2
loop_
 _symmetry_equiv_pos_site_id
 _symmetry_equiv_pos_as_xyz
  1  'x, y, z'
loop_
 _atom_site_type_symbol
 _atom_site_label
 _atom_site_symmetry_multiplicity
 _atom_site_fract_x
 _atom_site_fract_y
 _atom_site_fract_z
 _atom_site_occupancy
  Ba  Ba0  1  0.243772  0.776289  0.605770  1
  Ba  Ba1  1  0.213161  0.322691  0.082140  1
  Ba  Ba2  1  0.786839  0.677309  0.917860  1
  Ba  Ba3  1  0.756228  0.223711  0.394230  1
  B  B4  1  0.337201  0.352135  0.674833  1
  B  B5  1  0.337882  0.864313  0.196312  1
  B  B6  1  0.662118  0.135687  0.803688  1
  B  B7  1  0.662799  0.647865  0.325167  1
  O  O8  1  0.255926  0.328349  0.551076  1
  O  O9  1  0.234044  0.063798  0.222404  1
  O  O10  1  0.287266  0.532152  0.767346  1
  O  O11  1  0.298765  0.718800  0.082867  1
  O  O12  1  0.492614  0.178856  0.699835  1
  O  O13  1  0.507386  0.821144  0.300165  1
  O  O14  1  0.701235  0.281200  0.917133  1
  O  O15  1  0.712734  0.467848  0.232654  1
  O  O16  1  0.765956  0.936202  0.777596  1
  O  O17  1  0.744074  0.671651  0.448924  1
