# generated using pymatgen
data_Li3Y3ZrO8
_symmetry_space_group_name_H-M   'P 1'
_cell_length_a   6.18796728
_cell_length_b   6.18796728
_cell_length_c   6.12722285
_cell_angle_alpha   90.00000000
_cell_angle_beta   90.00000000
_cell_angle_gamma   119.54888434
_symmetry_Int_Tables_number   1
_chemical_formula_structural   Li3Y3ZrO8
_chemical_formula_sum   'Li3 Y3 Zr1 O8'
_cell_volume   204.10169957
_cell_formula_units_Z   1
loop_
 _symmetry_equiv_pos_site_id
 _symmetry_equiv_pos_as_xyz
  1  'x, y, z'
loop_
 _atom_site_type_symbol
 _atom_site_label
 _atom_site_symmetry_multiplicity
 _atom_site_fract_x
 _atom_site_fract_y
 _atom_site_fract_z
 _atom_site_occupancy
  Li  Li0  1  0.500000  0.000000  0.256747  1
  Li  Li1  1  0.000000  0.000000  0.500000  1
  Li  Li2  1  0.000000  0.500000  0.743253  1
  Y  Y3  1  1.000000  0.500000  0.247029  1
  Y  Y4  1  0.500000  0.500000  0.500000  1
  Y  Y5  1  0.500000  0.000000  0.752971  1
  Zr  Zr6  1  0.000000  0.000000  0.000000  1
  O  O7  1  0.193847  0.256228  0.257275  1
  O  O8  1  0.806153  0.743772  0.257275  1
  O  O9  1  0.204503  0.795497  0.000000  1
  O  O10  1  0.795497  0.204503  1.000000  1
  O  O11  1  0.714115  0.285885  0.500000  1
  O  O12  1  0.285885  0.714115  0.500000  1
  O  O13  1  0.256228  0.193847  0.742725  1
  O  O14  1  0.743772  0.806153  0.742725  1
