# generated using pymatgen
data_Li3FeF6
_symmetry_space_group_name_H-M   'P 1'
_cell_length_a   9.15096853
_cell_length_b   9.15096853
_cell_length_c   9.22334769
_cell_angle_alpha   87.51469681
_cell_angle_beta   92.48530319
_cell_angle_gamma   145.78365763
_symmetry_Int_Tables_number   1
_chemical_formula_structural   Li3FeF6
_chemical_formula_sum   'Li12 Fe4 F24'
_cell_volume   433.86858498
_cell_formula_units_Z   4
loop_
 _symmetry_equiv_pos_site_id
 _symmetry_equiv_pos_as_xyz
  1  'x, y, z'
loop_
 _atom_site_type_symbol
 _atom_site_label
 _atom_site_symmetry_multiplicity
 _atom_site_fract_x
 _atom_site_fract_y
 _atom_site_fract_z
 _atom_site_occupancy
  Li  Li0  1  0.331694  0.168523  0.947953  1
  Li  Li1  1  0.831477  0.668306  0.447953  1
  Li  Li2  1  0.959950  0.610036  0.822714  1
  Li  Li3  1  0.392474  0.167934  0.608624  1
  Li  Li4  1  0.389964  0.040050  0.322714  1
  Li  Li5  1  0.832066  0.607526  0.108624  1
  Li  Li6  1  0.167934  0.392474  0.891376  1
  Li  Li7  1  0.610036  0.959950  0.677286  1
  Li  Li8  1  0.607526  0.832066  0.391376  1
  Li  Li9  1  0.040050  0.389964  0.177286  1
  Li  Li10  1  0.168523  0.331694  0.552047  1
  Li  Li11  1  0.668306  0.831477  0.052047  1
  Fe  Fe12  1  0.000000  0.500000  0.500000  1
  Fe  Fe13  1  0.500000  1.000000  0.000000  1
  Fe  Fe14  1  0.800494  0.800494  0.750000  1
  Fe  Fe15  1  0.199506  0.199506  0.250000  1
  F  F16  1  0.776326  0.741514  0.963422  1
  F  F17  1  0.147303  0.995253  0.763818  1
  F  F18  1  0.674377  0.500312  0.719844  1
  F  F19  1  0.258486  0.223674  0.463422  1
  F  F20  1  0.004747  0.852697  0.263818  1
  F  F21  1  0.499688  0.325623  0.219844  1
  F  F22  1  0.669913  0.334036  0.971397  1
  F  F23  1  0.665964  0.330087  0.471397  1
  F  F24  1  0.158464  0.827301  0.513929  1
  F  F25  1  0.172699  0.841536  0.013929  1
  F  F26  1  0.421534  0.932832  0.795384  1
  F  F27  1  0.932832  0.421534  0.704616  1
  F  F28  1  0.067168  0.578466  0.295384  1
  F  F29  1  0.578466  0.067168  0.204616  1
  F  F30  1  0.827301  0.158464  0.986071  1
  F  F31  1  0.841536  0.172699  0.486071  1
  F  F32  1  0.334036  0.669913  0.528603  1
  F  F33  1  0.330087  0.665964  0.028603  1
  F  F34  1  0.500312  0.674377  0.780156  1
  F  F35  1  0.995253  0.147303  0.736182  1
  F  F36  1  0.741514  0.776326  0.536578  1
  F  F37  1  0.325623  0.499688  0.280156  1
  F  F38  1  0.852697  0.004747  0.236182  1
  F  F39  1  0.223674  0.258486  0.036578  1
