# generated using pymatgen
data_Fe5O3F7
_symmetry_space_group_name_H-M   'P 1'
_cell_length_a   4.82201098
_cell_length_b   4.82201098
_cell_length_c   15.70924233
_cell_angle_alpha   89.97928330
_cell_angle_beta   90.02071670
_cell_angle_gamma   88.44515584
_symmetry_Int_Tables_number   1
_chemical_formula_structural   Fe5O3F7
_chemical_formula_sum   'Fe10 O6 F14'
_cell_volume   365.13346566
_cell_formula_units_Z   2
loop_
 _symmetry_equiv_pos_site_id
 _symmetry_equiv_pos_as_xyz
  1  'x, y, z'
loop_
 _atom_site_type_symbol
 _atom_site_label
 _atom_site_symmetry_multiplicity
 _atom_site_fract_x
 _atom_site_fract_y
 _atom_site_fract_z
 _atom_site_occupancy
  Fe  Fe0  1  0.008741  0.968984  0.192983  1
  Fe  Fe1  1  0.021396  0.980102  0.399150  1
  Fe  Fe2  1  0.980102  0.021396  0.600850  1
  Fe  Fe3  1  0.968984  0.008741  0.807017  1
  Fe  Fe4  1  0.974264  0.974264  0.000000  1
  Fe  Fe5  1  0.472325  0.520236  0.301469  1
  Fe  Fe6  1  0.520236  0.472325  0.698531  1
  Fe  Fe7  1  0.500501  0.500501  0.500000  1
  Fe  Fe8  1  0.522930  0.509053  0.894744  1
  Fe  Fe9  1  0.509053  0.522930  0.105256  1
  O  O10  1  0.818073  0.814605  0.900390  1
  O  O11  1  0.814605  0.818073  0.099610  1
  O  O12  1  0.675962  0.322223  0.596790  1
  O  O13  1  0.697361  0.303200  0.793289  1
  O  O14  1  0.303200  0.697361  0.206711  1
  O  O15  1  0.322223  0.675962  0.403210  1
  F  F16  1  0.802869  0.795502  0.296506  1
  F  F17  1  0.796964  0.796964  0.500000  1
  F  F18  1  0.795502  0.802869  0.703494  1
  F  F19  1  0.708670  0.293229  0.210825  1
  F  F20  1  0.701704  0.297321  0.399461  1
  F  F21  1  0.702852  0.306351  0.002062  1
  F  F22  1  0.297321  0.701704  0.600539  1
  F  F23  1  0.293229  0.708670  0.789175  1
  F  F24  1  0.306351  0.702852  0.997938  1
  F  F25  1  0.200924  0.193768  0.295150  1
  F  F26  1  0.193768  0.200924  0.704850  1
  F  F27  1  0.203817  0.203817  0.500000  1
  F  F28  1  0.195801  0.190271  0.098312  1
  F  F29  1  0.190271  0.195801  0.901688  1
