# generated using pymatgen
data_Li5V2Co5O12
_symmetry_space_group_name_H-M   'P 1'
_cell_length_a   5.20091591
_cell_length_b   5.20091591
_cell_length_c   9.85829595
_cell_angle_alpha   84.60870017
_cell_angle_beta   95.39129983
_cell_angle_gamma   58.12165737
_symmetry_Int_Tables_number   1
_chemical_formula_structural   Li5V2Co5O12
_chemical_formula_sum   'Li5 V2 Co5 O12'
_cell_volume   222.16529329
_cell_formula_units_Z   1
loop_
 _symmetry_equiv_pos_site_id
 _symmetry_equiv_pos_as_xyz
  1  'x, y, z'
loop_
 _atom_site_type_symbol
 _atom_site_label
 _atom_site_symmetry_multiplicity
 _atom_site_fract_x
 _atom_site_fract_y
 _atom_site_fract_z
 _atom_site_occupancy
  Li  Li0  1  0.323446  0.828854  0.751973  1
  Li  Li1  1  0.171347  0.673129  0.245337  1
  Li  Li2  1  0.828854  0.323446  0.248027  1
  Li  Li3  1  0.673129  0.171347  0.754663  1
  Li  Li4  1  0.077770  0.077770  0.000000  1
  V  V5  1  0.740518  0.740518  0.000000  1
  V  V6  1  0.252734  0.252734  0.500000  1
  Co  Co7  1  0.921992  0.921992  0.500000  1
  Co  Co8  1  0.493626  0.002797  0.246310  1
  Co  Co9  1  0.002797  0.493626  0.753690  1
  Co  Co10  1  0.580986  0.580986  0.500000  1
  Co  Co11  1  0.416527  0.416527  0.000000  1
  O  O12  1  0.760084  0.052895  0.116236  1
  O  O13  1  0.052895  0.760084  0.883764  1
  O  O14  1  0.604221  0.897258  0.614914  1
  O  O15  1  0.897258  0.604221  0.385086  1
  O  O16  1  0.478532  0.709144  0.117999  1
  O  O17  1  0.709144  0.478532  0.882001  1
  O  O18  1  0.289104  0.524153  0.621351  1
  O  O19  1  0.524153  0.289104  0.378649  1
  O  O20  1  0.102723  0.408011  0.114565  1
  O  O21  1  0.408011  0.102723  0.885435  1
  O  O22  1  0.975097  0.215051  0.622017  1
  O  O23  1  0.215051  0.975097  0.377983  1
