# generated using pymatgen
data_Li2RhO3
_symmetry_space_group_name_H-M   'P 1'
_cell_length_a   5.15389066
_cell_length_b   5.15389066
_cell_length_c   5.15584570
_cell_angle_alpha   80.53149632
_cell_angle_beta   99.46850368
_cell_angle_gamma   59.92831691
_symmetry_Int_Tables_number   1
_chemical_formula_structural   Li2RhO3
_chemical_formula_sum   'Li4 Rh2 O6'
_cell_volume   111.90553722
_cell_formula_units_Z   2
loop_
 _symmetry_equiv_pos_site_id
 _symmetry_equiv_pos_as_xyz
  1  'x, y, z'
loop_
 _atom_site_type_symbol
 _atom_site_label
 _atom_site_symmetry_multiplicity
 _atom_site_fract_x
 _atom_site_fract_y
 _atom_site_fract_z
 _atom_site_occupancy
  Li  Li0  1  0.000000  0.000000  0.500000  1
  Li  Li1  1  0.338395  0.338395  0.500000  1
  Li  Li2  1  0.661605  0.661605  0.500000  1
  Li  Li3  1  0.500000  0.500000  0.000000  1
  Rh  Rh4  1  0.167334  0.167334  0.000000  1
  Rh  Rh5  1  0.832666  0.832666  0.000000  1
  O  O6  1  0.576998  0.075862  0.234377  1
  O  O7  1  0.423002  0.924138  0.765623  1
  O  O8  1  0.769411  0.230589  0.764453  1
  O  O9  1  0.924138  0.423002  0.234377  1
  O  O10  1  0.075862  0.576998  0.765623  1
  O  O11  1  0.230589  0.769411  0.235547  1
