# generated using pymatgen
data_LiFePO5
_symmetry_space_group_name_H-M   'P 1'
_cell_length_a   7.04978461
_cell_length_b   7.98618749
_cell_length_c   7.26558806
_cell_angle_alpha   90.00000000
_cell_angle_beta   118.20036524
_cell_angle_gamma   90.00000000
_symmetry_Int_Tables_number   1
_chemical_formula_structural   LiFePO5
_chemical_formula_sum   'Li4 Fe4 P4 O20'
_cell_volume   360.50401675
_cell_formula_units_Z   4
loop_
 _symmetry_equiv_pos_site_id
 _symmetry_equiv_pos_as_xyz
  1  'x, y, z'
loop_
 _atom_site_type_symbol
 _atom_site_label
 _atom_site_symmetry_multiplicity
 _atom_site_fract_x
 _atom_site_fract_y
 _atom_site_fract_z
 _atom_site_occupancy
  Li  Li0  1  0.220556  0.062382  0.252193  1
  Li  Li1  1  0.720556  0.437618  0.252193  1
  Li  Li2  1  0.279444  0.562382  0.747807  1
  Li  Li3  1  0.779444  0.937618  0.747807  1
  Fe  Fe4  1  0.000102  0.746484  0.249919  1
  Fe  Fe5  1  0.500102  0.753516  0.249919  1
  Fe  Fe6  1  0.499898  0.246484  0.750081  1
  Fe  Fe7  1  0.999898  0.253516  0.750081  1
  P  P8  1  0.751488  0.108271  0.250398  1
  P  P9  1  0.748512  0.608271  0.749602  1
  P  P10  1  0.251488  0.391729  0.250398  1
  P  P11  1  0.248512  0.891729  0.749602  1
  O  O12  1  0.248731  0.822279  0.249509  1
  O  O13  1  0.077011  0.500734  0.263318  1
  O  O14  1  0.652239  0.235018  0.064973  1
  O  O15  1  0.347818  0.264052  0.435105  1
  O  O16  1  0.928473  0.000371  0.239567  1
  O  O17  1  0.748731  0.677721  0.249509  1
  O  O18  1  0.577011  0.999266  0.263318  1
  O  O19  1  0.152239  0.264982  0.064973  1
  O  O20  1  0.571527  0.500371  0.760433  1
  O  O21  1  0.152182  0.764052  0.564895  1
  O  O22  1  0.847818  0.235948  0.435105  1
  O  O23  1  0.428473  0.499629  0.239567  1
  O  O24  1  0.847761  0.735018  0.935027  1
  O  O25  1  0.422989  0.000734  0.736682  1
  O  O26  1  0.251269  0.322279  0.750491  1
  O  O27  1  0.071527  0.999629  0.760433  1
  O  O28  1  0.652182  0.735948  0.564895  1
  O  O29  1  0.347761  0.764982  0.935027  1
  O  O30  1  0.922989  0.499266  0.736682  1
  O  O31  1  0.751269  0.177721  0.750491  1
