# generated using pymatgen
data_LiCo2OF3
_symmetry_space_group_name_H-M   'P 1'
_cell_length_a   5.98628355
_cell_length_b   5.98628355
_cell_length_c   5.16427811
_cell_angle_alpha   90.00000000
_cell_angle_beta   90.00000000
_cell_angle_gamma   120.00000000
_symmetry_Int_Tables_number   1
_chemical_formula_structural   LiCo2OF3
_chemical_formula_sum   'Li2 Co4 O2 F6'
_cell_volume   160.27095420
_cell_formula_units_Z   2
loop_
 _symmetry_equiv_pos_site_id
 _symmetry_equiv_pos_as_xyz
  1  'x, y, z'
loop_
 _atom_site_type_symbol
 _atom_site_label
 _atom_site_symmetry_multiplicity
 _atom_site_fract_x
 _atom_site_fract_y
 _atom_site_fract_z
 _atom_site_occupancy
  Li  Li0  1  0.333333  0.666667  0.026033  1
  Li  Li1  1  0.666667  0.333333  0.973967  1
  Co  Co2  1  0.000000  0.500000  0.500000  1
  Co  Co3  1  0.500000  0.500000  0.500000  1
  Co  Co4  1  0.500000  0.000000  0.500000  1
  Co  Co5  1  0.000000  0.000000  0.000000  1
  O  O6  1  0.333333  0.666667  0.667296  1
  O  O7  1  0.666667  0.333333  0.332704  1
  F  F8  1  0.657495  0.828748  0.219634  1
  F  F9  1  0.171252  0.828748  0.219634  1
  F  F10  1  0.828748  0.657495  0.780366  1
  F  F11  1  0.171252  0.342505  0.219634  1
  F  F12  1  0.828748  0.171252  0.780366  1
  F  F13  1  0.342505  0.171252  0.780366  1
