# generated using pymatgen
data_YbTiO3
_symmetry_space_group_name_H-M   'P 1'
_cell_length_a   5.84682788
_cell_length_b   5.84682788
_cell_length_c   5.84682788
_cell_angle_alpha   53.88953652
_cell_angle_beta   53.88953652
_cell_angle_gamma   53.88953652
_symmetry_Int_Tables_number   1
_chemical_formula_structural   YbTiO3
_chemical_formula_sum   'Yb2 Ti2 O6'
_cell_volume   121.15370592
_cell_formula_units_Z   2
loop_
 _symmetry_equiv_pos_site_id
 _symmetry_equiv_pos_as_xyz
  1  'x, y, z'
loop_
 _atom_site_type_symbol
 _atom_site_label
 _atom_site_symmetry_multiplicity
 _atom_site_fract_x
 _atom_site_fract_y
 _atom_site_fract_z
 _atom_site_occupancy
  Yb  Yb0  1  0.638857  0.638857  0.638857  1
  Yb  Yb1  1  0.361143  0.361143  0.361143  1
  Ti  Ti2  1  0.851754  0.851754  0.851754  1
  Ti  Ti3  1  0.148246  0.148246  0.148246  1
  O  O4  1  0.189687  0.565352  0.973817  1
  O  O5  1  0.973817  0.189687  0.565352  1
  O  O6  1  0.565352  0.973817  0.189687  1
  O  O7  1  0.434648  0.026183  0.810313  1
  O  O8  1  0.026183  0.810313  0.434648  1
  O  O9  1  0.810313  0.434648  0.026183  1
