# generated using pymatgen
data_Na3CuAsCO7
_symmetry_space_group_name_H-M   'P 1'
_cell_length_a   5.30529728
_cell_length_b   6.73838430
_cell_length_c   9.20655953
_cell_angle_alpha   90.00000000
_cell_angle_beta   92.99423509
_cell_angle_gamma   90.00000000
_symmetry_Int_Tables_number   1
_chemical_formula_structural   Na3CuAsCO7
_chemical_formula_sum   'Na6 Cu2 As2 C2 O14'
_cell_volume   328.67718565
_cell_formula_units_Z   2
loop_
 _symmetry_equiv_pos_site_id
 _symmetry_equiv_pos_as_xyz
  1  'x, y, z'
loop_
 _atom_site_type_symbol
 _atom_site_label
 _atom_site_symmetry_multiplicity
 _atom_site_fract_x
 _atom_site_fract_y
 _atom_site_fract_z
 _atom_site_occupancy
  Na  Na0  1  0.231189  0.750000  0.079261  1
  Na  Na1  1  0.754461  0.997117  0.257737  1
  Na  Na2  1  0.754461  0.502883  0.257737  1
  Na  Na3  1  0.245539  0.497117  0.742263  1
  Na  Na4  1  0.245539  0.002883  0.742263  1
  Na  Na5  1  0.768811  0.250000  0.920739  1
  Cu  Cu6  1  0.220154  0.250000  0.347471  1
  Cu  Cu7  1  0.779846  0.750000  0.652529  1
  As  As8  1  0.307611  0.750000  0.420882  1
  As  As9  1  0.692389  0.250000  0.579118  1
  C  C10  1  0.283518  0.250000  0.057803  1
  C  C11  1  0.716482  0.750000  0.942197  1
  O  O12  1  0.741440  0.750000  0.082746  1
  O  O13  1  0.078626  0.250000  0.132372  1
  O  O14  1  0.502769  0.250000  0.124798  1
  O  O15  1  0.224996  0.948727  0.307889  1
  O  O16  1  0.224996  0.551273  0.307889  1
  O  O17  1  0.636171  0.750000  0.447975  1
  O  O18  1  0.825425  0.250000  0.415962  1
  O  O19  1  0.174575  0.750000  0.584038  1
  O  O20  1  0.363829  0.250000  0.552025  1
  O  O21  1  0.775004  0.448727  0.692111  1
  O  O22  1  0.775004  0.051273  0.692111  1
  O  O23  1  0.497231  0.750000  0.875202  1
  O  O24  1  0.921374  0.750000  0.867628  1
  O  O25  1  0.258560  0.250000  0.917254  1
