# generated using pymatgen
data_Li4Nb3Fe5O16
_symmetry_space_group_name_H-M   'P 1'
_cell_length_a   6.12379742
_cell_length_b   6.12379742
_cell_length_c   9.84656574
_cell_angle_alpha   89.57913080
_cell_angle_beta   90.42086920
_cell_angle_gamma   120.20597085
_symmetry_Int_Tables_number   1
_chemical_formula_structural   Li4Nb3Fe5O16
_chemical_formula_sum   'Li4 Nb3 Fe5 O16'
_cell_volume   319.10700110
_cell_formula_units_Z   1
loop_
 _symmetry_equiv_pos_site_id
 _symmetry_equiv_pos_as_xyz
  1  'x, y, z'
loop_
 _atom_site_type_symbol
 _atom_site_label
 _atom_site_symmetry_multiplicity
 _atom_site_fract_x
 _atom_site_fract_y
 _atom_site_fract_z
 _atom_site_occupancy
  Li  Li0  1  0.671478  0.328522  0.099996  1
  Li  Li1  1  0.005261  0.994739  0.998204  1
  Li  Li2  1  0.012463  0.987537  0.508234  1
  Li  Li3  1  0.336061  0.663939  0.617217  1
  Nb  Nb4  1  0.827249  0.172751  0.782196  1
  Nb  Nb5  1  0.663536  0.831333  0.284582  1
  Nb  Nb6  1  0.168667  0.336464  0.284582  1
  Fe  Fe7  1  0.824165  0.659548  0.786857  1
  Fe  Fe8  1  0.654761  0.345239  0.513374  1
  Fe  Fe9  1  0.340452  0.175835  0.786857  1
  Fe  Fe10  1  0.170738  0.829262  0.281097  1
  Fe  Fe11  1  0.323238  0.676762  0.997259  1
  O  O12  1  0.830049  0.686887  0.395325  1
  O  O13  1  0.515625  0.484375  0.672890  1
  O  O14  1  0.670780  0.329220  0.898767  1
  O  O15  1  0.997274  0.002726  0.691572  1
  O  O16  1  0.989769  0.010231  0.180409  1
  O  O17  1  0.313113  0.169951  0.395325  1
  O  O18  1  0.966694  0.478728  0.667620  1
  O  O19  1  0.521272  0.033306  0.667620  1
  O  O20  1  0.160849  0.839151  0.899814  1
  O  O21  1  0.839118  0.160882  0.395066  1
  O  O22  1  0.490787  0.952278  0.155140  1
  O  O23  1  0.047722  0.509213  0.155140  1
  O  O24  1  0.346252  0.653748  0.401190  1
  O  O25  1  0.669913  0.843553  0.902567  1
  O  O26  1  0.486581  0.513419  0.169284  1
  O  O27  1  0.156447  0.330087  0.902567  1
