# generated using pymatgen
data_Mo4P5O24
_symmetry_space_group_name_H-M   'P 1'
_cell_length_a   9.59648435
_cell_length_b   9.59648435
_cell_length_c   15.44831329
_cell_angle_alpha   63.78276472
_cell_angle_beta   116.21723528
_cell_angle_gamma   127.32697725
_symmetry_Int_Tables_number   1
_chemical_formula_structural   Mo4P5O24
_chemical_formula_sum   'Mo8 P10 O48'
_cell_volume   984.29614401
_cell_formula_units_Z   2
loop_
 _symmetry_equiv_pos_site_id
 _symmetry_equiv_pos_as_xyz
  1  'x, y, z'
loop_
 _atom_site_type_symbol
 _atom_site_label
 _atom_site_symmetry_multiplicity
 _atom_site_fract_x
 _atom_site_fract_y
 _atom_site_fract_z
 _atom_site_occupancy
  Mo  Mo0  1  0.520904  0.848436  0.182587  1
  Mo  Mo1  1  0.901045  0.706309  0.981845  1
  Mo  Mo2  1  0.473491  0.146041  0.818776  1
  Mo  Mo3  1  0.151564  0.479096  0.682587  1
  Mo  Mo4  1  0.101027  0.290393  0.021403  1
  Mo  Mo5  1  0.853959  0.526509  0.318776  1
  Mo  Mo6  1  0.293691  0.098955  0.481845  1
  Mo  Mo7  1  0.709607  0.898973  0.521403  1
  P  P8  1  0.181443  0.161409  0.897354  1
  P  P9  1  0.263040  0.752265  0.460322  1
  P  P10  1  0.750508  0.259195  0.040447  1
  P  P11  1  0.740805  0.249492  0.540447  1
  P  P12  1  0.247735  0.736960  0.960322  1
  P  P13  1  0.162362  0.183948  0.603733  1
  P  P14  1  0.402413  0.400374  0.250805  1
  P  P15  1  0.816052  0.837638  0.103733  1
  P  P16  1  0.838591  0.818557  0.397354  1
  P  P17  1  0.599626  0.597587  0.750805  1
  O  O18  1  0.250307  0.562941  0.988376  1
  O  O19  1  0.152028  0.330416  0.609058  1
  O  O20  1  0.857527  0.404254  0.266780  1
  O  O21  1  0.304382  0.946734  0.423322  1
  O  O22  1  0.713997  0.672563  0.841272  1
  O  O23  1  0.327437  0.286003  0.341272  1
  O  O24  1  0.437059  0.749693  0.488376  1
  O  O25  1  0.742147  0.753525  0.480628  1
  O  O26  1  0.283766  0.317991  0.160820  1
  O  O27  1  0.894069  0.739425  0.208777  1
  O  O28  1  0.706070  0.044163  0.406331  1
  O  O29  1  0.409995  0.575027  0.725908  1
  O  O30  1  0.013110  0.976653  0.915947  1
  O  O31  1  0.343428  0.814625  0.053979  1
  O  O32  1  0.424973  0.590005  0.225908  1
  O  O33  1  0.980876  0.029580  0.081038  1
  O  O34  1  0.703058  0.054521  0.574907  1
  O  O35  1  0.955837  0.293930  0.906331  1
  O  O36  1  0.574115  0.258458  0.516611  1
  O  O37  1  0.845670  0.664234  0.398026  1
  O  O38  1  0.970420  0.019124  0.581038  1
  O  O39  1  0.741542  0.425885  0.016611  1
  O  O40  1  0.335766  0.154330  0.898026  1
  O  O41  1  0.053266  0.695618  0.923322  1
  O  O42  1  0.023347  0.986890  0.415947  1
  O  O43  1  0.292832  0.952909  0.597050  1
  O  O44  1  0.649040  0.110959  0.123238  1
  O  O45  1  0.818364  0.345404  0.446242  1
  O  O46  1  0.118564  0.645197  0.379406  1
  O  O47  1  0.117362  0.273205  0.795799  1
  O  O48  1  0.262916  0.253619  0.525947  1
  O  O49  1  0.569254  0.407609  0.769389  1
  O  O50  1  0.246475  0.257853  0.980628  1
  O  O51  1  0.595746  0.142473  0.766780  1
  O  O52  1  0.669584  0.847972  0.109058  1
  O  O53  1  0.592391  0.430746  0.269389  1
  O  O54  1  0.354803  0.881436  0.879406  1
  O  O55  1  0.185375  0.656572  0.553979  1
  O  O56  1  0.399304  0.854631  0.232414  1
  O  O57  1  0.047091  0.707168  0.097050  1
  O  O58  1  0.945479  0.296942  0.074907  1
  O  O59  1  0.145369  0.600696  0.732414  1
  O  O60  1  0.889041  0.350960  0.623238  1
  O  O61  1  0.682009  0.716234  0.660820  1
  O  O62  1  0.746381  0.737084  0.025947  1
  O  O63  1  0.726795  0.882638  0.295799  1
  O  O64  1  0.260575  0.105931  0.708777  1
  O  O65  1  0.654596  0.181636  0.946242  1
