# generated using pymatgen
data_Li2Mn2P2O9
_symmetry_space_group_name_H-M   'P 1'
_cell_length_a   5.63647614
_cell_length_b   8.43213156
_cell_length_c   15.34502381
_cell_angle_alpha   90.00000000
_cell_angle_beta   90.00000000
_cell_angle_gamma   90.00000000
_symmetry_Int_Tables_number   1
_chemical_formula_structural   Li2Mn2P2O9
_chemical_formula_sum   'Li8 Mn8 P8 O36'
_cell_volume   729.31074722
_cell_formula_units_Z   4
loop_
 _symmetry_equiv_pos_site_id
 _symmetry_equiv_pos_as_xyz
  1  'x, y, z'
loop_
 _atom_site_type_symbol
 _atom_site_label
 _atom_site_symmetry_multiplicity
 _atom_site_fract_x
 _atom_site_fract_y
 _atom_site_fract_z
 _atom_site_occupancy
  Li  Li0  1  0.750000  0.962018  0.759884  1
  Li  Li1  1  0.750000  0.810932  0.134969  1
  Li  Li2  1  0.250000  0.689068  0.634969  1
  Li  Li3  1  0.250000  0.537982  0.259884  1
  Li  Li4  1  0.750000  0.462018  0.740116  1
  Li  Li5  1  0.750000  0.310932  0.365031  1
  Li  Li6  1  0.250000  0.189068  0.865031  1
  Li  Li7  1  0.250000  0.037982  0.240116  1
  Mn  Mn8  1  0.500000  0.000000  0.500000  1
  Mn  Mn9  1  0.000000  0.000000  0.500000  1
  Mn  Mn10  1  0.750000  0.795193  0.932472  1
  Mn  Mn11  1  0.250000  0.704807  0.432472  1
  Mn  Mn12  1  0.000000  0.500000  0.000000  1
  Mn  Mn13  1  0.500000  0.500000  0.000000  1
  Mn  Mn14  1  0.750000  0.295193  0.567528  1
  Mn  Mn15  1  0.250000  0.204807  0.067528  1
  P  P16  1  0.250000  0.826948  0.081836  1
  P  P17  1  0.750000  0.797983  0.335853  1
  P  P18  1  0.250000  0.702017  0.835853  1
  P  P19  1  0.750000  0.673052  0.581836  1
  P  P20  1  0.250000  0.326948  0.418164  1
  P  P21  1  0.750000  0.297983  0.164147  1
  P  P22  1  0.250000  0.202017  0.664147  1
  P  P23  1  0.750000  0.173052  0.918164  1
  O  O24  1  0.750000  0.009160  0.963796  1
  O  O25  1  0.750000  0.932740  0.411263  1
  O  O26  1  0.250000  0.931865  0.427116  1
  O  O27  1  0.750000  0.883194  0.249716  1
  O  O28  1  0.250000  0.835366  0.180154  1
  O  O29  1  0.475846  0.805982  0.849365  1
  O  O30  1  0.024154  0.805982  0.849365  1
  O  O31  1  0.983194  0.760108  0.549484  1
  O  O32  1  0.516806  0.760108  0.549484  1
  O  O33  1  0.483194  0.739892  0.049484  1
  O  O34  1  0.016806  0.739892  0.049484  1
  O  O35  1  0.975846  0.694018  0.349365  1
  O  O36  1  0.524154  0.694018  0.349365  1
  O  O37  1  0.750000  0.664634  0.680154  1
  O  O38  1  0.250000  0.616806  0.749716  1
  O  O39  1  0.750000  0.568135  0.927116  1
  O  O40  1  0.250000  0.567260  0.911263  1
  O  O41  1  0.250000  0.490840  0.463796  1
  O  O42  1  0.750000  0.509160  0.536204  1
  O  O43  1  0.750000  0.432740  0.088737  1
  O  O44  1  0.250000  0.431865  0.072884  1
  O  O45  1  0.750000  0.383194  0.250284  1
  O  O46  1  0.250000  0.335366  0.319846  1
  O  O47  1  0.475846  0.305982  0.650635  1
  O  O48  1  0.024154  0.305982  0.650635  1
  O  O49  1  0.983194  0.260108  0.950516  1
  O  O50  1  0.516806  0.260108  0.950516  1
  O  O51  1  0.483194  0.239892  0.450516  1
  O  O52  1  0.016806  0.239892  0.450516  1
  O  O53  1  0.975846  0.194018  0.150635  1
  O  O54  1  0.524154  0.194018  0.150635  1
  O  O55  1  0.750000  0.164634  0.819846  1
  O  O56  1  0.250000  0.116806  0.750284  1
  O  O57  1  0.750000  0.068135  0.572884  1
  O  O58  1  0.250000  0.067260  0.588737  1
  O  O59  1  0.250000  0.990840  0.036204  1
