# generated using pymatgen
data_V3Cr3(SbO8)2
_symmetry_space_group_name_H-M   'P 1'
_cell_length_a   5.93810057
_cell_length_b   5.95317875
_cell_length_c   9.34060368
_cell_angle_alpha   90.66215263
_cell_angle_beta   89.70366603
_cell_angle_gamma   119.78594777
_symmetry_Int_Tables_number   1
_chemical_formula_structural   V3Cr3(SbO8)2
_chemical_formula_sum   'V3 Cr3 Sb2 O16'
_cell_volume   286.55346312
_cell_formula_units_Z   1
loop_
 _symmetry_equiv_pos_site_id
 _symmetry_equiv_pos_as_xyz
  1  'x, y, z'
loop_
 _atom_site_type_symbol
 _atom_site_label
 _atom_site_symmetry_multiplicity
 _atom_site_fract_x
 _atom_site_fract_y
 _atom_site_fract_z
 _atom_site_occupancy
  V  V0  1  0.664006  0.830697  0.784243  1
  V  V1  1  0.836183  0.175044  0.278531  1
  V  V2  1  0.827594  0.665770  0.294701  1
  Cr  Cr3  1  0.171970  0.340548  0.790561  1
  Cr  Cr4  1  0.172684  0.832721  0.791270  1
  Cr  Cr5  1  0.341612  0.168756  0.290619  1
  Sb  Sb6  1  0.321942  0.658943  0.510977  1
  Sb  Sb7  1  0.655736  0.331732  0.009651  1
  O  O8  1  0.164662  0.332539  0.401081  1
  O  O9  1  0.045099  0.522333  0.662957  1
  O  O10  1  0.361420  0.682321  0.894909  1
  O  O11  1  0.984302  0.991031  0.697241  1
  O  O12  1  0.993045  0.000731  0.196379  1
  O  O13  1  0.163102  0.825048  0.397500  1
  O  O14  1  0.491954  0.532595  0.660869  1
  O  O15  1  0.490590  0.957198  0.660340  1
  O  O16  1  0.328029  0.166389  0.903737  1
  O  O17  1  0.655203  0.820584  0.394837  1
  O  O18  1  0.528784  0.043354  0.159021  1
  O  O19  1  0.524994  0.480979  0.164725  1
  O  O20  1  0.682446  0.334765  0.392603  1
  O  O21  1  0.818942  0.161562  0.893787  1
  O  O22  1  0.956654  0.483772  0.159159  1
  O  O23  1  0.819045  0.660386  0.894580  1
