# generated using pymatgen
data_Li24Ti5Cr7O36
_symmetry_space_group_name_H-M   'P 1'
_cell_length_a   5.05174547
_cell_length_b   9.78415152
_cell_length_c   13.41088015
_cell_angle_alpha   97.27081571
_cell_angle_beta   100.75299331
_cell_angle_gamma   94.66849812
_symmetry_Int_Tables_number   1
_chemical_formula_structural   Li24Ti5Cr7O36
_chemical_formula_sum   'Li24 Ti5 Cr7 O36'
_cell_volume   642.22365291
_cell_formula_units_Z   1
loop_
 _symmetry_equiv_pos_site_id
 _symmetry_equiv_pos_as_xyz
  1  'x, y, z'
loop_
 _atom_site_type_symbol
 _atom_site_label
 _atom_site_symmetry_multiplicity
 _atom_site_fract_x
 _atom_site_fract_y
 _atom_site_fract_z
 _atom_site_occupancy
  Li  Li0  1  0.171223  0.998808  0.833083  1
  Li  Li1  1  0.051012  0.999220  0.613861  1
  Li  Li2  1  0.998895  0.750018  0.249723  1
  Li  Li3  1  0.333223  0.749463  0.917467  1
  Li  Li4  1  0.049984  0.499287  0.113112  1
  Li  Li5  1  0.374912  0.498394  0.778340  1
  Li  Li6  1  0.170997  0.498439  0.333379  1
  Li  Li7  1  0.506238  0.499723  0.998712  1
  Li  Li8  1  0.290530  0.500140  0.555540  1
  Li  Li9  1  0.333046  0.249639  0.417016  1
  Li  Li10  1  0.500754  0.000834  0.499609  1
  Li  Li11  1  0.283387  0.998905  0.053545  1
  Li  Li12  1  0.615959  0.000251  0.719436  1
  Li  Li13  1  0.380843  0.000071  0.280885  1
  Li  Li14  1  0.711960  0.000971  0.946578  1
  Li  Li15  1  0.664742  0.750739  0.582795  1
  Li  Li16  1  0.709086  0.500870  0.444971  1
  Li  Li17  1  0.835194  0.502512  0.665824  1
  Li  Li18  1  0.615173  0.500997  0.220684  1
  Li  Li19  1  0.951747  0.500903  0.887986  1
  Li  Li20  1  0.663623  0.250700  0.081808  1
  Li  Li21  1  0.835261  0.999870  0.166355  1
  Li  Li22  1  0.000211  0.249880  0.750578  1
  Li  Li23  1  0.951466  0.999228  0.386420  1
  Ti  Ti24  1  0.115807  0.255335  0.973669  1
  Ti  Ti25  1  0.114807  0.751419  0.473149  1
  Ti  Ti26  1  0.776937  0.747672  0.808142  1
  Ti  Ti27  1  0.774562  0.246395  0.305199  1
  Ti  Ti28  1  0.892756  0.249696  0.527644  1
  Cr  Cr29  1  0.219366  0.749737  0.693997  1
  Cr  Cr30  1  0.217076  0.249711  0.193052  1
  Cr  Cr31  1  0.441177  0.248373  0.640645  1
  Cr  Cr32  1  0.562816  0.250255  0.859803  1
  Cr  Cr33  1  0.445698  0.751161  0.135870  1
  Cr  Cr34  1  0.553213  0.748631  0.358562  1
  Cr  Cr35  1  0.893078  0.750665  0.031695  1
  O  O36  1  0.999040  0.863432  0.930583  1
  O  O37  1  0.068612  0.633135  0.786745  1
  O  O38  1  0.998400  0.364590  0.428931  1
  O  O39  1  0.151576  0.363342  0.645208  1
  O  O40  1  0.265066  0.364436  0.880489  1
  O  O41  1  0.336924  0.864021  0.594558  1
  O  O42  1  0.067756  0.133169  0.285639  1
  O  O43  1  0.187955  0.135764  0.523049  1
  O  O44  1  0.404602  0.134728  0.949747  1
  O  O45  1  0.133907  0.861452  0.140479  1
  O  O46  1  0.267754  0.864874  0.380065  1
  O  O47  1  0.471399  0.862343  0.809264  1
  O  O48  1  0.329607  0.139281  0.734763  1
  O  O49  1  0.197918  0.637075  0.026959  1
  O  O50  1  0.401313  0.633051  0.451551  1
  O  O51  1  0.519954  0.638251  0.689769  1
  O  O52  1  0.334983  0.640511  0.239242  1
  O  O53  1  0.667613  0.637448  0.906640  1
  O  O54  1  0.337890  0.364621  0.094371  1
  O  O55  1  0.669943  0.361127  0.766148  1
  O  O56  1  0.471867  0.361828  0.308208  1
  O  O57  1  0.594771  0.364659  0.550579  1
  O  O58  1  0.812261  0.364145  0.977424  1
  O  O59  1  0.664089  0.861930  0.259033  1
  O  O60  1  0.518451  0.138152  0.188157  1
  O  O61  1  0.734595  0.136121  0.620068  1
  O  O62  1  0.848566  0.136274  0.855996  1
  O  O63  1  0.591519  0.864993  0.050374  1
  O  O64  1  0.806540  0.862414  0.474927  1
  O  O65  1  0.938071  0.864786  0.714543  1
  O  O66  1  0.665853  0.135564  0.404350  1
  O  O67  1  0.742088  0.635724  0.115738  1
  O  O68  1  0.852089  0.637847  0.355199  1
  O  O69  1  0.001411  0.637641  0.574808  1
  O  O70  1  0.937934  0.364809  0.213332  1
  O  O71  1  0.000924  0.137550  0.073929  1
