# generated using pymatgen
data_Gd2V2O7
_symmetry_space_group_name_H-M   'P 1'
_cell_length_a   6.84733441
_cell_length_b   7.04266368
_cell_length_c   7.04795969
_cell_angle_alpha   85.07030256
_cell_angle_beta   83.61944616
_cell_angle_gamma   62.92458868
_symmetry_Int_Tables_number   1
_chemical_formula_structural   Gd2V2O7
_chemical_formula_sum   'Gd4 V4 O14'
_cell_volume   300.51469867
_cell_formula_units_Z   2
loop_
 _symmetry_equiv_pos_site_id
 _symmetry_equiv_pos_as_xyz
  1  'x, y, z'
loop_
 _atom_site_type_symbol
 _atom_site_label
 _atom_site_symmetry_multiplicity
 _atom_site_fract_x
 _atom_site_fract_y
 _atom_site_fract_z
 _atom_site_occupancy
  Gd  Gd0  1  0.728829  0.735789  0.427802  1
  Gd  Gd1  1  0.746366  0.325593  0.846620  1
  Gd  Gd2  1  0.253634  0.674407  0.153380  1
  Gd  Gd3  1  0.271171  0.264211  0.572198  1
  V  V4  1  0.725633  0.845084  0.934469  1
  V  V5  1  0.804084  0.221625  0.335483  1
  V  V6  1  0.195916  0.778375  0.664517  1
  V  V7  1  0.274367  0.154916  0.065531  1
  O  O8  1  0.949098  0.941243  0.807705  1
  O  O9  1  0.897604  0.741007  0.141152  1
  O  O10  1  0.741966  0.671426  0.765909  1
  O  O11  1  0.872099  0.357670  0.514309  1
  O  O12  1  0.473451  0.861474  0.113046  1
  O  O13  1  0.633785  0.424171  0.168481  1
  O  O14  1  0.356383  0.902086  0.539219  1
  O  O15  1  0.643617  0.097914  0.460781  1
  O  O16  1  0.366215  0.575829  0.831519  1
  O  O17  1  0.526549  0.138526  0.886954  1
  O  O18  1  0.127901  0.642330  0.485691  1
  O  O19  1  0.258034  0.328574  0.234091  1
  O  O20  1  0.102396  0.258993  0.858848  1
  O  O21  1  0.050902  0.058757  0.192295  1
