# generated using pymatgen
data_Na4Sn2C4SO16
_symmetry_space_group_name_H-M   'P 1'
_cell_length_a   9.91268813
_cell_length_b   10.06055686
_cell_length_c   10.14440877
_cell_angle_alpha   90.28001856
_cell_angle_beta   119.10757705
_cell_angle_gamma   117.59821127
_symmetry_Int_Tables_number   1
_chemical_formula_structural   Na4Sn2C4SO16
_chemical_formula_sum   'Na8 Sn4 C8 S2 O32'
_cell_volume   747.90036260
_cell_formula_units_Z   2
loop_
 _symmetry_equiv_pos_site_id
 _symmetry_equiv_pos_as_xyz
  1  'x, y, z'
loop_
 _atom_site_type_symbol
 _atom_site_label
 _atom_site_symmetry_multiplicity
 _atom_site_fract_x
 _atom_site_fract_y
 _atom_site_fract_z
 _atom_site_occupancy
  Na  Na0  1  0.758631  0.836068  0.079794  1
  Na  Na1  1  0.162013  0.839986  0.079630  1
  Na  Na2  1  0.752215  0.422084  0.081358  1
  Na  Na3  1  0.248733  0.562027  0.330466  1
  Na  Na4  1  0.753552  0.831532  0.672719  1
  Na  Na5  1  0.735693  0.418946  0.660644  1
  Na  Na6  1  0.255100  0.574300  0.920526  1
  Na  Na7  1  0.258366  0.185940  0.922489  1
  Sn  Sn8  1  0.497845  0.001407  0.499827  1
  Sn  Sn9  1  0.000862  0.001848  0.498078  1
  Sn  Sn10  1  0.996684  0.495058  0.499797  1
  Sn  Sn11  1  0.514076  0.008980  0.997844  1
  C  C12  1  0.568589  0.843277  0.292729  1
  C  C13  1  0.068592  0.789497  0.339041  1
  C  C14  1  0.057688  0.793151  0.726846  1
  C  C15  1  0.437384  0.774554  0.702973  1
  C  C16  1  0.557143  0.216140  0.290589  1
  C  C17  1  0.937553  0.207842  0.278284  1
  C  C18  1  0.926457  0.205551  0.659326  1
  C  C19  1  0.430806  0.158862  0.710131  1
  S  S20  1  0.253700  0.376867  0.124242  1
  S  S21  1  0.756849  0.630209  0.879332  1
  O  O22  1  0.436741  0.813446  0.155063  1
  O  O23  1  0.051297  0.909968  0.352457  1
  O  O24  1  0.719041  0.863671  0.313493  1
  O  O25  1  0.218514  0.817519  0.348477  1
  O  O26  1  0.557870  0.851785  0.417621  1
  O  O27  1  0.371552  0.434986  0.058165  1
  O  O28  1  0.137219  0.447478  0.068342  1
  O  O29  1  0.946712  0.650071  0.308356  1
  O  O30  1  0.952340  0.811505  0.590593  1
  O  O31  1  0.550853  0.908542  0.690354  1
  O  O32  1  0.138610  0.201965  0.061722  1
  O  O33  1  0.367857  0.430905  0.299771  1
  O  O34  1  0.957958  0.343374  0.275782  1
  O  O35  1  0.538433  0.214403  0.155035  1
  O  O36  1  0.314314  0.654414  0.581764  1
  O  O37  1  0.166875  0.906369  0.855413  1
  O  O38  1  0.817291  0.086453  0.155657  1
  O  O39  1  0.672045  0.336411  0.410419  1
  O  O40  1  0.038387  0.657351  0.720622  1
  O  O41  1  0.463878  0.778417  0.840391  1
  O  O42  1  0.646121  0.579428  0.703339  1
  O  O43  1  0.871026  0.808145  0.935573  1
  O  O44  1  0.043594  0.196038  0.416573  1
  O  O45  1  0.448643  0.077594  0.300109  1
  O  O46  1  0.055692  0.342628  0.694364  1
  O  O47  1  0.642152  0.574646  0.945105  1
  O  O48  1  0.882813  0.570432  0.939091  1
  O  O49  1  0.441375  0.144643  0.587042  1
  O  O50  1  0.775079  0.183025  0.638893  1
  O  O51  1  0.276682  0.131759  0.687404  1
  O  O52  1  0.939243  0.080989  0.645598  1
  O  O53  1  0.564810  0.201066  0.850750  1
