# generated using pymatgen
data_Li10Sn(PSe6)2
_symmetry_space_group_name_H-M   'P 1'
_cell_length_a   9.32218105
_cell_length_b   9.32218105
_cell_length_c   13.52214101
_cell_angle_alpha   90.00000000
_cell_angle_beta   90.00000000
_cell_angle_gamma   90.00000000
_symmetry_Int_Tables_number   1
_chemical_formula_structural   Li10Sn(PSe6)2
_chemical_formula_sum   'Li20 Sn2 P4 Se24'
_cell_volume   1175.11542515
_cell_formula_units_Z   2
loop_
 _symmetry_equiv_pos_site_id
 _symmetry_equiv_pos_as_xyz
  1  'x, y, z'
loop_
 _atom_site_type_symbol
 _atom_site_label
 _atom_site_symmetry_multiplicity
 _atom_site_fract_x
 _atom_site_fract_y
 _atom_site_fract_z
 _atom_site_occupancy
  Li  Li0  1  0.227330  0.272895  0.294303  1
  Li  Li1  1  0.772670  0.727105  0.294303  1
  Li  Li2  1  0.272895  0.772670  0.794303  1
  Li  Li3  1  0.727105  0.227330  0.794303  1
  Li  Li4  1  0.227330  0.727105  0.294303  1
  Li  Li5  1  0.772670  0.272895  0.294303  1
  Li  Li6  1  0.272895  0.227330  0.794303  1
  Li  Li7  1  0.727105  0.772670  0.794303  1
  Li  Li8  1  0.000000  0.000000  0.941597  1
  Li  Li9  1  0.000000  0.000000  0.441597  1
  Li  Li10  1  0.500000  0.500000  0.547482  1
  Li  Li11  1  0.500000  0.500000  0.047482  1
  Li  Li12  1  0.257355  0.726157  0.036648  1
  Li  Li13  1  0.742645  0.273843  0.036648  1
  Li  Li14  1  0.273843  0.257355  0.536648  1
  Li  Li15  1  0.726157  0.742645  0.536648  1
  Li  Li16  1  0.273843  0.742645  0.536648  1
  Li  Li17  1  0.726157  0.257355  0.536648  1
  Li  Li18  1  0.257355  0.273843  0.036648  1
  Li  Li19  1  0.742645  0.726157  0.036648  1
  Sn  Sn20  1  0.500000  0.500000  0.801580  1
  Sn  Sn21  1  0.500000  0.500000  0.301580  1
  P  P22  1  0.000000  0.000000  0.685150  1
  P  P23  1  0.000000  0.000000  0.185150  1
  P  P24  1  0.000000  0.500000  0.503405  1
  P  P25  1  0.500000  0.000000  0.003405  1
  Se  Se26  1  0.000000  0.698935  0.410280  1
  Se  Se27  1  0.000000  0.301065  0.410280  1
  Se  Se28  1  0.301065  0.000000  0.910280  1
  Se  Se29  1  0.698935  0.000000  0.910280  1
  Se  Se30  1  0.500000  0.193498  0.099620  1
  Se  Se31  1  0.500000  0.806502  0.099620  1
  Se  Se32  1  0.193498  0.500000  0.599620  1
  Se  Se33  1  0.806502  0.500000  0.599620  1
  Se  Se34  1  0.000000  0.800433  0.092732  1
  Se  Se35  1  0.000000  0.199567  0.092732  1
  Se  Se36  1  0.199567  0.000000  0.592732  1
  Se  Se37  1  0.800433  0.000000  0.592732  1
  Se  Se38  1  0.500000  0.272929  0.408448  1
  Se  Se39  1  0.500000  0.727071  0.408448  1
  Se  Se40  1  0.272929  0.500000  0.908448  1
  Se  Se41  1  0.727071  0.500000  0.908448  1
  Se  Se42  1  0.000000  0.195525  0.778957  1
  Se  Se43  1  0.000000  0.804475  0.778957  1
  Se  Se44  1  0.804475  0.000000  0.278957  1
  Se  Se45  1  0.195525  0.000000  0.278957  1
  Se  Se46  1  0.500000  0.722705  0.692056  1
  Se  Se47  1  0.500000  0.277295  0.692056  1
  Se  Se48  1  0.722705  0.500000  0.192056  1
  Se  Se49  1  0.277295  0.500000  0.192056  1
