# generated using pymatgen
data_Li4Mn3V2Fe3O16
_symmetry_space_group_name_H-M   'P 1'
_cell_length_a   5.89167779
_cell_length_b   5.90503281
_cell_length_c   9.51485719
_cell_angle_alpha   90.86184633
_cell_angle_beta   90.01855432
_cell_angle_gamma   119.26024519
_symmetry_Int_Tables_number   1
_chemical_formula_structural   Li4Mn3V2Fe3O16
_chemical_formula_sum   'Li4 Mn3 V2 Fe3 O16'
_cell_volume   288.74706446
_cell_formula_units_Z   1
loop_
 _symmetry_equiv_pos_site_id
 _symmetry_equiv_pos_as_xyz
  1  'x, y, z'
loop_
 _atom_site_type_symbol
 _atom_site_label
 _atom_site_symmetry_multiplicity
 _atom_site_fract_x
 _atom_site_fract_y
 _atom_site_fract_z
 _atom_site_occupancy
  Li  Li0  1  0.334740  0.679385  0.102593  1
  Li  Li1  1  0.003636  0.996661  0.005792  1
  Li  Li2  1  0.001124  0.991927  0.506005  1
  Li  Li3  1  0.662479  0.337744  0.602165  1
  Mn  Mn4  1  0.172176  0.828362  0.786293  1
  Mn  Mn5  1  0.826477  0.656227  0.284283  1
  Mn  Mn6  1  0.337159  0.173362  0.287171  1
  V  V7  1  0.328797  0.662472  0.511143  1
  V  V8  1  0.672328  0.335316  0.011869  1
  Fe  Fe9  1  0.661915  0.829438  0.785895  1
  Fe  Fe10  1  0.170735  0.338878  0.786582  1
  Fe  Fe11  1  0.827995  0.165488  0.287214  1
  O  O12  1  0.666844  0.825990  0.401966  1
  O  O13  1  0.472691  0.522690  0.649151  1
  O  O14  1  0.332730  0.674033  0.895246  1
  O  O15  1  0.004203  0.992661  0.693934  1
  O  O16  1  0.000287  0.986215  0.194649  1
  O  O17  1  0.166053  0.323265  0.405237  1
  O  O18  1  0.467309  0.960202  0.658540  1
  O  O19  1  0.036903  0.527890  0.660847  1
  O  O20  1  0.833547  0.172558  0.907480  1
  O  O21  1  0.151986  0.797862  0.408251  1
  O  O22  1  0.961305  0.485493  0.160491  1
  O  O23  1  0.516478  0.052665  0.154525  1
  O  O24  1  0.664765  0.344530  0.391679  1
  O  O25  1  0.842458  0.663724  0.900314  1
  O  O26  1  0.546489  0.511903  0.149874  1
  O  O27  1  0.336689  0.163358  0.902967  1
