# generated using pymatgen
data_Mn3(O2F)2
_symmetry_space_group_name_H-M   'P 1'
_cell_length_a   5.56706865
_cell_length_b   4.59980258
_cell_length_c   7.69462822
_cell_angle_alpha   90.00000000
_cell_angle_beta   93.14246975
_cell_angle_gamma   90.00000000
_symmetry_Int_Tables_number   1
_chemical_formula_structural   Mn3(O2F)2
_chemical_formula_sum   'Mn6 O8 F4'
_cell_volume   196.74326515
_cell_formula_units_Z   2
loop_
 _symmetry_equiv_pos_site_id
 _symmetry_equiv_pos_as_xyz
  1  'x, y, z'
loop_
 _atom_site_type_symbol
 _atom_site_label
 _atom_site_symmetry_multiplicity
 _atom_site_fract_x
 _atom_site_fract_y
 _atom_site_fract_z
 _atom_site_occupancy
  Mn  Mn0  1  0.569425  0.529514  0.342103  1
  Mn  Mn1  1  0.232732  0.493130  0.997460  1
  Mn  Mn2  1  0.908814  0.490741  0.680133  1
  Mn  Mn3  1  0.767268  0.993130  0.002540  1
  Mn  Mn4  1  0.430575  0.029514  0.657897  1
  Mn  Mn5  1  0.091186  0.990741  0.319867  1
  O  O6  1  0.721316  0.194231  0.778844  1
  O  O7  1  0.046355  0.192669  0.101108  1
  O  O8  1  0.378572  0.194078  0.425704  1
  O  O9  1  0.210792  0.306315  0.767524  1
  O  O10  1  0.953645  0.692669  0.898892  1
  O  O11  1  0.621428  0.694078  0.574296  1
  O  O12  1  0.278684  0.694231  0.221156  1
  O  O13  1  0.789208  0.806315  0.232476  1
  F  F14  1  0.887773  0.292302  0.438772  1
  F  F15  1  0.544588  0.307020  0.098914  1
  F  F16  1  0.455412  0.807020  0.901086  1
  F  F17  1  0.112227  0.792302  0.561228  1
