# generated using pymatgen
data_Li4V3Sn3(SbO8)2
_symmetry_space_group_name_H-M   'P 1'
_cell_length_a   6.20671529
_cell_length_b   6.25938931
_cell_length_c   10.25109497
_cell_angle_alpha   90.53879195
_cell_angle_beta   89.84662945
_cell_angle_gamma   119.48160414
_symmetry_Int_Tables_number   1
_chemical_formula_structural   Li4V3Sn3(SbO8)2
_chemical_formula_sum   'Li4 V3 Sn3 Sb2 O16'
_cell_volume   346.67249728
_cell_formula_units_Z   1
loop_
 _symmetry_equiv_pos_site_id
 _symmetry_equiv_pos_as_xyz
  1  'x, y, z'
loop_
 _atom_site_type_symbol
 _atom_site_label
 _atom_site_symmetry_multiplicity
 _atom_site_fract_x
 _atom_site_fract_y
 _atom_site_fract_z
 _atom_site_occupancy
  Li  Li0  1  0.668231  0.340317  0.108250  1
  Li  Li1  1  0.992759  0.983884  0.007335  1
  Li  Li2  1  0.996156  0.989257  0.501224  1
  Li  Li3  1  0.331182  0.664115  0.601874  1
  V  V4  1  0.830697  0.662045  0.783446  1
  V  V5  1  0.663989  0.831628  0.284403  1
  V  V6  1  0.170342  0.828285  0.285244  1
  Sn  Sn7  1  0.833716  0.169675  0.784772  1
  Sn  Sn8  1  0.335997  0.169911  0.784595  1
  Sn  Sn9  1  0.169475  0.334803  0.285064  1
  Sb  Sb10  1  0.667315  0.331915  0.502476  1
  Sb  Sb11  1  0.335958  0.674202  0.009361  1
  O  O12  1  0.837346  0.143580  0.397712  1
  O  O13  1  0.518906  0.035930  0.657538  1
  O  O14  1  0.663693  0.328499  0.895832  1
  O  O15  1  0.000382  0.999795  0.681513  1
  O  O16  1  0.009049  0.000954  0.186058  1
  O  O17  1  0.308267  0.144273  0.399199  1
  O  O18  1  0.973081  0.488400  0.673864  1
  O  O19  1  0.515627  0.489861  0.674878  1
  O  O20  1  0.151273  0.304113  0.905223  1
  O  O21  1  0.869384  0.711737  0.381708  1
  O  O22  1  0.492722  0.525339  0.171139  1
  O  O23  1  0.031507  0.524935  0.171186  1
  O  O24  1  0.320642  0.664437  0.392653  1
  O  O25  1  0.694235  0.845819  0.893490  1
  O  O26  1  0.467687  0.967605  0.179875  1
  O  O27  1  0.150681  0.844687  0.892248  1
