# generated using pymatgen
data_Li4V2Cr3Sb3O16
_symmetry_space_group_name_H-M   'P 1'
_cell_length_a   6.07804976
_cell_length_b   6.17155630
_cell_length_c   9.73412580
_cell_angle_alpha   90.47523746
_cell_angle_beta   90.31451328
_cell_angle_gamma   118.93959887
_symmetry_Int_Tables_number   1
_chemical_formula_structural   Li4V2Cr3Sb3O16
_chemical_formula_sum   'Li4 V2 Cr3 Sb3 O16'
_cell_volume   319.51266553
_cell_formula_units_Z   1
loop_
 _symmetry_equiv_pos_site_id
 _symmetry_equiv_pos_as_xyz
  1  'x, y, z'
loop_
 _atom_site_type_symbol
 _atom_site_label
 _atom_site_symmetry_multiplicity
 _atom_site_fract_x
 _atom_site_fract_y
 _atom_site_fract_z
 _atom_site_occupancy
  Li  Li0  1  0.321545  0.650040  0.901561  1
  Li  Li1  1  0.993007  0.019195  0.001405  1
  Li  Li2  1  0.991331  0.020059  0.491724  1
  Li  Li3  1  0.663751  0.331650  0.380645  1
  V  V4  1  0.354015  0.677568  0.481849  1
  V  V5  1  0.674391  0.317333  0.990969  1
  Cr  Cr6  1  0.170712  0.338831  0.216028  1
  Cr  Cr7  1  0.663065  0.829618  0.213023  1
  Cr  Cr8  1  0.828673  0.168021  0.712769  1
  Sb  Sb9  1  0.168573  0.830152  0.212028  1
  Sb  Sb10  1  0.341498  0.171487  0.715089  1
  Sb  Sb11  1  0.832968  0.663798  0.713738  1
  O  O12  1  0.171174  0.329884  0.603830  1
  O  O13  1  0.485443  0.527693  0.335155  1
  O  O14  1  0.330857  0.662076  0.106533  1
  O  O15  1  0.003245  0.002641  0.309276  1
  O  O16  1  0.015203  0.026206  0.816025  1
  O  O17  1  0.674564  0.859316  0.588555  1
  O  O18  1  0.045948  0.529760  0.338751  1
  O  O19  1  0.478502  0.959133  0.335218  1
  O  O20  1  0.832926  0.162516  0.108141  1
  O  O21  1  0.180490  0.861087  0.593642  1
  O  O22  1  0.515832  0.027613  0.833963  1
  O  O23  1  0.952071  0.450874  0.850756  1
  O  O24  1  0.649290  0.302277  0.595768  1
  O  O25  1  0.320016  0.150215  0.104020  1
  O  O26  1  0.492579  0.447204  0.858587  1
  O  O27  1  0.848031  0.683456  0.098790  1
