# generated using pymatgen
data_Li4Nb2Fe3Co3O16
_symmetry_space_group_name_H-M   'P 1'
_cell_length_a   5.87788788
_cell_length_b   5.87788788
_cell_length_c   9.60763127
_cell_angle_alpha   88.89301380
_cell_angle_beta   91.10698620
_cell_angle_gamma   119.87456158
_symmetry_Int_Tables_number   1
_chemical_formula_structural   Li4Nb2Fe3Co3O16
_chemical_formula_sum   'Li4 Nb2 Fe3 Co3 O16'
_cell_volume   287.75898240
_cell_formula_units_Z   1
loop_
 _symmetry_equiv_pos_site_id
 _symmetry_equiv_pos_as_xyz
  1  'x, y, z'
loop_
 _atom_site_type_symbol
 _atom_site_label
 _atom_site_symmetry_multiplicity
 _atom_site_fract_x
 _atom_site_fract_y
 _atom_site_fract_z
 _atom_site_occupancy
  Li  Li0  1  0.337445  0.662555  0.096610  1
  Li  Li1  1  0.993831  0.006169  0.005953  1
  Li  Li2  1  0.992168  0.007832  0.509231  1
  Li  Li3  1  0.670803  0.329197  0.603220  1
  Nb  Nb4  1  0.337070  0.662930  0.507193  1
  Nb  Nb5  1  0.668539  0.331461  0.001747  1
  Fe  Fe6  1  0.170825  0.829175  0.780243  1
  Fe  Fe7  1  0.342410  0.169544  0.281609  1
  Fe  Fe8  1  0.830456  0.657590  0.281609  1
  Co  Co9  1  0.168874  0.341534  0.785771  1
  Co  Co10  1  0.658466  0.831126  0.785771  1
  Co  Co11  1  0.828667  0.171333  0.285648  1
  O  O12  1  0.159598  0.334230  0.403706  1
  O  O13  1  0.479950  0.520050  0.669312  1
  O  O14  1  0.337811  0.662189  0.888540  1
  O  O15  1  0.993779  0.006221  0.695672  1
  O  O16  1  0.993949  0.006051  0.193886  1
  O  O17  1  0.665770  0.840402  0.403706  1
  O  O18  1  0.037621  0.508166  0.660548  1
  O  O19  1  0.491834  0.962379  0.660548  1
  O  O20  1  0.833153  0.166847  0.896329  1
  O  O21  1  0.164482  0.835518  0.415837  1
  O  O22  1  0.528492  0.035126  0.159872  1
  O  O23  1  0.964874  0.471508  0.159872  1
  O  O24  1  0.669846  0.330154  0.393154  1
  O  O25  1  0.329548  0.170006  0.906782  1
  O  O26  1  0.519424  0.480576  0.152928  1
  O  O27  1  0.829994  0.670452  0.906782  1
