# generated using pymatgen
data_Li4V2Fe3Cu3O16
_symmetry_space_group_name_H-M   'P 1'
_cell_length_a   5.91495456
_cell_length_b   5.91495456
_cell_length_c   9.53870050
_cell_angle_alpha   89.94885705
_cell_angle_beta   90.05114295
_cell_angle_gamma   120.08076453
_symmetry_Int_Tables_number   1
_chemical_formula_structural   Li4V2Fe3Cu3O16
_chemical_formula_sum   'Li4 V2 Fe3 Cu3 O16'
_cell_volume   288.78086919
_cell_formula_units_Z   1
loop_
 _symmetry_equiv_pos_site_id
 _symmetry_equiv_pos_as_xyz
  1  'x, y, z'
loop_
 _atom_site_type_symbol
 _atom_site_label
 _atom_site_symmetry_multiplicity
 _atom_site_fract_x
 _atom_site_fract_y
 _atom_site_fract_z
 _atom_site_occupancy
  Li  Li0  1  0.339465  0.660535  0.096844  1
  Li  Li1  1  0.998607  0.001393  0.007812  1
  Li  Li2  1  0.994583  0.005417  0.511806  1
  Li  Li3  1  0.671907  0.328093  0.597188  1
  V  V4  1  0.334686  0.665314  0.501721  1
  V  V5  1  0.667721  0.332279  0.002715  1
  Fe  Fe6  1  0.172990  0.827010  0.779091  1
  Fe  Fe7  1  0.345221  0.168888  0.280583  1
  Fe  Fe8  1  0.831112  0.654779  0.280583  1
  Cu  Cu9  1  0.170377  0.341743  0.788469  1
  Cu  Cu10  1  0.658257  0.829623  0.788469  1
  Cu  Cu11  1  0.827252  0.172748  0.285087  1
  O  O12  1  0.180344  0.349354  0.413369  1
  O  O13  1  0.477390  0.522610  0.650238  1
  O  O14  1  0.337661  0.662339  0.889061  1
  O  O15  1  0.994609  0.005391  0.704569  1
  O  O16  1  0.997839  0.002161  0.200033  1
  O  O17  1  0.650646  0.819656  0.413369  1
  O  O18  1  0.040522  0.523004  0.650242  1
  O  O19  1  0.476996  0.959478  0.650242  1
  O  O20  1  0.825340  0.174660  0.916032  1
  O  O21  1  0.173180  0.826820  0.413017  1
  O  O22  1  0.519054  0.036587  0.151953  1
  O  O23  1  0.963413  0.480946  0.151953  1
  O  O24  1  0.666198  0.333802  0.394135  1
  O  O25  1  0.347465  0.163715  0.913136  1
  O  O26  1  0.521883  0.478117  0.150832  1
  O  O27  1  0.836285  0.652535  0.913136  1
