# generated using pymatgen
data_LiFeAsCO7
_symmetry_space_group_name_H-M   'P 1'
_cell_length_a   5.26499948
_cell_length_b   6.64403350
_cell_length_c   8.82889318
_cell_angle_alpha   90.00000000
_cell_angle_beta   94.51094324
_cell_angle_gamma   90.00000000
_symmetry_Int_Tables_number   1
_chemical_formula_structural   LiFeAsCO7
_chemical_formula_sum   'Li2 Fe2 As2 C2 O14'
_cell_volume   307.88534652
_cell_formula_units_Z   2
loop_
 _symmetry_equiv_pos_site_id
 _symmetry_equiv_pos_as_xyz
  1  'x, y, z'
loop_
 _atom_site_type_symbol
 _atom_site_label
 _atom_site_symmetry_multiplicity
 _atom_site_fract_x
 _atom_site_fract_y
 _atom_site_fract_z
 _atom_site_occupancy
  Li  Li0  1  0.788423  0.487600  0.217265  1
  Li  Li1  1  0.211577  0.987600  0.782735  1
  Fe  Fe2  1  0.202080  0.245443  0.346214  1
  Fe  Fe3  1  0.797920  0.745443  0.653786  1
  As  As4  1  0.273399  0.754088  0.422277  1
  As  As5  1  0.726601  0.254088  0.577723  1
  C  C6  1  0.273235  0.251453  0.064046  1
  C  C7  1  0.726765  0.751453  0.935954  1
  O  O8  1  0.696600  0.715219  0.073452  1
  O  O9  1  0.048630  0.255142  0.116394  1
  O  O10  1  0.461029  0.280186  0.165379  1
  O  O11  1  0.205870  0.957742  0.309932  1
  O  O12  1  0.168082  0.549559  0.318767  1
  O  O13  1  0.851861  0.269298  0.403213  1
  O  O14  1  0.600814  0.736421  0.462907  1
  O  O15  1  0.399186  0.236421  0.537093  1
  O  O16  1  0.148139  0.769298  0.596787  1
  O  O17  1  0.831918  0.049559  0.681233  1
  O  O18  1  0.794130  0.457742  0.690068  1
  O  O19  1  0.538971  0.780186  0.834621  1
  O  O20  1  0.951370  0.755142  0.883606  1
  O  O21  1  0.303400  0.215219  0.926548  1
