# generated using pymatgen
data_PH4NO3
_symmetry_space_group_name_H-M   'P 1'
_cell_length_a   7.60316832
_cell_length_b   7.60316832
_cell_length_c   12.76868735
_cell_angle_alpha   90.00000000
_cell_angle_beta   90.00000000
_cell_angle_gamma   91.90768037
_symmetry_Int_Tables_number   1
_chemical_formula_structural   PH4NO3
_chemical_formula_sum   'P8 H32 N8 O24'
_cell_volume   737.72532790
_cell_formula_units_Z   8
loop_
 _symmetry_equiv_pos_site_id
 _symmetry_equiv_pos_as_xyz
  1  'x, y, z'
loop_
 _atom_site_type_symbol
 _atom_site_label
 _atom_site_symmetry_multiplicity
 _atom_site_fract_x
 _atom_site_fract_y
 _atom_site_fract_z
 _atom_site_occupancy
  P  P0  1  0.533509  0.466491  0.650272  1
  P  P1  1  0.466491  0.533509  0.349728  1
  P  P2  1  0.966491  0.033509  0.150272  1
  P  P3  1  0.033509  0.966491  0.849728  1
  P  P4  1  0.288733  0.288733  0.500000  1
  P  P5  1  0.788733  0.788733  0.000000  1
  P  P6  1  0.711267  0.711267  0.500000  1
  P  P7  1  0.211267  0.211267  0.000000  1
  H  H8  1  0.873907  0.126093  0.387673  1
  H  H9  1  0.126093  0.873907  0.612327  1
  H  H10  1  0.626093  0.373907  0.887673  1
  H  H11  1  0.373907  0.626093  0.112327  1
  H  H12  1  0.732439  0.267561  0.433240  1
  H  H13  1  0.267561  0.732439  0.566760  1
  H  H14  1  0.767561  0.232439  0.933240  1
  H  H15  1  0.232439  0.767561  0.066760  1
  H  H16  1  0.763921  0.074070  0.499971  1
  H  H17  1  0.074070  0.763921  0.500029  1
  H  H18  1  0.574070  0.263921  0.999971  1
  H  H19  1  0.263921  0.574070  0.000029  1
  H  H20  1  0.236079  0.925930  0.500029  1
  H  H21  1  0.925930  0.236079  0.499971  1
  H  H22  1  0.425930  0.736079  0.000029  1
  H  H23  1  0.736079  0.425930  0.999971  1
  H  H24  1  0.390684  0.947945  0.748581  1
  H  H25  1  0.947945  0.390684  0.251419  1
  H  H26  1  0.447945  0.890684  0.248581  1
  H  H27  1  0.890684  0.447945  0.751419  1
  H  H28  1  0.609316  0.052055  0.251419  1
  H  H29  1  0.052055  0.609316  0.748581  1
  H  H30  1  0.552055  0.109316  0.751419  1
  H  H31  1  0.109316  0.552055  0.248581  1
  H  H32  1  0.583321  0.923545  0.682654  1
  H  H33  1  0.923545  0.583321  0.317346  1
  H  H34  1  0.423545  0.083321  0.182654  1
  H  H35  1  0.083321  0.423545  0.817346  1
  H  H36  1  0.416679  0.076455  0.317346  1
  H  H37  1  0.076455  0.416679  0.682654  1
  H  H38  1  0.576455  0.916679  0.817346  1
  H  H39  1  0.916679  0.576455  0.182654  1
  N  N40  1  0.524989  0.975011  0.750000  1
  N  N41  1  0.975011  0.524989  0.250000  1
  N  N42  1  0.475011  0.024989  0.250000  1
  N  N43  1  0.024989  0.475011  0.750000  1
  N  N44  1  0.823534  0.176466  0.456619  1
  N  N45  1  0.176466  0.823534  0.543381  1
  N  N46  1  0.676466  0.323534  0.956619  1
  N  N47  1  0.323534  0.676466  0.043381  1
  O  O48  1  0.397601  0.602399  0.662850  1
  O  O49  1  0.602399  0.397601  0.337150  1
  O  O50  1  0.102399  0.897601  0.162850  1
  O  O51  1  0.897601  0.102399  0.837150  1
  O  O52  1  0.620021  0.379979  0.741572  1
  O  O53  1  0.379979  0.620021  0.258428  1
  O  O54  1  0.879979  0.120021  0.241572  1
  O  O55  1  0.120021  0.879979  0.758428  1
  O  O56  1  0.123819  0.307939  0.563428  1
  O  O57  1  0.307939  0.123819  0.436572  1
  O  O58  1  0.807939  0.623819  0.063428  1
  O  O59  1  0.623819  0.807939  0.936572  1
  O  O60  1  0.876181  0.692061  0.436572  1
  O  O61  1  0.692061  0.876181  0.563428  1
  O  O62  1  0.192061  0.376181  0.936572  1
  O  O63  1  0.376181  0.192061  0.063428  1
  O  O64  1  0.460261  0.304092  0.575646  1
  O  O65  1  0.304092  0.460261  0.424354  1
  O  O66  1  0.804092  0.960261  0.075646  1
  O  O67  1  0.960261  0.804092  0.924354  1
  O  O68  1  0.539739  0.695908  0.424354  1
  O  O69  1  0.695908  0.539739  0.575646  1
  O  O70  1  0.195908  0.039739  0.924354  1
  O  O71  1  0.039739  0.195908  0.075646  1
