# generated using pymatgen
data_Cr3TeO8
_symmetry_space_group_name_H-M   'P 1'
_cell_length_a   5.98013866
_cell_length_b   5.98013866
_cell_length_c   9.18019856
_cell_angle_alpha   90.00000000
_cell_angle_beta   90.00000000
_cell_angle_gamma   120.00000000
_symmetry_Int_Tables_number   1
_chemical_formula_structural   Cr3TeO8
_chemical_formula_sum   'Cr6 Te2 O16'
_cell_volume   284.31856227
_cell_formula_units_Z   2
loop_
 _symmetry_equiv_pos_site_id
 _symmetry_equiv_pos_as_xyz
  1  'x, y, z'
loop_
 _atom_site_type_symbol
 _atom_site_label
 _atom_site_symmetry_multiplicity
 _atom_site_fract_x
 _atom_site_fract_y
 _atom_site_fract_z
 _atom_site_occupancy
  Cr  Cr0  1  0.170696  0.829304  0.212947  1
  Cr  Cr1  1  0.170696  0.341391  0.212947  1
  Cr  Cr2  1  0.658609  0.829304  0.212947  1
  Cr  Cr3  1  0.341391  0.170696  0.712947  1
  Cr  Cr4  1  0.829304  0.658609  0.712947  1
  Cr  Cr5  1  0.829304  0.170696  0.712947  1
  Te  Te6  1  0.333333  0.666667  0.490552  1
  Te  Te7  1  0.666667  0.333333  0.990552  1
  O  O8  1  0.172048  0.827952  0.596905  1
  O  O9  1  0.044024  0.522012  0.345193  1
  O  O10  1  0.333333  0.666667  0.108842  1
  O  O11  1  0.000000  0.000000  0.293326  1
  O  O12  1  0.000000  0.000000  0.793326  1
  O  O13  1  0.172048  0.344095  0.596905  1
  O  O14  1  0.477988  0.955976  0.345193  1
  O  O15  1  0.477988  0.522012  0.345193  1
  O  O16  1  0.344095  0.172048  0.096905  1
  O  O17  1  0.655905  0.827952  0.596905  1
  O  O18  1  0.522012  0.477988  0.845193  1
  O  O19  1  0.522012  0.044024  0.845193  1
  O  O20  1  0.666667  0.333333  0.608842  1
  O  O21  1  0.827952  0.655905  0.096905  1
  O  O22  1  0.955976  0.477988  0.845193  1
  O  O23  1  0.827952  0.172048  0.096905  1
