# generated using pymatgen
data_Na6Cu2P(CO4)4
_symmetry_space_group_name_H-M   'P 1'
_cell_length_a   9.80758684
_cell_length_b   9.80758684
_cell_length_c   9.80758684
_cell_angle_alpha   60.00000000
_cell_angle_beta   60.00000000
_cell_angle_gamma   60.00000000
_symmetry_Int_Tables_number   1
_chemical_formula_structural   Na6Cu2P(CO4)4
_chemical_formula_sum   'Na12 Cu4 P2 C8 O32'
_cell_volume   667.07012163
_cell_formula_units_Z   2
loop_
 _symmetry_equiv_pos_site_id
 _symmetry_equiv_pos_as_xyz
  1  'x, y, z'
loop_
 _atom_site_type_symbol
 _atom_site_label
 _atom_site_symmetry_multiplicity
 _atom_site_fract_x
 _atom_site_fract_y
 _atom_site_fract_z
 _atom_site_occupancy
  Na  Na0  1  0.460447  0.460447  0.039553  1
  Na  Na1  1  0.039553  0.460447  0.039553  1
  Na  Na2  1  0.039553  0.460447  0.460447  1
  Na  Na3  1  0.460447  0.039553  0.039553  1
  Na  Na4  1  0.210447  0.210447  0.789553  1
  Na  Na5  1  0.789553  0.210447  0.789553  1
  Na  Na6  1  0.460447  0.039553  0.460447  1
  Na  Na7  1  0.039553  0.039553  0.460447  1
  Na  Na8  1  0.210447  0.789553  0.789553  1
  Na  Na9  1  0.789553  0.210447  0.210447  1
  Na  Na10  1  0.789553  0.789553  0.210447  1
  Na  Na11  1  0.210447  0.789553  0.210447  1
  Cu  Cu12  1  0.625000  0.625000  0.125000  1
  Cu  Cu13  1  0.125000  0.625000  0.625000  1
  Cu  Cu14  1  0.625000  0.625000  0.625000  1
  Cu  Cu15  1  0.625000  0.125000  0.625000  1
  P  P16  1  1.000000  1.000000  1.000000  1
  P  P17  1  0.250000  0.250000  0.250000  1
  C  C18  1  0.842886  0.471342  0.842886  1
  C  C19  1  0.471342  0.842886  0.842886  1
  C  C20  1  0.842886  0.842886  0.842886  1
  C  C21  1  0.842886  0.842886  0.471342  1
  C  C22  1  0.407114  0.407114  0.778658  1
  C  C23  1  0.407114  0.407114  0.407114  1
  C  C24  1  0.778658  0.407114  0.407114  1
  C  C25  1  0.407114  0.778658  0.407114  1
  O  O26  1  0.064655  0.806034  0.064655  1
  O  O27  1  0.064655  0.064655  0.064655  1
  O  O28  1  0.806034  0.064655  0.064655  1
  O  O29  1  0.064655  0.064655  0.806034  1
  O  O30  1  0.722712  0.469014  0.984785  1
  O  O31  1  0.984785  0.469014  0.823489  1
  O  O32  1  0.823489  0.722712  0.984785  1
  O  O33  1  0.823489  0.469014  0.722712  1
  O  O34  1  0.469014  0.823489  0.984785  1
  O  O35  1  0.469014  0.722712  0.823489  1
  O  O36  1  0.984785  0.823489  0.722712  1
  O  O37  1  0.722712  0.984785  0.823489  1
  O  O38  1  0.984785  0.722712  0.469014  1
  O  O39  1  0.469014  0.984785  0.722712  1
  O  O40  1  0.722712  0.823489  0.469014  1
  O  O41  1  0.426511  0.265215  0.780986  1
  O  O42  1  0.823489  0.984785  0.469014  1
  O  O43  1  0.527288  0.426511  0.780986  1
  O  O44  1  0.780986  0.265215  0.527288  1
  O  O45  1  0.265215  0.527288  0.780986  1
  O  O46  1  0.527288  0.265215  0.426511  1
  O  O47  1  0.265215  0.426511  0.527288  1
  O  O48  1  0.780986  0.527288  0.426511  1
  O  O49  1  0.780986  0.426511  0.265215  1
  O  O50  1  0.426511  0.780986  0.527288  1
  O  O51  1  0.426511  0.527288  0.265215  1
  O  O52  1  0.265215  0.780986  0.426511  1
  O  O53  1  0.527288  0.780986  0.265215  1
  O  O54  1  0.185345  0.185345  0.443966  1
  O  O55  1  0.185345  0.185345  0.185345  1
  O  O56  1  0.443966  0.185345  0.185345  1
  O  O57  1  0.185345  0.443966  0.185345  1
