# generated using pymatgen
data_Li2Mn3FeO8
_symmetry_space_group_name_H-M   'P 1'
_cell_length_a   5.93293707
_cell_length_b   5.93293707
_cell_length_c   5.93293707
_cell_angle_alpha   60.23443577
_cell_angle_beta   60.23443577
_cell_angle_gamma   60.23443577
_symmetry_Int_Tables_number   1
_chemical_formula_structural   Li2Mn3FeO8
_chemical_formula_sum   'Li2 Mn3 Fe1 O8'
_cell_volume   148.45440169
_cell_formula_units_Z   1
loop_
 _symmetry_equiv_pos_site_id
 _symmetry_equiv_pos_as_xyz
  1  'x, y, z'
loop_
 _atom_site_type_symbol
 _atom_site_label
 _atom_site_symmetry_multiplicity
 _atom_site_fract_x
 _atom_site_fract_y
 _atom_site_fract_z
 _atom_site_occupancy
  Li  Li0  1  0.879109  0.879109  0.879109  1
  Li  Li1  1  0.120891  0.120891  0.120891  1
  Mn  Mn2  1  0.000000  0.500000  0.500000  1
  Mn  Mn3  1  0.500000  0.500000  0.000000  1
  Mn  Mn4  1  0.500000  1.000000  0.500000  1
  Fe  Fe5  1  0.500000  0.500000  0.500000  1
  O  O6  1  0.739509  0.739509  0.739509  1
  O  O7  1  0.740992  0.292126  0.740992  1
  O  O8  1  0.740992  0.740992  0.292126  1
  O  O9  1  0.292126  0.740992  0.740992  1
  O  O10  1  0.707874  0.259008  0.259008  1
  O  O11  1  0.259008  0.259008  0.707874  1
  O  O12  1  0.259008  0.707874  0.259008  1
  O  O13  1  0.260491  0.260491  0.260491  1
