# generated using pymatgen
data_LiTi2(PO4)3
_symmetry_space_group_name_H-M   'P 1'
_cell_length_a   8.63991431
_cell_length_b   11.99911939
_cell_length_c   8.71758359
_cell_angle_alpha   90.00000000
_cell_angle_beta   90.08910259
_cell_angle_gamma   90.00000000
_symmetry_Int_Tables_number   1
_chemical_formula_structural   LiTi2(PO4)3
_chemical_formula_sum   'Li4 Ti8 P12 O48'
_cell_volume   903.76268357
_cell_formula_units_Z   4
loop_
 _symmetry_equiv_pos_site_id
 _symmetry_equiv_pos_as_xyz
  1  'x, y, z'
loop_
 _atom_site_type_symbol
 _atom_site_label
 _atom_site_symmetry_multiplicity
 _atom_site_fract_x
 _atom_site_fract_y
 _atom_site_fract_z
 _atom_site_occupancy
  Li  Li0  1  0.287594  0.817597  0.770991  1
  Li  Li1  1  0.787594  0.682403  0.770991  1
  Li  Li2  1  0.212406  0.317597  0.229009  1
  Li  Li3  1  0.712406  0.182403  0.229009  1
  Ti  Ti4  1  0.754311  0.883941  0.967865  1
  Ti  Ti5  1  0.249528  0.879002  0.451085  1
  Ti  Ti6  1  0.749528  0.620998  0.451085  1
  Ti  Ti7  1  0.254311  0.616059  0.967865  1
  Ti  Ti8  1  0.250472  0.379002  0.548915  1
  Ti  Ti9  1  0.745689  0.383941  0.032135  1
  Ti  Ti10  1  0.245689  0.116059  0.032135  1
  Ti  Ti11  1  0.750472  0.120998  0.548915  1
  P  P12  1  0.039828  0.998331  0.747548  1
  P  P13  1  0.398492  0.855225  0.103902  1
  P  P14  1  0.608540  0.855408  0.605103  1
  P  P15  1  0.108540  0.644592  0.605103  1
  P  P16  1  0.898492  0.644775  0.103902  1
  P  P17  1  0.539828  0.501669  0.747548  1
  P  P18  1  0.460172  0.498331  0.252452  1
  P  P19  1  0.891460  0.355408  0.394897  1
  P  P20  1  0.101508  0.355225  0.896098  1
  P  P21  1  0.601508  0.144775  0.896098  1
  P  P22  1  0.391460  0.144592  0.394897  1
  P  P23  1  0.960172  0.001669  0.252452  1
  O  O24  1  0.343331  0.974736  0.066257  1
  O  O25  1  0.662941  0.974049  0.566847  1
  O  O26  1  0.063563  0.927345  0.352259  1
  O  O27  1  0.936823  0.924582  0.849066  1
  O  O28  1  0.148533  0.921226  0.655921  1
  O  O29  1  0.862097  0.924597  0.147839  1
  O  O30  1  0.429977  0.845868  0.598651  1
  O  O31  1  0.574467  0.844338  0.089107  1
  O  O32  1  0.349315  0.826056  0.269121  1
  O  O33  1  0.662593  0.822846  0.769094  1
  O  O34  1  0.321734  0.776919  0.984341  1
  O  O35  1  0.679746  0.771552  0.490191  1
  O  O36  1  0.821734  0.723081  0.984341  1
  O  O37  1  0.179746  0.728448  0.490191  1
  O  O38  1  0.162593  0.677154  0.769094  1
  O  O39  1  0.849315  0.673944  0.269121  1
  O  O40  1  0.074467  0.655662  0.089107  1
  O  O41  1  0.929977  0.654132  0.598651  1
  O  O42  1  0.362097  0.575403  0.147839  1
  O  O43  1  0.648533  0.578774  0.655921  1
  O  O44  1  0.436823  0.575418  0.849066  1
  O  O45  1  0.563563  0.572655  0.352259  1
  O  O46  1  0.162941  0.525951  0.566847  1
  O  O47  1  0.843331  0.525264  0.066257  1
  O  O48  1  0.837059  0.474049  0.433153  1
  O  O49  1  0.156669  0.474736  0.933743  1
  O  O50  1  0.436437  0.427345  0.647741  1
  O  O51  1  0.563177  0.424582  0.150934  1
  O  O52  1  0.351467  0.421226  0.344079  1
  O  O53  1  0.637903  0.424597  0.852161  1
  O  O54  1  0.070023  0.345868  0.401349  1
  O  O55  1  0.925533  0.344338  0.910893  1
  O  O56  1  0.837407  0.322846  0.230906  1
  O  O57  1  0.150685  0.326056  0.730879  1
  O  O58  1  0.178266  0.276919  0.015659  1
  O  O59  1  0.820254  0.271552  0.509809  1
  O  O60  1  0.678266  0.223081  0.015659  1
  O  O61  1  0.320254  0.228448  0.509809  1
  O  O62  1  0.650685  0.173944  0.730879  1
  O  O63  1  0.337407  0.177154  0.230906  1
  O  O64  1  0.425533  0.155662  0.910893  1
  O  O65  1  0.570023  0.154132  0.401349  1
  O  O66  1  0.137903  0.075403  0.852161  1
  O  O67  1  0.063177  0.075418  0.150934  1
  O  O68  1  0.851467  0.078774  0.344079  1
  O  O69  1  0.936437  0.072655  0.647741  1
  O  O70  1  0.656669  0.025264  0.933743  1
  O  O71  1  0.337059  0.025951  0.433153  1
