# generated using pymatgen
data_Ho2TiO5
_symmetry_space_group_name_H-M   'P 1'
_cell_length_a   6.41906872
_cell_length_b   6.41906872
_cell_length_c   7.53864569
_cell_angle_alpha   68.57982299
_cell_angle_beta   111.42017701
_cell_angle_gamma   131.46267774
_symmetry_Int_Tables_number   1
_chemical_formula_structural   Ho2TiO5
_chemical_formula_sum   'Ho4 Ti2 O10'
_cell_volume   213.28368187
_cell_formula_units_Z   2
loop_
 _symmetry_equiv_pos_site_id
 _symmetry_equiv_pos_as_xyz
  1  'x, y, z'
loop_
 _atom_site_type_symbol
 _atom_site_label
 _atom_site_symmetry_multiplicity
 _atom_site_fract_x
 _atom_site_fract_y
 _atom_site_fract_z
 _atom_site_occupancy
  Ho  Ho0  1  0.648353  0.371059  0.252458  1
  Ho  Ho1  1  0.628941  0.351647  0.752458  1
  Ho  Ho2  1  0.371059  0.648353  0.247542  1
  Ho  Ho3  1  0.351647  0.628941  0.747542  1
  Ti  Ti4  1  0.000000  0.000000  0.500000  1
  Ti  Ti5  1  0.000000  0.000000  0.000000  1
  O  O6  1  0.974651  0.312662  0.360413  1
  O  O7  1  0.687338  0.025349  0.860413  1
  O  O8  1  0.389402  0.246992  0.456029  1
  O  O9  1  0.832442  0.832442  0.250000  1
  O  O10  1  0.246992  0.389402  0.043971  1
  O  O11  1  0.753008  0.610598  0.956029  1
  O  O12  1  0.167558  0.167558  0.750000  1
  O  O13  1  0.610598  0.753008  0.543971  1
  O  O14  1  0.312662  0.974651  0.139587  1
  O  O15  1  0.025349  0.687338  0.639587  1
