# generated using pymatgen
data_V2O3F
_symmetry_space_group_name_H-M   'P 1'
_cell_length_a   4.68938273
_cell_length_b   6.05450918
_cell_length_c   9.85106689
_cell_angle_alpha   107.64977803
_cell_angle_beta   92.10197109
_cell_angle_gamma   89.81774855
_symmetry_Int_Tables_number   1
_chemical_formula_structural   V2O3F
_chemical_formula_sum   'V8 O12 F4'
_cell_volume   266.33631378
_cell_formula_units_Z   4
loop_
 _symmetry_equiv_pos_site_id
 _symmetry_equiv_pos_as_xyz
  1  'x, y, z'
loop_
 _atom_site_type_symbol
 _atom_site_label
 _atom_site_symmetry_multiplicity
 _atom_site_fract_x
 _atom_site_fract_y
 _atom_site_fract_z
 _atom_site_occupancy
  V  V0  1  0.552942  0.860331  0.228187  1
  V  V1  1  0.500860  0.127070  0.742762  1
  V  V2  1  0.454452  0.393656  0.276085  1
  V  V3  1  0.463488  0.611674  0.753690  1
  V  V4  1  0.982533  0.244850  0.499296  1
  V  V5  1  0.013143  0.499248  0.994766  1
  V  V6  1  0.057070  0.002566  0.002379  1
  V  V7  1  0.989243  0.759973  0.506081  1
  O  O8  1  0.185651  0.455228  0.401167  1
  O  O9  1  0.201643  0.709455  0.904829  1
  O  O10  1  0.195825  0.189010  0.898309  1
  O  O11  1  0.313343  0.810430  0.656258  1
  O  O12  1  0.304885  0.077352  0.154088  1
  O  O13  1  0.316285  0.574736  0.151849  1
  O  O14  1  0.284681  0.333023  0.648083  1
  O  O15  1  0.684863  0.172691  0.343584  1
  O  O16  1  0.689273  0.441507  0.847493  1
  O  O17  1  0.692516  0.671633  0.345271  1
  O  O18  1  0.813168  0.807315  0.097277  1
  O  O19  1  0.799362  0.047757  0.598797  1
  F  F20  1  0.197574  0.948925  0.397446  1
  F  F21  1  0.710025  0.921260  0.854964  1
  F  F22  1  0.783615  0.549458  0.602401  1
  F  F23  1  0.813559  0.290852  0.094938  1
