# generated using pymatgen
data_Li4Cr5Fe3O16
_symmetry_space_group_name_H-M   'P 1'
_cell_length_a   5.89231995
_cell_length_b   5.89231995
_cell_length_c   9.51771901
_cell_angle_alpha   89.05252671
_cell_angle_beta   90.94747329
_cell_angle_gamma   120.17305154
_symmetry_Int_Tables_number   1
_chemical_formula_structural   Li4Cr5Fe3O16
_chemical_formula_sum   'Li4 Cr5 Fe3 O16'
_cell_volume   285.62561350
_cell_formula_units_Z   1
loop_
 _symmetry_equiv_pos_site_id
 _symmetry_equiv_pos_as_xyz
  1  'x, y, z'
loop_
 _atom_site_type_symbol
 _atom_site_label
 _atom_site_symmetry_multiplicity
 _atom_site_fract_x
 _atom_site_fract_y
 _atom_site_fract_z
 _atom_site_occupancy
  Li  Li0  1  0.667529  0.332471  0.893705  1
  Li  Li1  1  0.998541  0.001459  0.996513  1
  Li  Li2  1  0.998844  0.001156  0.495493  1
  Li  Li3  1  0.332707  0.667293  0.395102  1
  Cr  Cr4  1  0.335753  0.170016  0.210318  1
  Cr  Cr5  1  0.668709  0.331291  0.485419  1
  Cr  Cr6  1  0.829984  0.664247  0.210318  1
  Cr  Cr7  1  0.167823  0.832177  0.707907  1
  Cr  Cr8  1  0.335606  0.664394  0.982835  1
  Fe  Fe9  1  0.828306  0.171694  0.217167  1
  Fe  Fe10  1  0.168071  0.339600  0.714949  1
  Fe  Fe11  1  0.660400  0.831929  0.714949  1
  O  O12  1  0.331564  0.154057  0.602817  1
  O  O13  1  0.521481  0.478519  0.334188  1
  O  O14  1  0.664373  0.335627  0.102319  1
  O  O15  1  0.001411  0.998589  0.309701  1
  O  O16  1  0.002722  0.997278  0.810512  1
  O  O17  1  0.845943  0.668436  0.602817  1
  O  O18  1  0.509073  0.040397  0.340601  1
  O  O19  1  0.959603  0.490927  0.340601  1
  O  O20  1  0.164491  0.835509  0.108725  1
  O  O21  1  0.836054  0.163946  0.598563  1
  O  O22  1  0.040524  0.529666  0.839968  1
  O  O23  1  0.470334  0.959476  0.839968  1
  O  O24  1  0.332080  0.667920  0.602261  1
  O  O25  1  0.176389  0.329605  0.103405  1
  O  O26  1  0.480906  0.519094  0.843225  1
  O  O27  1  0.670395  0.823611  0.103405  1
