# generated using pymatgen
data_Cr2H24(IN3)3
_symmetry_space_group_name_H-M   'P 1'
_cell_length_a   7.75798221
_cell_length_b   7.75798221
_cell_length_c   18.32330688
_cell_angle_alpha   90.00000000
_cell_angle_beta   90.00000000
_cell_angle_gamma   120.00000000
_symmetry_Int_Tables_number   1
_chemical_formula_structural   Cr2H24(IN3)3
_chemical_formula_sum   'Cr4 H48 I6 N18'
_cell_volume   955.06305676
_cell_formula_units_Z   2
loop_
 _symmetry_equiv_pos_site_id
 _symmetry_equiv_pos_as_xyz
  1  'x, y, z'
loop_
 _atom_site_type_symbol
 _atom_site_label
 _atom_site_symmetry_multiplicity
 _atom_site_fract_x
 _atom_site_fract_y
 _atom_site_fract_z
 _atom_site_occupancy
  Cr  Cr0  1  0.333333  0.666667  0.325771  1
  Cr  Cr1  1  0.666667  0.333333  0.674229  1
  Cr  Cr2  1  0.666667  0.333333  0.825771  1
  Cr  Cr3  1  0.333333  0.666667  0.174229  1
  H  H4  1  0.384041  0.402788  0.250000  1
  H  H5  1  0.597212  0.981253  0.250000  1
  H  H6  1  0.018747  0.615959  0.250000  1
  H  H7  1  0.597212  0.615959  0.250000  1
  H  H8  1  0.018747  0.402788  0.250000  1
  H  H9  1  0.384041  0.981253  0.250000  1
  H  H10  1  0.615959  0.597212  0.750000  1
  H  H11  1  0.402788  0.018747  0.750000  1
  H  H12  1  0.981253  0.384041  0.750000  1
  H  H13  1  0.402788  0.384041  0.750000  1
  H  H14  1  0.981253  0.597212  0.750000  1
  H  H15  1  0.615959  0.018747  0.750000  1
  H  H16  1  0.219937  0.780063  0.449142  1
  H  H17  1  0.219937  0.439874  0.449142  1
  H  H18  1  0.560126  0.780063  0.449142  1
  H  H19  1  0.780063  0.219937  0.550858  1
  H  H20  1  0.780063  0.560126  0.550858  1
  H  H21  1  0.439874  0.219937  0.550858  1
  H  H22  1  0.780063  0.219937  0.949142  1
  H  H23  1  0.780063  0.560126  0.949142  1
  H  H24  1  0.439874  0.219937  0.949142  1
  H  H25  1  0.219937  0.780063  0.050858  1
  H  H26  1  0.219937  0.439874  0.050858  1
  H  H27  1  0.560126  0.780063  0.050858  1
  H  H28  1  0.268310  0.944704  0.383237  1
  H  H29  1  0.055296  0.323607  0.383237  1
  H  H30  1  0.676393  0.731690  0.383237  1
  H  H31  1  0.055296  0.731690  0.383237  1
  H  H32  1  0.676393  0.944704  0.383237  1
  H  H33  1  0.268310  0.323607  0.383237  1
  H  H34  1  0.731690  0.055296  0.616763  1
  H  H35  1  0.944704  0.676393  0.616763  1
  H  H36  1  0.323607  0.268310  0.616763  1
  H  H37  1  0.944704  0.268310  0.616763  1
  H  H38  1  0.323607  0.055296  0.616763  1
  H  H39  1  0.731690  0.676393  0.616763  1
  H  H40  1  0.731690  0.055296  0.883237  1
  H  H41  1  0.944704  0.676393  0.883237  1
  H  H42  1  0.323607  0.268310  0.883237  1
  H  H43  1  0.944704  0.268310  0.883237  1
  H  H44  1  0.323607  0.055296  0.883237  1
  H  H45  1  0.731690  0.676393  0.883237  1
  H  H46  1  0.268310  0.944704  0.116763  1
  H  H47  1  0.055296  0.323607  0.116763  1
  H  H48  1  0.676393  0.731690  0.116763  1
  H  H49  1  0.055296  0.731690  0.116763  1
  H  H50  1  0.676393  0.944704  0.116763  1
  H  H51  1  0.268310  0.323607  0.116763  1
  I  I52  1  0.000000  0.000000  0.250000  1
  I  I53  1  0.000000  0.000000  0.750000  1
  I  I54  1  0.333333  0.666667  0.918380  1
  I  I55  1  0.666667  0.333333  0.081620  1
  I  I56  1  0.666667  0.333333  0.418380  1
  I  I57  1  0.333333  0.666667  0.581620  1
  N  N58  1  0.445602  0.554398  0.250000  1
  N  N59  1  0.445602  0.891204  0.250000  1
  N  N60  1  0.108796  0.554398  0.250000  1
  N  N61  1  0.554398  0.445602  0.750000  1
  N  N62  1  0.554398  0.108796  0.750000  1
  N  N63  1  0.891204  0.445602  0.750000  1
  N  N64  1  0.204677  0.795323  0.394118  1
  N  N65  1  0.204677  0.409355  0.394118  1
  N  N66  1  0.590645  0.795323  0.394118  1
  N  N67  1  0.795323  0.204677  0.605882  1
  N  N68  1  0.795323  0.590645  0.605882  1
  N  N69  1  0.409355  0.204677  0.605882  1
  N  N70  1  0.795323  0.204677  0.894118  1
  N  N71  1  0.795323  0.590645  0.894118  1
  N  N72  1  0.409355  0.204677  0.894118  1
  N  N73  1  0.204677  0.795323  0.105882  1
  N  N74  1  0.204677  0.409355  0.105882  1
  N  N75  1  0.590645  0.795323  0.105882  1
