# generated using pymatgen
data_LiFeSiO4
_symmetry_space_group_name_H-M   'P 1'
_cell_length_a   5.78300460
_cell_length_b   10.43839954
_cell_length_c   10.36396935
_cell_angle_alpha   90.00000000
_cell_angle_beta   90.72215819
_cell_angle_gamma   90.00000000
_symmetry_Int_Tables_number   1
_chemical_formula_structural   LiFeSiO4
_chemical_formula_sum   'Li8 Fe8 Si8 O32'
_cell_volume   625.57455612
_cell_formula_units_Z   8
loop_
 _symmetry_equiv_pos_site_id
 _symmetry_equiv_pos_as_xyz
  1  'x, y, z'
loop_
 _atom_site_type_symbol
 _atom_site_label
 _atom_site_symmetry_multiplicity
 _atom_site_fract_x
 _atom_site_fract_y
 _atom_site_fract_z
 _atom_site_occupancy
  Li  Li0  1  0.148647  0.169751  0.837364  1
  Li  Li1  1  0.148647  0.330249  0.337364  1
  Li  Li2  1  0.334773  0.649491  0.610242  1
  Li  Li3  1  0.334773  0.850509  0.110242  1
  Li  Li4  1  0.665227  0.149491  0.889758  1
  Li  Li5  1  0.665227  0.350509  0.389758  1
  Li  Li6  1  0.851353  0.669751  0.662636  1
  Li  Li7  1  0.851353  0.830249  0.162636  1
  Fe  Fe8  1  0.142186  0.873524  0.509130  1
  Fe  Fe9  1  0.142186  0.626476  0.009130  1
  Fe  Fe10  1  0.378292  0.416171  0.765013  1
  Fe  Fe11  1  0.378292  0.083829  0.265013  1
  Fe  Fe12  1  0.621708  0.916171  0.734987  1
  Fe  Fe13  1  0.621708  0.583829  0.234987  1
  Fe  Fe14  1  0.857814  0.373524  0.990870  1
  Fe  Fe15  1  0.857814  0.126476  0.490870  1
  Si  Si16  1  0.118363  0.894874  0.824714  1
  Si  Si17  1  0.118363  0.605126  0.324714  1
  Si  Si18  1  0.375989  0.151681  0.574533  1
  Si  Si19  1  0.375989  0.348319  0.074533  1
  Si  Si20  1  0.624011  0.651681  0.925467  1
  Si  Si21  1  0.624011  0.848319  0.425467  1
  Si  Si22  1  0.881637  0.394874  0.675286  1
  Si  Si23  1  0.881637  0.105126  0.175286  1
  O  O24  1  0.126928  0.802509  0.953604  1
  O  O25  1  0.107753  0.492806  0.675116  1
  O  O26  1  0.126928  0.697491  0.453604  1
  O  O27  1  0.107753  0.007194  0.175116  1
  O  O28  1  0.112333  0.809078  0.688315  1
  O  O29  1  0.142378  0.059909  0.571983  1
  O  O30  1  0.112333  0.690922  0.188315  1
  O  O31  1  0.142378  0.440091  0.071983  1
  O  O32  1  0.333100  0.253429  0.688357  1
  O  O33  1  0.357334  0.984136  0.827628  1
  O  O34  1  0.333100  0.246571  0.188357  1
  O  O35  1  0.357334  0.515864  0.327628  1
  O  O36  1  0.389299  0.567097  0.888602  1
  O  O37  1  0.417948  0.292319  0.928873  1
  O  O38  1  0.389299  0.932903  0.388602  1
  O  O39  1  0.417948  0.207681  0.428873  1
  O  O40  1  0.582052  0.792319  0.571127  1
  O  O41  1  0.610701  0.067097  0.611398  1
  O  O42  1  0.582052  0.707681  0.071127  1
  O  O43  1  0.610701  0.432903  0.111398  1
  O  O44  1  0.642666  0.484136  0.672372  1
  O  O45  1  0.666900  0.753429  0.811643  1
  O  O46  1  0.642666  0.015864  0.172372  1
  O  O47  1  0.666900  0.746571  0.311643  1
  O  O48  1  0.857622  0.559909  0.928017  1
  O  O49  1  0.887667  0.309078  0.811685  1
  O  O50  1  0.857622  0.940091  0.428017  1
  O  O51  1  0.887667  0.190922  0.311685  1
  O  O52  1  0.892247  0.992806  0.824884  1
  O  O53  1  0.873072  0.302509  0.546396  1
  O  O54  1  0.892247  0.507194  0.324884  1
  O  O55  1  0.873072  0.197491  0.046396  1
