# generated using pymatgen
data_Ho(ClO4)3
_symmetry_space_group_name_H-M   'P 1'
_cell_length_a   9.26829858
_cell_length_b   9.26829858
_cell_length_c   5.71198653
_cell_angle_alpha   90.00000000
_cell_angle_beta   90.00000000
_cell_angle_gamma   120.00000000
_symmetry_Int_Tables_number   1
_chemical_formula_structural   Ho(ClO4)3
_chemical_formula_sum   'Ho2 Cl6 O24'
_cell_volume   424.93043626
_cell_formula_units_Z   2
loop_
 _symmetry_equiv_pos_site_id
 _symmetry_equiv_pos_as_xyz
  1  'x, y, z'
loop_
 _atom_site_type_symbol
 _atom_site_label
 _atom_site_symmetry_multiplicity
 _atom_site_fract_x
 _atom_site_fract_y
 _atom_site_fract_z
 _atom_site_occupancy
  Ho  Ho0  1  0.333333  0.666667  0.750000  1
  Ho  Ho1  1  0.666667  0.333333  0.250000  1
  Cl  Cl2  1  0.090915  0.707635  0.250000  1
  Cl  Cl3  1  0.292365  0.383281  0.250000  1
  Cl  Cl4  1  0.616719  0.909085  0.250000  1
  Cl  Cl5  1  0.383281  0.090915  0.750000  1
  Cl  Cl6  1  0.707635  0.616719  0.750000  1
  Cl  Cl7  1  0.909085  0.292365  0.750000  1
  O  O8  1  0.019948  0.812368  0.250000  1
  O  O9  1  0.034837  0.470262  0.750000  1
  O  O10  1  0.197668  0.741567  0.043091  1
  O  O11  1  0.197668  0.741567  0.456909  1
  O  O12  1  0.435424  0.965163  0.750000  1
  O  O13  1  0.258433  0.456101  0.456909  1
  O  O14  1  0.258433  0.456101  0.043091  1
  O  O15  1  0.187632  0.207580  0.250000  1
  O  O16  1  0.543899  0.802332  0.043091  1
  O  O17  1  0.543899  0.802332  0.456909  1
  O  O18  1  0.207580  0.019948  0.750000  1
  O  O19  1  0.470262  0.435424  0.250000  1
  O  O20  1  0.529738  0.564576  0.750000  1
  O  O21  1  0.792420  0.980052  0.250000  1
  O  O22  1  0.456101  0.197668  0.543091  1
  O  O23  1  0.456101  0.197668  0.956909  1
  O  O24  1  0.812368  0.792420  0.750000  1
  O  O25  1  0.741567  0.543899  0.956909  1
  O  O26  1  0.741567  0.543899  0.543091  1
  O  O27  1  0.564576  0.034837  0.250000  1
  O  O28  1  0.802332  0.258433  0.956909  1
  O  O29  1  0.802332  0.258433  0.543091  1
  O  O30  1  0.965163  0.529738  0.250000  1
  O  O31  1  0.980052  0.187632  0.750000  1
