# generated using pymatgen
data_LiNiPO4
_symmetry_space_group_name_H-M   'P 1'
_cell_length_a   7.92015708
_cell_length_b   5.22690275
_cell_length_c   8.43012658
_cell_angle_alpha   90.00000000
_cell_angle_beta   104.78940680
_cell_angle_gamma   90.00000000
_symmetry_Int_Tables_number   1
_chemical_formula_structural   LiNiPO4
_chemical_formula_sum   'Li4 Ni4 P4 O16'
_cell_volume   337.42764839
_cell_formula_units_Z   4
loop_
 _symmetry_equiv_pos_site_id
 _symmetry_equiv_pos_as_xyz
  1  'x, y, z'
loop_
 _atom_site_type_symbol
 _atom_site_label
 _atom_site_symmetry_multiplicity
 _atom_site_fract_x
 _atom_site_fract_y
 _atom_site_fract_z
 _atom_site_occupancy
  Li  Li0  1  0.128787  0.340483  0.791520  1
  Li  Li1  1  0.641160  0.826579  0.615767  1
  Li  Li2  1  0.128787  0.659517  0.291520  1
  Li  Li3  1  0.641160  0.173421  0.115767  1
  Ni  Ni4  1  0.042102  0.834291  0.943519  1
  Ni  Ni5  1  0.512263  0.324800  0.734667  1
  Ni  Ni6  1  0.042102  0.165709  0.443519  1
  Ni  Ni7  1  0.512263  0.675200  0.234667  1
  P  P8  1  0.746892  0.676106  0.989161  1
  P  P9  1  0.259168  0.824328  0.665134  1
  P  P10  1  0.746892  0.323894  0.489161  1
  P  P11  1  0.259168  0.175672  0.165134  1
  O  O12  1  0.123000  0.189940  0.995918  1
  O  O13  1  0.683025  0.397731  0.943965  1
  O  O14  1  0.183664  0.708765  0.801414  1
  O  O15  1  0.295343  0.117798  0.697388  1
  O  O16  1  0.781568  0.814290  0.836696  1
  O  O17  1  0.426098  0.676650  0.659141  1
  O  O18  1  0.123000  0.810060  0.495918  1
  O  O19  1  0.608757  0.184290  0.558951  1
  O  O20  1  0.929375  0.313760  0.612959  1
  O  O21  1  0.683025  0.602269  0.443965  1
  O  O22  1  0.183664  0.291235  0.301414  1
  O  O23  1  0.295343  0.882202  0.197388  1
  O  O24  1  0.781568  0.185710  0.336696  1
  O  O25  1  0.426098  0.323350  0.159141  1
  O  O26  1  0.608757  0.815710  0.058951  1
  O  O27  1  0.929375  0.686240  0.112959  1
