# generated using pymatgen
data_Li5CuF6
_symmetry_space_group_name_H-M   'P 1'
_cell_length_a   8.70261002
_cell_length_b   8.70261002
_cell_length_c   5.07502874
_cell_angle_alpha   85.01059000
_cell_angle_beta   94.98941000
_cell_angle_gamma   119.59665724
_symmetry_Int_Tables_number   1
_chemical_formula_structural   Li5CuF6
_chemical_formula_sum   'Li15 Cu3 F18'
_cell_volume   332.51313995
_cell_formula_units_Z   3
loop_
 _symmetry_equiv_pos_site_id
 _symmetry_equiv_pos_as_xyz
  1  'x, y, z'
loop_
 _atom_site_type_symbol
 _atom_site_label
 _atom_site_symmetry_multiplicity
 _atom_site_fract_x
 _atom_site_fract_y
 _atom_site_fract_z
 _atom_site_occupancy
  Li  Li0  1  0.003426  0.664064  0.564575  1
  Li  Li1  1  0.169823  0.830177  0.068042  1
  Li  Li2  1  0.335936  0.996574  0.564575  1
  Li  Li3  1  0.167023  0.501531  0.942151  1
  Li  Li4  1  0.498469  0.832977  0.942151  1
  Li  Li5  1  0.166694  0.166694  0.500000  1
  Li  Li6  1  0.333036  0.333036  0.000000  1
  Li  Li7  1  0.500000  0.500000  0.500000  1
  Li  Li8  1  0.666964  0.666964  0.000000  1
  Li  Li9  1  0.833306  0.833306  0.500000  1
  Li  Li10  1  0.501531  0.167023  0.057849  1
  Li  Li11  1  0.832977  0.498469  0.057849  1
  Li  Li12  1  0.664064  0.003426  0.435425  1
  Li  Li13  1  0.830177  0.169823  0.931958  1
  Li  Li14  1  0.996574  0.335936  0.435425  1
  Cu  Cu15  1  0.000000  0.000000  0.000000  1
  Cu  Cu16  1  0.331957  0.668043  0.442181  1
  Cu  Cu17  1  0.668043  0.331957  0.557819  1
  F  F18  1  0.089823  0.910177  0.388407  1
  F  F19  1  0.066415  0.580923  0.248765  1
  F  F20  1  0.248283  0.751717  0.775651  1
  F  F21  1  0.419077  0.933585  0.248765  1
  F  F22  1  0.086550  0.265509  0.143571  1
  F  F23  1  0.249275  0.402809  0.650096  1
  F  F24  1  0.417881  0.582119  0.120798  1
  F  F25  1  0.265509  0.086550  0.856429  1
  F  F26  1  0.597191  0.750725  0.650096  1
  F  F27  1  0.402809  0.249275  0.349904  1
  F  F28  1  0.734491  0.913450  0.143571  1
  F  F29  1  0.582119  0.417881  0.879202  1
  F  F30  1  0.750725  0.597191  0.349904  1
  F  F31  1  0.913450  0.734491  0.856429  1
  F  F32  1  0.580923  0.066415  0.751235  1
  F  F33  1  0.751717  0.248283  0.224349  1
  F  F34  1  0.933585  0.419077  0.751235  1
  F  F35  1  0.910177  0.089823  0.611593  1
