# generated using pymatgen
data_Ce5Y2O13
_symmetry_space_group_name_H-M   'P 1'
_cell_length_a   22.40921772
_cell_length_b   22.40921772
_cell_length_c   22.40921772
_cell_angle_alpha   9.80681741
_cell_angle_beta   9.80681741
_cell_angle_gamma   9.80681741
_symmetry_Int_Tables_number   1
_chemical_formula_structural   Ce5Y2O13
_chemical_formula_sum   'Ce5 Y2 O13'
_cell_volume   283.42319160
_cell_formula_units_Z   1
loop_
 _symmetry_equiv_pos_site_id
 _symmetry_equiv_pos_as_xyz
  1  'x, y, z'
loop_
 _atom_site_type_symbol
 _atom_site_label
 _atom_site_symmetry_multiplicity
 _atom_site_fract_x
 _atom_site_fract_y
 _atom_site_fract_z
 _atom_site_occupancy
  Ce  Ce0  1  0.427911  0.427911  0.427911  1
  Ce  Ce1  1  0.142244  0.142244  0.142244  1
  Ce  Ce2  1  0.856547  0.856547  0.856547  1
  Ce  Ce3  1  0.570865  0.570865  0.570865  1
  Ce  Ce4  1  0.284969  0.284969  0.284969  1
  Y  Y5  1  0.998934  0.998934  0.998934  1
  Y  Y6  1  0.716264  0.716264  0.716264  1
  O  O7  1  0.392957  0.392957  0.392957  1
  O  O8  1  0.030784  0.030784  0.030784  1
  O  O9  1  0.107499  0.107499  0.107499  1
  O  O10  1  0.464522  0.464522  0.464522  1
  O  O11  1  0.750304  0.750304  0.750304  1
  O  O12  1  0.821764  0.821764  0.821764  1
  O  O13  1  0.178833  0.178833  0.178833  1
  O  O14  1  0.250407  0.250407  0.250407  1
  O  O15  1  0.893150  0.893150  0.893150  1
  O  O16  1  0.536077  0.536077  0.536077  1
  O  O17  1  0.964019  0.964019  0.964019  1
  O  O18  1  0.607193  0.607193  0.607193  1
  O  O19  1  0.326192  0.326192  0.326192  1
