# generated using pymatgen
data_Cu3OF5
_symmetry_space_group_name_H-M   'P 1'
_cell_length_a   4.63528291
_cell_length_b   5.40838329
_cell_length_c   8.15097818
_cell_angle_alpha   86.55588496
_cell_angle_beta   86.13050811
_cell_angle_gamma   88.24557109
_symmetry_Int_Tables_number   1
_chemical_formula_structural   Cu3OF5
_chemical_formula_sum   'Cu6 O2 F10'
_cell_volume   203.43358524
_cell_formula_units_Z   2
loop_
 _symmetry_equiv_pos_site_id
 _symmetry_equiv_pos_as_xyz
  1  'x, y, z'
loop_
 _atom_site_type_symbol
 _atom_site_label
 _atom_site_symmetry_multiplicity
 _atom_site_fract_x
 _atom_site_fract_y
 _atom_site_fract_z
 _atom_site_occupancy
  Cu  Cu0  1  0.988464  0.683810  0.832422  1
  Cu  Cu1  1  0.521402  0.157934  0.821532  1
  Cu  Cu2  1  0.011536  0.316190  0.167578  1
  Cu  Cu3  1  0.478598  0.842066  0.178468  1
  Cu  Cu4  1  0.500000  0.500000  0.500000  1
  Cu  Cu5  1  0.000000  0.000000  0.500000  1
  O  O6  1  0.185751  0.040584  0.275621  1
  O  O7  1  0.814249  0.959416  0.724379  1
  F  F8  1  0.206086  0.376010  0.916406  1
  F  F9  1  0.793914  0.623990  0.083594  1
  F  F10  1  0.298801  0.877368  0.915510  1
  F  F11  1  0.701199  0.122632  0.084490  1
  F  F12  1  0.285929  0.540644  0.249156  1
  F  F13  1  0.793417  0.298056  0.412243  1
  F  F14  1  0.700387  0.784942  0.413202  1
  F  F15  1  0.299613  0.215058  0.586798  1
  F  F16  1  0.714071  0.459356  0.750844  1
  F  F17  1  0.206583  0.701944  0.587757  1
