# generated using pymatgen
data_K2W4O13
_symmetry_space_group_name_H-M   'P 1'
_cell_length_a   3.88632796
_cell_length_b   15.99131976
_cell_length_c   16.01435701
_cell_angle_alpha   119.89318062
_cell_angle_beta   90.03058094
_cell_angle_gamma   90.00753228
_symmetry_Int_Tables_number   1
_chemical_formula_structural   K2W4O13
_chemical_formula_sum   'K6 W12 O39'
_cell_volume   862.83995192
_cell_formula_units_Z   3
loop_
 _symmetry_equiv_pos_site_id
 _symmetry_equiv_pos_as_xyz
  1  'x, y, z'
loop_
 _atom_site_type_symbol
 _atom_site_label
 _atom_site_symmetry_multiplicity
 _atom_site_fract_x
 _atom_site_fract_y
 _atom_site_fract_z
 _atom_site_occupancy
  K  K0  1  0.500249  0.997971  0.999092  1
  K  K1  1  0.472812  0.193983  0.504746  1
  K  K2  1  0.473052  0.314166  0.810159  1
  K  K3  1  0.526922  0.685665  0.182672  1
  K  K4  1  0.527557  0.814490  0.501628  1
  K  K5  1  0.527812  0.498820  0.314613  1
  W  W6  1  0.969264  0.729541  0.819841  1
  W  W7  1  0.978263  0.363033  0.454759  1
  W  W8  1  0.975431  0.548389  0.908790  1
  W  W9  1  0.972303  0.090335  0.267920  1
  W  W10  1  0.025730  0.822746  0.087994  1
  W  W11  1  0.976560  0.086746  0.637968  1
  W  W12  1  0.023266  0.911266  0.361144  1
  W  W13  1  0.972428  0.177491  0.910677  1
  W  W14  1  0.028295  0.909498  0.734102  1
  W  W15  1  0.022616  0.450770  0.087754  1
  W  W16  1  0.027273  0.637366  0.549505  1
  W  W17  1  0.026561  0.267242  0.178148  1
  O  O18  1  0.003510  0.818298  0.968546  1
  O  O19  1  0.489937  0.734851  0.829056  1
  O  O20  1  0.995513  0.654798  0.688992  1
  O  O21  1  0.000998  0.500317  0.500403  1
  O  O22  1  0.990517  0.622605  0.844576  1
  O  O23  1  0.488402  0.362007  0.441220  1
  O  O24  1  0.487752  0.558684  0.922340  1
  O  O25  1  0.983581  0.361508  0.563611  1
  O  O26  1  0.002910  0.150488  0.182010  1
  O  O27  1  0.990111  0.221273  0.377550  1
  O  O28  1  0.981393  0.431031  0.806939  1
  O  O29  1  0.490339  0.095190  0.266890  1
  O  O30  1  0.996431  0.968957  0.151965  1
  O  O31  1  0.985133  0.194905  0.630274  1
  O  O32  1  0.998672  0.039131  0.349887  1
  O  O33  1  0.998781  0.310301  0.960721  1
  O  O34  1  0.509138  0.829699  0.095996  1
  O  O35  1  0.487953  0.077947  0.637511  1
  O  O36  1  0.989363  0.157218  0.778203  1
  O  O37  1  0.999797  0.999051  0.499984  1
  O  O38  1  0.010875  0.842854  0.222107  1
  O  O39  1  0.512032  0.920980  0.362936  1
  O  O40  1  0.490434  0.171509  0.904361  1
  O  O41  1  0.001309  0.690931  0.040003  1
  O  O42  1  0.001107  0.960977  0.651576  1
  O  O43  1  0.015006  0.803628  0.369899  1
  O  O44  1  0.003936  0.031852  0.848953  1
  O  O45  1  0.510265  0.904969  0.733831  1
  O  O46  1  0.001088  0.501912  0.001992  1
  O  O47  1  0.015579  0.565692  0.196697  1
  O  O48  1  0.012069  0.778936  0.620474  1
  O  O49  1  0.998162  0.849196  0.817497  1
  O  O50  1  0.013711  0.630625  0.433971  1
  O  O51  1  0.512082  0.441493  0.079154  1
  O  O52  1  0.513099  0.638708  0.557203  1
  O  O53  1  0.010389  0.378316  0.156317  1
  O  O54  1  0.002397  0.349315  0.309188  1
  O  O55  1  0.509470  0.265837  0.170345  1
  O  O56  1  0.996162  0.182240  0.030892  1
