# generated using pymatgen
data_Li4TiCrO6
_symmetry_space_group_name_H-M   'P 1'
_cell_length_a   5.06763059
_cell_length_b   5.06763059
_cell_length_c   19.40442139
_cell_angle_alpha   87.52873578
_cell_angle_beta   92.47126422
_cell_angle_gamma   59.85655148
_symmetry_Int_Tables_number   1
_chemical_formula_structural   Li4TiCrO6
_chemical_formula_sum   'Li16 Ti4 Cr4 O24'
_cell_volume   429.32250818
_cell_formula_units_Z   4
loop_
 _symmetry_equiv_pos_site_id
 _symmetry_equiv_pos_as_xyz
  1  'x, y, z'
loop_
 _atom_site_type_symbol
 _atom_site_label
 _atom_site_symmetry_multiplicity
 _atom_site_fract_x
 _atom_site_fract_y
 _atom_site_fract_z
 _atom_site_occupancy
  Li  Li0  1  0.002311  0.753990  0.875054  1
  Li  Li1  1  0.123189  0.626683  0.249989  1
  Li  Li2  1  0.411162  0.660892  0.124715  1
  Li  Li3  1  0.501741  0.249674  0.374981  1
  Li  Li4  1  0.626683  0.123189  0.750011  1
  Li  Li5  1  0.753990  0.002311  0.124946  1
  Li  Li6  1  0.918862  0.152617  0.624662  1
  Li  Li7  1  0.249674  0.501741  0.625019  1
  Li  Li8  1  0.844965  0.581969  0.374694  1
  Li  Li9  1  0.660892  0.411162  0.875285  1
  Li  Li10  1  0.336935  0.086530  0.874772  1
  Li  Li11  1  0.152617  0.918862  0.375338  1
  Li  Li12  1  0.086530  0.336935  0.125228  1
  Li  Li13  1  0.373969  0.373969  0.000000  1
  Li  Li14  1  0.581969  0.844965  0.625306  1
  Li  Li15  1  0.875719  0.875719  0.500000  1
  Ti  Ti16  1  0.708775  0.708775  0.000000  1
  Ti  Ti17  1  0.541813  0.541813  0.500000  1
  Ti  Ti18  1  0.461493  0.955857  0.249929  1
  Ti  Ti19  1  0.955857  0.461493  0.750071  1
  Cr  Cr20  1  0.209679  0.209679  0.500000  1
  Cr  Cr21  1  0.040825  0.040825  0.000000  1
  Cr  Cr22  1  0.788518  0.294280  0.250162  1
  Cr  Cr23  1  0.294280  0.788518  0.749838  1
  O  O24  1  0.038629  0.713709  0.057481  1
  O  O25  1  0.713709  0.038629  0.942519  1
  O  O26  1  0.536053  0.211723  0.557483  1
  O  O27  1  0.505265  0.598378  0.306293  1
  O  O28  1  0.348375  0.756452  0.944140  1
  O  O29  1  0.211723  0.536053  0.442517  1
  O  O30  1  0.749229  0.646295  0.192801  1
  O  O31  1  0.002120  0.102615  0.805919  1
  O  O32  1  0.856563  0.249432  0.443515  1
  O  O33  1  0.102615  0.002120  0.194081  1
  O  O34  1  0.393543  0.000735  0.056639  1
  O  O35  1  0.251601  0.136718  0.694266  1
  O  O36  1  0.756452  0.348375  0.055860  1
  O  O37  1  0.598378  0.505265  0.693707  1
  O  O38  1  0.901675  0.493054  0.556122  1
  O  O39  1  0.136718  0.251601  0.305734  1
  O  O40  1  0.000735  0.393543  0.943361  1
  O  O41  1  0.249432  0.856563  0.556485  1
  O  O42  1  0.786851  0.959416  0.307970  1
  O  O43  1  0.646295  0.749229  0.807199  1
  O  O44  1  0.493054  0.901675  0.443878  1
  O  O45  1  0.469900  0.289221  0.192866  1
  O  O46  1  0.289221  0.469900  0.807134  1
  O  O47  1  0.959416  0.786851  0.692030  1
