# generated using pymatgen
data_Li4Mn3CuO8
_symmetry_space_group_name_H-M   'P 1'
_cell_length_a   5.93716305
_cell_length_b   5.93716305
_cell_length_c   5.93716305
_cell_angle_alpha   60.13044704
_cell_angle_beta   60.13044704
_cell_angle_gamma   60.13044704
_symmetry_Int_Tables_number   1
_chemical_formula_structural   Li4Mn3CuO8
_chemical_formula_sum   'Li4 Mn3 Cu1 O8'
_cell_volume   148.42376001
_cell_formula_units_Z   1
loop_
 _symmetry_equiv_pos_site_id
 _symmetry_equiv_pos_as_xyz
  1  'x, y, z'
loop_
 _atom_site_type_symbol
 _atom_site_label
 _atom_site_symmetry_multiplicity
 _atom_site_fract_x
 _atom_site_fract_y
 _atom_site_fract_z
 _atom_site_occupancy
  Li  Li0  1  0.500000  0.500000  0.500000  1
  Li  Li1  1  0.000000  0.000000  0.500000  1
  Li  Li2  1  1.000000  0.500000  0.000000  1
  Li  Li3  1  0.500000  0.000000  0.000000  1
  Mn  Mn4  1  0.500000  0.500000  0.000000  1
  Mn  Mn5  1  0.500000  1.000000  0.500000  1
  Mn  Mn6  1  0.000000  0.500000  0.500000  1
  Cu  Cu7  1  0.000000  0.000000  0.000000  1
  O  O8  1  0.752205  0.752205  0.752205  1
  O  O9  1  0.247944  0.247944  0.723433  1
  O  O10  1  0.247944  0.723433  0.247944  1
  O  O11  1  0.247795  0.247795  0.247795  1
  O  O12  1  0.723433  0.247944  0.247944  1
  O  O13  1  0.752056  0.752056  0.276567  1
  O  O14  1  0.752056  0.276567  0.752056  1
  O  O15  1  0.276567  0.752056  0.752056  1
