# generated using pymatgen
data_Na5Mn2P2(CO7)2
_symmetry_space_group_name_H-M   'P 1'
_cell_length_a   9.07357044
_cell_length_b   6.61776557
_cell_length_c   10.59050314
_cell_angle_alpha   90.00000000
_cell_angle_beta   90.74935555
_cell_angle_gamma   90.00000000
_symmetry_Int_Tables_number   1
_chemical_formula_structural   Na5Mn2P2(CO7)2
_chemical_formula_sum   'Na10 Mn4 P4 C4 O28'
_cell_volume   635.87103454
_cell_formula_units_Z   2
loop_
 _symmetry_equiv_pos_site_id
 _symmetry_equiv_pos_as_xyz
  1  'x, y, z'
loop_
 _atom_site_type_symbol
 _atom_site_label
 _atom_site_symmetry_multiplicity
 _atom_site_fract_x
 _atom_site_fract_y
 _atom_site_fract_z
 _atom_site_occupancy
  Na  Na0  1  0.078505  0.250000  0.619118  1
  Na  Na1  1  0.255801  0.006509  0.368542  1
  Na  Na2  1  0.255801  0.493491  0.368542  1
  Na  Na3  1  0.237580  0.999376  0.886183  1
  Na  Na4  1  0.237580  0.500624  0.886183  1
  Na  Na5  1  0.762420  0.499376  0.113817  1
  Na  Na6  1  0.762420  0.000624  0.113817  1
  Na  Na7  1  0.744199  0.506509  0.631458  1
  Na  Na8  1  0.744199  0.993491  0.631458  1
  Na  Na9  1  0.921495  0.750000  0.380882  1
  Mn  Mn10  1  0.358027  0.750000  0.110689  1
  Mn  Mn11  1  0.355104  0.750000  0.611942  1
  Mn  Mn12  1  0.644896  0.250000  0.388058  1
  Mn  Mn13  1  0.641973  0.250000  0.889311  1
  P  P14  1  0.423926  0.250000  0.148467  1
  P  P15  1  0.419502  0.250000  0.650068  1
  P  P16  1  0.580498  0.750000  0.349932  1
  P  P17  1  0.576074  0.750000  0.851533  1
  C  C18  1  0.070176  0.750000  0.141232  1
  C  C19  1  0.065865  0.750000  0.629919  1
  C  C20  1  0.934135  0.250000  0.370081  1
  C  C21  1  0.929824  0.250000  0.858768  1
  O  O22  1  0.075473  0.250000  0.374771  1
  O  O23  1  0.070109  0.250000  0.854495  1
  O  O24  1  0.142103  0.750000  0.034080  1
  O  O25  1  0.137487  0.750000  0.521933  1
  O  O26  1  0.150964  0.750000  0.243969  1
  O  O27  1  0.144042  0.750000  0.733007  1
  O  O28  1  0.332916  0.060412  0.109304  1
  O  O29  1  0.332916  0.439588  0.109304  1
  O  O30  1  0.323716  0.065061  0.613452  1
  O  O31  1  0.323716  0.434939  0.613452  1
  O  O32  1  0.442368  0.250000  0.295598  1
  O  O33  1  0.429904  0.750000  0.415811  1
  O  O34  1  0.445107  0.250000  0.797944  1
  O  O35  1  0.422220  0.750000  0.913085  1
  O  O36  1  0.577780  0.250000  0.086915  1
  O  O37  1  0.554893  0.750000  0.202056  1
  O  O38  1  0.570096  0.250000  0.584189  1
  O  O39  1  0.557632  0.750000  0.704402  1
  O  O40  1  0.676284  0.565061  0.386548  1
  O  O41  1  0.676284  0.934939  0.386548  1
  O  O42  1  0.667084  0.560412  0.890696  1
  O  O43  1  0.667084  0.939588  0.890696  1
  O  O44  1  0.855958  0.250000  0.266993  1
  O  O45  1  0.849036  0.250000  0.756031  1
  O  O46  1  0.862513  0.250000  0.478067  1
  O  O47  1  0.857897  0.250000  0.965920  1
  O  O48  1  0.929891  0.750000  0.145505  1
  O  O49  1  0.924527  0.750000  0.625229  1
