# generated using pymatgen
data_V3Fe2Ni(PO4)6
_symmetry_space_group_name_H-M   'P 1'
_cell_length_a   8.48744154
_cell_length_b   8.48744154
_cell_length_c   8.48744154
_cell_angle_alpha   61.17211235
_cell_angle_beta   61.17211235
_cell_angle_gamma   61.17211235
_symmetry_Int_Tables_number   1
_chemical_formula_structural   V3Fe2Ni(PO4)6
_chemical_formula_sum   'V3 Fe2 Ni1 P6 O24'
_cell_volume   443.73088800
_cell_formula_units_Z   1
loop_
 _symmetry_equiv_pos_site_id
 _symmetry_equiv_pos_as_xyz
  1  'x, y, z'
loop_
 _atom_site_type_symbol
 _atom_site_label
 _atom_site_symmetry_multiplicity
 _atom_site_fract_x
 _atom_site_fract_y
 _atom_site_fract_z
 _atom_site_occupancy
  V  V0  1  0.643282  0.643282  0.643282  1
  V  V1  1  0.858529  0.858529  0.858529  1
  V  V2  1  0.356272  0.356272  0.356272  1
  Fe  Fe3  1  0.003199  0.003199  0.003199  1
  Fe  Fe4  1  0.501027  0.501027  0.501027  1
  Ni  Ni5  1  0.141826  0.141826  0.141826  1
  P  P6  1  0.956590  0.247839  0.541432  1
  P  P7  1  0.541432  0.956590  0.247839  1
  P  P8  1  0.247839  0.541432  0.956590  1
  P  P9  1  0.748834  0.458121  0.042161  1
  P  P10  1  0.458121  0.042161  0.748834  1
  P  P11  1  0.042161  0.748834  0.458121  1
  O  O12  1  0.504253  0.120216  0.310992  1
  O  O13  1  0.310992  0.504253  0.120216  1
  O  O14  1  0.120216  0.310992  0.504253  1
  O  O15  1  0.941328  0.088362  0.742228  1
  O  O16  1  0.984240  0.189473  0.387915  1
  O  O17  1  0.759312  0.412394  0.567471  1
  O  O18  1  0.742228  0.941328  0.088362  1
  O  O19  1  0.567471  0.759312  0.412394  1
  O  O20  1  0.812850  0.620479  0.002436  1
  O  O21  1  0.412394  0.567471  0.759312  1
  O  O22  1  0.904400  0.264469  0.051574  1
  O  O23  1  0.620479  0.002436  0.812850  1
  O  O24  1  0.387915  0.984240  0.189473  1
  O  O25  1  0.088362  0.742228  0.941328  1
  O  O26  1  0.583854  0.447849  0.238103  1
  O  O27  1  0.189473  0.387915  0.984240  1
  O  O28  1  0.447849  0.238103  0.583854  1
  O  O29  1  0.264469  0.051574  0.904400  1
  O  O30  1  0.238103  0.583854  0.447849  1
  O  O31  1  0.002436  0.812850  0.620479  1
  O  O32  1  0.051574  0.904400  0.264469  1
  O  O33  1  0.884663  0.674132  0.507882  1
  O  O34  1  0.674132  0.507882  0.884663  1
  O  O35  1  0.507882  0.884663  0.674132  1
