# generated using pymatgen
data_Li2Ni3WO8
_symmetry_space_group_name_H-M   'P 1'
_cell_length_a   5.87731990
_cell_length_b   5.87731990
_cell_length_c   9.59689972
_cell_angle_alpha   90.00000000
_cell_angle_beta   90.00000000
_cell_angle_gamma   120.00000000
_symmetry_Int_Tables_number   1
_chemical_formula_structural   Li2Ni3WO8
_chemical_formula_sum   'Li4 Ni6 W2 O16'
_cell_volume   287.09144281
_cell_formula_units_Z   2
loop_
 _symmetry_equiv_pos_site_id
 _symmetry_equiv_pos_as_xyz
  1  'x, y, z'
loop_
 _atom_site_type_symbol
 _atom_site_label
 _atom_site_symmetry_multiplicity
 _atom_site_fract_x
 _atom_site_fract_y
 _atom_site_fract_z
 _atom_site_occupancy
  Li  Li0  1  0.333333  0.666667  0.902990  1
  Li  Li1  1  0.000000  0.000000  0.990011  1
  Li  Li2  1  0.000000  0.000000  0.490011  1
  Li  Li3  1  0.666667  0.333333  0.402990  1
  Ni  Ni4  1  0.169785  0.830215  0.214514  1
  Ni  Ni5  1  0.169785  0.339569  0.214514  1
  Ni  Ni6  1  0.660431  0.830215  0.214514  1
  Ni  Ni7  1  0.339569  0.169785  0.714514  1
  Ni  Ni8  1  0.830215  0.660431  0.714514  1
  Ni  Ni9  1  0.830215  0.169785  0.714514  1
  W  W10  1  0.333333  0.666667  0.487188  1
  W  W11  1  0.666667  0.333333  0.987188  1
  O  O12  1  0.170219  0.829781  0.588257  1
  O  O13  1  0.034571  0.517286  0.350079  1
  O  O14  1  0.333333  0.666667  0.116188  1
  O  O15  1  0.000000  0.000000  0.298992  1
  O  O16  1  0.000000  0.000000  0.798992  1
  O  O17  1  0.170219  0.340438  0.588257  1
  O  O18  1  0.482714  0.965429  0.350079  1
  O  O19  1  0.482714  0.517286  0.350079  1
  O  O20  1  0.340438  0.170219  0.088257  1
  O  O21  1  0.659562  0.829781  0.588257  1
  O  O22  1  0.517286  0.482714  0.850079  1
  O  O23  1  0.517286  0.034571  0.850079  1
  O  O24  1  0.666667  0.333333  0.616188  1
  O  O25  1  0.829781  0.659562  0.088257  1
  O  O26  1  0.965429  0.482714  0.850079  1
  O  O27  1  0.829781  0.170219  0.088257  1
