# generated using pymatgen
data_Li4Mn3Fe(BO3)4
_symmetry_space_group_name_H-M   'P 1'
_cell_length_a   5.24173591
_cell_length_b   6.05099129
_cell_length_c   16.29698929
_cell_angle_alpha   81.91789365
_cell_angle_beta   89.09190723
_cell_angle_gamma   89.26555605
_symmetry_Int_Tables_number   1
_chemical_formula_structural   Li4Mn3Fe(BO3)4
_chemical_formula_sum   'Li8 Mn6 Fe2 B8 O24'
_cell_volume   511.67535343
_cell_formula_units_Z   2
loop_
 _symmetry_equiv_pos_site_id
 _symmetry_equiv_pos_as_xyz
  1  'x, y, z'
loop_
 _atom_site_type_symbol
 _atom_site_label
 _atom_site_symmetry_multiplicity
 _atom_site_fract_x
 _atom_site_fract_y
 _atom_site_fract_z
 _atom_site_occupancy
  Li  Li0  1  0.596955  0.939413  0.263575  1
  Li  Li1  1  0.902815  0.310646  0.984186  1
  Li  Li2  1  0.403045  0.060587  0.736425  1
  Li  Li3  1  0.098365  0.189092  0.515723  1
  Li  Li4  1  0.402473  0.561758  0.232633  1
  Li  Li5  1  0.097185  0.689354  0.015814  1
  Li  Li6  1  0.597527  0.438242  0.767367  1
  Li  Li7  1  0.901635  0.810908  0.484277  1
  Mn  Mn8  1  0.919321  0.898976  0.665131  1
  Mn  Mn9  1  0.080679  0.101024  0.334869  1
  Mn  Mn10  1  0.917461  0.401057  0.164942  1
  Mn  Mn11  1  0.580529  0.350164  0.585185  1
  Mn  Mn12  1  0.419471  0.649836  0.414815  1
  Mn  Mn13  1  0.082539  0.598943  0.835058  1
  Fe  Fe14  1  0.413994  0.146208  0.917726  1
  Fe  Fe15  1  0.586006  0.853792  0.082274  1
  B  B16  1  0.078031  0.912688  0.171020  1
  B  B17  1  0.580674  0.160462  0.422503  1
  B  B18  1  0.418143  0.338811  0.076718  1
  B  B19  1  0.921969  0.087312  0.828980  1
  B  B20  1  0.581857  0.661189  0.923282  1
  B  B21  1  0.080958  0.409351  0.673213  1
  B  B22  1  0.919042  0.590649  0.326787  1
  B  B23  1  0.419326  0.839538  0.577497  1
  O  O24  1  0.337489  0.886461  0.181659  1
  O  O25  1  0.933290  0.044813  0.219127  1
  O  O26  1  0.464023  0.044428  0.365343  1
  O  O27  1  0.049063  0.200214  0.885437  1
  O  O28  1  0.535977  0.955572  0.634657  1
  O  O29  1  0.566610  0.205826  0.029051  1
  O  O30  1  0.066710  0.955187  0.780873  1
  O  O31  1  0.840251  0.138506  0.436395  1
  O  O32  1  0.158355  0.362504  0.063720  1
  O  O33  1  0.662511  0.113539  0.818341  1
  O  O34  1  0.430970  0.294204  0.468849  1
  O  O35  1  0.963843  0.293869  0.616138  1
  O  O36  1  0.536141  0.451784  0.133975  1
  O  O37  1  0.068997  0.456970  0.280464  1
  O  O38  1  0.841645  0.637496  0.936280  1
  O  O39  1  0.340712  0.387365  0.687101  1
  O  O40  1  0.659288  0.612635  0.312899  1
  O  O41  1  0.433390  0.794174  0.970949  1
  O  O42  1  0.931003  0.543030  0.719536  1
  O  O43  1  0.950937  0.799786  0.114563  1
  O  O44  1  0.463859  0.548216  0.866025  1
  O  O45  1  0.036157  0.706131  0.383862  1
  O  O46  1  0.569030  0.705796  0.531151  1
  O  O47  1  0.159749  0.861494  0.563605  1
