# generated using pymatgen
data_K4TiO4
_symmetry_space_group_name_H-M   'P 1'
_cell_length_a   6.45478480
_cell_length_b   6.47740961
_cell_length_c   9.69083402
_cell_angle_alpha   71.96098505
_cell_angle_beta   79.93157405
_cell_angle_gamma   66.85186833
_symmetry_Int_Tables_number   1
_chemical_formula_structural   K4TiO4
_chemical_formula_sum   'K8 Ti2 O8'
_cell_volume   353.58997187
_cell_formula_units_Z   2
loop_
 _symmetry_equiv_pos_site_id
 _symmetry_equiv_pos_as_xyz
  1  'x, y, z'
loop_
 _atom_site_type_symbol
 _atom_site_label
 _atom_site_symmetry_multiplicity
 _atom_site_fract_x
 _atom_site_fract_y
 _atom_site_fract_z
 _atom_site_occupancy
  K  K0  1  0.277814  0.037820  0.382535  1
  K  K1  1  0.245457  0.589895  0.163954  1
  K  K2  1  0.226326  0.487281  0.561795  1
  K  K3  1  0.256033  0.235324  0.972991  1
  K  K4  1  0.743967  0.764676  0.027009  1
  K  K5  1  0.773674  0.512719  0.438205  1
  K  K6  1  0.754543  0.410105  0.836046  1
  K  K7  1  0.722186  0.962180  0.617465  1
  Ti  Ti8  1  0.224361  0.844728  0.752132  1
  Ti  Ti9  1  0.775639  0.155272  0.247868  1
  O  O10  1  0.050563  0.142183  0.652748  1
  O  O11  1  0.045792  0.665025  0.807432  1
  O  O12  1  0.637087  0.160083  0.094635  1
  O  O13  1  0.546871  0.289375  0.372938  1
  O  O14  1  0.453129  0.710625  0.627062  1
  O  O15  1  0.362913  0.839917  0.905365  1
  O  O16  1  0.954208  0.334975  0.192568  1
  O  O17  1  0.949437  0.857817  0.347252  1
