# generated using pymatgen
data_Mn3CrNi2(PO4)6
_symmetry_space_group_name_H-M   'P 1'
_cell_length_a   8.43377682
_cell_length_b   8.43377682
_cell_length_c   8.43377682
_cell_angle_alpha   60.73739636
_cell_angle_beta   60.73739636
_cell_angle_gamma   60.73739636
_symmetry_Int_Tables_number   1
_chemical_formula_structural   Mn3CrNi2(PO4)6
_chemical_formula_sum   'Mn3 Cr1 Ni2 P6 O24'
_cell_volume   431.23906494
_cell_formula_units_Z   1
loop_
 _symmetry_equiv_pos_site_id
 _symmetry_equiv_pos_as_xyz
  1  'x, y, z'
loop_
 _atom_site_type_symbol
 _atom_site_label
 _atom_site_symmetry_multiplicity
 _atom_site_fract_x
 _atom_site_fract_y
 _atom_site_fract_z
 _atom_site_occupancy
  Mn  Mn0  1  0.858261  0.858261  0.858261  1
  Mn  Mn1  1  0.641556  0.641556  0.641556  1
  Mn  Mn2  1  0.357973  0.357973  0.357973  1
  Cr  Cr3  1  0.140398  0.140398  0.140398  1
  Ni  Ni4  1  0.000141  0.000141  0.000141  1
  Ni  Ni5  1  0.499415  0.499415  0.499415  1
  P  P6  1  0.957869  0.250351  0.543000  1
  P  P7  1  0.543000  0.957869  0.250351  1
  P  P8  1  0.250351  0.543000  0.957869  1
  P  P9  1  0.749786  0.458662  0.039835  1
  P  P10  1  0.458662  0.039835  0.749786  1
  P  P11  1  0.039835  0.749786  0.458662  1
  O  O12  1  0.880042  0.685483  0.495780  1
  O  O13  1  0.685483  0.495780  0.880042  1
  O  O14  1  0.939629  0.090119  0.744566  1
  O  O15  1  0.495780  0.880042  0.685483  1
  O  O16  1  0.990626  0.188367  0.386092  1
  O  O17  1  0.757093  0.416891  0.555958  1
  O  O18  1  0.744566  0.939629  0.090119  1
  O  O19  1  0.555958  0.757093  0.416891  1
  O  O20  1  0.810744  0.617088  0.009013  1
  O  O21  1  0.416891  0.555958  0.757093  1
  O  O22  1  0.910462  0.259080  0.054385  1
  O  O23  1  0.617088  0.009013  0.810744  1
  O  O24  1  0.386092  0.990626  0.188367  1
  O  O25  1  0.090119  0.744566  0.939629  1
  O  O26  1  0.586218  0.445495  0.239970  1
  O  O27  1  0.188367  0.386092  0.990626  1
  O  O28  1  0.445495  0.239970  0.586218  1
  O  O29  1  0.259080  0.054385  0.910462  1
  O  O30  1  0.239970  0.586218  0.445495  1
  O  O31  1  0.009013  0.810744  0.617088  1
  O  O32  1  0.512244  0.116672  0.310732  1
  O  O33  1  0.054385  0.910462  0.259080  1
  O  O34  1  0.310732  0.512244  0.116672  1
  O  O35  1  0.116672  0.310732  0.512244  1
