# generated using pymatgen
data_Ti3NbCu2(PO4)6
_symmetry_space_group_name_H-M   'P 1'
_cell_length_a   8.70457119
_cell_length_b   8.70457119
_cell_length_c   8.70457119
_cell_angle_alpha   60.13465149
_cell_angle_beta   60.13465149
_cell_angle_gamma   60.13465149
_symmetry_Int_Tables_number   1
_chemical_formula_structural   Ti3NbCu2(PO4)6
_chemical_formula_sum   'Ti3 Nb1 Cu2 P6 O24'
_cell_volume   467.78883423
_cell_formula_units_Z   1
loop_
 _symmetry_equiv_pos_site_id
 _symmetry_equiv_pos_as_xyz
  1  'x, y, z'
loop_
 _atom_site_type_symbol
 _atom_site_label
 _atom_site_symmetry_multiplicity
 _atom_site_fract_x
 _atom_site_fract_y
 _atom_site_fract_z
 _atom_site_occupancy
  Ti  Ti0  1  0.857586  0.857586  0.857586  1
  Ti  Ti1  1  0.641677  0.641677  0.641677  1
  Ti  Ti2  1  0.357540  0.357540  0.357540  1
  Nb  Nb3  1  0.141210  0.141210  0.141210  1
  Cu  Cu4  1  0.997649  0.997649  0.997649  1
  Cu  Cu5  1  0.500046  0.500046  0.500046  1
  P  P6  1  0.957989  0.251450  0.544718  1
  P  P7  1  0.544718  0.957989  0.251450  1
  P  P8  1  0.744508  0.464959  0.039428  1
  P  P9  1  0.464959  0.039428  0.744508  1
  P  P10  1  0.039428  0.744508  0.464959  1
  P  P11  1  0.251450  0.544718  0.957989  1
  O  O12  1  0.874594  0.695776  0.500635  1
  O  O13  1  0.695776  0.500635  0.874594  1
  O  O14  1  0.941115  0.084011  0.730002  1
  O  O15  1  0.500635  0.874594  0.695776  1
  O  O16  1  0.996175  0.198047  0.379666  1
  O  O17  1  0.771079  0.416208  0.559637  1
  O  O18  1  0.730002  0.941115  0.084011  1
  O  O19  1  0.559637  0.771079  0.416208  1
  O  O20  1  0.802421  0.625027  0.000717  1
  O  O21  1  0.416208  0.559637  0.771079  1
  O  O22  1  0.911452  0.274662  0.057414  1
  O  O23  1  0.625027  0.000717  0.802421  1
  O  O24  1  0.379666  0.996175  0.198047  1
  O  O25  1  0.084011  0.730002  0.941115  1
  O  O26  1  0.582863  0.442725  0.228235  1
  O  O27  1  0.198047  0.379666  0.996175  1
  O  O28  1  0.442725  0.228235  0.582863  1
  O  O29  1  0.274662  0.057414  0.911452  1
  O  O30  1  0.228235  0.582863  0.442725  1
  O  O31  1  0.000717  0.802421  0.625027  1
  O  O32  1  0.501643  0.124377  0.302758  1
  O  O33  1  0.057414  0.911452  0.274662  1
  O  O34  1  0.302758  0.501643  0.124377  1
  O  O35  1  0.124377  0.302758  0.501643  1
