# generated using pymatgen
data_Na3Fe(BO3)2
_symmetry_space_group_name_H-M   'P 1'
_cell_length_a   5.55174353
_cell_length_b   9.57173323
_cell_length_c   11.52601236
_cell_angle_alpha   90.00000000
_cell_angle_beta   114.79252599
_cell_angle_gamma   90.00000000
_symmetry_Int_Tables_number   1
_chemical_formula_structural   Na3Fe(BO3)2
_chemical_formula_sum   'Na12 Fe4 B8 O24'
_cell_volume   556.03821263
_cell_formula_units_Z   4
loop_
 _symmetry_equiv_pos_site_id
 _symmetry_equiv_pos_as_xyz
  1  'x, y, z'
loop_
 _atom_site_type_symbol
 _atom_site_label
 _atom_site_symmetry_multiplicity
 _atom_site_fract_x
 _atom_site_fract_y
 _atom_site_fract_z
 _atom_site_occupancy
  Na  Na0  1  0.500901  0.967872  0.655282  1
  Na  Na1  1  0.460240  0.660393  0.624901  1
  Na  Na2  1  0.924431  0.988683  0.112259  1
  Na  Na3  1  0.539760  0.160393  0.875099  1
  Na  Na4  1  0.075569  0.488683  0.387741  1
  Na  Na5  1  0.499099  0.467872  0.844718  1
  Na  Na6  1  0.500901  0.532128  0.155282  1
  Na  Na7  1  0.924431  0.511317  0.612259  1
  Na  Na8  1  0.460240  0.839607  0.124901  1
  Na  Na9  1  0.075569  0.011317  0.887741  1
  Na  Na10  1  0.539760  0.339607  0.375099  1
  Na  Na11  1  0.499099  0.032128  0.344718  1
  Fe  Fe12  1  0.979970  0.320963  0.125173  1
  Fe  Fe13  1  0.020030  0.820963  0.374827  1
  Fe  Fe14  1  0.979970  0.179037  0.625173  1
  Fe  Fe15  1  0.020030  0.679037  0.874827  1
  B  B16  1  0.448995  0.311812  0.618017  1
  B  B17  1  0.977413  0.652633  0.132439  1
  B  B18  1  0.551005  0.811812  0.881983  1
  B  B19  1  0.022587  0.152633  0.367561  1
  B  B20  1  0.977413  0.847367  0.632439  1
  B  B21  1  0.448995  0.188188  0.118017  1
  B  B22  1  0.022587  0.347367  0.867561  1
  B  B23  1  0.551005  0.688188  0.381983  1
  O  O24  1  0.866831  0.324582  0.933161  1
  O  O25  1  0.325917  0.696525  0.407754  1
  O  O26  1  0.675042  0.936186  0.886611  1
  O  O27  1  0.111599  0.263197  0.317885  1
  O  O28  1  0.645511  0.688300  0.849703  1
  O  O29  1  0.089487  0.015413  0.347485  1
  O  O30  1  0.354489  0.188300  0.650297  1
  O  O31  1  0.910513  0.515413  0.152515  1
  O  O32  1  0.888401  0.763197  0.182115  1
  O  O33  1  0.324958  0.436186  0.613389  1
  O  O34  1  0.133169  0.824582  0.566839  1
  O  O35  1  0.674083  0.196525  0.092246  1
  O  O36  1  0.325917  0.803475  0.907754  1
  O  O37  1  0.866831  0.175418  0.433161  1
  O  O38  1  0.675042  0.563814  0.386611  1
  O  O39  1  0.111599  0.236803  0.817885  1
  O  O40  1  0.089487  0.484587  0.847485  1
  O  O41  1  0.645511  0.811700  0.349703  1
  O  O42  1  0.910513  0.984587  0.652515  1
  O  O43  1  0.354489  0.311700  0.150297  1
  O  O44  1  0.888401  0.736803  0.682115  1
  O  O45  1  0.324958  0.063814  0.113389  1
  O  O46  1  0.674083  0.303475  0.592246  1
  O  O47  1  0.133169  0.675418  0.066839  1
