# generated using pymatgen
data_Al2Si3H8(NO5)2
_symmetry_space_group_name_H-M   'P 1'
_cell_length_a   12.99586650
_cell_length_b   6.59844437
_cell_length_c   13.00639078
_cell_angle_alpha   90.00000000
_cell_angle_beta   90.74293289
_cell_angle_gamma   90.00000000
_symmetry_Int_Tables_number   1
_chemical_formula_structural   Al2Si3H8(NO5)2
_chemical_formula_sum   'Al8 Si12 H32 N8 O40'
_cell_volume   1115.23679256
_cell_formula_units_Z   4
loop_
 _symmetry_equiv_pos_site_id
 _symmetry_equiv_pos_as_xyz
  1  'x, y, z'
loop_
 _atom_site_type_symbol
 _atom_site_label
 _atom_site_symmetry_multiplicity
 _atom_site_fract_x
 _atom_site_fract_y
 _atom_site_fract_z
 _atom_site_occupancy
  Al  Al0  1  0.617780  0.882059  0.311614  1
  Al  Al1  1  0.382220  0.382059  0.688386  1
  Al  Al2  1  0.877378  0.880254  0.191641  1
  Al  Al3  1  0.122622  0.380254  0.808359  1
  Al  Al4  1  0.686855  0.133078  0.882324  1
  Al  Al5  1  0.313145  0.633078  0.117676  1
  Al  Al6  1  0.809411  0.132845  0.622490  1
  Al  Al7  1  0.190589  0.632845  0.377510  1
  Si  Si8  1  0.742306  0.496460  0.260105  1
  Si  Si9  1  0.257694  0.996460  0.739895  1
  Si  Si10  1  0.757143  0.747393  0.759480  1
  Si  Si11  1  0.242857  0.247393  0.240520  1
  Si  Si12  1  0.381976  0.873193  0.308111  1
  Si  Si13  1  0.618024  0.373193  0.691889  1
  Si  Si14  1  0.114590  0.874923  0.186331  1
  Si  Si15  1  0.885410  0.374923  0.813669  1
  Si  Si16  1  0.688563  0.121774  0.119811  1
  Si  Si17  1  0.311437  0.621774  0.880189  1
  Si  Si18  1  0.813294  0.125033  0.385337  1
  Si  Si19  1  0.186706  0.625033  0.614663  1
  H  H20  1  0.468584  0.275750  0.388276  1
  H  H21  1  0.531416  0.775750  0.611724  1
  H  H22  1  0.547850  0.480230  0.380174  1
  H  H23  1  0.452150  0.980230  0.619826  1
  H  H24  1  0.498015  0.409592  0.496744  1
  H  H25  1  0.501985  0.909592  0.503256  1
  H  H26  1  0.419741  0.512614  0.405021  1
  H  H27  1  0.580259  0.012614  0.594979  1
  H  H28  1  0.095085  0.730209  0.914198  1
  H  H29  1  0.904915  0.230209  0.085802  1
  H  H30  1  0.062553  0.970014  0.883888  1
  H  H31  1  0.937447  0.470014  0.116112  1
  H  H32  1  0.971368  0.785210  0.878478  1
  H  H33  1  0.028632  0.285210  0.121522  1
  H  H34  1  0.017435  0.862033  0.995325  1
  H  H35  1  0.982565  0.362033  0.004675  1
  H  H36  1  0.884839  0.729919  0.568183  1
  H  H37  1  0.115161  0.229919  0.431817  1
  H  H38  1  0.915714  0.487735  0.589500  1
  H  H39  1  0.084286  0.987735  0.410500  1
  H  H40  1  0.995918  0.629500  0.516211  1
  H  H41  1  0.004082  0.129500  0.483789  1
  H  H42  1  0.877798  0.559842  0.469470  1
  H  H43  1  0.122202  0.059842  0.530530  1
  H  H44  1  0.622761  0.723230  0.944405  1
  H  H45  1  0.377239  0.223230  0.055595  1
  H  H46  1  0.599701  0.745003  0.072932  1
  H  H47  1  0.400299  0.245003  0.927068  1
  H  H48  1  0.613835  0.512638  0.019243  1
  H  H49  1  0.386165  0.012638  0.980757  1
  H  H50  1  0.505911  0.650483  0.994741  1
  H  H51  1  0.494089  0.150483  0.005259  1
  N  N52  1  0.483691  0.418219  0.417173  1
  N  N53  1  0.516309  0.918219  0.582827  1
  N  N54  1  0.035601  0.838962  0.917813  1
  N  N55  1  0.964399  0.338962  0.082187  1
  N  N56  1  0.918487  0.603754  0.534405  1
  N  N57  1  0.081513  0.103754  0.465595  1
  N  N58  1  0.585933  0.657055  0.007393  1
  N  N59  1  0.414067  0.157055  0.992607  1
  O  O60  1  0.821970  0.637504  0.196230  1
  O  O61  1  0.178030  0.137504  0.803770  1
  O  O62  1  0.652481  0.622467  0.319509  1
  O  O63  1  0.347519  0.122467  0.680491  1
  O  O64  1  0.691525  0.874155  0.844433  1
  O  O65  1  0.308475  0.374155  0.155567  1
  O  O66  1  0.813608  0.886604  0.673623  1
  O  O67  1  0.186392  0.386604  0.326377  1
  O  O68  1  0.493786  0.916821  0.364170  1
  O  O69  1  0.506214  0.416821  0.635830  1
  O  O70  1  0.999500  0.864317  0.133817  1
  O  O71  1  0.000500  0.364317  0.866183  1
  O  O72  1  0.633244  0.152125  0.006753  1
  O  O73  1  0.366756  0.652125  0.993247  1
  O  O74  1  0.866448  0.131850  0.500448  1
  O  O75  1  0.133552  0.631850  0.499552  1
  O  O76  1  0.622932  0.950572  0.180619  1
  O  O77  1  0.377068  0.450572  0.819381  1
  O  O78  1  0.888616  0.994033  0.312465  1
  O  O79  1  0.111384  0.494033  0.687535  1
  O  O80  1  0.189685  0.735625  0.118450  1
  O  O81  1  0.810315  0.235625  0.881550  1
  O  O82  1  0.319872  0.714234  0.381285  1
  O  O83  1  0.680128  0.214234  0.618715  1
  O  O84  1  0.396971  0.777866  0.194469  1
  O  O85  1  0.603029  0.277866  0.805531  1
  O  O86  1  0.114898  0.807972  0.307349  1
  O  O87  1  0.885102  0.307972  0.692651  1
  O  O88  1  0.808458  0.049831  0.109622  1
  O  O89  1  0.191542  0.549831  0.890378  1
  O  O90  1  0.697569  0.034444  0.387748  1
  O  O91  1  0.302431  0.534444  0.612252  1
  O  O92  1  0.321382  0.093216  0.302647  1
  O  O93  1  0.678618  0.593216  0.697353  1
  O  O94  1  0.151212  0.117502  0.179748  1
  O  O95  1  0.848788  0.617502  0.820252  1
  O  O96  1  0.809469  0.365993  0.346012  1
  O  O97  1  0.190531  0.865993  0.653988  1
  O  O98  1  0.683250  0.343466  0.178051  1
  O  O99  1  0.316750  0.843466  0.821949  1
