# generated using pymatgen
data_Na4Co2C4SO16
_symmetry_space_group_name_H-M   'P 1'
_cell_length_a   9.95457662
_cell_length_b   9.92532432
_cell_length_c   9.89686619
_cell_angle_alpha   60.29026038
_cell_angle_beta   59.99651449
_cell_angle_gamma   59.71322514
_symmetry_Int_Tables_number   1
_chemical_formula_structural   Na4Co2C4SO16
_chemical_formula_sum   'Na8 Co4 C8 S2 O32'
_cell_volume   691.39808209
_cell_formula_units_Z   2
loop_
 _symmetry_equiv_pos_site_id
 _symmetry_equiv_pos_as_xyz
  1  'x, y, z'
loop_
 _atom_site_type_symbol
 _atom_site_label
 _atom_site_symmetry_multiplicity
 _atom_site_fract_x
 _atom_site_fract_y
 _atom_site_fract_z
 _atom_site_occupancy
  Na  Na0  1  0.214921  0.785079  0.214921  1
  Na  Na1  1  0.784996  0.784996  0.215004  1
  Na  Na2  1  0.785072  0.214928  0.214928  1
  Na  Na3  1  0.214928  0.785072  0.785072  1
  Na  Na4  1  0.036196  0.463804  0.463804  1
  Na  Na5  1  0.215004  0.215004  0.784996  1
  Na  Na6  1  0.785079  0.214921  0.785079  1
  Na  Na7  1  0.463804  0.036196  0.036196  1
  Co  Co8  1  0.620289  0.628193  0.627450  1
  Co  Co9  1  0.124067  0.627450  0.628193  1
  Co  Co10  1  0.627450  0.124067  0.620289  1
  Co  Co11  1  0.628193  0.620289  0.124067  1
  C  C12  1  0.409925  0.767969  0.411122  1
  C  C13  1  0.841321  0.837444  0.479016  1
  C  C14  1  0.837444  0.841321  0.842219  1
  C  C15  1  0.479016  0.842219  0.841321  1
  C  C16  1  0.767969  0.409925  0.410984  1
  C  C17  1  0.411122  0.410984  0.409925  1
  C  C18  1  0.410984  0.411122  0.767969  1
  C  C19  1  0.842219  0.479016  0.837444  1
  S  S20  1  0.250000  0.250000  0.250000  1
  S  S21  1  0.000000  0.000000  1.000000  1
  O  O22  1  0.521551  0.779804  0.264479  1
  O  O23  1  0.987909  0.725242  0.475811  1
  O  O24  1  0.269939  0.766883  0.437632  1
  O  O25  1  0.733745  0.803813  0.475578  1
  O  O26  1  0.439035  0.763293  0.527546  1
  O  O27  1  0.434119  0.187322  0.187564  1
  O  O28  1  0.190994  0.187564  0.187322  1
  O  O29  1  0.810989  0.981499  0.475182  1
  O  O30  1  0.981499  0.810989  0.732330  1
  O  O31  1  0.475182  0.732330  0.810989  1
  O  O32  1  0.187322  0.434119  0.190994  1
  O  O33  1  0.187564  0.190994  0.434119  1
  O  O34  1  0.527546  0.270126  0.439035  1
  O  O35  1  0.763293  0.439035  0.270126  1
  O  O36  1  0.475578  0.986865  0.733745  1
  O  O37  1  0.803813  0.733745  0.986864  1
  O  O38  1  0.766883  0.269939  0.525546  1
  O  O39  1  0.437632  0.525546  0.269939  1
  O  O40  1  0.725242  0.987909  0.811039  1
  O  O41  1  0.475811  0.811039  0.987909  1
  O  O42  1  0.061330  0.061408  0.815304  1
  O  O43  1  0.061958  0.815304  0.061408  1
  O  O44  1  0.779804  0.521551  0.434166  1
  O  O45  1  0.264479  0.434166  0.521551  1
  O  O46  1  0.434166  0.264479  0.779804  1
  O  O47  1  0.815304  0.061958  0.061330  1
  O  O48  1  0.061408  0.061330  0.061958  1
  O  O49  1  0.811039  0.475811  0.725242  1
  O  O50  1  0.525546  0.437632  0.766883  1
  O  O51  1  0.986865  0.475578  0.803812  1
  O  O52  1  0.270126  0.527546  0.763293  1
  O  O53  1  0.732330  0.475182  0.981499  1
