# generated using pymatgen
data_Li4V3CrO8
_symmetry_space_group_name_H-M   'P 1'
_cell_length_a   5.17703685
_cell_length_b   5.98331146
_cell_length_c   10.78264853
_cell_angle_alpha   106.02238588
_cell_angle_beta   94.59187203
_cell_angle_gamma   106.85091182
_symmetry_Int_Tables_number   1
_chemical_formula_structural   Li4V3CrO8
_chemical_formula_sum   'Li8 V6 Cr2 O16'
_cell_volume   302.55531178
_cell_formula_units_Z   2
loop_
 _symmetry_equiv_pos_site_id
 _symmetry_equiv_pos_as_xyz
  1  'x, y, z'
loop_
 _atom_site_type_symbol
 _atom_site_label
 _atom_site_symmetry_multiplicity
 _atom_site_fract_x
 _atom_site_fract_y
 _atom_site_fract_z
 _atom_site_occupancy
  Li  Li0  1  0.875911  0.563506  0.126308  1
  Li  Li1  1  0.126940  0.938990  0.873135  1
  Li  Li2  1  0.624151  0.185591  0.374117  1
  Li  Li3  1  0.375849  0.814409  0.625883  1
  Li  Li4  1  0.873060  0.061010  0.126865  1
  Li  Li5  1  0.124089  0.436494  0.873692  1
  Li  Li6  1  0.627052  0.691161  0.373558  1
  Li  Li7  1  0.372948  0.308839  0.626442  1
  V  V8  1  0.498526  0.749573  0.000095  1
  V  V9  1  0.249987  0.375461  0.250258  1
  V  V10  1  0.000000  0.000000  0.500000  1
  V  V11  1  0.501474  0.250427  0.999905  1
  V  V12  1  0.750013  0.624539  0.749742  1
  V  V13  1  0.000000  0.500000  0.500000  1
  Cr  Cr14  1  0.250843  0.876920  0.250124  1
  Cr  Cr15  1  0.749157  0.123080  0.749876  1
  O  O16  1  0.705753  0.155101  0.566072  1
  O  O17  1  0.291997  0.339644  0.435944  1
  O  O18  1  0.205654  0.408977  0.064944  1
  O  O19  1  0.794346  0.591023  0.935056  1
  O  O20  1  0.038904  0.962476  0.688190  1
  O  O21  1  0.455893  0.787908  0.814368  1
  O  O22  1  0.961096  0.037524  0.311810  1
  O  O23  1  0.544107  0.212092  0.185632  1
  O  O24  1  0.708003  0.660356  0.564056  1
  O  O25  1  0.294247  0.844899  0.433928  1
  O  O26  1  0.208610  0.910426  0.065449  1
  O  O27  1  0.791390  0.089574  0.934551  1
  O  O28  1  0.460624  0.286044  0.812575  1
  O  O29  1  0.956760  0.541029  0.315811  1
  O  O30  1  0.043240  0.458971  0.684189  1
  O  O31  1  0.539376  0.713956  0.187425  1
