# generated using pymatgen
data_Li2Ni3BiO8
_symmetry_space_group_name_H-M   'P 1'
_cell_length_a   6.14667789
_cell_length_b   6.14667789
_cell_length_c   6.14667789
_cell_angle_alpha   57.33581572
_cell_angle_beta   57.33581572
_cell_angle_gamma   57.33581572
_symmetry_Int_Tables_number   1
_chemical_formula_structural   Li2Ni3BiO8
_chemical_formula_sum   'Li2 Ni3 Bi1 O8'
_cell_volume   154.14198211
_cell_formula_units_Z   1
loop_
 _symmetry_equiv_pos_site_id
 _symmetry_equiv_pos_as_xyz
  1  'x, y, z'
loop_
 _atom_site_type_symbol
 _atom_site_label
 _atom_site_symmetry_multiplicity
 _atom_site_fract_x
 _atom_site_fract_y
 _atom_site_fract_z
 _atom_site_occupancy
  Li  Li0  1  0.121010  0.121010  0.121010  1
  Li  Li1  1  0.878990  0.878990  0.878990  1
  Ni  Ni2  1  0.500000  0.500000  0.000000  1
  Ni  Ni3  1  0.000000  0.500000  0.500000  1
  Ni  Ni4  1  0.500000  1.000000  0.500000  1
  Bi  Bi5  1  0.500000  0.500000  0.500000  1
  O  O6  1  0.722928  0.251749  0.251749  1
  O  O7  1  0.251749  0.251749  0.722928  1
  O  O8  1  0.728837  0.728837  0.728837  1
  O  O9  1  0.251749  0.722928  0.251749  1
  O  O10  1  0.748251  0.277072  0.748251  1
  O  O11  1  0.271163  0.271163  0.271163  1
  O  O12  1  0.748251  0.748251  0.277072  1
  O  O13  1  0.277072  0.748251  0.748251  1
