# generated using pymatgen
data_Li4Mn3Fe(BO3)4
_symmetry_space_group_name_H-M   'P 1'
_cell_length_a   5.24846117
_cell_length_b   6.01659707
_cell_length_c   16.29969067
_cell_angle_alpha   82.03648233
_cell_angle_beta   89.32936570
_cell_angle_gamma   89.52604133
_symmetry_Int_Tables_number   1
_chemical_formula_structural   Li4Mn3Fe(BO3)4
_chemical_formula_sum   'Li8 Mn6 Fe2 B8 O24'
_cell_volume   509.69959024
_cell_formula_units_Z   2
loop_
 _symmetry_equiv_pos_site_id
 _symmetry_equiv_pos_as_xyz
  1  'x, y, z'
loop_
 _atom_site_type_symbol
 _atom_site_label
 _atom_site_symmetry_multiplicity
 _atom_site_fract_x
 _atom_site_fract_y
 _atom_site_fract_z
 _atom_site_occupancy
  Li  Li0  1  0.848628  0.817862  0.138398  1
  Li  Li1  1  0.151372  0.182138  0.861602  1
  Li  Li2  1  0.652222  0.935450  0.610197  1
  Li  Li3  1  0.347778  0.064550  0.389803  1
  Li  Li4  1  0.648688  0.436306  0.109442  1
  Li  Li5  1  0.351312  0.563694  0.890558  1
  Li  Li6  1  0.847679  0.315119  0.641117  1
  Li  Li7  1  0.152321  0.684881  0.358883  1
  Mn  Mn8  1  0.670491  0.020138  0.791335  1
  Mn  Mn9  1  0.169431  0.776024  0.539511  1
  Mn  Mn10  1  0.329509  0.979862  0.208665  1
  Mn  Mn11  1  0.830569  0.223976  0.460489  1
  Mn  Mn12  1  0.668135  0.527180  0.289101  1
  Mn  Mn13  1  0.331865  0.472820  0.710899  1
  Fe  Fe14  1  0.169466  0.277477  0.037320  1
  Fe  Fe15  1  0.830534  0.722523  0.962680  1
  B  B16  1  0.327440  0.787385  0.044933  1
  B  B17  1  0.829563  0.035333  0.297144  1
  B  B18  1  0.672560  0.212615  0.955067  1
  B  B19  1  0.170437  0.964667  0.702856  1
  B  B20  1  0.832997  0.532425  0.799585  1
  B  B21  1  0.330195  0.284768  0.548117  1
  B  B22  1  0.167003  0.467575  0.200415  1
  B  B23  1  0.669805  0.715232  0.451883  1
  O  O24  1  0.588014  0.764628  0.057207  1
  O  O25  1  0.183608  0.921417  0.092229  1
  O  O26  1  0.711982  0.919733  0.239467  1
  O  O27  1  0.288018  0.080267  0.760533  1
  O  O28  1  0.785971  0.832530  0.509271  1
  O  O29  1  0.816392  0.078583  0.907771  1
  O  O30  1  0.319555  0.831140  0.656449  1
  O  O31  1  0.088684  0.013214  0.310752  1
  O  O32  1  0.411986  0.235372  0.942793  1
  O  O33  1  0.911316  0.986786  0.689248  1
  O  O34  1  0.680445  0.168860  0.343551  1
  O  O35  1  0.214029  0.167470  0.490729  1
  O  O36  1  0.793339  0.329209  0.011717  1
  O  O37  1  0.314749  0.335022  0.153278  1
  O  O38  1  0.092090  0.510021  0.812826  1
  O  O39  1  0.589171  0.263788  0.562102  1
  O  O40  1  0.907910  0.489979  0.187174  1
  O  O41  1  0.685251  0.664978  0.846722  1
  O  O42  1  0.179958  0.418537  0.594135  1
  O  O43  1  0.206661  0.670791  0.988283  1
  O  O44  1  0.714917  0.419129  0.741543  1
  O  O45  1  0.285083  0.580871  0.258457  1
  O  O46  1  0.820042  0.581463  0.405865  1
  O  O47  1  0.410829  0.736212  0.437898  1
