# generated using pymatgen
data_K3SrPCO7
_symmetry_space_group_name_H-M   'P 1'
_cell_length_a   5.76335199
_cell_length_b   7.59896549
_cell_length_c   10.03172418
_cell_angle_alpha   90.00000000
_cell_angle_beta   90.84597021
_cell_angle_gamma   90.00000000
_symmetry_Int_Tables_number   1
_chemical_formula_structural   K3SrPCO7
_chemical_formula_sum   'K6 Sr2 P2 C2 O14'
_cell_volume   439.29661725
_cell_formula_units_Z   2
loop_
 _symmetry_equiv_pos_site_id
 _symmetry_equiv_pos_as_xyz
  1  'x, y, z'
loop_
 _atom_site_type_symbol
 _atom_site_label
 _atom_site_symmetry_multiplicity
 _atom_site_fract_x
 _atom_site_fract_y
 _atom_site_fract_z
 _atom_site_occupancy
  K  K0  1  0.761127  0.250000  0.083633  1
  K  K1  1  0.251853  0.005377  0.258023  1
  K  K2  1  0.251853  0.494623  0.258023  1
  K  K3  1  0.748147  0.505377  0.741977  1
  K  K4  1  0.748147  0.994623  0.741977  1
  K  K5  1  0.238873  0.750000  0.916367  1
  Sr  Sr6  1  0.774111  0.750000  0.365568  1
  Sr  Sr7  1  0.225889  0.250000  0.634432  1
  P  P8  1  0.701286  0.250000  0.410642  1
  P  P9  1  0.298714  0.750000  0.589358  1
  C  C10  1  0.736627  0.750000  0.063068  1
  C  C11  1  0.263373  0.250000  0.936932  1
  O  O12  1  0.279572  0.250000  0.066479  1
  O  O13  1  0.940337  0.750000  0.122214  1
  O  O14  1  0.549619  0.750000  0.135553  1
  O  O15  1  0.775626  0.082539  0.331037  1
  O  O16  1  0.775626  0.417461  0.331037  1
  O  O17  1  0.431441  0.250000  0.424014  1
  O  O18  1  0.186893  0.750000  0.446329  1
  O  O19  1  0.813107  0.250000  0.553671  1
  O  O20  1  0.568559  0.750000  0.575986  1
  O  O21  1  0.224374  0.582539  0.668963  1
  O  O22  1  0.224374  0.917461  0.668963  1
  O  O23  1  0.450381  0.250000  0.864447  1
  O  O24  1  0.059663  0.250000  0.877786  1
  O  O25  1  0.720428  0.750000  0.933521  1
