# generated using pymatgen
data_Li3Ti4O8
_symmetry_space_group_name_H-M   'P 1'
_cell_length_a   5.12622331
_cell_length_b   2.94573330
_cell_length_c   9.93246051
_cell_angle_alpha   90.00000000
_cell_angle_beta   92.43715359
_cell_angle_gamma   90.00000000
_symmetry_Int_Tables_number   1
_chemical_formula_structural   Li3Ti4O8
_chemical_formula_sum   'Li3 Ti4 O8'
_cell_volume   149.84932150
_cell_formula_units_Z   1
loop_
 _symmetry_equiv_pos_site_id
 _symmetry_equiv_pos_as_xyz
  1  'x, y, z'
loop_
 _atom_site_type_symbol
 _atom_site_label
 _atom_site_symmetry_multiplicity
 _atom_site_fract_x
 _atom_site_fract_y
 _atom_site_fract_z
 _atom_site_occupancy
  Li  Li0  1  0.586101  0.000000  0.914177  1
  Li  Li1  1  0.426419  0.500000  0.096271  1
  Li  Li2  1  0.070693  0.500000  0.543361  1
  Ti  Ti3  1  0.940849  0.000000  0.144668  1
  Ti  Ti4  1  0.547529  0.000000  0.634539  1
  Ti  Ti5  1  0.460396  0.500000  0.366180  1
  Ti  Ti6  1  0.060343  0.500000  0.862437  1
  O  O7  1  0.839942  0.000000  0.773695  1
  O  O8  1  0.776921  0.500000  0.016693  1
  O  O9  1  0.709394  0.500000  0.525927  1
  O  O10  1  0.635588  0.000000  0.255380  1
  O  O11  1  0.338023  0.500000  0.728668  1
  O  O12  1  0.280650  0.000000  0.474293  1
  O  O13  1  0.232173  0.000000  0.983793  1
  O  O14  1  0.155377  0.500000  0.228719  1
