# generated using pymatgen
data_NbCrO4
_symmetry_space_group_name_H-M   'P 1'
_cell_length_a   5.63839654
_cell_length_b   5.63839654
_cell_length_c   5.63839654
_cell_angle_alpha   107.08146209
_cell_angle_beta   107.08146209
_cell_angle_gamma   114.36435979
_symmetry_Int_Tables_number   1
_chemical_formula_structural   NbCrO4
_chemical_formula_sum   'Nb2 Cr2 O8'
_cell_volume   137.22773244
_cell_formula_units_Z   2
loop_
 _symmetry_equiv_pos_site_id
 _symmetry_equiv_pos_as_xyz
  1  'x, y, z'
loop_
 _atom_site_type_symbol
 _atom_site_label
 _atom_site_symmetry_multiplicity
 _atom_site_fract_x
 _atom_site_fract_y
 _atom_site_fract_z
 _atom_site_occupancy
  Nb  Nb0  1  0.262521  0.762521  0.500000  1
  Nb  Nb1  1  0.012521  0.012521  0.000000  1
  Cr  Cr2  1  0.751891  0.251891  0.500000  1
  Cr  Cr3  1  0.501891  0.501891  0.000000  1
  O  O4  1  0.553920  0.749229  0.804691  1
  O  O5  1  0.045099  0.243565  0.801533  1
  O  O6  1  0.999229  0.694537  0.695309  1
  O  O7  1  0.493565  0.192032  0.698467  1
  O  O8  1  0.999229  0.303920  0.304691  1
  O  O9  1  0.493565  0.795099  0.301533  1
  O  O10  1  0.442032  0.243565  0.198467  1
  O  O11  1  0.944537  0.749229  0.195309  1
