# generated using pymatgen
data_Li2Mn2CuO6
_symmetry_space_group_name_H-M   'P 1'
_cell_length_a   5.10963143
_cell_length_b   5.10963143
_cell_length_c   10.31635309
_cell_angle_alpha   90.00000000
_cell_angle_beta   90.00000000
_cell_angle_gamma   121.18196164
_symmetry_Int_Tables_number   1
_chemical_formula_structural   Li2Mn2CuO6
_chemical_formula_sum   'Li4 Mn4 Cu2 O12'
_cell_volume   230.43010829
_cell_formula_units_Z   2
loop_
 _symmetry_equiv_pos_site_id
 _symmetry_equiv_pos_as_xyz
  1  'x, y, z'
loop_
 _atom_site_type_symbol
 _atom_site_label
 _atom_site_symmetry_multiplicity
 _atom_site_fract_x
 _atom_site_fract_y
 _atom_site_fract_z
 _atom_site_occupancy
  Li  Li0  1  0.326593  0.826593  0.750000  1
  Li  Li1  1  0.173407  0.673407  0.250000  1
  Li  Li2  1  0.826593  0.326593  0.750000  1
  Li  Li3  1  0.673407  0.173407  0.250000  1
  Mn  Mn4  1  0.164617  0.835383  0.500000  1
  Mn  Mn5  1  0.335383  0.664617  0.000000  1
  Mn  Mn6  1  0.664617  0.335383  0.000000  1
  Mn  Mn7  1  0.835383  0.164617  0.500000  1
  Cu  Cu8  1  0.000000  0.000000  0.000000  1
  Cu  Cu9  1  0.500000  0.500000  0.500000  1
  O  O10  1  0.369998  0.998542  0.107085  1
  O  O11  1  0.630002  0.001458  0.892915  1
  O  O12  1  0.498542  0.869998  0.392915  1
  O  O13  1  0.130002  0.501458  0.607085  1
  O  O14  1  0.837413  0.837413  0.594412  1
  O  O15  1  0.662587  0.662587  0.094412  1
  O  O16  1  0.337413  0.337413  0.905588  1
  O  O17  1  0.001458  0.630002  0.892915  1
  O  O18  1  0.162587  0.162587  0.405588  1
  O  O19  1  0.869998  0.498542  0.392915  1
  O  O20  1  0.501458  0.130002  0.607085  1
  O  O21  1  0.998542  0.369998  0.107085  1
