# generated using pymatgen
data_Mn3Fe3(CoO8)2
_symmetry_space_group_name_H-M   'P 1'
_cell_length_a   5.89669491
_cell_length_b   5.89669491
_cell_length_c   8.67607194
_cell_angle_alpha   88.91131678
_cell_angle_beta   91.08868322
_cell_angle_gamma   120.42851650
_symmetry_Int_Tables_number   1
_chemical_formula_structural   Mn3Fe3(CoO8)2
_chemical_formula_sum   'Mn3 Fe3 Co2 O16'
_cell_volume   260.06114083
_cell_formula_units_Z   1
loop_
 _symmetry_equiv_pos_site_id
 _symmetry_equiv_pos_as_xyz
  1  'x, y, z'
loop_
 _atom_site_type_symbol
 _atom_site_label
 _atom_site_symmetry_multiplicity
 _atom_site_fract_x
 _atom_site_fract_y
 _atom_site_fract_z
 _atom_site_occupancy
  Mn  Mn0  1  0.830061  0.169939  0.791836  1
  Mn  Mn1  1  0.660663  0.831600  0.289179  1
  Mn  Mn2  1  0.168400  0.339337  0.289179  1
  Fe  Fe3  1  0.831763  0.668429  0.795297  1
  Fe  Fe4  1  0.331571  0.168237  0.795297  1
  Fe  Fe5  1  0.166032  0.833968  0.292375  1
  Co  Co6  1  0.667535  0.332465  0.510642  1
  Co  Co7  1  0.332655  0.667345  0.011793  1
  O  O8  1  0.825015  0.653129  0.400075  1
  O  O9  1  0.527244  0.472756  0.651284  1
  O  O10  1  0.671307  0.328693  0.906146  1
  O  O11  1  0.993922  0.006078  0.688938  1
  O  O12  1  0.995268  0.004732  0.185478  1
  O  O13  1  0.346871  0.174985  0.400075  1
  O  O14  1  0.951661  0.466683  0.653746  1
  O  O15  1  0.533317  0.048339  0.653746  1
  O  O16  1  0.174179  0.825821  0.899882  1
  O  O17  1  0.831108  0.168892  0.397866  1
  O  O18  1  0.481280  0.951476  0.153873  1
  O  O19  1  0.048524  0.518720  0.153873  1
  O  O20  1  0.339150  0.660850  0.401701  1
  O  O21  1  0.652694  0.831087  0.901078  1
  O  O22  1  0.476652  0.523348  0.159541  1
  O  O23  1  0.168913  0.347306  0.901078  1
