# generated using pymatgen
data_Mn3V(PO4)6
_symmetry_space_group_name_H-M   'P 1'
_cell_length_a   8.68065074
_cell_length_b   8.68065074
_cell_length_c   8.68065074
_cell_angle_alpha   58.25951356
_cell_angle_beta   58.25951356
_cell_angle_gamma   58.25951356
_symmetry_Int_Tables_number   1
_chemical_formula_structural   Mn3V(PO4)6
_chemical_formula_sum   'Mn3 V1 P6 O24'
_cell_volume   444.09166768
_cell_formula_units_Z   1
loop_
 _symmetry_equiv_pos_site_id
 _symmetry_equiv_pos_as_xyz
  1  'x, y, z'
loop_
 _atom_site_type_symbol
 _atom_site_label
 _atom_site_symmetry_multiplicity
 _atom_site_fract_x
 _atom_site_fract_y
 _atom_site_fract_z
 _atom_site_occupancy
  Mn  Mn0  1  0.855749  0.855749  0.855749  1
  Mn  Mn1  1  0.643361  0.643361  0.643361  1
  Mn  Mn2  1  0.356003  0.356003  0.356003  1
  V  V3  1  0.139994  0.139994  0.139994  1
  P  P4  1  0.250217  0.535633  0.965025  1
  P  P5  1  0.965025  0.250217  0.535633  1
  P  P6  1  0.535633  0.965025  0.250217  1
  P  P7  1  0.469104  0.033924  0.744766  1
  P  P8  1  0.033924  0.744766  0.469104  1
  P  P9  1  0.744766  0.469104  0.033924  1
  O  O10  1  0.728782  0.485582  0.857677  1
  O  O11  1  0.485582  0.857677  0.728782  1
  O  O12  1  0.073831  0.720910  0.940154  1
  O  O13  1  0.857677  0.728782  0.485582  1
  O  O14  1  0.427104  0.555894  0.779530  1
  O  O15  1  0.219831  0.358743  0.997313  1
  O  O16  1  0.940154  0.073831  0.720910  1
  O  O17  1  0.779530  0.427104  0.555894  1
  O  O18  1  0.555894  0.779530  0.427104  1
  O  O19  1  0.641048  0.011934  0.772945  1
  O  O20  1  0.284744  0.062625  0.926781  1
  O  O21  1  0.011934  0.772945  0.641048  1
  O  O22  1  0.997313  0.219831  0.358743  1
  O  O23  1  0.720910  0.940154  0.073831  1
  O  O24  1  0.358743  0.997313  0.219831  1
  O  O25  1  0.440693  0.219960  0.572806  1
  O  O26  1  0.219960  0.572806  0.440693  1
  O  O27  1  0.062625  0.926781  0.284744  1
  O  O28  1  0.772945  0.641048  0.011934  1
  O  O29  1  0.572806  0.440693  0.219960  1
  O  O30  1  0.139451  0.274431  0.513458  1
  O  O31  1  0.926781  0.284744  0.062625  1
  O  O32  1  0.513458  0.139451  0.274431  1
  O  O33  1  0.274430  0.513458  0.139451  1
