# generated using pymatgen
data_LiMnBO3
_symmetry_space_group_name_H-M   'P 1'
_cell_length_a   3.24418652
_cell_length_b   14.49657827
_cell_length_c   14.50128214
_cell_angle_alpha   119.95098920
_cell_angle_beta   90.05319025
_cell_angle_gamma   90.05420509
_symmetry_Int_Tables_number   1
_chemical_formula_structural   LiMnBO3
_chemical_formula_sum   'Li9 Mn9 B9 O27'
_cell_volume   590.91071261
_cell_formula_units_Z   9
loop_
 _symmetry_equiv_pos_site_id
 _symmetry_equiv_pos_as_xyz
  1  'x, y, z'
loop_
 _atom_site_type_symbol
 _atom_site_label
 _atom_site_symmetry_multiplicity
 _atom_site_fract_x
 _atom_site_fract_y
 _atom_site_fract_z
 _atom_site_occupancy
  Li  Li0  1  0.502984  0.879241  0.097718  1
  Li  Li1  1  0.513053  0.565557  0.111706  1
  Li  Li2  1  0.448131  0.887271  0.453461  1
  Li  Li3  1  0.504829  0.218682  0.120041  1
  Li  Li4  1  0.540596  0.546951  0.433874  1
  Li  Li5  1  0.486256  0.251545  0.451230  1
  Li  Li6  1  0.495311  0.902287  0.781413  1
  Li  Li7  1  0.505823  0.549429  0.800587  1
  Li  Li8  1  0.508300  0.199713  0.747561  1
  Mn  Mn9  1  0.940672  0.801056  0.249401  1
  Mn  Mn10  1  0.002222  0.447586  0.197440  1
  Mn  Mn11  1  0.987930  0.104377  0.221214  1
  Mn  Mn12  1  0.047188  0.751098  0.551869  1
  Mn  Mn13  1  0.025668  0.467001  0.577588  1
  Mn  Mn14  1  0.977588  0.110428  0.532175  1
  Mn  Mn15  1  0.014793  0.778812  0.882141  1
  Mn  Mn16  1  0.010508  0.421781  0.888454  1
  Mn  Mn17  1  0.991472  0.117021  0.895469  1
  B  B18  1  0.996061  0.663000  0.007113  1
  B  B19  1  0.998912  0.666781  0.333079  1
  B  B20  1  0.006213  0.344470  0.336058  1
  B  B21  1  0.993538  0.992392  0.655452  1
  B  B22  1  0.469892  0.011070  0.331298  1
  B  B23  1  0.531510  0.668118  0.678941  1
  B  B24  1  0.002182  0.332993  0.665987  1
  B  B25  1  0.996571  0.999727  0.999680  1
  B  B26  1  0.498131  0.320395  0.987993  1
  O  O27  1  0.000520  0.919933  0.026552  1
  O  O28  1  0.025704  0.572335  0.017364  1
  O  O29  1  0.907102  0.761951  0.095689  1
  O  O30  1  0.438873  0.912228  0.322907  1
  O  O31  1  0.496833  0.410803  0.086574  1
  O  O32  1  0.985502  0.601685  0.223982  1
  O  O33  1  0.932053  0.775317  0.377783  1
  O  O34  1  0.984934  0.106229  0.079159  1
  O  O35  1  0.959383  0.981854  0.554407  1
  O  O36  1  0.923759  0.333937  0.236749  1
  O  O37  1  0.079824  0.624140  0.398013  1
  O  O38  1  0.099740  0.904476  0.665749  1
  O  O39  1  0.059354  0.254468  0.345555  1
  O  O40  1  0.032701  0.445603  0.426782  1
  O  O41  1  0.491136  0.019928  0.240354  1
  O  O42  1  0.553158  0.676694  0.588526  1
  O  O43  1  0.525702  0.567401  0.669596  1
  O  O44  1  0.479579  0.102335  0.431931  1
  O  O45  1  0.004598  0.972767  0.893011  1
  O  O46  1  0.515191  0.759102  0.778627  1
  O  O47  1  0.984079  0.318864  0.563852  1
  O  O48  1  0.012624  0.244858  0.680020  1
  O  O49  1  0.010091  0.434966  0.753673  1
  O  O50  1  0.051457  0.653644  0.907680  1
  O  O51  1  0.925996  0.090776  0.745205  1
  O  O52  1  0.508972  0.329411  0.896407  1
  O  O53  1  0.488982  0.220426  0.979383  1
