# generated using pymatgen
data_Li5Sm3(SbO6)2
_symmetry_space_group_name_H-M   'P 1'
_cell_length_a   11.02974683
_cell_length_b   11.03405753
_cell_length_c   11.04645192
_cell_angle_alpha   109.20356250
_cell_angle_beta   109.63224847
_cell_angle_gamma   109.51230073
_symmetry_Int_Tables_number   1
_chemical_formula_structural   Li5Sm3(SbO6)2
_chemical_formula_sum   'Li20 Sm12 Sb8 O48'
_cell_volume   1035.73270602
_cell_formula_units_Z   4
loop_
 _symmetry_equiv_pos_site_id
 _symmetry_equiv_pos_as_xyz
  1  'x, y, z'
loop_
 _atom_site_type_symbol
 _atom_site_label
 _atom_site_symmetry_multiplicity
 _atom_site_fract_x
 _atom_site_fract_y
 _atom_site_fract_z
 _atom_site_occupancy
  Li  Li0  1  0.371949  0.388976  0.161193  1
  Li  Li1  1  0.788121  0.105640  0.530890  1
  Li  Li2  1  0.386584  0.758244  0.132681  1
  Li  Li3  1  0.741787  0.168823  0.353350  1
  Li  Li4  1  0.111026  0.278875  0.997389  1
  Li  Li5  1  0.849816  0.736761  0.698835  1
  Li  Li6  1  0.023232  0.790765  0.604445  1
  Li  Li7  1  0.707436  0.492129  0.366535  1
  Li  Li8  1  0.394639  0.664344  0.870279  1
  Li  Li9  1  0.276388  0.498027  0.603783  1
  Li  Li10  1  0.868767  0.133454  0.762228  1
  Li  Li11  1  0.618137  0.330521  0.095888  1
  Li  Li12  1  0.294807  0.780962  0.669472  1
  Li  Li13  1  0.757169  0.640043  0.880700  1
  Li  Li14  1  0.511698  0.124419  0.784169  1
  Li  Li15  1  0.674581  0.398289  0.888010  1
  Li  Li16  1  0.123968  0.255128  0.368451  1
  Li  Li17  1  0.219165  0.890444  0.498305  1
  Li  Li18  1  0.212654  0.842232  0.218579  1
  Li  Li19  1  0.114428  0.008512  0.278128  1
  Sm  Sm20  1  0.629035  0.755504  0.377941  1
  Sm  Sm21  1  0.752178  0.386727  0.632907  1
  Sm  Sm22  1  0.754991  0.882957  0.127202  1
  Sm  Sm23  1  0.879812  0.254317  0.122164  1
  Sm  Sm24  1  0.634033  0.877454  0.753873  1
  Sm  Sm25  1  0.883960  0.638177  0.244025  1
  Sm  Sm26  1  0.120833  0.375133  0.750003  1
  Sm  Sm27  1  0.393812  0.140118  0.252793  1
  Sm  Sm28  1  0.137700  0.757662  0.884675  1
  Sm  Sm29  1  0.254951  0.618748  0.361854  1
  Sm  Sm30  1  0.252532  0.118114  0.869636  1
  Sm  Sm31  1  0.373088  0.260412  0.623588  1
  Sb  Sb32  1  0.995155  0.007409  0.497553  1
  Sb  Sb33  1  0.011838  0.005967  0.003523  1
  Sb  Sb34  1  0.498490  0.501418  0.997379  1
  Sb  Sb35  1  0.001055  0.505032  0.499477  1
  Sb  Sb36  1  0.507699  0.004812  0.004124  1
  Sb  Sb37  1  0.004657  0.506275  0.002790  1
  Sb  Sb38  1  0.502744  0.508438  0.507347  1
  Sb  Sb39  1  0.502911  0.008449  0.503289  1
  O  O40  1  0.924303  0.332121  0.803831  1
  O  O41  1  0.678464  0.983506  0.594849  1
  O  O42  1  0.417961  0.537788  0.332199  1
  O  O43  1  0.793904  0.977637  0.375644  1
  O  O44  1  0.907611  0.584751  0.882680  1
  O  O45  1  0.908206  0.337324  0.534442  1
  O  O46  1  0.986801  0.089720  0.178617  1
  O  O47  1  0.926610  0.609137  0.620198  1
  O  O48  1  0.525784  0.700580  0.108699  1
  O  O49  1  0.419561  0.808900  0.329315  1
  O  O50  1  0.808827  0.833443  0.913524  1
  O  O51  1  0.297064  0.371606  0.966889  1
  O  O52  1  0.608227  0.132045  0.432590  1
  O  O53  1  0.712510  0.086251  0.169503  1
  O  O54  1  0.093864  0.421917  0.119873  1
  O  O55  1  0.900008  0.098134  0.919922  1
  O  O56  1  0.828314  0.430838  0.300941  1
  O  O57  1  0.373881  0.471842  0.794443  1
  O  O58  1  0.672317  0.708398  0.581396  1
  O  O59  1  0.878063  0.801065  0.465402  1
  O  O60  1  0.584462  0.388408  0.417472  1
  O  O61  1  0.008327  0.125737  0.688963  1
  O  O62  1  0.389952  0.913974  0.087208  1
  O  O63  1  0.179515  0.603401  0.978458  1
  O  O64  1  0.535503  0.835251  0.906191  1
  O  O65  1  0.418915  0.631176  0.591329  1
  O  O66  1  0.121647  0.205695  0.522636  1
  O  O67  1  0.474035  0.175670  0.089213  1
  O  O68  1  0.627875  0.103044  0.926711  1
  O  O69  1  0.833115  0.417321  0.036081  1
  O  O70  1  0.185110  0.588992  0.700078  1
  O  O71  1  0.138252  0.932939  0.104097  1
  O  O72  1  0.612653  0.518345  0.195775  1
  O  O73  1  0.304500  0.920428  0.829537  1
  O  O74  1  0.209400  0.182253  0.077088  1
  O  O75  1  0.408645  0.896384  0.590062  1
  O  O76  1  0.700467  0.612977  0.021941  1
  O  O77  1  0.089225  0.416711  0.388546  1
  O  O78  1  0.486683  0.304323  0.885370  1
  O  O79  1  0.576468  0.209295  0.675382  1
  O  O80  1  0.037884  0.909870  0.828827  1
  O  O81  1  0.102999  0.689409  0.486349  1
  O  O82  1  0.194354  0.031907  0.621895  1
  O  O83  1  0.597774  0.483375  0.681710  1
  O  O84  1  0.321887  0.025863  0.404553  1
  O  O85  1  0.089359  0.676937  0.208717  1
  O  O86  1  0.974147  0.886695  0.301036  1
  O  O87  1  0.328337  0.308897  0.425959  1
