# generated using pymatgen
data_FeOF
_symmetry_space_group_name_H-M   'P 1'
_cell_length_a   9.48212756
_cell_length_b   3.11084657
_cell_length_c   17.05250692
_cell_angle_alpha   90.00000000
_cell_angle_beta   123.79105254
_cell_angle_gamma   90.00000000
_symmetry_Int_Tables_number   1
_chemical_formula_structural   FeOF
_chemical_formula_sum   'Fe12 O12 F12'
_cell_volume   418.03334099
_cell_formula_units_Z   12
loop_
 _symmetry_equiv_pos_site_id
 _symmetry_equiv_pos_as_xyz
  1  'x, y, z'
loop_
 _atom_site_type_symbol
 _atom_site_label
 _atom_site_symmetry_multiplicity
 _atom_site_fract_x
 _atom_site_fract_y
 _atom_site_fract_z
 _atom_site_occupancy
  Fe  Fe0  1  0.982286  0.000000  0.992422  1
  Fe  Fe1  1  0.483487  0.000000  0.989250  1
  Fe  Fe2  1  0.093190  0.500000  0.850795  1
  Fe  Fe3  1  0.595158  0.500000  0.850365  1
  Fe  Fe4  1  0.648441  0.000000  0.658703  1
  Fe  Fe5  1  0.149697  0.000000  0.656610  1
  Fe  Fe6  1  0.256528  0.500000  0.512580  1
  Fe  Fe7  1  0.768962  0.500000  0.494378  1
  Fe  Fe8  1  0.315053  0.000000  0.320377  1
  Fe  Fe9  1  0.812126  0.000000  0.325813  1
  Fe  Fe10  1  0.424695  0.500000  0.179238  1
  Fe  Fe11  1  0.934577  0.500000  0.160301  1
  O  O12  1  0.338748  0.500000  0.936969  1
  O  O13  1  0.836752  0.500000  0.932576  1
  O  O14  1  0.046967  0.000000  0.898955  1
  O  O15  1  0.552200  0.000000  0.900582  1
  O  O16  1  0.002649  0.500000  0.605131  1
  O  O17  1  0.506998  0.500000  0.600980  1
  O  O18  1  0.217336  0.000000  0.566205  1
  O  O19  1  0.785379  0.000000  0.432672  1
  O  O20  1  0.673086  0.500000  0.263857  1
  O  O21  1  0.170337  0.500000  0.271037  1
  O  O22  1  0.387743  0.000000  0.233869  1
  O  O23  1  0.951387  0.000000  0.099108  1
  F  F24  1  0.115840  0.000000  0.769532  1
  F  F25  1  0.616575  0.000000  0.767237  1
  F  F26  1  0.827297  0.500000  0.728984  1
  F  F27  1  0.331821  0.500000  0.733490  1
  F  F28  1  0.719249  0.000000  0.565019  1
  F  F29  1  0.285226  0.000000  0.436782  1
  F  F30  1  0.498953  0.500000  0.403829  1
  F  F31  1  0.001104  0.500000  0.395123  1
  F  F32  1  0.885726  0.000000  0.230216  1
  F  F33  1  0.449578  0.000000  0.101615  1
  F  F34  1  0.171339  0.500000  0.066206  1
  F  F35  1  0.663499  0.500000  0.069192  1
