# generated using pymatgen
data_Mn3Co2Te3O16
_symmetry_space_group_name_H-M   'P 1'
_cell_length_a   6.15473921
_cell_length_b   6.15473921
_cell_length_c   9.20050337
_cell_angle_alpha   89.33794332
_cell_angle_beta   90.66205668
_cell_angle_gamma   120.85333610
_symmetry_Int_Tables_number   1
_chemical_formula_structural   Mn3Co2Te3O16
_chemical_formula_sum   'Mn3 Co2 Te3 O16'
_cell_volume   299.17424387
_cell_formula_units_Z   1
loop_
 _symmetry_equiv_pos_site_id
 _symmetry_equiv_pos_as_xyz
  1  'x, y, z'
loop_
 _atom_site_type_symbol
 _atom_site_label
 _atom_site_symmetry_multiplicity
 _atom_site_fract_x
 _atom_site_fract_y
 _atom_site_fract_z
 _atom_site_occupancy
  Mn  Mn0  1  0.832326  0.167674  0.213459  1
  Mn  Mn1  1  0.164770  0.335276  0.710590  1
  Mn  Mn2  1  0.664724  0.835230  0.710590  1
  Co  Co3  1  0.675331  0.324669  0.515007  1
  Co  Co4  1  0.346269  0.653731  0.982004  1
  Te  Te5  1  0.334861  0.168541  0.212647  1
  Te  Te6  1  0.831459  0.665139  0.212647  1
  Te  Te7  1  0.166624  0.833376  0.713035  1
  O  O8  1  0.322752  0.154477  0.603923  1
  O  O9  1  0.518129  0.481871  0.335983  1
  O  O10  1  0.646682  0.353318  0.087342  1
  O  O11  1  0.016410  0.983590  0.329097  1
  O  O12  1  0.006477  0.993523  0.819272  1
  O  O13  1  0.845523  0.677248  0.603923  1
  O  O14  1  0.508387  0.043002  0.325629  1
  O  O15  1  0.956998  0.491613  0.325629  1
  O  O16  1  0.159562  0.840438  0.099436  1
  O  O17  1  0.843505  0.156495  0.608025  1
  O  O18  1  0.040407  0.521111  0.834545  1
  O  O19  1  0.478889  0.959593  0.834545  1
  O  O20  1  0.323989  0.676011  0.597684  1
  O  O21  1  0.170600  0.318155  0.109296  1
  O  O22  1  0.474194  0.525806  0.821589  1
  O  O23  1  0.681845  0.829400  0.109296  1
