# generated using pymatgen
data_Cr2Te(PO4)3
_symmetry_space_group_name_H-M   'P 1'
_cell_length_a   8.90425361
_cell_length_b   8.90425361
_cell_length_c   8.90425361
_cell_angle_alpha   57.56987226
_cell_angle_beta   57.56987226
_cell_angle_gamma   57.56987226
_symmetry_Int_Tables_number   1
_chemical_formula_structural   Cr2Te(PO4)3
_chemical_formula_sum   'Cr4 Te2 P6 O24'
_cell_volume   471.31223457
_cell_formula_units_Z   2
loop_
 _symmetry_equiv_pos_site_id
 _symmetry_equiv_pos_as_xyz
  1  'x, y, z'
loop_
 _atom_site_type_symbol
 _atom_site_label
 _atom_site_symmetry_multiplicity
 _atom_site_fract_x
 _atom_site_fract_y
 _atom_site_fract_z
 _atom_site_occupancy
  Cr  Cr0  1  0.852650  0.852650  0.852650  1
  Cr  Cr1  1  0.647350  0.647350  0.647350  1
  Cr  Cr2  1  0.352650  0.352650  0.352650  1
  Cr  Cr3  1  0.147350  0.147350  0.147350  1
  Te  Te4  1  0.000000  0.000000  0.000000  1
  Te  Te5  1  0.500000  0.500000  0.500000  1
  P  P6  1  0.250000  0.537703  0.962297  1
  P  P7  1  0.962297  0.250000  0.537703  1
  P  P8  1  0.537703  0.962297  0.250000  1
  P  P9  1  0.462297  0.037703  0.750000  1
  P  P10  1  0.037703  0.750000  0.462297  1
  P  P11  1  0.750000  0.462297  0.037703  1
  O  O12  1  0.709524  0.486630  0.879401  1
  O  O13  1  0.486630  0.879401  0.709524  1
  O  O14  1  0.077815  0.731386  0.936450  1
  O  O15  1  0.879401  0.709524  0.486630  1
  O  O16  1  0.422185  0.563550  0.768614  1
  O  O17  1  0.209524  0.379401  0.986630  1
  O  O18  1  0.936450  0.077815  0.731386  1
  O  O19  1  0.768614  0.422185  0.563550  1
  O  O20  1  0.563550  0.768614  0.422185  1
  O  O21  1  0.620599  0.013370  0.790476  1
  O  O22  1  0.268614  0.063550  0.922185  1
  O  O23  1  0.013370  0.790476  0.620599  1
  O  O24  1  0.986630  0.209524  0.379401  1
  O  O25  1  0.731386  0.936450  0.077815  1
  O  O26  1  0.379401  0.986630  0.209524  1
  O  O27  1  0.436450  0.231386  0.577815  1
  O  O28  1  0.231386  0.577815  0.436450  1
  O  O29  1  0.063550  0.922185  0.268614  1
  O  O30  1  0.790476  0.620599  0.013370  1
  O  O31  1  0.577815  0.436450  0.231386  1
  O  O32  1  0.120599  0.290476  0.513370  1
  O  O33  1  0.922185  0.268614  0.063550  1
  O  O34  1  0.513370  0.120599  0.290476  1
  O  O35  1  0.290476  0.513370  0.120599  1
