# generated using pymatgen
data_NaGa3P2(HO3)4
_symmetry_space_group_name_H-M   'P 1'
_cell_length_a   7.35680463
_cell_length_b   10.40912218
_cell_length_c   12.87759046
_cell_angle_alpha   90.00000000
_cell_angle_beta   116.30386440
_cell_angle_gamma   90.00000000
_symmetry_Int_Tables_number   1
_chemical_formula_structural   NaGa3P2(HO3)4
_chemical_formula_sum   'Na4 Ga12 P8 H16 O48'
_cell_volume   884.03036077
_cell_formula_units_Z   4
loop_
 _symmetry_equiv_pos_site_id
 _symmetry_equiv_pos_as_xyz
  1  'x, y, z'
loop_
 _atom_site_type_symbol
 _atom_site_label
 _atom_site_symmetry_multiplicity
 _atom_site_fract_x
 _atom_site_fract_y
 _atom_site_fract_z
 _atom_site_occupancy
  Na  Na0  1  0.742931  0.576059  0.193901  1
  Na  Na1  1  0.257069  0.076059  0.306099  1
  Na  Na2  1  0.742931  0.923941  0.693901  1
  Na  Na3  1  0.257069  0.423941  0.806099  1
  Ga  Ga4  1  0.486218  0.220017  0.038527  1
  Ga  Ga5  1  0.975765  0.753997  0.039730  1
  Ga  Ga6  1  0.246809  0.562611  0.237429  1
  Ga  Ga7  1  0.753191  0.062611  0.262571  1
  Ga  Ga8  1  0.513782  0.720017  0.461473  1
  Ga  Ga9  1  0.024235  0.253997  0.460270  1
  Ga  Ga10  1  0.975765  0.746003  0.539730  1
  Ga  Ga11  1  0.486218  0.279983  0.538527  1
  Ga  Ga12  1  0.246809  0.937389  0.737429  1
  Ga  Ga13  1  0.753191  0.437389  0.762571  1
  Ga  Ga14  1  0.024235  0.246003  0.960270  1
  Ga  Ga15  1  0.513782  0.779983  0.961473  1
  P  P16  1  0.442176  0.824575  0.191836  1
  P  P17  1  0.944873  0.309741  0.182434  1
  P  P18  1  0.557824  0.324575  0.308164  1
  P  P19  1  0.055127  0.809741  0.317566  1
  P  P20  1  0.944873  0.190259  0.682434  1
  P  P21  1  0.442176  0.675425  0.691836  1
  P  P22  1  0.055127  0.690259  0.817566  1
  P  P23  1  0.557824  0.175425  0.808164  1
  H  H24  1  0.211141  0.585286  0.029562  1
  H  H25  1  0.228726  0.052533  0.057354  1
  H  H26  1  0.318358  0.395145  0.076704  1
  H  H27  1  0.709389  0.009588  0.064035  1
  H  H28  1  0.681642  0.895145  0.423296  1
  H  H29  1  0.771274  0.552533  0.442646  1
  H  H30  1  0.788859  0.085286  0.470438  1
  H  H31  1  0.290611  0.509588  0.435965  1
  H  H32  1  0.709389  0.490412  0.564035  1
  H  H33  1  0.211141  0.914714  0.529562  1
  H  H34  1  0.228726  0.447467  0.557354  1
  H  H35  1  0.318358  0.104855  0.576704  1
  H  H36  1  0.290611  0.990412  0.935965  1
  H  H37  1  0.681642  0.604855  0.923296  1
  H  H38  1  0.771274  0.947467  0.942646  1
  H  H39  1  0.788859  0.414714  0.970438  1
  O  O40  1  0.282869  0.354126  0.001015  1
  O  O41  1  0.773137  0.890032  0.003526  1
  O  O42  1  0.134968  0.596608  0.074731  1
  O  O43  1  0.221647  0.867679  0.111499  1
  O  O44  1  0.651148  0.072028  0.100202  1
  O  O45  1  0.718802  0.340722  0.098601  1
  O  O46  1  0.552239  0.774834  0.121591  1
  O  O47  1  0.052067  0.237023  0.120338  1
  O  O48  1  0.448402  0.442419  0.230474  1
  O  O49  1  0.545673  0.213337  0.223589  1
  O  O50  1  0.034132  0.718945  0.214847  1
  O  O51  1  0.454327  0.713337  0.276411  1
  O  O52  1  0.551598  0.942419  0.269526  1
  O  O53  1  0.038257  0.441870  0.231250  1
  O  O54  1  0.961743  0.941870  0.268750  1
  O  O55  1  0.965868  0.218945  0.285153  1
  O  O56  1  0.447761  0.274834  0.378409  1
  O  O57  1  0.778353  0.367679  0.388501  1
  O  O58  1  0.947933  0.737023  0.379662  1
  O  O59  1  0.865032  0.096608  0.425269  1
  O  O60  1  0.281198  0.840722  0.401399  1
  O  O61  1  0.348852  0.572028  0.399798  1
  O  O62  1  0.717131  0.854126  0.498985  1
  O  O63  1  0.773137  0.609968  0.503526  1
  O  O64  1  0.226863  0.390032  0.496474  1
  O  O65  1  0.282869  0.145874  0.501015  1
  O  O66  1  0.651148  0.427972  0.600202  1
  O  O67  1  0.718802  0.159278  0.598601  1
  O  O68  1  0.134968  0.903392  0.574731  1
  O  O69  1  0.052067  0.262977  0.620338  1
  O  O70  1  0.221647  0.632321  0.611499  1
  O  O71  1  0.552239  0.725166  0.621591  1
  O  O72  1  0.034132  0.781055  0.714847  1
  O  O73  1  0.038257  0.058130  0.731250  1
  O  O74  1  0.961743  0.558130  0.768750  1
  O  O75  1  0.448402  0.057581  0.730474  1
  O  O76  1  0.545673  0.286663  0.723589  1
  O  O77  1  0.965868  0.281055  0.785153  1
  O  O78  1  0.454327  0.786663  0.776411  1
  O  O79  1  0.551598  0.557581  0.769526  1
  O  O80  1  0.947933  0.762977  0.879662  1
  O  O81  1  0.447761  0.225166  0.878409  1
  O  O82  1  0.281198  0.659278  0.901399  1
  O  O83  1  0.348852  0.927972  0.899798  1
  O  O84  1  0.778353  0.132321  0.888501  1
  O  O85  1  0.865032  0.403392  0.925269  1
  O  O86  1  0.226863  0.109968  0.996474  1
  O  O87  1  0.717131  0.645874  0.998985  1
