# generated using pymatgen
data_Nb3P6WO24
_symmetry_space_group_name_H-M   'P 1'
_cell_length_a   9.07141944
_cell_length_b   9.07141944
_cell_length_c   9.07141944
_cell_angle_alpha   58.51358258
_cell_angle_beta   58.51358258
_cell_angle_gamma   58.51358258
_symmetry_Int_Tables_number   1
_chemical_formula_structural   Nb3P6WO24
_chemical_formula_sum   'Nb3 P6 W1 O24'
_cell_volume   509.90310532
_cell_formula_units_Z   1
loop_
 _symmetry_equiv_pos_site_id
 _symmetry_equiv_pos_as_xyz
  1  'x, y, z'
loop_
 _atom_site_type_symbol
 _atom_site_label
 _atom_site_symmetry_multiplicity
 _atom_site_fract_x
 _atom_site_fract_y
 _atom_site_fract_z
 _atom_site_occupancy
  Nb  Nb0  1  0.859666  0.859666  0.859666  1
  Nb  Nb1  1  0.641644  0.641644  0.641644  1
  Nb  Nb2  1  0.359869  0.359869  0.359869  1
  P  P3  1  0.250591  0.534111  0.966043  1
  P  P4  1  0.966043  0.250591  0.534111  1
  P  P5  1  0.534111  0.966043  0.250591  1
  P  P6  1  0.467856  0.031978  0.749527  1
  P  P7  1  0.031978  0.749527  0.467856  1
  P  P8  1  0.749527  0.467856  0.031978  1
  W  W9  1  0.141633  0.141633  0.141633  1
  O  O10  1  0.709780  0.507838  0.866052  1
  O  O11  1  0.507838  0.866052  0.709780  1
  O  O12  1  0.079972  0.712202  0.936768  1
  O  O13  1  0.866052  0.709780  0.507838  1
  O  O14  1  0.419329  0.572733  0.791479  1
  O  O15  1  0.228894  0.373345  0.980276  1
  O  O16  1  0.936768  0.079972  0.712202  1
  O  O17  1  0.791479  0.419329  0.572733  1
  O  O18  1  0.572733  0.791479  0.419329  1
  O  O19  1  0.639176  0.001705  0.775846  1
  O  O20  1  0.293421  0.055079  0.910678  1
  O  O21  1  0.001705  0.775846  0.639176  1
  O  O22  1  0.980276  0.228894  0.373345  1
  O  O23  1  0.712202  0.936768  0.079972  1
  O  O24  1  0.373345  0.980276  0.228894  1
  O  O25  1  0.444804  0.205935  0.573187  1
  O  O26  1  0.205935  0.573187  0.444804  1
  O  O27  1  0.055079  0.910678  0.293421  1
  O  O28  1  0.775846  0.639176  0.001705  1
  O  O29  1  0.573187  0.444804  0.205935  1
  O  O30  1  0.134815  0.280300  0.503466  1
  O  O31  1  0.910678  0.293421  0.055079  1
  O  O32  1  0.503466  0.134815  0.280300  1
  O  O33  1  0.280300  0.503466  0.134815  1
