# generated using pymatgen
data_LiSiBiO4
_symmetry_space_group_name_H-M   'P 1'
_cell_length_a   4.92482141
_cell_length_b   6.82524415
_cell_length_c   10.79131981
_cell_angle_alpha   90.00000000
_cell_angle_beta   90.00000000
_cell_angle_gamma   90.00000000
_symmetry_Int_Tables_number   1
_chemical_formula_structural   LiSiBiO4
_chemical_formula_sum   'Li4 Si4 Bi4 O16'
_cell_volume   362.72980383
_cell_formula_units_Z   4
loop_
 _symmetry_equiv_pos_site_id
 _symmetry_equiv_pos_as_xyz
  1  'x, y, z'
loop_
 _atom_site_type_symbol
 _atom_site_label
 _atom_site_symmetry_multiplicity
 _atom_site_fract_x
 _atom_site_fract_y
 _atom_site_fract_z
 _atom_site_occupancy
  Li  Li0  1  0.000000  0.000000  0.000000  1
  Li  Li1  1  0.000000  0.500000  0.000000  1
  Li  Li2  1  0.500000  0.500000  0.500000  1
  Li  Li3  1  0.500000  0.000000  0.500000  1
  Si  Si4  1  0.895756  0.750000  0.580429  1
  Si  Si5  1  0.604244  0.750000  0.080429  1
  Si  Si6  1  0.395756  0.250000  0.919571  1
  Si  Si7  1  0.104244  0.250000  0.419571  1
  Bi  Bi8  1  0.949914  0.250000  0.721709  1
  Bi  Bi9  1  0.550086  0.250000  0.221709  1
  Bi  Bi10  1  0.449914  0.750000  0.778291  1
  Bi  Bi11  1  0.050086  0.750000  0.278291  1
  O  O12  1  0.753985  0.750000  0.441948  1
  O  O13  1  0.755771  0.937215  0.658343  1
  O  O14  1  0.755771  0.562785  0.658343  1
  O  O15  1  0.724841  0.250000  0.923474  1
  O  O16  1  0.775159  0.250000  0.423474  1
  O  O17  1  0.744229  0.562785  0.158343  1
  O  O18  1  0.744229  0.937215  0.158343  1
  O  O19  1  0.746015  0.750000  0.941948  1
  O  O20  1  0.253985  0.250000  0.058052  1
  O  O21  1  0.255771  0.437215  0.841657  1
  O  O22  1  0.255771  0.062785  0.841657  1
  O  O23  1  0.224841  0.750000  0.576526  1
  O  O24  1  0.275159  0.750000  0.076526  1
  O  O25  1  0.244229  0.062785  0.341657  1
  O  O26  1  0.244229  0.437215  0.341657  1
  O  O27  1  0.246015  0.250000  0.558052  1
