# generated using pymatgen
data_Li8Ni(O2F)2
_symmetry_space_group_name_H-M   'P 1'
_cell_length_a   5.30799049
_cell_length_b   5.31865365
_cell_length_c   5.75556308
_cell_angle_alpha   91.18352887
_cell_angle_beta   114.90607325
_cell_angle_gamma   109.41047185
_symmetry_Int_Tables_number   1
_chemical_formula_structural   Li8Ni(O2F)2
_chemical_formula_sum   'Li8 Ni1 O4 F2'
_cell_volume   136.52751803
_cell_formula_units_Z   1
loop_
 _symmetry_equiv_pos_site_id
 _symmetry_equiv_pos_as_xyz
  1  'x, y, z'
loop_
 _atom_site_type_symbol
 _atom_site_label
 _atom_site_symmetry_multiplicity
 _atom_site_fract_x
 _atom_site_fract_y
 _atom_site_fract_z
 _atom_site_occupancy
  Li  Li0  1  0.217385  0.452708  0.323300  1
  Li  Li1  1  0.076668  0.200393  0.631927  1
  Li  Li2  1  0.423880  0.889911  0.645868  1
  Li  Li3  1  0.666807  0.307285  0.000634  1
  Li  Li4  1  0.333193  0.692715  0.999366  1
  Li  Li5  1  0.576120  0.110089  0.354132  1
  Li  Li6  1  0.923332  0.799607  0.368073  1
  Li  Li7  1  0.782615  0.547292  0.676700  1
  Ni  Ni8  1  0.000000  0.000000  0.000000  1
  O  O9  1  0.875301  0.116144  0.244089  1
  O  O10  1  0.203776  0.796672  0.247080  1
  O  O11  1  0.796224  0.203328  0.752920  1
  O  O12  1  0.124699  0.883856  0.755911  1
  F  F13  1  0.426983  0.523292  0.722388  1
  F  F14  1  0.573017  0.476708  0.277612  1
