# generated using pymatgen
data_H12WN3(OF)3
_symmetry_space_group_name_H-M   'P 1'
_cell_length_a   6.46708990
_cell_length_b   6.77321599
_cell_length_c   6.87041238
_cell_angle_alpha   115.20457223
_cell_angle_beta   113.16379050
_cell_angle_gamma   93.76368685
_symmetry_Int_Tables_number   1
_chemical_formula_structural   H12WN3(OF)3
_chemical_formula_sum   'H12 W1 N3 O3 F3'
_cell_volume   240.30712049
_cell_formula_units_Z   1
loop_
 _symmetry_equiv_pos_site_id
 _symmetry_equiv_pos_as_xyz
  1  'x, y, z'
loop_
 _atom_site_type_symbol
 _atom_site_label
 _atom_site_symmetry_multiplicity
 _atom_site_fract_x
 _atom_site_fract_y
 _atom_site_fract_z
 _atom_site_occupancy
  H  H0  1  0.795006  0.222432  0.586474  1
  H  H1  1  0.825342  0.314892  0.397953  1
  H  H2  1  0.851231  0.513971  0.669277  1
  H  H3  1  0.590200  0.317134  0.448979  1
  H  H4  1  0.643665  0.282149  0.082412  1
  H  H5  1  0.802011  0.431894  0.041371  1
  H  H6  1  0.253040  0.403419  0.963274  1
  H  H7  1  0.443383  0.595796  0.871511  1
  H  H8  1  0.390460  0.856170  0.539052  1
  H  H9  1  0.144668  0.624277  0.380981  1
  H  H10  1  0.173625  0.855930  0.622811  1
  H  H11  1  0.121073  0.865494  0.366428  1
  W  W12  1  0.923943  0.048943  0.921976  1
  N  N13  1  0.766584  0.338905  0.525579  1
  N  N14  1  0.814056  0.330009  0.119523  1
  N  N15  1  0.208165  0.799422  0.476760  1
  O  O16  1  0.672821  0.991662  0.646370  1
  O  O17  1  0.165654  0.215918  0.935868  1
  O  O18  1  0.976067  0.772396  0.824251  1
  F  F19  1  0.520050  0.619136  0.779276  1
  F  F20  1  0.007442  0.050761  0.241283  1
  F  F21  1  0.337715  0.570491  0.005991  1
