# generated using pymatgen
data_NbTlO3
_symmetry_space_group_name_H-M   'P 1'
_cell_length_a   7.65395445
_cell_length_b   7.65826883
_cell_length_c   13.25764730
_cell_angle_alpha   73.29988406
_cell_angle_beta   73.25802711
_cell_angle_gamma   60.03606349
_symmetry_Int_Tables_number   1
_chemical_formula_structural   NbTlO3
_chemical_formula_sum   'Nb8 Tl8 O24'
_cell_volume   634.98840689
_cell_formula_units_Z   8
loop_
 _symmetry_equiv_pos_site_id
 _symmetry_equiv_pos_as_xyz
  1  'x, y, z'
loop_
 _atom_site_type_symbol
 _atom_site_label
 _atom_site_symmetry_multiplicity
 _atom_site_fract_x
 _atom_site_fract_y
 _atom_site_fract_z
 _atom_site_occupancy
  Nb  Nb0  1  0.002546  0.504629  0.997540  1
  Nb  Nb1  1  0.004838  0.999363  0.002907  1
  Nb  Nb2  1  0.505405  0.496399  0.999011  1
  Nb  Nb3  1  0.248734  0.759620  0.749818  1
  Nb  Nb4  1  0.501743  0.002997  0.496951  1
  Nb  Nb5  1  0.499181  0.500557  0.503093  1
  Nb  Nb6  1  0.000594  0.999083  0.499374  1
  Nb  Nb7  1  0.747882  0.256986  0.249472  1
  Tl  Tl8  1  0.724190  0.232131  0.756280  1
  Tl  Tl9  1  0.729882  0.774984  0.758094  1
  Tl  Tl10  1  0.212152  0.273497  0.744518  1
  Tl  Tl11  1  0.985668  0.499798  0.519080  1
  Tl  Tl12  1  0.233829  0.280460  0.255161  1
  Tl  Tl13  1  0.776987  0.735759  0.255171  1
  Tl  Tl14  1  0.497966  0.995904  0.015663  1
  Tl  Tl15  1  0.264069  0.770182  0.248946  1
  O  O16  1  0.715247  0.222361  0.970550  1
  O  O17  1  0.094379  0.594640  0.844192  1
  O  O18  1  0.037927  0.905539  0.654574  1
  O  O19  1  0.091278  0.220480  0.966919  1
  O  O20  1  0.405134  0.533816  0.655240  1
  O  O21  1  0.717085  0.592847  0.971873  1
  O  O22  1  0.218178  0.715957  0.469866  1
  O  O23  1  0.468665  0.597568  0.843863  1
  O  O24  1  0.090271  0.967146  0.844184  1
  O  O25  1  0.779259  0.907359  0.532358  1
  O  O26  1  0.412752  0.278341  0.527805  1
  O  O27  1  0.402814  0.908772  0.656100  1
  O  O28  1  0.594642  0.090945  0.343281  1
  O  O29  1  0.592532  0.717732  0.469824  1
  O  O30  1  0.903943  0.033828  0.154558  1
  O  O31  1  0.531707  0.409590  0.156296  1
  O  O32  1  0.219942  0.088343  0.470298  1
  O  O33  1  0.779100  0.277567  0.532717  1
  O  O34  1  0.277621  0.412920  0.031418  1
  O  O35  1  0.966593  0.093496  0.345202  1
  O  O36  1  0.598566  0.463172  0.345068  1
  O  O37  1  0.906396  0.781509  0.029539  1
  O  O38  1  0.906614  0.401111  0.154137  1
  O  O39  1  0.276428  0.783214  0.029407  1
