# generated using pymatgen
data_Li2VCrO4
_symmetry_space_group_name_H-M   'P 1'
_cell_length_a   5.15992029
_cell_length_b   5.17925807
_cell_length_c   8.94967411
_cell_angle_alpha   90.10136609
_cell_angle_beta   106.68637406
_cell_angle_gamma   99.48896854
_symmetry_Int_Tables_number   1
_chemical_formula_structural   Li2VCrO4
_chemical_formula_sum   'Li6 V3 Cr3 O12'
_cell_volume   225.66440019
_cell_formula_units_Z   3
loop_
 _symmetry_equiv_pos_site_id
 _symmetry_equiv_pos_as_xyz
  1  'x, y, z'
loop_
 _atom_site_type_symbol
 _atom_site_label
 _atom_site_symmetry_multiplicity
 _atom_site_fract_x
 _atom_site_fract_y
 _atom_site_fract_z
 _atom_site_occupancy
  Li  Li0  1  0.002124  0.007639  0.001118  1
  Li  Li1  1  0.001500  0.494842  0.167235  1
  Li  Li2  1  0.999097  0.001338  0.331902  1
  Li  Li3  1  0.997839  0.502101  0.496397  1
  Li  Li4  1  0.998585  0.999106  0.667407  1
  Li  Li5  1  0.000765  0.494673  0.836256  1
  V  V6  1  0.499896  0.750142  0.082023  1
  V  V7  1  0.500027  0.250694  0.583774  1
  V  V8  1  0.500554  0.749332  0.750707  1
  Cr  Cr9  1  0.499612  0.250755  0.249290  1
  Cr  Cr10  1  0.499646  0.750570  0.414994  1
  Cr  Cr11  1  0.500443  0.248935  0.918720  1
  O  O12  1  0.728241  0.127823  0.121654  1
  O  O13  1  0.272389  0.372199  0.045465  1
  O  O14  1  0.723430  0.620432  0.286094  1
  O  O15  1  0.276566  0.881373  0.212197  1
  O  O16  1  0.724223  0.120717  0.453236  1
  O  O17  1  0.273837  0.383465  0.376921  1
  O  O18  1  0.726658  0.620398  0.617841  1
  O  O19  1  0.274597  0.878562  0.545245  1
  O  O20  1  0.273424  0.377857  0.714031  1
  O  O21  1  0.727782  0.117962  0.791508  1
  O  O22  1  0.726943  0.617792  0.955286  1
  O  O23  1  0.271822  0.881296  0.880699  1
