# generated using pymatgen
data_Mn3OF5
_symmetry_space_group_name_H-M   'P 1'
_cell_length_a   4.86510976
_cell_length_b   5.87261223
_cell_length_c   8.13857442
_cell_angle_alpha   92.35547836
_cell_angle_beta   90.14100699
_cell_angle_gamma   90.50778071
_symmetry_Int_Tables_number   1
_chemical_formula_structural   Mn3OF5
_chemical_formula_sum   'Mn6 O2 F10'
_cell_volume   232.31989931
_cell_formula_units_Z   2
loop_
 _symmetry_equiv_pos_site_id
 _symmetry_equiv_pos_as_xyz
  1  'x, y, z'
loop_
 _atom_site_type_symbol
 _atom_site_label
 _atom_site_symmetry_multiplicity
 _atom_site_fract_x
 _atom_site_fract_y
 _atom_site_fract_z
 _atom_site_occupancy
  Mn  Mn0  1  0.494547  0.512763  0.003441  1
  Mn  Mn1  1  0.507492  0.167347  0.672420  1
  Mn  Mn2  1  0.465134  0.826264  0.327078  1
  Mn  Mn3  1  0.016115  0.675547  0.649585  1
  Mn  Mn4  1  0.014746  0.350163  0.334221  1
  Mn  Mn5  1  0.008254  0.980125  0.013548  1
  O  O6  1  0.200395  0.636356  0.426801  1
  O  O7  1  0.312085  0.783374  0.107555  1
  F  F8  1  0.190732  0.969988  0.770537  1
  F  F9  1  0.200041  0.283948  0.099454  1
  F  F10  1  0.305338  0.469193  0.772393  1
  F  F11  1  0.298236  0.136271  0.437324  1
  F  F12  1  0.675938  0.862740  0.550838  1
  F  F13  1  0.708962  0.527730  0.223068  1
  F  F14  1  0.698556  0.210698  0.913480  1
  F  F15  1  0.810073  0.368949  0.568734  1
  F  F16  1  0.788386  0.034231  0.244694  1
  F  F17  1  0.804970  0.704313  0.884831  1
