# generated using pymatgen
data_LiCuCO3
_symmetry_space_group_name_H-M   'P 1'
_cell_length_a   8.19429375
_cell_length_b   8.19429375
_cell_length_c   3.15872390
_cell_angle_alpha   90.00000000
_cell_angle_beta   90.00000000
_cell_angle_gamma   120.00000000
_symmetry_Int_Tables_number   1
_chemical_formula_structural   LiCuCO3
_chemical_formula_sum   'Li3 Cu3 C3 O9'
_cell_volume   183.68147388
_cell_formula_units_Z   3
loop_
 _symmetry_equiv_pos_site_id
 _symmetry_equiv_pos_as_xyz
  1  'x, y, z'
loop_
 _atom_site_type_symbol
 _atom_site_label
 _atom_site_symmetry_multiplicity
 _atom_site_fract_x
 _atom_site_fract_y
 _atom_site_fract_z
 _atom_site_occupancy
  Li  Li0  1  0.630547  0.671154  0.500000  1
  Li  Li1  1  0.328846  0.959393  0.500000  1
  Li  Li2  1  0.040607  0.369453  0.500000  1
  Cu  Cu3  1  0.335249  0.302269  0.000000  1
  Cu  Cu4  1  0.967020  0.664751  0.000000  1
  Cu  Cu5  1  0.697731  0.032980  0.000000  1
  C  C6  1  0.666667  0.333333  0.500000  1
  C  C7  1  0.333333  0.666667  0.000000  1
  C  C8  1  0.000000  0.000000  0.500000  1
  O  O9  1  0.556601  0.405895  0.500000  1
  O  O10  1  0.594105  0.150706  0.500000  1
  O  O11  1  0.849294  0.443399  0.500000  1
  O  O12  1  0.514624  0.732191  0.000000  1
  O  O13  1  0.913613  0.097091  0.500000  1
  O  O14  1  0.217567  0.485376  0.000000  1
  O  O15  1  0.902909  0.816521  0.500000  1
  O  O16  1  0.183479  0.086387  0.500000  1
  O  O17  1  0.267809  0.782433  0.000000  1
