# generated using pymatgen
data_Li2MnFe2(PO4)3
_symmetry_space_group_name_H-M   'P 1'
_cell_length_a   8.57165586
_cell_length_b   8.57165586
_cell_length_c   8.47469798
_cell_angle_alpha   63.43224669
_cell_angle_beta   116.56775331
_cell_angle_gamma   117.02402633
_symmetry_Int_Tables_number   1
_chemical_formula_structural   Li2MnFe2(PO4)3
_chemical_formula_sum   'Li4 Mn2 Fe4 P6 O24'
_cell_volume   472.26408103
_cell_formula_units_Z   2
loop_
 _symmetry_equiv_pos_site_id
 _symmetry_equiv_pos_as_xyz
  1  'x, y, z'
loop_
 _atom_site_type_symbol
 _atom_site_label
 _atom_site_symmetry_multiplicity
 _atom_site_fract_x
 _atom_site_fract_y
 _atom_site_fract_z
 _atom_site_occupancy
  Li  Li0  1  0.856555  0.856555  0.000000  1
  Li  Li1  1  0.158182  0.158182  0.500000  1
  Li  Li2  1  0.753169  0.343193  0.906351  1
  Li  Li3  1  0.343193  0.753169  0.093649  1
  Mn  Mn4  1  0.003135  0.492408  0.259230  1
  Mn  Mn5  1  0.492408  0.003135  0.740770  1
  Fe  Fe6  1  0.852452  0.644152  0.396516  1
  Fe  Fe7  1  0.644152  0.852452  0.603484  1
  Fe  Fe8  1  0.345611  0.157366  0.902386  1
  Fe  Fe9  1  0.157366  0.345611  0.097614  1
  P  P10  1  0.252047  0.940648  0.310607  1
  P  P11  1  0.940648  0.252047  0.689393  1
  P  P12  1  0.558448  0.558448  0.000000  1
  P  P13  1  0.458696  0.458696  0.500000  1
  P  P14  1  0.039215  0.752475  0.800139  1
  P  P15  1  0.752475  0.039215  0.199861  1
  O  O16  1  0.689254  0.979694  0.366070  1
  O  O17  1  0.503150  0.609406  0.576452  1
  O  O18  1  0.087409  0.755517  0.316471  1
  O  O19  1  0.891910  0.819288  0.783591  1
  O  O20  1  0.195061  0.097106  0.286953  1
  O  O21  1  0.408113  0.918802  0.499802  1
  O  O22  1  0.918802  0.408113  0.500198  1
  O  O23  1  0.755517  0.087409  0.683529  1
  O  O24  1  0.609406  0.503150  0.423548  1
  O  O25  1  0.583076  0.753403  0.848728  1
  O  O26  1  0.263467  0.438715  0.350300  1
  O  O27  1  0.979694  0.689254  0.633930  1
  O  O28  1  0.969783  0.312628  0.849320  1
  O  O29  1  0.753403  0.583076  0.151272  1
  O  O30  1  0.438715  0.263467  0.649700  1
  O  O31  1  0.402437  0.532533  0.060314  1
  O  O32  1  0.232941  0.904985  0.809084  1
  O  O33  1  0.067256  0.599314  0.991875  1
  O  O34  1  0.599314  0.067256  0.008125  1
  O  O35  1  0.819288  0.891910  0.216409  1
  O  O36  1  0.097106  0.195061  0.713047  1
  O  O37  1  0.904985  0.232941  0.190916  1
  O  O38  1  0.532533  0.402437  0.939686  1
  O  O39  1  0.312628  0.969783  0.150680  1
