# generated using pymatgen
data_CuO
_symmetry_space_group_name_H-M   'P 1'
_cell_length_a   2.93890332
_cell_length_b   2.93890332
_cell_length_c   5.16072130
_cell_angle_alpha   88.19100166
_cell_angle_beta   91.80899834
_cell_angle_gamma   92.60027932
_symmetry_Int_Tables_number   1
_chemical_formula_structural   CuO
_chemical_formula_sum   'Cu2 O2'
_cell_volume   44.48557466
_cell_formula_units_Z   2
loop_
 _symmetry_equiv_pos_site_id
 _symmetry_equiv_pos_as_xyz
  1  'x, y, z'
loop_
 _atom_site_type_symbol
 _atom_site_label
 _atom_site_symmetry_multiplicity
 _atom_site_fract_x
 _atom_site_fract_y
 _atom_site_fract_z
 _atom_site_occupancy
  Cu  Cu0  1  0.000000  0.500000  0.500000  1
  Cu  Cu1  1  0.500000  0.000000  0.000000  1
  O  O2  1  0.486128  0.486128  0.250000  1
  O  O3  1  0.513872  0.513872  0.750000  1
