# generated using pymatgen
data_Li4FeNi5O12
_symmetry_space_group_name_H-M   'P 1'
_cell_length_a   4.97176123
_cell_length_b   4.97176123
_cell_length_c   10.06183819
_cell_angle_alpha   89.36077994
_cell_angle_beta   90.63922006
_cell_angle_gamma   60.62717046
_symmetry_Int_Tables_number   1
_chemical_formula_structural   Li4FeNi5O12
_chemical_formula_sum   'Li4 Fe1 Ni5 O12'
_cell_volume   216.68680907
_cell_formula_units_Z   1
loop_
 _symmetry_equiv_pos_site_id
 _symmetry_equiv_pos_as_xyz
  1  'x, y, z'
loop_
 _atom_site_type_symbol
 _atom_site_label
 _atom_site_symmetry_multiplicity
 _atom_site_fract_x
 _atom_site_fract_y
 _atom_site_fract_z
 _atom_site_occupancy
  Li  Li0  1  0.661316  0.840760  0.750278  1
  Li  Li1  1  0.840760  0.661316  0.249722  1
  Li  Li2  1  0.161492  0.335884  0.750837  1
  Li  Li3  1  0.335884  0.161492  0.249163  1
  Fe  Fe4  1  0.003670  0.003670  0.500000  1
  Ni  Ni5  1  0.835845  0.835845  0.000000  1
  Ni  Ni6  1  0.334284  0.334284  0.500000  1
  Ni  Ni7  1  0.661867  0.661867  0.500000  1
  Ni  Ni8  1  0.164129  0.164129  0.000000  1
  Ni  Ni9  1  0.499960  0.499960  0.000000  1
  O  O10  1  0.644868  0.003782  0.398455  1
  O  O11  1  0.003782  0.644868  0.601545  1
  O  O12  1  0.505537  0.855147  0.102669  1
  O  O13  1  0.144525  0.495116  0.102087  1
  O  O14  1  0.855147  0.505537  0.897331  1
  O  O15  1  0.140354  0.859467  0.901115  1
  O  O16  1  0.495116  0.144525  0.897913  1
  O  O17  1  0.026777  0.331931  0.390186  1
  O  O18  1  0.342131  0.651187  0.399365  1
  O  O19  1  0.331931  0.026777  0.609814  1
  O  O20  1  0.651187  0.342131  0.600635  1
  O  O21  1  0.859467  0.140354  0.098885  1
