# generated using pymatgen
data_Na2Si(H5O4)2
_symmetry_space_group_name_H-M   'P 1'
_cell_length_a   6.67577818
_cell_length_b   7.96112913
_cell_length_c   8.58709007
_cell_angle_alpha   108.88079901
_cell_angle_beta   98.58252270
_cell_angle_gamma   104.30565795
_symmetry_Int_Tables_number   1
_chemical_formula_structural   Na2Si(H5O4)2
_chemical_formula_sum   'Na4 Si2 H20 O16'
_cell_volume   405.14523406
_cell_formula_units_Z   2
loop_
 _symmetry_equiv_pos_site_id
 _symmetry_equiv_pos_as_xyz
  1  'x, y, z'
loop_
 _atom_site_type_symbol
 _atom_site_label
 _atom_site_symmetry_multiplicity
 _atom_site_fract_x
 _atom_site_fract_y
 _atom_site_fract_z
 _atom_site_occupancy
  Na  Na0  1  0.186913  0.458156  0.849448  1
  Na  Na1  1  0.813087  0.541844  0.150552  1
  Na  Na2  1  0.631526  0.316611  0.662259  1
  Na  Na3  1  0.368474  0.683389  0.337741  1
  Si  Si4  1  0.970006  0.033756  0.766428  1
  Si  Si5  1  0.029994  0.966244  0.233572  1
  H  H6  1  0.781967  0.921395  0.936851  1
  H  H7  1  0.218033  0.078605  0.063149  1
  H  H8  1  0.925467  0.137541  0.543635  1
  H  H9  1  0.074533  0.862459  0.456365  1
  H  H10  1  0.207735  0.313710  0.511667  1
  H  H11  1  0.792265  0.686290  0.488333  1
  H  H12  1  0.344202  0.531404  0.607916  1
  H  H13  1  0.655798  0.468596  0.392084  1
  H  H14  1  0.248260  0.805166  0.652528  1
  H  H15  1  0.751740  0.194834  0.347472  1
  H  H16  1  0.504588  0.841509  0.711626  1
  H  H17  1  0.495412  0.158491  0.288374  1
  H  H18  1  0.425353  0.227950  0.920047  1
  H  H19  1  0.574647  0.772050  0.079953  1
  H  H20  1  0.636822  0.166903  0.910245  1
  H  H21  1  0.363178  0.833097  0.089755  1
  H  H22  1  0.887262  0.682941  0.907387  1
  H  H23  1  0.112738  0.317059  0.092613  1
  H  H24  1  0.957996  0.680672  0.740190  1
  H  H25  1  0.042004  0.319328  0.259810  1
  O  O26  1  0.172508  0.177423  0.925332  1
  O  O27  1  0.827492  0.822577  0.074668  1
  O  O28  1  0.011762  0.849261  0.642835  1
  O  O29  1  0.988238  0.150739  0.357165  1
  O  O30  1  0.757389  0.976367  0.846413  1
  O  O31  1  0.242611  0.023633  0.153587  1
  O  O32  1  0.889175  0.154091  0.655846  1
  O  O33  1  0.110825  0.845909  0.344154  1
  O  O34  1  0.325874  0.404837  0.612627  1
  O  O35  1  0.674126  0.595163  0.387373  1
  O  O36  1  0.369568  0.756566  0.626293  1
  O  O37  1  0.630432  0.243434  0.373707  1
  O  O38  1  0.581183  0.273195  0.920210  1
  O  O39  1  0.418817  0.726805  0.079790  1
  O  O40  1  0.920845  0.598870  0.805544  1
  O  O41  1  0.079155  0.401130  0.194456  1
