# generated using pymatgen
data_Ga2P3H12(NO4)3
_symmetry_space_group_name_H-M   'P 1'
_cell_length_a   8.48348912
_cell_length_b   8.48348912
_cell_length_c   9.17572117
_cell_angle_alpha   73.72449209
_cell_angle_beta   106.27550791
_cell_angle_gamma   104.66795663
_symmetry_Int_Tables_number   1
_chemical_formula_structural   Ga2P3H12(NO4)3
_chemical_formula_sum   'Ga4 P6 H24 N6 O24'
_cell_volume   597.47179978
_cell_formula_units_Z   2
loop_
 _symmetry_equiv_pos_site_id
 _symmetry_equiv_pos_as_xyz
  1  'x, y, z'
loop_
 _atom_site_type_symbol
 _atom_site_label
 _atom_site_symmetry_multiplicity
 _atom_site_fract_x
 _atom_site_fract_y
 _atom_site_fract_z
 _atom_site_occupancy
  Ga  Ga0  1  0.408768  0.743610  0.921129  1
  Ga  Ga1  1  0.256390  0.591232  0.421129  1
  Ga  Ga2  1  0.743610  0.408768  0.578871  1
  Ga  Ga3  1  0.591232  0.256390  0.078871  1
  P  P4  1  0.081182  0.669787  0.660982  1
  P  P5  1  0.330213  0.918818  0.160982  1
  P  P6  1  0.503032  0.503032  0.750000  1
  P  P7  1  0.496968  0.496968  0.250000  1
  P  P8  1  0.669787  0.081182  0.839018  1
  P  P9  1  0.918818  0.330213  0.339018  1
  H  H10  1  0.036411  0.714692  0.978008  1
  H  H11  1  0.285308  0.963589  0.478008  1
  H  H12  1  0.122456  0.398859  0.935272  1
  H  H13  1  0.623154  0.852563  0.626902  1
  H  H14  1  0.601141  0.877544  0.435272  1
  H  H15  1  0.008133  0.070823  0.813926  1
  H  H16  1  0.098633  0.218865  0.678962  1
  H  H17  1  0.858213  0.792909  0.935449  1
  H  H18  1  0.792909  0.858213  0.564551  1
  H  H19  1  0.218865  0.098633  0.821038  1
  H  H20  1  0.147437  0.376846  0.126902  1
  H  H21  1  0.070823  0.008133  0.686074  1
  H  H22  1  0.929177  0.991867  0.313926  1
  H  H23  1  0.852563  0.623154  0.873098  1
  H  H24  1  0.781135  0.901367  0.178962  1
  H  H25  1  0.207091  0.141787  0.435449  1
  H  H26  1  0.141787  0.207091  0.064551  1
  H  H27  1  0.901367  0.781135  0.321038  1
  H  H28  1  0.991867  0.929177  0.186074  1
  H  H29  1  0.398859  0.122456  0.564728  1
  H  H30  1  0.376846  0.147437  0.373098  1
  H  H31  1  0.877544  0.601141  0.064728  1
  H  H32  1  0.714692  0.036411  0.521992  1
  H  H33  1  0.963589  0.285308  0.021992  1
  N  N34  1  0.682615  0.907186  0.535321  1
  N  N35  1  0.102049  0.102049  0.750000  1
  N  N36  1  0.907186  0.682615  0.964679  1
  N  N37  1  0.092814  0.317385  0.035321  1
  N  N38  1  0.897951  0.897951  0.250000  1
  N  N39  1  0.317385  0.092814  0.464679  1
  O  O40  1  0.493785  0.966958  0.839797  1
  O  O41  1  0.198244  0.633645  0.827713  1
  O  O42  1  0.180873  0.722489  0.531417  1
  O  O43  1  0.033042  0.506215  0.339797  1
  O  O44  1  0.809009  0.987530  0.858252  1
  O  O45  1  0.366355  0.801756  0.327713  1
  O  O46  1  0.277511  0.819127  0.031417  1
  O  O47  1  0.512922  0.675188  0.782739  1
  O  O48  1  0.360029  0.460573  0.608970  1
  O  O49  1  0.012470  0.190991  0.358252  1
  O  O50  1  0.460573  0.360029  0.891030  1
  O  O51  1  0.324812  0.487078  0.282739  1
  O  O52  1  0.675188  0.512922  0.717261  1
  O  O53  1  0.539427  0.639971  0.108970  1
  O  O54  1  0.987530  0.809009  0.641748  1
  O  O55  1  0.639971  0.539427  0.391030  1
  O  O56  1  0.487078  0.324812  0.217261  1
  O  O57  1  0.722489  0.180873  0.968583  1
  O  O58  1  0.633645  0.198244  0.672287  1
  O  O59  1  0.190991  0.012470  0.141748  1
  O  O60  1  0.966958  0.493785  0.660203  1
  O  O61  1  0.819127  0.277511  0.468583  1
  O  O62  1  0.801756  0.366355  0.172287  1
  O  O63  1  0.506215  0.033042  0.160203  1
