# generated using pymatgen
data_LiFeP2O7
_symmetry_space_group_name_H-M   'P 1'
_cell_length_a   8.14329478
_cell_length_b   5.16133186
_cell_length_c   13.66739258
_cell_angle_alpha   90.00000000
_cell_angle_beta   110.02156524
_cell_angle_gamma   90.00000000
_symmetry_Int_Tables_number   1
_chemical_formula_structural   LiFeP2O7
_chemical_formula_sum   'Li4 Fe4 P8 O28'
_cell_volume   539.72669100
_cell_formula_units_Z   4
loop_
 _symmetry_equiv_pos_site_id
 _symmetry_equiv_pos_as_xyz
  1  'x, y, z'
loop_
 _atom_site_type_symbol
 _atom_site_label
 _atom_site_symmetry_multiplicity
 _atom_site_fract_x
 _atom_site_fract_y
 _atom_site_fract_z
 _atom_site_occupancy
  Li  Li0  1  0.428809  0.507194  0.174590  1
  Li  Li1  1  0.975200  0.922971  0.835959  1
  Li  Li2  1  0.975200  0.077029  0.335959  1
  Li  Li3  1  0.428809  0.492806  0.674590  1
  Fe  Fe4  1  0.728766  0.014805  0.633390  1
  Fe  Fe5  1  0.728766  0.985195  0.133390  1
  Fe  Fe6  1  0.269163  0.506562  0.855453  1
  Fe  Fe7  1  0.269163  0.493438  0.355453  1
  P  P8  1  0.820876  0.457381  0.799742  1
  P  P9  1  0.300635  0.014386  0.018958  1
  P  P10  1  0.696452  0.520890  0.480010  1
  P  P11  1  0.820876  0.542619  0.299742  1
  P  P12  1  0.177797  0.984846  0.696244  1
  P  P13  1  0.300635  0.985614  0.518958  1
  P  P14  1  0.696452  0.479110  0.980010  1
  P  P15  1  0.177797  0.015154  0.196244  1
  O  O16  1  0.155655  0.973090  0.075073  1
  O  O17  1  0.275707  0.272539  0.228615  1
  O  O18  1  0.280531  0.781235  0.256440  1
  O  O19  1  0.519736  0.443025  0.403051  1
  O  O20  1  0.306944  0.304891  0.996476  1
  O  O21  1  0.702216  0.805151  0.513002  1
  O  O22  1  0.470700  0.901297  0.095354  1
  O  O23  1  0.768784  0.340029  0.572870  1
  O  O24  1  0.010580  0.499946  0.808187  1
  O  O25  1  0.694551  0.346494  0.228699  1
  O  O26  1  0.992017  0.967650  0.698248  1
  O  O27  1  0.763600  0.826931  0.276358  1
  O  O28  1  0.834180  0.491019  0.419251  1
  O  O29  1  0.222444  0.856166  0.919003  1
  O  O30  1  0.768784  0.659971  0.072870  1
  O  O31  1  0.155655  0.026910  0.575073  1
  O  O32  1  0.275707  0.727461  0.728615  1
  O  O33  1  0.010580  0.500054  0.308187  1
  O  O34  1  0.280531  0.218765  0.756440  1
  O  O35  1  0.992017  0.032350  0.198248  1
  O  O36  1  0.222444  0.143834  0.419003  1
  O  O37  1  0.519736  0.556975  0.903051  1
  O  O38  1  0.306944  0.695109  0.496476  1
  O  O39  1  0.702216  0.194849  0.013002  1
  O  O40  1  0.470700  0.098703  0.595354  1
  O  O41  1  0.694551  0.653506  0.728699  1
  O  O42  1  0.763600  0.173069  0.776358  1
  O  O43  1  0.834180  0.508981  0.919251  1
