# generated using pymatgen
data_Li2Nb6NiO18
_symmetry_space_group_name_H-M   'P 1'
_cell_length_a   7.67183064
_cell_length_b   8.96978465
_cell_length_c   11.15711878
_cell_angle_alpha   105.55483187
_cell_angle_beta   96.14544752
_cell_angle_gamma   112.94822422
_symmetry_Int_Tables_number   1
_chemical_formula_structural   Li2Nb6NiO18
_chemical_formula_sum   'Li4 Nb12 Ni2 O36'
_cell_volume   661.45471328
_cell_formula_units_Z   2
loop_
 _symmetry_equiv_pos_site_id
 _symmetry_equiv_pos_as_xyz
  1  'x, y, z'
loop_
 _atom_site_type_symbol
 _atom_site_label
 _atom_site_symmetry_multiplicity
 _atom_site_fract_x
 _atom_site_fract_y
 _atom_site_fract_z
 _atom_site_occupancy
  Li  Li0  1  0.551755  0.664244  0.947678  1
  Li  Li1  1  0.875561  0.325319  0.613365  1
  Li  Li2  1  0.544080  0.667885  0.447708  1
  Li  Li3  1  0.889349  0.339871  0.121693  1
  Nb  Nb4  1  0.508563  0.985970  0.993024  1
  Nb  Nb5  1  0.176958  0.345917  0.826115  1
  Nb  Nb6  1  0.666575  0.331050  0.844437  1
  Nb  Nb7  1  0.321208  0.659292  0.658135  1
  Nb  Nb8  1  0.820246  0.656705  0.658125  1
  Nb  Nb9  1  0.493962  0.002959  0.501993  1
  Nb  Nb10  1  0.160279  0.331153  0.330334  1
  Nb  Nb11  1  0.030249  0.012257  0.504962  1
  Nb  Nb12  1  0.655399  0.342495  0.319437  1
  Nb  Nb13  1  0.326224  0.647418  0.158261  1
  Nb  Nb14  1  0.851944  0.681278  0.173801  1
  Nb  Nb15  1  0.996103  0.998699  0.003808  1
  Ni  Ni16  1  0.198075  0.001090  0.805760  1
  Ni  Ni17  1  0.698016  0.999660  0.304327  1
  O  O18  1  0.690842  0.212253  0.955447  1
  O  O19  1  0.047959  0.115197  0.851462  1
  O  O20  1  0.709438  0.538114  0.966976  1
  O  O21  1  0.715028  0.906609  0.951593  1
  O  O22  1  0.376345  0.218415  0.796366  1
  O  O23  1  0.962720  0.388618  0.839699  1
  O  O24  1  0.355131  0.543738  0.778204  1
  O  O25  1  0.003850  0.818044  0.830005  1
  O  O26  1  0.644165  0.145590  0.663735  1
  O  O27  1  0.059666  0.216653  0.628949  1
  O  O28  1  0.369481  0.886760  0.792157  1
  O  O29  1  0.709947  0.469658  0.710277  1
  O  O30  1  0.053268  0.574317  0.627494  1
  O  O31  1  0.296911  0.084223  0.492788  1
  O  O32  1  0.629601  0.735072  0.661964  1
  O  O33  1  0.042652  0.896519  0.627675  1
  O  O34  1  0.299130  0.464773  0.502181  1
  O  O35  1  0.692708  0.189584  0.424781  1
  O  O36  1  0.368968  0.793731  0.527820  1
  O  O37  1  0.980360  0.110006  0.349784  1
  O  O38  1  0.726882  0.543509  0.465043  1
  O  O39  1  0.724410  0.923986  0.444524  1
  O  O40  1  0.389377  0.256197  0.294922  1
  O  O41  1  0.965516  0.401951  0.322312  1
  O  O42  1  0.347279  0.539942  0.278578  1
  O  O43  1  0.968067  0.795296  0.345055  1
  O  O44  1  0.647253  0.110009  0.178458  1
  O  O45  1  0.433363  0.888435  0.291728  1
  O  O46  1  0.053754  0.210262  0.124271  1
  O  O47  1  0.697019  0.457043  0.191382  1
  O  O48  1  0.059634  0.589724  0.135831  1
  O  O49  1  0.296994  0.068859  0.981085  1
  O  O50  1  0.655552  0.778439  0.182381  1
  O  O51  1  0.009651  0.867348  0.104996  1
  O  O52  1  0.324352  0.477569  0.003622  1
  O  O53  1  0.366035  0.790289  0.025924  1
