# generated using pymatgen
data_Li5Co7O12
_symmetry_space_group_name_H-M   'P 1'
_cell_length_a   5.03246887
_cell_length_b   5.03246887
_cell_length_c   9.65268631
_cell_angle_alpha   85.24426901
_cell_angle_beta   94.75573099
_cell_angle_gamma   59.74229522
_symmetry_Int_Tables_number   1
_chemical_formula_structural   Li5Co7O12
_chemical_formula_sum   'Li5 Co7 O12'
_cell_volume   208.21172356
_cell_formula_units_Z   1
loop_
 _symmetry_equiv_pos_site_id
 _symmetry_equiv_pos_as_xyz
  1  'x, y, z'
loop_
 _atom_site_type_symbol
 _atom_site_label
 _atom_site_symmetry_multiplicity
 _atom_site_fract_x
 _atom_site_fract_y
 _atom_site_fract_z
 _atom_site_occupancy
  Li  Li0  1  0.336293  0.834149  0.759082  1
  Li  Li1  1  0.163585  0.668712  0.241184  1
  Li  Li2  1  0.834149  0.336293  0.240918  1
  Li  Li3  1  0.668712  0.163585  0.758816  1
  Li  Li4  1  0.082490  0.082490  0.000000  1
  Co  Co5  1  0.919011  0.919011  0.500000  1
  Co  Co6  1  0.485820  0.004039  0.241042  1
  Co  Co7  1  0.749319  0.749319  0.000000  1
  Co  Co8  1  0.004039  0.485820  0.758958  1
  Co  Co9  1  0.580403  0.580403  0.500000  1
  Co  Co10  1  0.417169  0.417169  0.000000  1
  Co  Co11  1  0.251331  0.251331  0.500000  1
  O  O12  1  0.758371  0.048648  0.116073  1
  O  O13  1  0.048648  0.758371  0.883927  1
  O  O14  1  0.609642  0.884906  0.614133  1
  O  O15  1  0.884906  0.609642  0.385867  1
  O  O16  1  0.476806  0.699927  0.116155  1
  O  O17  1  0.699927  0.476806  0.883845  1
  O  O18  1  0.294747  0.521850  0.616448  1
  O  O19  1  0.521850  0.294747  0.383552  1
  O  O20  1  0.126656  0.398014  0.112499  1
  O  O21  1  0.398014  0.126656  0.887501  1
  O  O22  1  0.968165  0.219947  0.618300  1
  O  O23  1  0.219947  0.968165  0.381700  1
