# generated using pymatgen
data_Gd2TiO5
_symmetry_space_group_name_H-M   'P 1'
_cell_length_a   6.91970044
_cell_length_b   7.14881570
_cell_length_c   9.57997677
_cell_angle_alpha   90.00000000
_cell_angle_beta   103.52557569
_cell_angle_gamma   90.00000000
_symmetry_Int_Tables_number   1
_chemical_formula_structural   Gd2TiO5
_chemical_formula_sum   'Gd8 Ti4 O20'
_cell_volume   460.75576611
_cell_formula_units_Z   4
loop_
 _symmetry_equiv_pos_site_id
 _symmetry_equiv_pos_as_xyz
  1  'x, y, z'
loop_
 _atom_site_type_symbol
 _atom_site_label
 _atom_site_symmetry_multiplicity
 _atom_site_fract_x
 _atom_site_fract_y
 _atom_site_fract_z
 _atom_site_occupancy
  Gd  Gd0  1  0.730284  0.873347  0.529217  1
  Gd  Gd1  1  0.230284  0.626653  0.529217  1
  Gd  Gd2  1  0.530287  0.860068  0.860618  1
  Gd  Gd3  1  0.030287  0.639932  0.860618  1
  Gd  Gd4  1  0.969713  0.360068  0.139382  1
  Gd  Gd5  1  0.469713  0.139932  0.139382  1
  Gd  Gd6  1  0.769716  0.373347  0.470783  1
  Gd  Gd7  1  0.269716  0.126653  0.470783  1
  Ti  Ti8  1  0.519996  0.405089  0.799143  1
  Ti  Ti9  1  0.019996  0.094911  0.799143  1
  Ti  Ti10  1  0.980004  0.905089  0.200857  1
  Ti  Ti11  1  0.480004  0.594911  0.200857  1
  O  O12  1  0.987000  0.138854  0.604059  1
  O  O13  1  0.928461  0.614286  0.609365  1
  O  O14  1  0.487000  0.361146  0.604059  1
  O  O15  1  0.428461  0.885714  0.609365  1
  O  O16  1  0.818325  0.918807  0.780829  1
  O  O17  1  0.988876  0.305329  0.896134  1
  O  O18  1  0.318325  0.581193  0.780829  1
  O  O19  1  0.710378  0.571320  0.884141  1
  O  O20  1  0.488876  0.194671  0.896134  1
  O  O21  1  0.210378  0.928680  0.884141  1
  O  O22  1  0.789622  0.071320  0.115859  1
  O  O23  1  0.511124  0.805329  0.103866  1
  O  O24  1  0.289622  0.428680  0.115859  1
  O  O25  1  0.681675  0.418807  0.219171  1
  O  O26  1  0.011124  0.694671  0.103866  1
  O  O27  1  0.181675  0.081193  0.219171  1
  O  O28  1  0.571539  0.114286  0.390635  1
  O  O29  1  0.513000  0.638854  0.395941  1
  O  O30  1  0.071539  0.385714  0.390635  1
  O  O31  1  0.013000  0.861146  0.395941  1
