# generated using pymatgen
data_LiMnVP2(HO5)2
_symmetry_space_group_name_H-M   'P 1'
_cell_length_a   6.79125285
_cell_length_b   7.36359035
_cell_length_c   8.13171635
_cell_angle_alpha   94.65035479
_cell_angle_beta   88.80623270
_cell_angle_gamma   116.93121332
_symmetry_Int_Tables_number   1
_chemical_formula_structural   LiMnVP2(HO5)2
_chemical_formula_sum   'Li2 Mn2 V2 P4 H4 O20'
_cell_volume   361.29872210
_cell_formula_units_Z   2
loop_
 _symmetry_equiv_pos_site_id
 _symmetry_equiv_pos_as_xyz
  1  'x, y, z'
loop_
 _atom_site_type_symbol
 _atom_site_label
 _atom_site_symmetry_multiplicity
 _atom_site_fract_x
 _atom_site_fract_y
 _atom_site_fract_z
 _atom_site_occupancy
  Li  Li0  1  0.244080  0.149362  0.314183  1
  Li  Li1  1  0.755920  0.850638  0.685817  1
  Mn  Mn2  1  0.000000  0.000000  0.000000  1
  Mn  Mn3  1  0.500000  0.000000  0.500000  1
  V  V4  1  0.500000  0.500000  0.000000  1
  V  V5  1  0.000000  0.500000  0.500000  1
  P  P6  1  0.713562  0.229877  0.160951  1
  P  P7  1  0.787523  0.772115  0.339355  1
  P  P8  1  0.212477  0.227885  0.660645  1
  P  P9  1  0.286438  0.770123  0.839049  1
  H  H10  1  0.134980  0.346662  0.147876  1
  H  H11  1  0.648015  0.336029  0.660797  1
  H  H12  1  0.351985  0.663971  0.339203  1
  H  H13  1  0.865020  0.653338  0.852124  1
  O  O14  1  0.661422  0.354185  0.035256  1
  O  O15  1  0.988840  0.885048  0.235274  1
  O  O16  1  0.514053  0.128838  0.269793  1
  O  O17  1  0.765383  0.068949  0.062845  1
  O  O18  1  0.266414  0.071808  0.551760  1
  O  O19  1  0.924925  0.379786  0.265187  1
  O  O20  1  0.833558  0.653724  0.472750  1
  O  O21  1  0.422619  0.374249  0.765649  1
  O  O22  1  0.227562  0.282039  0.100131  1
  O  O23  1  0.728601  0.281801  0.584224  1
  O  O24  1  0.271399  0.718199  0.415776  1
  O  O25  1  0.772438  0.717961  0.899869  1
  O  O26  1  0.577381  0.625751  0.234351  1
  O  O27  1  0.166442  0.346276  0.527250  1
  O  O28  1  0.075075  0.620214  0.734813  1
  O  O29  1  0.733586  0.928192  0.448240  1
  O  O30  1  0.234617  0.931051  0.937155  1
  O  O31  1  0.485947  0.871162  0.730207  1
  O  O32  1  0.011160  0.114952  0.764726  1
  O  O33  1  0.338578  0.645815  0.964744  1
