# generated using pymatgen
data_Nb9AsO25
_symmetry_space_group_name_H-M   'P 1'
_cell_length_a   15.96847233
_cell_length_b   15.96847233
_cell_length_c   3.89214738
_cell_angle_alpha   90.00000000
_cell_angle_beta   90.00000000
_cell_angle_gamma   90.00000000
_symmetry_Int_Tables_number   1
_chemical_formula_structural   Nb9AsO25
_chemical_formula_sum   'Nb18 As2 O50'
_cell_volume   992.46686723
_cell_formula_units_Z   2
loop_
 _symmetry_equiv_pos_site_id
 _symmetry_equiv_pos_as_xyz
  1  'x, y, z'
loop_
 _atom_site_type_symbol
 _atom_site_label
 _atom_site_symmetry_multiplicity
 _atom_site_fract_x
 _atom_site_fract_y
 _atom_site_fract_z
 _atom_site_occupancy
  Nb  Nb0  1  0.781242  0.607029  0.750654  1
  Nb  Nb1  1  0.326976  0.615769  0.743194  1
  Nb  Nb2  1  0.615769  0.673024  0.256806  1
  Nb  Nb3  1  0.107029  0.718758  0.750654  1
  Nb  Nb4  1  0.392971  0.781242  0.249346  1
  Nb  Nb5  1  0.884231  0.826976  0.743194  1
  Nb  Nb6  1  0.173024  0.884231  0.256806  1
  Nb  Nb7  1  0.718758  0.892971  0.249346  1
  Nb  Nb8  1  0.500000  0.000000  0.288421  1
  Nb  Nb9  1  0.281242  0.107029  0.249346  1
  Nb  Nb10  1  0.826976  0.115769  0.256806  1
  Nb  Nb11  1  0.115769  0.173024  0.743194  1
  Nb  Nb12  1  0.607029  0.218758  0.249346  1
  Nb  Nb13  1  0.892971  0.281242  0.750654  1
  Nb  Nb14  1  0.384231  0.326976  0.256806  1
  Nb  Nb15  1  0.673024  0.384231  0.743194  1
  Nb  Nb16  1  0.218758  0.392971  0.750654  1
  Nb  Nb17  1  0.000000  0.500000  0.711579  1
  As  As18  1  0.000000  0.000000  0.000000  1
  As  As19  1  0.500000  0.500000  0.000000  1
  O  O20  1  0.281392  0.511625  0.750290  1
  O  O21  1  0.574897  0.550877  0.237820  1
  O  O22  1  0.883351  0.550618  0.747245  1
  O  O23  1  0.449123  0.574897  0.762180  1
  O  O24  1  0.748818  0.612200  0.250078  1
  O  O25  1  0.050618  0.616649  0.747245  1
  O  O26  1  0.342586  0.646734  0.252958  1
  O  O27  1  0.646734  0.657414  0.747042  1
  O  O28  1  0.217425  0.675174  0.753622  1
  O  O29  1  0.824826  0.717425  0.753622  1
  O  O30  1  0.511625  0.718608  0.249710  1
  O  O31  1  0.387800  0.748818  0.749922  1
  O  O32  1  0.112200  0.751182  0.250078  1
  O  O33  1  0.988375  0.781392  0.750290  1
  O  O34  1  0.675174  0.782575  0.246378  1
  O  O35  1  0.282575  0.824826  0.246378  1
  O  O36  1  0.853266  0.842586  0.252958  1
  O  O37  1  0.157414  0.853266  0.747042  1
  O  O38  1  0.449382  0.883351  0.252755  1
  O  O39  1  0.751182  0.887800  0.749922  1
  O  O40  1  0.050877  0.925103  0.237820  1
  O  O41  1  0.616649  0.949382  0.252755  1
  O  O42  1  0.925103  0.949123  0.762180  1
  O  O43  1  0.218608  0.988375  0.249710  1
  O  O44  1  0.500000  0.000000  0.758438  1
  O  O45  1  0.781392  0.011625  0.249710  1
  O  O46  1  0.074897  0.050877  0.762180  1
  O  O47  1  0.383351  0.050618  0.252755  1
  O  O48  1  0.949123  0.074897  0.237820  1
  O  O49  1  0.248818  0.112200  0.749922  1
  O  O50  1  0.550618  0.116649  0.252755  1
  O  O51  1  0.842586  0.146734  0.747042  1
  O  O52  1  0.146734  0.157414  0.252958  1
  O  O53  1  0.717425  0.175174  0.246378  1
  O  O54  1  0.324826  0.217425  0.246378  1
  O  O55  1  0.011625  0.218608  0.750290  1
  O  O56  1  0.887800  0.248818  0.250078  1
  O  O57  1  0.612200  0.251182  0.749922  1
  O  O58  1  0.488375  0.281392  0.249710  1
  O  O59  1  0.175174  0.282575  0.753622  1
  O  O60  1  0.782575  0.324826  0.753622  1
  O  O61  1  0.353266  0.342586  0.747042  1
  O  O62  1  0.657414  0.353266  0.252958  1
  O  O63  1  0.949382  0.383351  0.747245  1
  O  O64  1  0.251182  0.387800  0.250078  1
  O  O65  1  0.550877  0.425103  0.762180  1
  O  O66  1  0.116649  0.449382  0.747245  1
  O  O67  1  0.425103  0.449123  0.237820  1
  O  O68  1  0.718608  0.488375  0.750290  1
  O  O69  1  0.000000  0.500000  0.241562  1
