# generated using pymatgen
data_Mn3CuNi2(PO4)6
_symmetry_space_group_name_H-M   'P 1'
_cell_length_a   8.43322445
_cell_length_b   8.43322445
_cell_length_c   8.43322445
_cell_angle_alpha   60.61911173
_cell_angle_beta   60.61911173
_cell_angle_gamma   60.61911173
_symmetry_Int_Tables_number   1
_chemical_formula_structural   Mn3CuNi2(PO4)6
_chemical_formula_sum   'Mn3 Cu1 Ni2 P6 O24'
_cell_volume   430.02704206
_cell_formula_units_Z   1
loop_
 _symmetry_equiv_pos_site_id
 _symmetry_equiv_pos_as_xyz
  1  'x, y, z'
loop_
 _atom_site_type_symbol
 _atom_site_label
 _atom_site_symmetry_multiplicity
 _atom_site_fract_x
 _atom_site_fract_y
 _atom_site_fract_z
 _atom_site_occupancy
  Mn  Mn0  1  0.858518  0.858518  0.858518  1
  Mn  Mn1  1  0.641957  0.641957  0.641957  1
  Mn  Mn2  1  0.358121  0.358121  0.358121  1
  Cu  Cu3  1  0.142998  0.142998  0.142998  1
  Ni  Ni4  1  0.001984  0.001984  0.001984  1
  Ni  Ni5  1  0.500193  0.500193  0.500193  1
  P  P6  1  0.958876  0.249479  0.541829  1
  P  P7  1  0.541829  0.958876  0.249479  1
  P  P8  1  0.249479  0.541829  0.958876  1
  P  P9  1  0.750121  0.459084  0.039342  1
  P  P10  1  0.459084  0.039342  0.750121  1
  P  P11  1  0.039342  0.750121  0.459084  1
  O  O12  1  0.877037  0.689899  0.495523  1
  O  O13  1  0.689899  0.495523  0.877037  1
  O  O14  1  0.943573  0.086259  0.742677  1
  O  O15  1  0.495523  0.877037  0.689899  1
  O  O16  1  0.980798  0.195371  0.384549  1
  O  O17  1  0.758335  0.417243  0.560000  1
  O  O18  1  0.742677  0.943573  0.086259  1
  O  O19  1  0.560000  0.758335  0.417243  1
  O  O20  1  0.804906  0.621369  0.009767  1
  O  O21  1  0.417243  0.560000  0.758335  1
  O  O22  1  0.910853  0.260846  0.052084  1
  O  O23  1  0.621369  0.009767  0.804906  1
  O  O24  1  0.384549  0.980798  0.195371  1
  O  O25  1  0.086259  0.742677  0.943573  1
  O  O26  1  0.582889  0.447646  0.238273  1
  O  O27  1  0.195371  0.384549  0.980798  1
  O  O28  1  0.447646  0.238273  0.582889  1
  O  O29  1  0.260846  0.052084  0.910853  1
  O  O30  1  0.238273  0.582889  0.447646  1
  O  O31  1  0.009767  0.804906  0.621369  1
  O  O32  1  0.510853  0.120966  0.305780  1
  O  O33  1  0.052084  0.910853  0.260846  1
  O  O34  1  0.305780  0.510853  0.120966  1
  O  O35  1  0.120966  0.305780  0.510853  1
