# generated using pymatgen
data_TiSb3(PO4)6
_symmetry_space_group_name_H-M   'P 1'
_cell_length_a   8.95649627
_cell_length_b   8.95649627
_cell_length_c   8.95649627
_cell_angle_alpha   58.25223964
_cell_angle_beta   58.25223964
_cell_angle_gamma   58.25223964
_symmetry_Int_Tables_number   1
_chemical_formula_structural   TiSb3(PO4)6
_chemical_formula_sum   'Ti1 Sb3 P6 O24'
_cell_volume   487.70153838
_cell_formula_units_Z   1
loop_
 _symmetry_equiv_pos_site_id
 _symmetry_equiv_pos_as_xyz
  1  'x, y, z'
loop_
 _atom_site_type_symbol
 _atom_site_label
 _atom_site_symmetry_multiplicity
 _atom_site_fract_x
 _atom_site_fract_y
 _atom_site_fract_z
 _atom_site_occupancy
  Ti  Ti0  1  0.140757  0.140757  0.140757  1
  Sb  Sb1  1  0.857073  0.857073  0.857073  1
  Sb  Sb2  1  0.642734  0.642734  0.642734  1
  Sb  Sb3  1  0.355636  0.355636  0.355636  1
  P  P4  1  0.249985  0.533884  0.961947  1
  P  P5  1  0.961947  0.249985  0.533884  1
  P  P6  1  0.533884  0.961947  0.249985  1
  P  P7  1  0.459883  0.038607  0.751648  1
  P  P8  1  0.038607  0.751648  0.459883  1
  P  P9  1  0.751648  0.459883  0.038607  1
  O  O10  1  0.725334  0.485305  0.866609  1
  O  O11  1  0.485305  0.866609  0.725334  1
  O  O12  1  0.081138  0.718097  0.936400  1
  O  O13  1  0.866609  0.725334  0.485305  1
  O  O14  1  0.424687  0.557408  0.780929  1
  O  O15  1  0.219007  0.364800  0.997720  1
  O  O16  1  0.936400  0.081138  0.718097  1
  O  O17  1  0.780929  0.424687  0.557408  1
  O  O18  1  0.557408  0.780929  0.424687  1
  O  O19  1  0.632996  0.014067  0.772317  1
  O  O20  1  0.285834  0.063502  0.924498  1
  O  O21  1  0.014067  0.772317  0.632996  1
  O  O22  1  0.997720  0.219007  0.364800  1
  O  O23  1  0.718097  0.936400  0.081138  1
  O  O24  1  0.364800  0.997720  0.219007  1
  O  O25  1  0.439198  0.216892  0.577862  1
  O  O26  1  0.216892  0.577862  0.439198  1
  O  O27  1  0.063502  0.924498  0.285834  1
  O  O28  1  0.772317  0.632996  0.014067  1
  O  O29  1  0.577862  0.439198  0.216892  1
  O  O30  1  0.127337  0.277402  0.518506  1
  O  O31  1  0.924498  0.285834  0.063502  1
  O  O32  1  0.518506  0.127337  0.277402  1
  O  O33  1  0.277402  0.518506  0.127337  1
