# generated using pymatgen
data_Mn5O8
_symmetry_space_group_name_H-M   'P 1'
_cell_length_a   6.18769476
_cell_length_b   6.18769476
_cell_length_c   6.18769476
_cell_angle_alpha   57.96057740
_cell_angle_beta   57.96057740
_cell_angle_gamma   57.96057740
_symmetry_Int_Tables_number   1
_chemical_formula_structural   Mn5O8
_chemical_formula_sum   'Mn5 O8'
_cell_volume   159.68324527
_cell_formula_units_Z   1
loop_
 _symmetry_equiv_pos_site_id
 _symmetry_equiv_pos_as_xyz
  1  'x, y, z'
loop_
 _atom_site_type_symbol
 _atom_site_label
 _atom_site_symmetry_multiplicity
 _atom_site_fract_x
 _atom_site_fract_y
 _atom_site_fract_z
 _atom_site_occupancy
  Mn  Mn0  1  0.500000  0.500000  0.500000  1
  Mn  Mn1  1  0.000000  0.000000  0.000000  1
  Mn  Mn2  1  0.500000  0.000000  0.500000  1
  Mn  Mn3  1  0.000000  0.500000  0.500000  1
  Mn  Mn4  1  0.500000  0.500000  0.000000  1
  O  O5  1  0.730562  0.730562  0.730562  1
  O  O6  1  0.247887  0.706120  0.247887  1
  O  O7  1  0.706120  0.247887  0.247887  1
  O  O8  1  0.247887  0.247887  0.706120  1
  O  O9  1  0.752113  0.752113  0.293880  1
  O  O10  1  0.293880  0.752113  0.752113  1
  O  O11  1  0.752113  0.293880  0.752113  1
  O  O12  1  0.269438  0.269438  0.269438  1
