# generated using pymatgen
data_Cs6Co2O7
_symmetry_space_group_name_H-M   'P 1'
_cell_length_a   7.34690746
_cell_length_b   9.86186000
_cell_length_c   12.35722198
_cell_angle_alpha   90.00000000
_cell_angle_beta   125.78343266
_cell_angle_gamma   90.00000000
_symmetry_Int_Tables_number   1
_chemical_formula_structural   Cs6Co2O7
_chemical_formula_sum   'Cs12 Co4 O14'
_cell_volume   726.32304114
_cell_formula_units_Z   2
loop_
 _symmetry_equiv_pos_site_id
 _symmetry_equiv_pos_as_xyz
  1  'x, y, z'
loop_
 _atom_site_type_symbol
 _atom_site_label
 _atom_site_symmetry_multiplicity
 _atom_site_fract_x
 _atom_site_fract_y
 _atom_site_fract_z
 _atom_site_occupancy
  Cs  Cs0  1  0.089453  0.290920  0.716803  1
  Cs  Cs1  1  0.549963  0.856976  0.915975  1
  Cs  Cs2  1  0.299924  0.969818  0.551223  1
  Cs  Cs3  1  0.700076  0.469818  0.948777  1
  Cs  Cs4  1  0.089453  0.209080  0.216803  1
  Cs  Cs5  1  0.450037  0.356976  0.584025  1
  Cs  Cs6  1  0.549963  0.643024  0.415975  1
  Cs  Cs7  1  0.910547  0.790920  0.783197  1
  Cs  Cs8  1  0.299924  0.530182  0.051223  1
  Cs  Cs9  1  0.700076  0.030182  0.448777  1
  Cs  Cs10  1  0.450037  0.143024  0.084025  1
  Cs  Cs11  1  0.910547  0.709080  0.283197  1
  Co  Co12  1  0.173012  0.636683  0.628037  1
  Co  Co13  1  0.826988  0.136683  0.871963  1
  Co  Co14  1  0.173012  0.863317  0.128037  1
  Co  Co15  1  0.826988  0.363317  0.371963  1
  O  O16  1  0.997209  0.287797  0.927347  1
  O  O17  1  0.241202  0.588555  0.788358  1
  O  O18  1  0.000000  0.500000  0.500000  1
  O  O19  1  0.997209  0.212203  0.427347  1
  O  O20  1  0.574673  0.165562  0.862125  1
  O  O21  1  0.425327  0.665562  0.637875  1
  O  O22  1  0.241202  0.911445  0.288358  1
  O  O23  1  0.000000  0.000000  0.000000  1
  O  O24  1  0.758798  0.088555  0.711642  1
  O  O25  1  0.574673  0.334438  0.362125  1
  O  O26  1  0.425327  0.834438  0.137875  1
  O  O27  1  0.002791  0.787797  0.572653  1
  O  O28  1  0.758798  0.411445  0.211642  1
  O  O29  1  0.002791  0.712203  0.072653  1
