# generated using pymatgen
data_LiMn16O32
_symmetry_space_group_name_H-M   'P 1'
_cell_length_a   5.88925771
_cell_length_b   5.88925771
_cell_length_c   19.18085669
_cell_angle_alpha   82.67817827
_cell_angle_beta   97.32182173
_cell_angle_gamma   121.14857444
_symmetry_Int_Tables_number   1
_chemical_formula_structural   LiMn16O32
_chemical_formula_sum   'Li1 Mn16 O32'
_cell_volume   563.21815109
_cell_formula_units_Z   1
loop_
 _symmetry_equiv_pos_site_id
 _symmetry_equiv_pos_as_xyz
  1  'x, y, z'
loop_
 _atom_site_type_symbol
 _atom_site_label
 _atom_site_symmetry_multiplicity
 _atom_site_fract_x
 _atom_site_fract_y
 _atom_site_fract_z
 _atom_site_occupancy
  Li  Li0  1  0.154470  0.845530  0.972861  1
  Mn  Mn1  1  0.495510  0.504490  0.005152  1
  Mn  Mn2  1  0.870493  0.623990  0.123880  1
  Mn  Mn3  1  0.376010  0.129507  0.123880  1
  Mn  Mn4  1  0.620186  0.872404  0.377015  1
  Mn  Mn5  1  0.241065  0.758935  0.255261  1
  Mn  Mn6  1  0.127596  0.379814  0.377015  1
  Mn  Mn7  1  0.877455  0.122545  0.622669  1
  Mn  Mn8  1  0.625704  0.374296  0.376513  1
  Mn  Mn9  1  0.011804  0.988196  0.495279  1
  Mn  Mn10  1  0.376475  0.123222  0.623766  1
  Mn  Mn11  1  0.893780  0.106220  0.219103  1
  Mn  Mn12  1  0.876778  0.623525  0.623766  1
  Mn  Mn13  1  0.623987  0.376013  0.874389  1
  Mn  Mn14  1  0.750271  0.249729  0.748565  1
  Mn  Mn15  1  0.123860  0.374904  0.874449  1
  Mn  Mn16  1  0.625096  0.876140  0.874449  1
  O  O17  1  0.700811  0.775756  0.061443  1
  O  O18  1  0.570668  0.429332  0.176583  1
  O  O19  1  0.224244  0.299189  0.061443  1
  O  O20  1  0.667029  0.332971  0.063533  1
  O  O21  1  0.456967  0.044643  0.320622  1
  O  O22  1  0.071894  0.928106  0.186129  1
  O  O23  1  0.522163  0.942291  0.189200  1
  O  O24  1  0.323993  0.676007  0.430166  1
  O  O25  1  0.179230  0.820770  0.073411  1
  O  O26  1  0.955357  0.543033  0.320622  1
  O  O27  1  0.057709  0.477837  0.189200  1
  O  O28  1  0.422801  0.577199  0.317683  1
  O  O29  1  0.176291  0.264525  0.565262  1
  O  O30  1  0.829651  0.170349  0.434728  1
  O  O31  1  0.932219  0.067781  0.320164  1
  O  O32  1  0.292499  0.205441  0.431872  1
  O  O33  1  0.735475  0.823709  0.565262  1
  O  O34  1  0.056425  0.943575  0.674955  1
  O  O35  1  0.794559  0.707501  0.431872  1
  O  O36  1  0.172443  0.827557  0.564015  1
  O  O37  1  0.584290  0.415710  0.684514  1
  O  O38  1  0.925155  0.521333  0.816772  1
  O  O39  1  0.021191  0.422318  0.682030  1
  O  O40  1  0.696103  0.303897  0.572427  1
  O  O41  1  0.804424  0.195576  0.925747  1
  O  O42  1  0.478667  0.074845  0.816772  1
  O  O43  1  0.916900  0.083100  0.814498  1
  O  O44  1  0.577682  0.978809  0.682030  1
  O  O45  1  0.328870  0.671130  0.935142  1
  O  O46  1  0.443839  0.556161  0.823563  1
  O  O47  1  0.774535  0.677123  0.931414  1
  O  O48  1  0.322877  0.225465  0.931414  1
