# generated using pymatgen
data_LiFePH2O5
_symmetry_space_group_name_H-M   'P 1'
_cell_length_a   5.08747097
_cell_length_b   10.30561681
_cell_length_c   16.89628816
_cell_angle_alpha   90.00000000
_cell_angle_beta   90.00000000
_cell_angle_gamma   90.00000000
_symmetry_Int_Tables_number   1
_chemical_formula_structural   LiFePH2O5
_chemical_formula_sum   'Li8 Fe8 P8 H16 O40'
_cell_volume   885.86438528
_cell_formula_units_Z   8
loop_
 _symmetry_equiv_pos_site_id
 _symmetry_equiv_pos_as_xyz
  1  'x, y, z'
loop_
 _atom_site_type_symbol
 _atom_site_label
 _atom_site_symmetry_multiplicity
 _atom_site_fract_x
 _atom_site_fract_y
 _atom_site_fract_z
 _atom_site_occupancy
  Li  Li0  1  0.470668  0.175585  0.495932  1
  Li  Li1  1  0.529332  0.175585  0.995932  1
  Li  Li2  1  0.911725  0.395695  0.247294  1
  Li  Li3  1  0.088275  0.395695  0.747294  1
  Li  Li4  1  0.470668  0.675585  0.004068  1
  Li  Li5  1  0.529332  0.675585  0.504068  1
  Li  Li6  1  0.088275  0.895695  0.752706  1
  Li  Li7  1  0.911725  0.895695  0.252706  1
  Fe  Fe8  1  0.457358  0.147054  0.688950  1
  Fe  Fe9  1  0.542642  0.147054  0.188950  1
  Fe  Fe10  1  0.113856  0.421511  0.942201  1
  Fe  Fe11  1  0.886144  0.421511  0.442201  1
  Fe  Fe12  1  0.542642  0.647054  0.311050  1
  Fe  Fe13  1  0.457358  0.647054  0.811050  1
  Fe  Fe14  1  0.113856  0.921511  0.557799  1
  Fe  Fe15  1  0.886144  0.921511  0.057799  1
  P  P16  1  0.014784  0.227606  0.091829  1
  P  P17  1  0.985216  0.227606  0.591829  1
  P  P18  1  0.410641  0.345028  0.340983  1
  P  P19  1  0.589359  0.345028  0.840983  1
  P  P20  1  0.014784  0.727606  0.408171  1
  P  P21  1  0.985216  0.727606  0.908171  1
  P  P22  1  0.589359  0.845028  0.659017  1
  P  P23  1  0.410641  0.845028  0.159017  1
  H  H24  1  0.091591  0.003124  0.371611  1
  H  H25  1  0.908409  0.003124  0.871611  1
  H  H26  1  0.636086  0.052057  0.380610  1
  H  H27  1  0.363914  0.052057  0.880610  1
  H  H28  1  0.134439  0.110719  0.307962  1
  H  H29  1  0.865561  0.110719  0.807962  1
  H  H30  1  0.623949  0.448598  0.053419  1
  H  H31  1  0.376051  0.448598  0.553419  1
  H  H32  1  0.091591  0.503124  0.128389  1
  H  H33  1  0.908409  0.503124  0.628389  1
  H  H34  1  0.363914  0.552057  0.619390  1
  H  H35  1  0.636086  0.552057  0.119390  1
  H  H36  1  0.865561  0.610719  0.692038  1
  H  H37  1  0.134439  0.610719  0.192038  1
  H  H38  1  0.623949  0.948598  0.446581  1
  H  H39  1  0.376051  0.948598  0.946581  1
  O  O40  1  0.529377  0.024908  0.426194  1
  O  O41  1  0.470623  0.024908  0.926194  1
  O  O42  1  0.013204  0.039623  0.323443  1
  O  O43  1  0.986796  0.039623  0.823443  1
  O  O44  1  0.860318  0.117795  0.047966  1
  O  O45  1  0.139682  0.117795  0.547966  1
  O  O46  1  0.312242  0.194117  0.094438  1
  O  O47  1  0.687758  0.194117  0.594438  1
  O  O48  1  0.578471  0.216679  0.794269  1
  O  O49  1  0.421529  0.216679  0.294269  1
  O  O50  1  0.897713  0.241518  0.176640  1
  O  O51  1  0.102287  0.241518  0.676640  1
  O  O52  1  0.465831  0.326034  0.924969  1
  O  O53  1  0.534169  0.326034  0.424969  1
  O  O54  1  0.969915  0.356096  0.046293  1
  O  O55  1  0.030085  0.356096  0.546293  1
  O  O56  1  0.120374  0.389334  0.347094  1
  O  O57  1  0.879626  0.389334  0.847094  1
  O  O58  1  0.575459  0.451330  0.297311  1
  O  O59  1  0.424541  0.451330  0.797311  1
  O  O60  1  0.470623  0.524908  0.573806  1
  O  O61  1  0.529377  0.524908  0.073806  1
  O  O62  1  0.986796  0.539623  0.676557  1
  O  O63  1  0.013204  0.539623  0.176557  1
  O  O64  1  0.139682  0.617795  0.952034  1
  O  O65  1  0.860318  0.617795  0.452034  1
  O  O66  1  0.687758  0.694117  0.905562  1
  O  O67  1  0.312242  0.694117  0.405562  1
  O  O68  1  0.421529  0.716679  0.205731  1
  O  O69  1  0.578471  0.716679  0.705731  1
  O  O70  1  0.102287  0.741518  0.823360  1
  O  O71  1  0.897713  0.741518  0.323360  1
  O  O72  1  0.465831  0.826034  0.575031  1
  O  O73  1  0.534169  0.826034  0.075031  1
  O  O74  1  0.969915  0.856096  0.453707  1
  O  O75  1  0.030085  0.856096  0.953707  1
  O  O76  1  0.879626  0.889334  0.652906  1
  O  O77  1  0.120374  0.889334  0.152906  1
  O  O78  1  0.424541  0.951330  0.702689  1
  O  O79  1  0.575459  0.951330  0.202689  1
