# generated using pymatgen
data_CdP4O11
_symmetry_space_group_name_H-M   'P 1'
_cell_length_a   9.55315057
_cell_length_b   9.57595047
_cell_length_c   11.04132974
_cell_angle_alpha   108.85029721
_cell_angle_beta   108.76675156
_cell_angle_gamma   90.11256659
_symmetry_Int_Tables_number   1
_chemical_formula_structural   CdP4O11
_chemical_formula_sum   'Cd4 P16 O44'
_cell_volume   898.72913931
_cell_formula_units_Z   4
loop_
 _symmetry_equiv_pos_site_id
 _symmetry_equiv_pos_as_xyz
  1  'x, y, z'
loop_
 _atom_site_type_symbol
 _atom_site_label
 _atom_site_symmetry_multiplicity
 _atom_site_fract_x
 _atom_site_fract_y
 _atom_site_fract_z
 _atom_site_occupancy
  Cd  Cd0  1  0.739103  0.741410  0.979358  1
  Cd  Cd1  1  0.226470  0.764235  0.487704  1
  Cd  Cd2  1  0.773530  0.235765  0.512296  1
  Cd  Cd3  1  0.260897  0.258590  0.020642  1
  P  P4  1  0.891729  0.586617  0.229418  1
  P  P5  1  0.768675  0.915255  0.606736  1
  P  P6  1  0.426796  0.743543  0.078804  1
  P  P7  1  0.897503  0.267913  0.088226  1
  P  P8  1  0.744107  0.586179  0.438338  1
  P  P9  1  0.559052  0.933792  0.762695  1
  P  P10  1  0.420739  0.590784  0.277439  1
  P  P11  1  0.915835  0.063427  0.252751  1
  P  P12  1  0.084165  0.936573  0.747249  1
  P  P13  1  0.579261  0.409216  0.722561  1
  P  P14  1  0.440948  0.066208  0.237305  1
  P  P15  1  0.255893  0.413821  0.561662  1
  P  P16  1  0.102497  0.732087  0.911774  1
  P  P17  1  0.573204  0.256457  0.921196  1
  P  P18  1  0.231325  0.084745  0.393264  1
  P  P19  1  0.108271  0.413383  0.770582  1
  O  O20  1  0.826755  0.915255  0.194606  1
  O  O21  1  0.776501  0.981808  0.504791  1
  O  O22  1  0.910002  0.956772  0.741559  1
  O  O23  1  0.777433  0.585794  0.100322  1
  O  O24  1  0.493934  0.901098  0.190118  1
  O  O25  1  0.820918  0.637598  0.351656  1
  O  O26  1  0.902543  0.409536  0.213566  1
  O  O27  1  0.635547  0.962916  0.657910  1
  O  O28  1  0.741856  0.737449  0.553864  1
  O  O29  1  0.974510  0.740771  0.958802  1
  O  O30  1  0.466210  0.632833  0.160214  1
  O  O31  1  0.250025  0.741961  0.037520  1
  O  O32  1  0.678046  0.913927  0.879816  1
  O  O33  1  0.813203  0.475064  0.497888  1
  O  O34  1  0.861712  0.136105  0.132351  1
  O  O35  1  0.576578  0.531173  0.346571  1
  O  O36  1  0.398966  0.729723  0.377580  1
  O  O37  1  0.925156  0.175768  0.386069  1
  O  O38  1  0.517048  0.291754  0.036465  1
  O  O39  1  0.957379  0.329571  0.716600  1
  O  O40  1  0.422848  0.825656  0.684026  1
  O  O41  1  0.692942  0.541464  0.788053  1
  O  O42  1  0.307058  0.458536  0.211947  1
  O  O43  1  0.577152  0.174344  0.315974  1
  O  O44  1  0.042621  0.670429  0.283400  1
  O  O45  1  0.482952  0.708246  0.963535  1
  O  O46  1  0.074844  0.824232  0.613931  1
  O  O47  1  0.601034  0.270277  0.622420  1
  O  O48  1  0.423422  0.468827  0.653429  1
  O  O49  1  0.138288  0.863895  0.867649  1
  O  O50  1  0.186797  0.524936  0.502112  1
  O  O51  1  0.321954  0.086073  0.120184  1
  O  O52  1  0.749975  0.258039  0.962480  1
  O  O53  1  0.533790  0.367167  0.839786  1
  O  O54  1  0.025490  0.259229  0.041198  1
  O  O55  1  0.258144  0.262551  0.446136  1
  O  O56  1  0.364453  0.037084  0.342090  1
  O  O57  1  0.097457  0.590464  0.786434  1
  O  O58  1  0.179082  0.362402  0.648344  1
  O  O59  1  0.506066  0.098902  0.809882  1
  O  O60  1  0.222567  0.414206  0.899678  1
  O  O61  1  0.089998  0.043228  0.258441  1
  O  O62  1  0.223499  0.018192  0.495209  1
  O  O63  1  0.173245  0.084745  0.805394  1
