# generated using pymatgen
data_Li4Ti3Co3(SnO8)2
_symmetry_space_group_name_H-M   'P 1'
_cell_length_a   5.84875106
_cell_length_b   5.84875106
_cell_length_c   9.75275494
_cell_angle_alpha   89.90703370
_cell_angle_beta   90.09296630
_cell_angle_gamma   119.06983964
_symmetry_Int_Tables_number   1
_chemical_formula_structural   Li4Ti3Co3(SnO8)2
_chemical_formula_sum   'Li4 Ti3 Co3 Sn2 O16'
_cell_volume   291.59375245
_cell_formula_units_Z   1
loop_
 _symmetry_equiv_pos_site_id
 _symmetry_equiv_pos_as_xyz
  1  'x, y, z'
loop_
 _atom_site_type_symbol
 _atom_site_label
 _atom_site_symmetry_multiplicity
 _atom_site_fract_x
 _atom_site_fract_y
 _atom_site_fract_z
 _atom_site_occupancy
  Li  Li0  1  0.668696  0.331304  0.890996  1
  Li  Li1  1  0.991062  0.008938  0.992697  1
  Li  Li2  1  0.996011  0.003989  0.492956  1
  Li  Li3  1  0.333439  0.666561  0.401190  1
  Ti  Ti4  1  0.169250  0.830750  0.714941  1
  Ti  Ti5  1  0.341172  0.166956  0.215612  1
  Ti  Ti6  1  0.833044  0.658828  0.215612  1
  Co  Co7  1  0.825508  0.174492  0.212042  1
  Co  Co8  1  0.169278  0.341502  0.714052  1
  Co  Co9  1  0.658498  0.830722  0.714052  1
  Sn  Sn10  1  0.667334  0.332666  0.496165  1
  Sn  Sn11  1  0.341612  0.658388  0.986175  1
  O  O12  1  0.317666  0.161310  0.603785  1
  O  O13  1  0.514582  0.485418  0.334226  1
  O  O14  1  0.659874  0.340126  0.104123  1
  O  O15  1  0.996892  0.003108  0.304889  1
  O  O16  1  0.996683  0.003317  0.806591  1
  O  O17  1  0.838690  0.682334  0.603785  1
  O  O18  1  0.495849  0.032896  0.347753  1
  O  O19  1  0.967104  0.504151  0.347753  1
  O  O20  1  0.166189  0.833811  0.102431  1
  O  O21  1  0.842102  0.157898  0.605738  1
  O  O22  1  0.035712  0.517136  0.835357  1
  O  O23  1  0.482864  0.964288  0.835357  1
  O  O24  1  0.333908  0.666092  0.609565  1
  O  O25  1  0.177067  0.323638  0.097990  1
  O  O26  1  0.484211  0.515789  0.825004  1
  O  O27  1  0.676362  0.822933  0.097990  1
