# generated using pymatgen
data_Li3V4O11F
_symmetry_space_group_name_H-M   'P 1'
_cell_length_a   4.98162172
_cell_length_b   5.08934334
_cell_length_c   9.04380736
_cell_angle_alpha   95.27117980
_cell_angle_beta   89.63485349
_cell_angle_gamma   110.68631512
_symmetry_Int_Tables_number   1
_chemical_formula_structural   Li3V4O11F
_chemical_formula_sum   'Li3 V4 O11 F1'
_cell_volume   213.51580079
_cell_formula_units_Z   1
loop_
 _symmetry_equiv_pos_site_id
 _symmetry_equiv_pos_as_xyz
  1  'x, y, z'
loop_
 _atom_site_type_symbol
 _atom_site_label
 _atom_site_symmetry_multiplicity
 _atom_site_fract_x
 _atom_site_fract_y
 _atom_site_fract_z
 _atom_site_occupancy
  Li  Li0  1  0.410156  0.836141  0.119309  1
  Li  Li1  1  0.101321  0.653317  0.393031  1
  Li  Li2  1  0.614373  0.171347  0.872058  1
  V  V3  1  0.490060  0.258697  0.384311  1
  V  V4  1  0.963007  0.750377  0.883143  1
  V  V5  1  0.070354  0.187975  0.138500  1
  V  V6  1  0.565752  0.755110  0.641731  1
  O  O7  1  0.477086  0.990893  0.491834  1
  O  O8  1  0.321008  0.497489  0.225965  1
  O  O9  1  0.997772  0.507728  0.988775  1
  O  O10  1  0.758484  0.920658  0.008365  1
  O  O11  1  0.845909  0.024826  0.716822  1
  O  O12  1  0.725121  0.585938  0.482781  1
  O  O13  1  0.271726  0.780969  0.750225  1
  O  O14  1  0.733718  0.234858  0.248992  1
  O  O15  1  0.142725  0.980701  0.268636  1
  O  O16  1  0.271495  0.094705  0.990909  1
  O  O17  1  0.654566  0.518818  0.769494  1
  F  F18  1  0.213298  0.394172  0.505035  1
