# generated using pymatgen
data_Li3Cr4(PO4)6
_symmetry_space_group_name_H-M   'P 1'
_cell_length_a   10.14327779
_cell_length_b   10.14327779
_cell_length_c   10.14327779
_cell_angle_alpha   109.88241014
_cell_angle_beta   109.41295425
_cell_angle_gamma   109.11921324
_symmetry_Int_Tables_number   1
_chemical_formula_structural   Li3Cr4(PO4)6
_chemical_formula_sum   'Li6 Cr8 P12 O48'
_cell_volume   803.32900162
_cell_formula_units_Z   2
loop_
 _symmetry_equiv_pos_site_id
 _symmetry_equiv_pos_as_xyz
  1  'x, y, z'
loop_
 _atom_site_type_symbol
 _atom_site_label
 _atom_site_symmetry_multiplicity
 _atom_site_fract_x
 _atom_site_fract_y
 _atom_site_fract_z
 _atom_site_occupancy
  Li  Li0  1  0.250000  0.127399  0.877399  1
  Li  Li1  1  0.250000  0.625253  0.375253  1
  Li  Li2  1  0.627980  0.250000  0.877980  1
  Li  Li3  1  0.750000  0.372601  0.622601  1
  Li  Li4  1  0.750000  0.874747  0.124747  1
  Li  Li5  1  0.872020  0.750000  0.622020  1
  Cr  Cr6  1  0.000870  0.001627  0.003356  1
  Cr  Cr7  1  0.001001  0.001413  0.498346  1
  Cr  Cr8  1  0.498999  0.997345  0.000412  1
  Cr  Cr9  1  0.498271  0.997514  0.496644  1
  Cr  Cr10  1  0.003067  0.502655  0.001654  1
  Cr  Cr11  1  0.001729  0.498373  0.499243  1
  Cr  Cr12  1  0.499130  0.502486  0.000757  1
  Cr  Cr13  1  0.496933  0.498587  0.499588  1
  P  P14  1  0.375637  0.125637  0.250000  1
  P  P15  1  0.750000  0.125867  0.375867  1
  P  P16  1  0.250000  0.374133  0.124133  1
  P  P17  1  0.375805  0.250000  0.625805  1
  P  P18  1  0.872252  0.250000  0.122252  1
  P  P19  1  0.124363  0.374363  0.750000  1
  P  P20  1  0.873519  0.623519  0.250000  1
  P  P21  1  0.124195  0.750000  0.874195  1
  P  P22  1  0.627748  0.750000  0.377748  1
  P  P23  1  0.750000  0.624692  0.874692  1
  P  P24  1  0.250000  0.875308  0.625308  1
  P  P25  1  0.626481  0.876481  0.750000  1
  O  O26  1  0.203496  0.108546  0.499582  1
  O  O27  1  0.406655  0.109867  0.107001  1
  O  O28  1  0.388926  0.006659  0.802011  1
  O  O29  1  0.201544  0.092712  0.202424  1
  O  O30  1  0.886543  0.085424  0.383573  1
  O  O31  1  0.904311  0.107596  0.110096  1
  O  O32  1  0.113102  0.197763  0.996872  1
  O  O33  1  0.298148  0.414576  0.301119  1
  O  O34  1  0.386898  0.383770  0.084661  1
  O  O35  1  0.413861  0.296391  0.803268  1
  O  O36  1  0.799109  0.302237  0.415339  1
  O  O37  1  0.609526  0.003617  0.704651  1
  O  O38  1  0.093345  0.200346  0.703212  1
  O  O39  1  0.696337  0.200696  0.083835  1
  O  O40  1  0.002499  0.392404  0.296715  1
  O  O41  1  0.883139  0.299304  0.995641  1
  O  O42  1  0.502866  0.299654  0.392999  1
  O  O43  1  0.700891  0.116230  0.503128  1
  O  O44  1  0.201852  0.502970  0.116427  1
  O  O45  1  0.391037  0.391454  0.594950  1
  O  O46  1  0.298456  0.500880  0.891168  1
  O  O47  1  0.997134  0.390133  0.796788  1
  O  O48  1  0.890474  0.595124  0.394090  1
  O  O49  1  0.506877  0.203609  0.617470  1
  O  O50  1  0.497501  0.794216  0.389904  1
  O  O51  1  0.109712  0.407288  0.608832  1
  O  O52  1  0.004067  0.611186  0.205865  1
  O  O53  1  0.701034  0.496383  0.105910  1
  O  O54  1  0.616861  0.612502  0.416165  1
  O  O55  1  0.795351  0.493341  0.882266  1
  O  O56  1  0.296591  0.883800  0.496463  1
  O  O57  1  0.495933  0.701797  0.607119  1
  O  O58  1  0.108963  0.703913  0.000418  1
  O  O59  1  0.993123  0.610594  0.696732  1
  O  O60  1  0.296504  0.796087  0.905050  1
  O  O61  1  0.905321  0.798203  0.294135  1
  O  O62  1  0.390288  0.999120  0.297576  1
  O  O63  1  0.203409  0.699872  0.587209  1
  O  O64  1  0.595689  0.705784  0.203285  1
  O  O65  1  0.612664  0.616200  0.912791  1
  O  O66  1  0.704649  0.586915  0.697989  1
  O  O67  1  0.887336  0.800128  0.003537  1
  O  O68  1  0.086139  0.889406  0.882530  1
  O  O69  1  0.111074  0.913085  0.617734  1
  O  O70  1  0.798966  0.904876  0.795349  1
  O  O71  1  0.613457  0.997030  0.198881  1
  O  O72  1  0.594679  0.888814  0.892881  1
  O  O73  1  0.803663  0.887498  0.504359  1
