# generated using pymatgen
data_Na3Mn2P2(CO7)2
_symmetry_space_group_name_H-M   'P 1'
_cell_length_a   8.97902213
_cell_length_b   6.58578714
_cell_length_c   10.38326276
_cell_angle_alpha   90.00000000
_cell_angle_beta   91.51183918
_cell_angle_gamma   90.00000000
_symmetry_Int_Tables_number   1
_chemical_formula_structural   Na3Mn2P2(CO7)2
_chemical_formula_sum   'Na6 Mn4 P4 C4 O28'
_cell_volume   613.78937970
_cell_formula_units_Z   2
loop_
 _symmetry_equiv_pos_site_id
 _symmetry_equiv_pos_as_xyz
  1  'x, y, z'
loop_
 _atom_site_type_symbol
 _atom_site_label
 _atom_site_symmetry_multiplicity
 _atom_site_fract_x
 _atom_site_fract_y
 _atom_site_fract_z
 _atom_site_occupancy
  Na  Na0  1  0.740451  0.474073  0.380898  1
  Na  Na1  1  0.741520  0.010927  0.873005  1
  Na  Na2  1  0.740511  0.492254  0.877539  1
  Na  Na3  1  0.258480  0.510927  0.126995  1
  Na  Na4  1  0.259489  0.992254  0.122461  1
  Na  Na5  1  0.259549  0.974073  0.619102  1
  Mn  Mn6  1  0.847631  0.756867  0.111501  1
  Mn  Mn7  1  0.846044  0.756606  0.604241  1
  Mn  Mn8  1  0.153956  0.256606  0.395759  1
  Mn  Mn9  1  0.152369  0.256867  0.888499  1
  P  P10  1  0.927625  0.253857  0.142887  1
  P  P11  1  0.925251  0.250395  0.642895  1
  P  P12  1  0.074749  0.750395  0.357105  1
  P  P13  1  0.072375  0.753857  0.857113  1
  C  C14  1  0.577559  0.750157  0.135335  1
  C  C15  1  0.576524  0.744553  0.633943  1
  C  C16  1  0.423476  0.244553  0.366057  1
  C  C17  1  0.422441  0.250157  0.864665  1
  O  O18  1  0.558865  0.245210  0.350099  1
  O  O19  1  0.560795  0.249967  0.856080  1
  O  O20  1  0.645780  0.756818  0.023792  1
  O  O21  1  0.642604  0.742937  0.522623  1
  O  O22  1  0.672967  0.744002  0.232426  1
  O  O23  1  0.678060  0.747627  0.730708  1
  O  O24  1  0.832558  0.067492  0.103944  1
  O  O25  1  0.831330  0.440927  0.105553  1
  O  O26  1  0.824372  0.063830  0.618852  1
  O  O27  1  0.830499  0.439172  0.607563  1
  O  O28  1  0.967210  0.259375  0.289699  1
  O  O29  1  0.927704  0.739284  0.429310  1
  O  O30  1  0.962597  0.257641  0.792680  1
  O  O31  1  0.922357  0.753928  0.929596  1
  O  O32  1  0.077643  0.253928  0.070404  1
  O  O33  1  0.037403  0.757641  0.207320  1
  O  O34  1  0.072296  0.239284  0.570690  1
  O  O35  1  0.032790  0.759375  0.710301  1
  O  O36  1  0.175628  0.563830  0.381148  1
  O  O37  1  0.169501  0.939172  0.392437  1
  O  O38  1  0.167442  0.567492  0.896056  1
  O  O39  1  0.168670  0.940927  0.894447  1
  O  O40  1  0.321940  0.247627  0.269292  1
  O  O41  1  0.327033  0.244002  0.767574  1
  O  O42  1  0.357396  0.242937  0.477377  1
  O  O43  1  0.354220  0.256818  0.976208  1
  O  O44  1  0.439205  0.749967  0.143920  1
  O  O45  1  0.441135  0.745210  0.649901  1
