# generated using pymatgen
data_BaSrI4
_symmetry_space_group_name_H-M   'P 1'
_cell_length_a   10.37657122
_cell_length_b   12.42391017
_cell_length_c   10.87722549
_cell_angle_alpha   90.00000000
_cell_angle_beta   120.38685613
_cell_angle_gamma   90.00000000
_symmetry_Int_Tables_number   1
_chemical_formula_structural   BaSrI4
_chemical_formula_sum   'Ba4 Sr4 I16'
_cell_volume   1209.63607098
_cell_formula_units_Z   4
loop_
 _symmetry_equiv_pos_site_id
 _symmetry_equiv_pos_as_xyz
  1  'x, y, z'
loop_
 _atom_site_type_symbol
 _atom_site_label
 _atom_site_symmetry_multiplicity
 _atom_site_fract_x
 _atom_site_fract_y
 _atom_site_fract_z
 _atom_site_occupancy
  Ba  Ba0  1  0.980679  0.442693  0.235810  1
  Ba  Ba1  1  0.019321  0.942693  0.264190  1
  Ba  Ba2  1  0.980679  0.057307  0.735810  1
  Ba  Ba3  1  0.019321  0.557307  0.764190  1
  Sr  Sr4  1  0.540960  0.817684  0.156440  1
  Sr  Sr5  1  0.459040  0.317684  0.343560  1
  Sr  Sr6  1  0.540960  0.682316  0.656440  1
  Sr  Sr7  1  0.459040  0.182316  0.843560  1
  I  I8  1  0.764348  0.501908  0.883904  1
  I  I9  1  0.665404  0.952816  0.963355  1
  I  I10  1  0.106406  0.196218  0.190081  1
  I  I11  1  0.643663  0.310183  0.158197  1
  I  I12  1  0.356337  0.810183  0.341803  1
  I  I13  1  0.893594  0.696218  0.309919  1
  I  I14  1  0.334596  0.452816  0.536645  1
  I  I15  1  0.235652  0.001908  0.616096  1
  I  I16  1  0.764348  0.998092  0.383904  1
  I  I17  1  0.665404  0.547184  0.463355  1
  I  I18  1  0.106406  0.303782  0.690081  1
  I  I19  1  0.643663  0.189817  0.658197  1
  I  I20  1  0.356337  0.689817  0.841803  1
  I  I21  1  0.893594  0.803782  0.809919  1
  I  I22  1  0.334596  0.047184  0.036645  1
  I  I23  1  0.235652  0.498092  0.116096  1
