# generated using pymatgen
data_LiFe4(BO3)4
_symmetry_space_group_name_H-M   'P 1'
_cell_length_a   5.33475856
_cell_length_b   9.02247455
_cell_length_c   10.10864926
_cell_angle_alpha   89.33359062
_cell_angle_beta   89.42262339
_cell_angle_gamma   89.63779936
_symmetry_Int_Tables_number   1
_chemical_formula_structural   LiFe4(BO3)4
_chemical_formula_sum   'Li2 Fe8 B8 O24'
_cell_volume   486.48983889
_cell_formula_units_Z   2
loop_
 _symmetry_equiv_pos_site_id
 _symmetry_equiv_pos_as_xyz
  1  'x, y, z'
loop_
 _atom_site_type_symbol
 _atom_site_label
 _atom_site_symmetry_multiplicity
 _atom_site_fract_x
 _atom_site_fract_y
 _atom_site_fract_z
 _atom_site_occupancy
  Li  Li0  1  0.353338  0.993520  0.101941  1
  Li  Li1  1  0.149197  0.489826  0.840737  1
  Fe  Fe2  1  0.844675  0.831503  0.123477  1
  Fe  Fe3  1  0.157782  0.834468  0.371437  1
  Fe  Fe4  1  0.659987  0.670384  0.875742  1
  Fe  Fe5  1  0.352645  0.669822  0.619105  1
  Fe  Fe6  1  0.660862  0.331570  0.367570  1
  Fe  Fe7  1  0.838969  0.168891  0.625955  1
  Fe  Fe8  1  0.336435  0.337824  0.120264  1
  Fe  Fe9  1  0.159279  0.151313  0.869681  1
  B  B10  1  0.838207  0.832677  0.623384  1
  B  B11  1  0.670363  0.668000  0.373974  1
  B  B12  1  0.173716  0.822308  0.877774  1
  B  B13  1  0.336749  0.667575  0.122369  1
  B  B14  1  0.660351  0.337952  0.871092  1
  B  B15  1  0.336459  0.328741  0.623041  1
  B  B16  1  0.829211  0.166909  0.122793  1
  B  B17  1  0.166414  0.172511  0.367011  1
  O  O18  1  0.742466  0.970507  0.625630  1
  O  O19  1  0.927512  0.802260  0.915646  1
  O  O20  1  0.294191  0.950531  0.899211  1
  O  O21  1  0.810421  0.789377  0.332966  1
  O  O22  1  0.699542  0.711286  0.672122  1
  O  O23  1  0.222543  0.796410  0.174340  1
  O  O24  1  0.078857  0.804275  0.572072  1
  O  O25  1  0.571464  0.687065  0.065446  1
  O  O26  1  0.756891  0.528675  0.364837  1
  O  O27  1  0.428371  0.696071  0.426539  1
  O  O28  1  0.297578  0.695614  0.824198  1
  O  O29  1  0.784313  0.471654  0.870733  1
  O  O30  1  0.220580  0.535070  0.122650  1
  O  O31  1  0.697117  0.295223  0.164446  1
  O  O32  1  0.570870  0.303707  0.564721  1
  O  O33  1  0.256367  0.470063  0.648570  1
  O  O34  1  0.410982  0.328731  0.918636  1
  O  O35  1  0.930684  0.198620  0.423626  1
  O  O36  1  0.783955  0.214118  0.822421  1
  O  O37  1  0.304986  0.295500  0.322456  1
  O  O38  1  0.192305  0.208630  0.662200  1
  O  O39  1  0.709913  0.037436  0.116350  1
  O  O40  1  0.086077  0.181518  0.087086  1
  O  O41  1  0.257496  0.033084  0.351826  1
