# generated using pymatgen
data_Li2NbCo3O8
_symmetry_space_group_name_H-M   'P 1'
_cell_length_a   5.77939473
_cell_length_b   5.77939473
_cell_length_c   9.40659365
_cell_angle_alpha   90.00000000
_cell_angle_beta   90.00000000
_cell_angle_gamma   120.00000000
_symmetry_Int_Tables_number   1
_chemical_formula_structural   Li2NbCo3O8
_chemical_formula_sum   'Li4 Nb2 Co6 O16'
_cell_volume   272.09949160
_cell_formula_units_Z   2
loop_
 _symmetry_equiv_pos_site_id
 _symmetry_equiv_pos_as_xyz
  1  'x, y, z'
loop_
 _atom_site_type_symbol
 _atom_site_label
 _atom_site_symmetry_multiplicity
 _atom_site_fract_x
 _atom_site_fract_y
 _atom_site_fract_z
 _atom_site_occupancy
  Li  Li0  1  0.333333  0.666667  0.896002  1
  Li  Li1  1  0.000000  0.000000  0.996061  1
  Li  Li2  1  0.000000  0.000000  0.496061  1
  Li  Li3  1  0.666667  0.333333  0.396002  1
  Nb  Nb4  1  0.333333  0.666667  0.496487  1
  Nb  Nb5  1  0.666667  0.333333  0.996487  1
  Co  Co6  1  0.169814  0.830186  0.215839  1
  Co  Co7  1  0.169814  0.339628  0.215839  1
  Co  Co8  1  0.660372  0.830186  0.215839  1
  Co  Co9  1  0.339628  0.169814  0.715839  1
  Co  Co10  1  0.830186  0.660372  0.715839  1
  Co  Co11  1  0.830186  0.169814  0.715839  1
  O  O12  1  0.164936  0.835064  0.599658  1
  O  O13  1  0.037940  0.518970  0.334082  1
  O  O14  1  0.333333  0.666667  0.112274  1
  O  O15  1  0.000000  0.000000  0.307778  1
  O  O16  1  0.000000  0.000000  0.807778  1
  O  O17  1  0.164936  0.329872  0.599658  1
  O  O18  1  0.481030  0.962060  0.334082  1
  O  O19  1  0.481030  0.518970  0.334082  1
  O  O20  1  0.329872  0.164936  0.099658  1
  O  O21  1  0.670128  0.835064  0.599658  1
  O  O22  1  0.518970  0.481030  0.834082  1
  O  O23  1  0.518970  0.037940  0.834082  1
  O  O24  1  0.666667  0.333333  0.612274  1
  O  O25  1  0.835064  0.670128  0.099658  1
  O  O26  1  0.962060  0.481030  0.834082  1
  O  O27  1  0.835064  0.164936  0.099658  1
