# generated using pymatgen
data_Fe3Ni2Te(PO4)6
_symmetry_space_group_name_H-M   'P 1'
_cell_length_a   8.52810847
_cell_length_b   8.52810847
_cell_length_c   8.52810847
_cell_angle_alpha   61.13950622
_cell_angle_beta   61.13950622
_cell_angle_gamma   61.13950622
_symmetry_Int_Tables_number   1
_chemical_formula_structural   Fe3Ni2Te(PO4)6
_chemical_formula_sum   'Fe3 Ni2 Te1 P6 O24'
_cell_volume   449.82058148
_cell_formula_units_Z   1
loop_
 _symmetry_equiv_pos_site_id
 _symmetry_equiv_pos_as_xyz
  1  'x, y, z'
loop_
 _atom_site_type_symbol
 _atom_site_label
 _atom_site_symmetry_multiplicity
 _atom_site_fract_x
 _atom_site_fract_y
 _atom_site_fract_z
 _atom_site_occupancy
  Fe  Fe0  1  0.855129  0.855129  0.855129  1
  Fe  Fe1  1  0.644829  0.644829  0.644829  1
  Fe  Fe2  1  0.356505  0.356505  0.356505  1
  Ni  Ni3  1  0.994654  0.994654  0.994654  1
  Ni  Ni4  1  0.500839  0.500839  0.500839  1
  Te  Te5  1  0.144026  0.144026  0.144026  1
  P  P6  1  0.743963  0.461052  0.047148  1
  P  P7  1  0.461052  0.047148  0.743963  1
  P  P8  1  0.047148  0.743963  0.461052  1
  P  P9  1  0.948661  0.254025  0.554442  1
  P  P10  1  0.554442  0.948661  0.254025  1
  P  P11  1  0.254025  0.554442  0.948661  1
  O  O12  1  0.891044  0.681341  0.496214  1
  O  O13  1  0.681341  0.496214  0.891044  1
  O  O14  1  0.939329  0.091378  0.746027  1
  O  O15  1  0.496214  0.891044  0.681341  1
  O  O16  1  0.975265  0.185696  0.398590  1
  O  O17  1  0.753238  0.410271  0.565374  1
  O  O18  1  0.746027  0.939329  0.091378  1
  O  O19  1  0.565374  0.753238  0.410271  1
  O  O20  1  0.821192  0.609347  0.004551  1
  O  O21  1  0.410271  0.565374  0.753238  1
  O  O22  1  0.908113  0.256371  0.056398  1
  O  O23  1  0.609347  0.004551  0.821192  1
  O  O24  1  0.398590  0.975265  0.185696  1
  O  O25  1  0.091378  0.746027  0.939329  1
  O  O26  1  0.592083  0.439728  0.245708  1
  O  O27  1  0.185696  0.398590  0.975265  1
  O  O28  1  0.439728  0.245708  0.592083  1
  O  O29  1  0.256371  0.056398  0.908113  1
  O  O30  1  0.245708  0.592083  0.439728  1
  O  O31  1  0.004551  0.821192  0.609347  1
  O  O32  1  0.498810  0.111711  0.316947  1
  O  O33  1  0.056398  0.908113  0.256371  1
  O  O34  1  0.316947  0.498810  0.111711  1
  O  O35  1  0.111711  0.316947  0.498810  1
