# generated using pymatgen
data_Li2MnV(P2O7)2
_symmetry_space_group_name_H-M   'P 1'
_cell_length_a   4.85806483
_cell_length_b   8.27989433
_cell_length_c   13.33835931
_cell_angle_alpha   90.00000000
_cell_angle_beta   91.42380458
_cell_angle_gamma   90.00000000
_symmetry_Int_Tables_number   1
_chemical_formula_structural   Li2MnV(P2O7)2
_chemical_formula_sum   'Li4 Mn2 V2 P8 O28'
_cell_volume   536.36002753
_cell_formula_units_Z   2
loop_
 _symmetry_equiv_pos_site_id
 _symmetry_equiv_pos_as_xyz
  1  'x, y, z'
loop_
 _atom_site_type_symbol
 _atom_site_label
 _atom_site_symmetry_multiplicity
 _atom_site_fract_x
 _atom_site_fract_y
 _atom_site_fract_z
 _atom_site_occupancy
  Li  Li0  1  0.161844  0.362225  0.338520  1
  Li  Li1  1  0.337108  0.862167  0.162453  1
  Li  Li2  1  0.662892  0.362167  0.837547  1
  Li  Li3  1  0.838156  0.862225  0.661480  1
  Mn  Mn4  1  0.149767  0.999503  0.365207  1
  Mn  Mn5  1  0.850233  0.499503  0.634793  1
  V  V6  1  0.350685  0.499143  0.136107  1
  V  V7  1  0.649315  0.999143  0.863893  1
  P  P8  1  0.139707  0.179914  0.740550  1
  P  P9  1  0.168828  0.783387  0.956940  1
  P  P10  1  0.332076  0.286584  0.544281  1
  P  P11  1  0.359947  0.678829  0.760731  1
  P  P12  1  0.640053  0.178829  0.239269  1
  P  P13  1  0.667924  0.786584  0.455719  1
  P  P14  1  0.831172  0.283387  0.043060  1
  P  P15  1  0.860293  0.679914  0.259450  1
  O  O16  1  0.003337  0.842582  0.248182  1
  O  O17  1  0.052187  0.535744  0.241705  1
  O  O18  1  0.092143  0.676673  0.695777  1
  O  O19  1  0.143408  0.436454  0.543034  1
  O  O20  1  0.124856  0.323747  0.074061  1
  O  O21  1  0.219923  0.155502  0.623831  1
  O  O22  1  0.189621  0.693938  0.057230  1
  O  O23  1  0.281180  0.651927  0.876099  1
  O  O24  1  0.318411  0.202202  0.443176  1
  O  O25  1  0.355571  0.933107  0.958879  1
  O  O26  1  0.368625  0.826934  0.425300  1
  O  O27  1  0.408774  0.175549  0.802565  1
  O  O28  1  0.445545  0.036504  0.259496  1
  O  O29  1  0.503554  0.842968  0.753286  1
  O  O30  1  0.496446  0.342968  0.246714  1
  O  O31  1  0.554455  0.536504  0.740504  1
  O  O32  1  0.591226  0.675549  0.197435  1
  O  O33  1  0.631375  0.326934  0.574700  1
  O  O34  1  0.644429  0.433107  0.041121  1
  O  O35  1  0.681589  0.702202  0.556824  1
  O  O36  1  0.718820  0.151927  0.123901  1
  O  O37  1  0.810379  0.193938  0.942770  1
  O  O38  1  0.780077  0.655502  0.376169  1
  O  O39  1  0.875144  0.823747  0.925939  1
  O  O40  1  0.856592  0.936454  0.456966  1
  O  O41  1  0.907857  0.176673  0.304223  1
  O  O42  1  0.947813  0.035744  0.758295  1
  O  O43  1  0.996663  0.342582  0.751818  1
