# generated using pymatgen
data_DyTiO3
_symmetry_space_group_name_H-M   'P 1'
_cell_length_a   5.33559956
_cell_length_b   5.71698452
_cell_length_c   7.69290291
_cell_angle_alpha   90.00000000
_cell_angle_beta   90.00000000
_cell_angle_gamma   90.00000000
_symmetry_Int_Tables_number   1
_chemical_formula_structural   DyTiO3
_chemical_formula_sum   'Dy4 Ti4 O12'
_cell_volume   234.66077236
_cell_formula_units_Z   4
loop_
 _symmetry_equiv_pos_site_id
 _symmetry_equiv_pos_as_xyz
  1  'x, y, z'
loop_
 _atom_site_type_symbol
 _atom_site_label
 _atom_site_symmetry_multiplicity
 _atom_site_fract_x
 _atom_site_fract_y
 _atom_site_fract_z
 _atom_site_occupancy
  Dy  Dy0  1  0.478092  0.427441  0.750000  1
  Dy  Dy1  1  0.021908  0.927441  0.750000  1
  Dy  Dy2  1  0.978092  0.072559  0.250000  1
  Dy  Dy3  1  0.521908  0.572559  0.250000  1
  Ti  Ti4  1  0.500000  0.000000  0.000000  1
  Ti  Ti5  1  0.500000  0.000000  0.500000  1
  Ti  Ti6  1  0.000000  0.500000  0.000000  1
  Ti  Ti7  1  0.000000  0.500000  0.500000  1
  O  O8  1  0.621674  0.045193  0.750000  1
  O  O9  1  0.689146  0.303324  0.058196  1
  O  O10  1  0.689146  0.303324  0.441804  1
  O  O11  1  0.810854  0.803324  0.441804  1
  O  O12  1  0.810854  0.803324  0.058196  1
  O  O13  1  0.878326  0.545193  0.750000  1
  O  O14  1  0.121674  0.454807  0.250000  1
  O  O15  1  0.189146  0.196676  0.941804  1
  O  O16  1  0.189146  0.196676  0.558196  1
  O  O17  1  0.310854  0.696676  0.558196  1
  O  O18  1  0.310854  0.696676  0.941804  1
  O  O19  1  0.378326  0.954807  0.250000  1
