# generated using pymatgen
data_KSrAs(H4O3)4
_symmetry_space_group_name_H-M   'P 1'
_cell_length_a   12.87174439
_cell_length_b   12.87174439
_cell_length_c   12.87174439
_cell_angle_alpha   147.55917285
_cell_angle_beta   147.55917285
_cell_angle_gamma   46.53654292
_symmetry_Int_Tables_number   1
_chemical_formula_structural   KSrAs(H4O3)4
_chemical_formula_sum   'K2 Sr2 As2 H32 O24'
_cell_volume   611.46937139
_cell_formula_units_Z   2
loop_
 _symmetry_equiv_pos_site_id
 _symmetry_equiv_pos_as_xyz
  1  'x, y, z'
loop_
 _atom_site_type_symbol
 _atom_site_label
 _atom_site_symmetry_multiplicity
 _atom_site_fract_x
 _atom_site_fract_y
 _atom_site_fract_z
 _atom_site_occupancy
  K  K0  1  0.589785  0.589785  0.000000  1
  K  K1  1  0.339785  0.839785  0.500000  1
  Sr  Sr2  1  0.750521  0.750521  0.000000  1
  Sr  Sr3  1  0.500521  0.000521  0.500000  1
  As  As4  1  0.172448  0.172448  0.000000  1
  As  As5  1  0.922448  0.422448  0.500000  1
  H  H6  1  0.023446  0.775272  0.466843  1
  H  H7  1  0.308430  0.556603  0.533157  1
  H  H8  1  0.525272  0.273446  0.966843  1
  H  H9  1  0.306603  0.558430  0.033157  1
  H  H10  1  0.308430  0.775272  0.751827  1
  H  H11  1  0.023446  0.556603  0.248173  1
  H  H12  1  0.306603  0.273446  0.748173  1
  H  H13  1  0.525272  0.558430  0.251827  1
  H  H14  1  0.794644  0.038689  0.464285  1
  H  H15  1  0.574404  0.330359  0.535715  1
  H  H16  1  0.788689  0.044644  0.964285  1
  H  H17  1  0.080359  0.824404  0.035715  1
  H  H18  1  0.574404  0.038689  0.244045  1
  H  H19  1  0.794644  0.330359  0.755955  1
  H  H20  1  0.080359  0.044644  0.255955  1
  H  H21  1  0.788689  0.824404  0.744045  1
  H  H22  1  0.041590  0.093216  0.603846  1
  H  H23  1  0.489370  0.437745  0.396154  1
  H  H24  1  0.843216  0.291590  0.103846  1
  H  H25  1  0.187745  0.739370  0.896154  1
  H  H26  1  0.489370  0.093216  0.051626  1
  H  H27  1  0.041590  0.437745  0.948374  1
  H  H28  1  0.187745  0.291590  0.448374  1
  H  H29  1  0.843216  0.739370  0.551626  1
  H  H30  1  0.044464  0.152783  0.539458  1
  H  H31  1  0.613325  0.505007  0.460542  1
  H  H32  1  0.902783  0.294464  0.039458  1
  H  H33  1  0.255007  0.863325  0.960542  1
  H  H34  1  0.613325  0.152783  0.108319  1
  H  H35  1  0.044464  0.505007  0.891681  1
  H  H36  1  0.255007  0.294464  0.391681  1
  H  H37  1  0.902783  0.863325  0.608319  1
  O  O38  1  0.132658  0.334119  0.201461  1
  O  O39  1  0.132658  0.931196  0.798539  1
  O  O40  1  0.084119  0.382658  0.701461  1
  O  O41  1  0.681196  0.382658  0.298539  1
  O  O42  1  0.414444  0.212560  0.201884  1
  O  O43  1  0.010675  0.212560  0.798116  1
  O  O44  1  0.962560  0.664444  0.701884  1
  O  O45  1  0.962560  0.260675  0.298116  1
  O  O46  1  0.964432  0.678679  0.285753  1
  O  O47  1  0.392925  0.678679  0.714247  1
  O  O48  1  0.428679  0.214432  0.785753  1
  O  O49  1  0.428679  0.642925  0.214247  1
  O  O50  1  0.675537  0.952465  0.276928  1
  O  O51  1  0.675537  0.398609  0.723072  1
  O  O52  1  0.702465  0.925537  0.776928  1
  O  O53  1  0.148609  0.925537  0.223072  1
  O  O54  1  0.036182  0.036625  0.480431  1
  O  O55  1  0.556194  0.555751  0.519569  1
  O  O56  1  0.786625  0.286182  0.980431  1
  O  O57  1  0.305751  0.806194  0.019569  1
  O  O58  1  0.556194  0.036625  0.000443  1
  O  O59  1  0.036182  0.555751  0.999557  1
  O  O60  1  0.305751  0.286182  0.499557  1
  O  O61  1  0.786625  0.806194  0.500443  1
