# generated using pymatgen
data_LiV2F7
_symmetry_space_group_name_H-M   'P 1'
_cell_length_a   5.55087045
_cell_length_b   5.19147229
_cell_length_c   10.30716245
_cell_angle_alpha   90.00000000
_cell_angle_beta   100.22042060
_cell_angle_gamma   90.00000000
_symmetry_Int_Tables_number   1
_chemical_formula_structural   LiV2F7
_chemical_formula_sum   'Li2 V4 F14'
_cell_volume   292.31042006
_cell_formula_units_Z   2
loop_
 _symmetry_equiv_pos_site_id
 _symmetry_equiv_pos_as_xyz
  1  'x, y, z'
loop_
 _atom_site_type_symbol
 _atom_site_label
 _atom_site_symmetry_multiplicity
 _atom_site_fract_x
 _atom_site_fract_y
 _atom_site_fract_z
 _atom_site_occupancy
  Li  Li0  1  0.500000  0.060003  0.750000  1
  Li  Li1  1  0.500000  0.939997  0.250000  1
  V  V2  1  0.070833  0.750642  0.926601  1
  V  V3  1  0.070833  0.249358  0.426601  1
  V  V4  1  0.929167  0.750642  0.573399  1
  V  V5  1  0.929167  0.249358  0.073399  1
  F  F6  1  0.000000  0.579173  0.750000  1
  F  F7  1  0.000000  0.420827  0.250000  1
  F  F8  1  0.153768  0.051935  0.605557  1
  F  F9  1  0.153768  0.948065  0.105557  1
  F  F10  1  0.217710  0.558854  0.516400  1
  F  F11  1  0.217710  0.441146  0.016400  1
  F  F12  1  0.333462  0.913116  0.870019  1
  F  F13  1  0.333462  0.086884  0.370019  1
  F  F14  1  0.666538  0.913116  0.629981  1
  F  F15  1  0.666538  0.086884  0.129981  1
  F  F16  1  0.782290  0.558854  0.983600  1
  F  F17  1  0.782290  0.441146  0.483600  1
  F  F18  1  0.846232  0.051935  0.894443  1
  F  F19  1  0.846232  0.948065  0.394443  1
