# generated using pymatgen
data_Li3CrSiCO7
_symmetry_space_group_name_H-M   'P 1'
_cell_length_a   5.04445631
_cell_length_b   6.45719571
_cell_length_c   8.29068154
_cell_angle_alpha   90.00000000
_cell_angle_beta   94.84902323
_cell_angle_gamma   90.00000000
_symmetry_Int_Tables_number   1
_chemical_formula_structural   Li3CrSiCO7
_chemical_formula_sum   'Li6 Cr2 Si2 C2 O14'
_cell_volume   269.08616921
_cell_formula_units_Z   2
loop_
 _symmetry_equiv_pos_site_id
 _symmetry_equiv_pos_as_xyz
  1  'x, y, z'
loop_
 _atom_site_type_symbol
 _atom_site_label
 _atom_site_symmetry_multiplicity
 _atom_site_fract_x
 _atom_site_fract_y
 _atom_site_fract_z
 _atom_site_occupancy
  Li  Li0  1  0.234664  0.750000  0.610315  1
  Li  Li1  1  0.766792  0.963956  0.792440  1
  Li  Li2  1  0.766792  0.536044  0.792440  1
  Li  Li3  1  0.233208  0.463956  0.207560  1
  Li  Li4  1  0.233208  0.036044  0.207560  1
  Li  Li5  1  0.765336  0.250000  0.389685  1
  Cr  Cr6  1  0.196725  0.250000  0.819782  1
  Cr  Cr7  1  0.803275  0.750000  0.180218  1
  Si  Si8  1  0.285760  0.750000  0.923393  1
  Si  Si9  1  0.714240  0.250000  0.076607  1
  C  C10  1  0.293915  0.250000  0.529597  1
  C  C11  1  0.706085  0.750000  0.470403  1
  O  O12  1  0.644278  0.750000  0.617414  1
  O  O13  1  0.049015  0.250000  0.568670  1
  O  O14  1  0.477184  0.250000  0.649800  1
  O  O15  1  0.180893  0.943074  0.804946  1
  O  O16  1  0.180893  0.556926  0.804946  1
  O  O17  1  0.614178  0.750000  0.955852  1
  O  O18  1  0.837315  0.250000  0.900964  1
  O  O19  1  0.162685  0.750000  0.099036  1
  O  O20  1  0.385822  0.250000  0.044148  1
  O  O21  1  0.819107  0.443074  0.195054  1
  O  O22  1  0.819107  0.056926  0.195054  1
  O  O23  1  0.522816  0.750000  0.350200  1
  O  O24  1  0.950985  0.750000  0.431330  1
  O  O25  1  0.355722  0.250000  0.382586  1
