# generated using pymatgen
data_LiFeSiO4
_symmetry_space_group_name_H-M   'P 1'
_cell_length_a   4.77948670
_cell_length_b   6.22272745
_cell_length_c   10.35446383
_cell_angle_alpha   90.00000000
_cell_angle_beta   90.00000000
_cell_angle_gamma   90.00000000
_symmetry_Int_Tables_number   1
_chemical_formula_structural   LiFeSiO4
_chemical_formula_sum   'Li4 Fe4 Si4 O16'
_cell_volume   307.95669668
_cell_formula_units_Z   4
loop_
 _symmetry_equiv_pos_site_id
 _symmetry_equiv_pos_as_xyz
  1  'x, y, z'
loop_
 _atom_site_type_symbol
 _atom_site_label
 _atom_site_symmetry_multiplicity
 _atom_site_fract_x
 _atom_site_fract_y
 _atom_site_fract_z
 _atom_site_occupancy
  Li  Li0  1  0.981443  0.032432  0.033817  1
  Li  Li1  1  0.018557  0.532432  0.466183  1
  Li  Li2  1  0.518557  0.967568  0.533817  1
  Li  Li3  1  0.481443  0.467568  0.966183  1
  Fe  Fe4  1  0.498080  0.769119  0.244596  1
  Fe  Fe5  1  0.501920  0.269119  0.255404  1
  Fe  Fe6  1  0.001920  0.230881  0.744596  1
  Fe  Fe7  1  0.998080  0.730881  0.755404  1
  Si  Si8  1  0.917243  0.518462  0.160868  1
  Si  Si9  1  0.082757  0.018462  0.339132  1
  Si  Si10  1  0.582757  0.481538  0.660868  1
  Si  Si11  1  0.417243  0.981538  0.839132  1
  O  O12  1  0.780698  0.741439  0.102748  1
  O  O13  1  0.771321  0.301242  0.100147  1
  O  O14  1  0.260782  0.515425  0.167575  1
  O  O15  1  0.247001  0.018497  0.191429  1
  O  O16  1  0.752999  0.518497  0.308571  1
  O  O17  1  0.739218  0.015425  0.332425  1
  O  O18  1  0.228679  0.801242  0.399853  1
  O  O19  1  0.219302  0.241439  0.397252  1
  O  O20  1  0.719302  0.258561  0.602748  1
  O  O21  1  0.728679  0.698758  0.600147  1
  O  O22  1  0.239218  0.484575  0.667575  1
  O  O23  1  0.252999  0.981503  0.691429  1
  O  O24  1  0.747001  0.481503  0.808571  1
  O  O25  1  0.760782  0.984575  0.832425  1
  O  O26  1  0.271321  0.198758  0.899853  1
  O  O27  1  0.280698  0.758561  0.897252  1
