# generated using pymatgen
data_Er2GeO5
_symmetry_space_group_name_H-M   'P 1'
_cell_length_a   6.73355498
_cell_length_b   7.00448626
_cell_length_c   9.23742111
_cell_angle_alpha   90.00000000
_cell_angle_beta   104.50855567
_cell_angle_gamma   90.00000000
_symmetry_Int_Tables_number   1
_chemical_formula_structural   Er2GeO5
_chemical_formula_sum   'Er8 Ge4 O20'
_cell_volume   421.78997674
_cell_formula_units_Z   4
loop_
 _symmetry_equiv_pos_site_id
 _symmetry_equiv_pos_as_xyz
  1  'x, y, z'
loop_
 _atom_site_type_symbol
 _atom_site_label
 _atom_site_symmetry_multiplicity
 _atom_site_fract_x
 _atom_site_fract_y
 _atom_site_fract_z
 _atom_site_occupancy
  Er  Er0  1  0.457802  0.363978  0.135614  1
  Er  Er1  1  0.957802  0.136022  0.135614  1
  Er  Er2  1  0.270878  0.372277  0.472272  1
  Er  Er3  1  0.229122  0.872277  0.527728  1
  Er  Er4  1  0.770878  0.127723  0.472272  1
  Er  Er5  1  0.729122  0.627723  0.527728  1
  Er  Er6  1  0.042198  0.863978  0.864386  1
  Er  Er7  1  0.542198  0.636022  0.864386  1
  Ge  Ge8  1  0.473789  0.907131  0.198109  1
  Ge  Ge9  1  0.973789  0.592869  0.198109  1
  Ge  Ge10  1  0.026211  0.407131  0.801891  1
  Ge  Ge11  1  0.526211  0.092869  0.801891  1
  O  O12  1  0.010133  0.801805  0.108116  1
  O  O13  1  0.278442  0.065274  0.106502  1
  O  O14  1  0.173535  0.413116  0.216786  1
  O  O15  1  0.510133  0.698195  0.108116  1
  O  O16  1  0.008806  0.637492  0.394701  1
  O  O17  1  0.069431  0.114701  0.389631  1
  O  O18  1  0.778442  0.434726  0.106502  1
  O  O19  1  0.673535  0.086884  0.216786  1
  O  O20  1  0.508806  0.862508  0.394701  1
  O  O21  1  0.569431  0.385299  0.389631  1
  O  O22  1  0.430569  0.614701  0.610369  1
  O  O23  1  0.491194  0.137492  0.605299  1
  O  O24  1  0.326465  0.913116  0.783214  1
  O  O25  1  0.221558  0.565274  0.893498  1
  O  O26  1  0.930569  0.885299  0.610369  1
  O  O27  1  0.991194  0.362508  0.605299  1
  O  O28  1  0.489867  0.301805  0.891884  1
  O  O29  1  0.826465  0.586884  0.783214  1
  O  O30  1  0.721558  0.934726  0.893498  1
  O  O31  1  0.989867  0.198195  0.891884  1
