# generated using pymatgen
data_Li4Cu3Ni2Sb3O16
_symmetry_space_group_name_H-M   'P 1'
_cell_length_a   6.04408916
_cell_length_b   6.04408916
_cell_length_c   9.72395123
_cell_angle_alpha   88.90205816
_cell_angle_beta   91.09794184
_cell_angle_gamma   119.96121487
_symmetry_Int_Tables_number   1
_chemical_formula_structural   Li4Cu3Ni2Sb3O16
_chemical_formula_sum   'Li4 Cu3 Ni2 Sb3 O16'
_cell_volume   307.67935497
_cell_formula_units_Z   1
loop_
 _symmetry_equiv_pos_site_id
 _symmetry_equiv_pos_as_xyz
  1  'x, y, z'
loop_
 _atom_site_type_symbol
 _atom_site_label
 _atom_site_symmetry_multiplicity
 _atom_site_fract_x
 _atom_site_fract_y
 _atom_site_fract_z
 _atom_site_occupancy
  Li  Li0  1  0.667431  0.332569  0.103091  1
  Li  Li1  1  0.011246  0.988754  0.995786  1
  Li  Li2  1  0.025495  0.974505  0.509194  1
  Li  Li3  1  0.331224  0.668776  0.621550  1
  Cu  Cu4  1  0.830089  0.663810  0.784910  1
  Cu  Cu5  1  0.336190  0.169911  0.784910  1
  Cu  Cu6  1  0.167150  0.832850  0.281735  1
  Ni  Ni7  1  0.654317  0.345683  0.520855  1
  Ni  Ni8  1  0.329241  0.670759  0.997275  1
  Sb  Sb9  1  0.828888  0.171112  0.784673  1
  Sb  Sb10  1  0.661163  0.832834  0.285542  1
  Sb  Sb11  1  0.167166  0.338837  0.285542  1
  O  O12  1  0.834575  0.682495  0.395736  1
  O  O13  1  0.518222  0.481778  0.670106  1
  O  O14  1  0.666305  0.333695  0.892622  1
  O  O15  1  0.997035  0.002965  0.689280  1
  O  O16  1  0.990113  0.009887  0.179517  1
  O  O17  1  0.317505  0.165425  0.395736  1
  O  O18  1  0.961564  0.482071  0.661083  1
  O  O19  1  0.517929  0.038436  0.661083  1
  O  O20  1  0.160015  0.839985  0.893542  1
  O  O21  1  0.844453  0.155547  0.400433  1
  O  O22  1  0.486636  0.965650  0.164940  1
  O  O23  1  0.034350  0.513364  0.164940  1
  O  O24  1  0.342213  0.657787  0.400978  1
  O  O25  1  0.682297  0.849319  0.900875  1
  O  O26  1  0.483409  0.516591  0.165292  1
  O  O27  1  0.150681  0.317703  0.900875  1
