# generated using pymatgen
data_ZnAs
_symmetry_space_group_name_H-M   'P 1'
_cell_length_a   5.74960626
_cell_length_b   7.33919281
_cell_length_c   7.65920913
_cell_angle_alpha   90.00000000
_cell_angle_beta   90.00000000
_cell_angle_gamma   90.00000000
_symmetry_Int_Tables_number   1
_chemical_formula_structural   ZnAs
_chemical_formula_sum   'Zn8 As8'
_cell_volume   323.19923924
_cell_formula_units_Z   8
loop_
 _symmetry_equiv_pos_site_id
 _symmetry_equiv_pos_as_xyz
  1  'x, y, z'
loop_
 _atom_site_type_symbol
 _atom_site_label
 _atom_site_symmetry_multiplicity
 _atom_site_fract_x
 _atom_site_fract_y
 _atom_site_fract_z
 _atom_site_occupancy
  Zn  Zn0  1  0.539602  0.616522  0.633707  1
  Zn  Zn1  1  0.039602  0.883478  0.366293  1
  Zn  Zn2  1  0.460398  0.116522  0.866293  1
  Zn  Zn3  1  0.960398  0.383478  0.133707  1
  Zn  Zn4  1  0.460398  0.383478  0.366293  1
  Zn  Zn5  1  0.960398  0.116522  0.633707  1
  Zn  Zn6  1  0.539602  0.883478  0.133707  1
  Zn  Zn7  1  0.039602  0.616522  0.866293  1
  As  As8  1  0.136774  0.073849  0.101513  1
  As  As9  1  0.636774  0.426151  0.898487  1
  As  As10  1  0.863226  0.573849  0.398487  1
  As  As11  1  0.363226  0.926151  0.601513  1
  As  As12  1  0.863226  0.926151  0.898487  1
  As  As13  1  0.363226  0.573849  0.101513  1
  As  As14  1  0.136774  0.426151  0.601513  1
  As  As15  1  0.636774  0.073849  0.398487  1
