# generated using pymatgen
data_LiFe8(BO3)8
_symmetry_space_group_name_H-M   'P 1'
_cell_length_a   5.23723637
_cell_length_b   9.13518480
_cell_length_c   10.18181104
_cell_angle_alpha   89.95579653
_cell_angle_beta   89.85700419
_cell_angle_gamma   88.94707733
_symmetry_Int_Tables_number   1
_chemical_formula_structural   LiFe8(BO3)8
_chemical_formula_sum   'Li1 Fe8 B8 O24'
_cell_volume   487.04573063
_cell_formula_units_Z   1
loop_
 _symmetry_equiv_pos_site_id
 _symmetry_equiv_pos_as_xyz
  1  'x, y, z'
loop_
 _atom_site_type_symbol
 _atom_site_label
 _atom_site_symmetry_multiplicity
 _atom_site_fract_x
 _atom_site_fract_y
 _atom_site_fract_z
 _atom_site_occupancy
  Li  Li0  1  0.817102  0.826126  0.158897  1
  Fe  Fe1  1  0.838168  0.163027  0.626900  1
  Fe  Fe2  1  0.828224  0.489886  0.126848  1
  Fe  Fe3  1  0.673057  0.002451  0.874422  1
  Fe  Fe4  1  0.667900  0.334485  0.378531  1
  Fe  Fe5  1  0.326973  0.662830  0.625958  1
  Fe  Fe6  1  0.326673  0.007205  0.129526  1
  Fe  Fe7  1  0.180426  0.842380  0.384255  1
  Fe  Fe8  1  0.169446  0.505130  0.877145  1
  B  B9  1  0.837693  0.499314  0.628327  1
  B  B10  1  0.827253  0.166938  0.126682  1
  B  B11  1  0.662383  0.007109  0.367212  1
  B  B12  1  0.671050  0.332023  0.877987  1
  B  B13  1  0.344921  0.997788  0.632287  1
  B  B14  1  0.327270  0.672259  0.122883  1
  B  B15  1  0.159639  0.499296  0.377587  1
  B  B16  1  0.175494  0.833183  0.881687  1
  O  O17  1  0.913598  0.489621  0.321326  1
  O  O18  1  0.918028  0.851862  0.889093  1
  O  O19  1  0.784864  0.203106  0.829729  1
  O  O20  1  0.745713  0.132897  0.433965  1
  O  O21  1  0.814551  0.891764  0.341047  1
  O  O22  1  0.833006  0.435592  0.934237  1
  O  O23  1  0.673898  0.614201  0.631826  1
  O  O24  1  0.682688  0.049251  0.079702  1
  O  O25  1  0.768522  0.365937  0.570693  1
  O  O26  1  0.697534  0.292529  0.173678  1
  O  O27  1  0.587872  0.653220  0.130133  1
  O  O28  1  0.596913  0.005167  0.678452  1
  O  O29  1  0.410165  0.012103  0.319255  1
  O  O30  1  0.417582  0.356680  0.872500  1
  O  O31  1  0.286631  0.704958  0.830632  1
  O  O32  1  0.224841  0.629889  0.437524  1
  O  O33  1  0.323261  0.383416  0.372019  1
  O  O34  1  0.335677  0.941627  0.930140  1
  O  O35  1  0.170718  0.562087  0.074548  1
  O  O36  1  0.185177  0.116083  0.636772  1
  O  O37  1  0.263533  0.865585  0.583756  1
  O  O38  1  0.204991  0.802358  0.161386  1
  O  O39  1  0.083000  0.158367  0.125125  1
  O  O40  1  0.083026  0.506042  0.682172  1
