# generated using pymatgen
data_ErTa7O19
_symmetry_space_group_name_H-M   'P 1'
_cell_length_a   6.25786725
_cell_length_b   6.25786725
_cell_length_c   20.06707362
_cell_angle_alpha   90.00000000
_cell_angle_beta   90.00000000
_cell_angle_gamma   120.00000000
_symmetry_Int_Tables_number   1
_chemical_formula_structural   ErTa7O19
_chemical_formula_sum   'Er2 Ta14 O38'
_cell_volume   680.56148602
_cell_formula_units_Z   2
loop_
 _symmetry_equiv_pos_site_id
 _symmetry_equiv_pos_as_xyz
  1  'x, y, z'
loop_
 _atom_site_type_symbol
 _atom_site_label
 _atom_site_symmetry_multiplicity
 _atom_site_fract_x
 _atom_site_fract_y
 _atom_site_fract_z
 _atom_site_occupancy
  Er  Er0  1  0.666667  0.333333  0.500000  1
  Er  Er1  1  0.666667  0.333333  0.000000  1
  Ta  Ta2  1  0.693775  0.027204  0.655251  1
  Ta  Ta3  1  0.693775  0.027204  0.844749  1
  Ta  Ta4  1  0.972796  0.306225  0.344749  1
  Ta  Ta5  1  0.972796  0.306225  0.155251  1
  Ta  Ta6  1  0.693775  0.666571  0.155251  1
  Ta  Ta7  1  0.693775  0.666571  0.344749  1
  Ta  Ta8  1  0.000000  0.000000  0.000000  1
  Ta  Ta9  1  0.000000  0.000000  0.500000  1
  Ta  Ta10  1  0.972796  0.666571  0.655251  1
  Ta  Ta11  1  0.972796  0.666571  0.844749  1
  Ta  Ta12  1  0.333429  0.306225  0.655251  1
  Ta  Ta13  1  0.333429  0.306225  0.844749  1
  Ta  Ta14  1  0.333429  0.027204  0.344749  1
  Ta  Ta15  1  0.333429  0.027204  0.155251  1
  O  O16  1  0.333026  0.419187  0.346972  1
  O  O17  1  0.333026  0.419187  0.153028  1
  O  O18  1  0.376033  0.293129  0.750000  1
  O  O19  1  0.580813  0.666974  0.846972  1
  O  O20  1  0.580813  0.666974  0.653028  1
  O  O21  1  0.376033  0.082904  0.250000  1
  O  O22  1  0.333026  0.913839  0.653028  1
  O  O23  1  0.333026  0.913839  0.846972  1
  O  O24  1  0.706871  0.623967  0.250000  1
  O  O25  1  0.666667  0.333333  0.630597  1
  O  O26  1  0.666667  0.333333  0.369403  1
  O  O27  1  0.666667  0.333333  0.130597  1
  O  O28  1  0.666667  0.333333  0.869403  1
  O  O29  1  0.917096  0.623967  0.750000  1
  O  O30  1  0.580813  0.913839  0.153028  1
  O  O31  1  0.580813  0.913839  0.346972  1
  O  O32  1  0.706871  0.082904  0.750000  1
  O  O33  1  0.760461  0.051233  0.555256  1
  O  O34  1  0.760461  0.051233  0.944744  1
  O  O35  1  0.086161  0.666974  0.346972  1
  O  O36  1  0.086161  0.666974  0.153028  1
  O  O37  1  0.917096  0.293129  0.250000  1
  O  O38  1  0.948767  0.239539  0.055256  1
  O  O39  1  0.948767  0.239539  0.444744  1
  O  O40  1  0.086161  0.419187  0.653028  1
  O  O41  1  0.086161  0.419187  0.846972  1
  O  O42  1  0.760461  0.709228  0.055256  1
  O  O43  1  0.760461  0.709228  0.444744  1
  O  O44  1  0.000000  0.000000  0.833986  1
  O  O45  1  0.000000  0.000000  0.166014  1
  O  O46  1  0.000000  0.000000  0.333986  1
  O  O47  1  0.000000  0.000000  0.666014  1
  O  O48  1  0.948767  0.709228  0.555256  1
  O  O49  1  0.948767  0.709228  0.944744  1
  O  O50  1  0.290772  0.239539  0.555256  1
  O  O51  1  0.290772  0.239539  0.944744  1
  O  O52  1  0.290772  0.051233  0.444744  1
  O  O53  1  0.290772  0.051233  0.055256  1
