# generated using pymatgen
data_Li2MnF5
_symmetry_space_group_name_H-M   'P 1'
_cell_length_a   5.72811716
_cell_length_b   11.44669622
_cell_length_c   6.13986269
_cell_angle_alpha   90.00000000
_cell_angle_beta   95.87099337
_cell_angle_gamma   90.00000000
_symmetry_Int_Tables_number   1
_chemical_formula_structural   Li2MnF5
_chemical_formula_sum   'Li8 Mn4 F20'
_cell_volume   400.46698772
_cell_formula_units_Z   4
loop_
 _symmetry_equiv_pos_site_id
 _symmetry_equiv_pos_as_xyz
  1  'x, y, z'
loop_
 _atom_site_type_symbol
 _atom_site_label
 _atom_site_symmetry_multiplicity
 _atom_site_fract_x
 _atom_site_fract_y
 _atom_site_fract_z
 _atom_site_occupancy
  Li  Li0  1  0.132751  0.326272  0.994071  1
  Li  Li1  1  0.338208  0.855210  0.817544  1
  Li  Li2  1  0.504930  0.634472  0.665844  1
  Li  Li3  1  0.970502  0.587271  0.672794  1
  Li  Li4  1  0.029498  0.087271  0.327206  1
  Li  Li5  1  0.495070  0.134472  0.334156  1
  Li  Li6  1  0.661792  0.355210  0.182456  1
  Li  Li7  1  0.867249  0.826272  0.005929  1
  Mn  Mn8  1  0.448647  0.125923  0.859787  1
  Mn  Mn9  1  0.847362  0.868071  0.496246  1
  Mn  Mn10  1  0.152638  0.368071  0.503754  1
  Mn  Mn11  1  0.551353  0.625923  0.140213  1
  F  F12  1  0.680979  0.187816  0.075951  1
  F  F13  1  0.782399  0.641371  0.904067  1
  F  F14  1  0.533629  0.977142  0.950592  1
  F  F15  1  0.367745  0.281780  0.787618  1
  F  F16  1  0.971913  0.414630  0.733938  1
  F  F17  1  0.024897  0.902167  0.796860  1
  F  F18  1  0.584712  0.807211  0.640962  1
  F  F19  1  0.979447  0.230680  0.484456  1
  F  F20  1  0.683427  0.574689  0.417311  1
  F  F21  1  0.731997  0.022263  0.467898  1
  F  F22  1  0.268003  0.522263  0.532102  1
  F  F23  1  0.316573  0.074689  0.582689  1
  F  F24  1  0.020553  0.730680  0.515544  1
  F  F25  1  0.415288  0.307211  0.359038  1
  F  F26  1  0.975103  0.402167  0.203140  1
  F  F27  1  0.028087  0.914630  0.266062  1
  F  F28  1  0.632255  0.781780  0.212382  1
  F  F29  1  0.466371  0.477142  0.049408  1
  F  F30  1  0.217601  0.141371  0.095933  1
  F  F31  1  0.319021  0.687816  0.924049  1
