# generated using pymatgen
data_VOF3
_symmetry_space_group_name_H-M   'P 1'
_cell_length_a   5.75667466
_cell_length_b   7.63379517
_cell_length_c   7.67791571
_cell_angle_alpha   76.42851515
_cell_angle_beta   70.79391112
_cell_angle_gamma   71.68037825
_symmetry_Int_Tables_number   1
_chemical_formula_structural   VOF3
_chemical_formula_sum   'V4 O4 F12'
_cell_volume   299.21994713
_cell_formula_units_Z   4
loop_
 _symmetry_equiv_pos_site_id
 _symmetry_equiv_pos_as_xyz
  1  'x, y, z'
loop_
 _atom_site_type_symbol
 _atom_site_label
 _atom_site_symmetry_multiplicity
 _atom_site_fract_x
 _atom_site_fract_y
 _atom_site_fract_z
 _atom_site_occupancy
  V  V0  1  0.237034  0.234581  0.214606  1
  V  V1  1  0.814049  0.728299  0.711169  1
  V  V2  1  0.580234  0.460810  0.479864  1
  V  V3  1  0.054968  0.967827  0.985265  1
  O  O4  1  0.080479  0.174019  0.102079  1
  O  O5  1  0.354239  0.864243  0.941491  1
  O  O6  1  0.885004  0.353948  0.423938  1
  O  O7  1  0.091622  0.649425  0.575859  1
  F  F8  1  0.912074  0.879142  0.218035  1
  F  F9  1  0.206166  0.475864  0.140003  1
  F  F10  1  0.715243  0.969620  0.630318  1
  F  F11  1  0.606194  0.673348  0.596238  1
  F  F12  1  0.538760  0.647845  0.298704  1
  F  F13  1  0.451832  0.383583  0.718695  1
  F  F14  1  0.555452  0.158201  0.077844  1
  F  F15  1  0.933158  0.814131  0.890525  1
  F  F16  1  0.451359  0.319313  0.398965  1
  F  F17  1  0.759987  0.545430  0.897029  1
  F  F18  1  0.256742  0.054224  0.404020  1
  F  F19  1  0.015404  0.146146  0.795354  1
