# generated using pymatgen
data_NaNi3P4H8NO16
_symmetry_space_group_name_H-M   'P 1'
_cell_length_a   10.41039032
_cell_length_b   10.41039032
_cell_length_c   9.19743421
_cell_angle_alpha   72.90487239
_cell_angle_beta   107.09512761
_cell_angle_gamma   134.43750391
_symmetry_Int_Tables_number   1
_chemical_formula_structural   NaNi3P4H8NO16
_chemical_formula_sum   'Na2 Ni6 P8 H16 N2 O32'
_cell_volume   674.57427717
_cell_formula_units_Z   2
loop_
 _symmetry_equiv_pos_site_id
 _symmetry_equiv_pos_as_xyz
  1  'x, y, z'
loop_
 _atom_site_type_symbol
 _atom_site_label
 _atom_site_symmetry_multiplicity
 _atom_site_fract_x
 _atom_site_fract_y
 _atom_site_fract_z
 _atom_site_occupancy
  Na  Na0  1  0.539131  0.539131  0.750000  1
  Na  Na1  1  0.460869  0.460869  0.250000  1
  Ni  Ni2  1  0.573543  0.203516  0.932039  1
  Ni  Ni3  1  0.796484  0.426457  0.432039  1
  Ni  Ni4  1  0.500000  0.000000  0.500000  1
  Ni  Ni5  1  0.203516  0.573543  0.567961  1
  Ni  Ni6  1  0.000000  0.500000  0.000000  1
  Ni  Ni7  1  0.426457  0.796484  0.067961  1
  P  P8  1  0.414992  0.214326  0.586307  1
  P  P9  1  0.247093  0.847772  0.742026  1
  P  P10  1  0.785674  0.585008  0.086307  1
  P  P11  1  0.152228  0.752907  0.242026  1
  P  P12  1  0.847772  0.247093  0.757974  1
  P  P13  1  0.214326  0.414992  0.913693  1
  P  P14  1  0.752907  0.152228  0.257974  1
  P  P15  1  0.585008  0.785674  0.413693  1
  H  H16  1  0.893539  0.886324  0.843385  1
  H  H17  1  0.086757  0.993965  0.775428  1
  H  H18  1  0.113676  0.106461  0.343385  1
  H  H19  1  0.774579  0.646904  0.506795  1
  H  H20  1  0.006035  0.913243  0.275428  1
  H  H21  1  0.917529  0.639169  0.622269  1
  H  H22  1  0.353096  0.225421  0.006795  1
  H  H23  1  0.360831  0.082471  0.122269  1
  H  H24  1  0.639169  0.917529  0.877731  1
  H  H25  1  0.646904  0.774579  0.993205  1
  H  H26  1  0.082471  0.360831  0.377731  1
  H  H27  1  0.993965  0.086757  0.724572  1
  H  H28  1  0.225421  0.353096  0.493205  1
  H  H29  1  0.886324  0.893539  0.656615  1
  H  H30  1  0.913243  0.006035  0.224572  1
  H  H31  1  0.106461  0.113676  0.156615  1
  N  N32  1  0.967508  0.967508  0.750000  1
  N  N33  1  0.032492  0.032492  0.250000  1
  O  O34  1  0.722514  0.673989  0.966578  1
  O  O35  1  0.326011  0.277486  0.466578  1
  O  O36  1  0.509963  0.309643  0.729635  1
  O  O37  1  0.240654  0.001626  0.639657  1
  O  O38  1  0.860068  0.631876  0.513113  1
  O  O39  1  0.060527  0.695418  0.794749  1
  O  O40  1  0.690357  0.490037  0.229635  1
  O  O41  1  0.535571  0.215700  0.519698  1
  O  O42  1  0.402761  0.942533  0.871691  1
  O  O43  1  0.998374  0.759346  0.139657  1
  O  O44  1  0.368124  0.139932  0.013113  1
  O  O45  1  0.800225  0.290218  0.868246  1
  O  O46  1  0.304582  0.939473  0.294749  1
  O  O47  1  0.290218  0.800225  0.631754  1
  O  O48  1  0.784300  0.464429  0.019698  1
  O  O49  1  0.057467  0.597239  0.371691  1
  O  O50  1  0.942533  0.402761  0.628309  1
  O  O51  1  0.215700  0.535571  0.980302  1
  O  O52  1  0.709782  0.199775  0.368246  1
  O  O53  1  0.695418  0.060527  0.705251  1
  O  O54  1  0.199775  0.709782  0.131754  1
  O  O55  1  0.631876  0.860068  0.986887  1
  O  O56  1  0.001626  0.240654  0.860343  1
  O  O57  1  0.597239  0.057467  0.128309  1
  O  O58  1  0.464429  0.784300  0.480302  1
  O  O59  1  0.309643  0.509963  0.770365  1
  O  O60  1  0.939473  0.304582  0.205251  1
  O  O61  1  0.139932  0.368124  0.486887  1
  O  O62  1  0.759346  0.998374  0.360343  1
  O  O63  1  0.490037  0.690357  0.270365  1
  O  O64  1  0.673989  0.722514  0.533422  1
  O  O65  1  0.277486  0.326011  0.033422  1
