# generated using pymatgen
data_NaLi2MnPCO7
_symmetry_space_group_name_H-M   'P 1'
_cell_length_a   6.65221290
_cell_length_b   8.71873623
_cell_length_c   10.08034722
_cell_angle_alpha   89.00356906
_cell_angle_beta   89.95278420
_cell_angle_gamma   89.88694787
_symmetry_Int_Tables_number   1
_chemical_formula_structural   NaLi2MnPCO7
_chemical_formula_sum   'Na4 Li8 Mn4 P4 C4 O28'
_cell_volume   584.55921508
_cell_formula_units_Z   4
loop_
 _symmetry_equiv_pos_site_id
 _symmetry_equiv_pos_as_xyz
  1  'x, y, z'
loop_
 _atom_site_type_symbol
 _atom_site_label
 _atom_site_symmetry_multiplicity
 _atom_site_fract_x
 _atom_site_fract_y
 _atom_site_fract_z
 _atom_site_occupancy
  Na  Na0  1  0.745867  0.084159  0.877931  1
  Na  Na1  1  0.747905  0.084277  0.378604  1
  Na  Na2  1  0.002961  0.251580  0.124445  1
  Na  Na3  1  0.499579  0.748454  0.376342  1
  Li  Li4  1  0.979535  0.265075  0.616904  1
  Li  Li5  1  0.522155  0.266928  0.613884  1
  Li  Li6  1  0.518029  0.268049  0.115305  1
  Li  Li7  1  0.482151  0.736475  0.882055  1
  Li  Li8  1  0.019711  0.734690  0.885620  1
  Li  Li9  1  0.015917  0.733846  0.384437  1
  Li  Li10  1  0.245877  0.917806  0.628005  1
  Li  Li11  1  0.250881  0.912663  0.123413  1
  Mn  Mn12  1  0.252807  0.357822  0.884346  1
  Mn  Mn13  1  0.252286  0.359809  0.391735  1
  Mn  Mn14  1  0.753420  0.644641  0.615896  1
  Mn  Mn15  1  0.751525  0.641968  0.108919  1
  P  P16  1  0.749919  0.412513  0.849479  1
  P  P17  1  0.751697  0.412768  0.355525  1
  P  P18  1  0.250196  0.593391  0.651247  1
  P  P19  1  0.250578  0.592942  0.145412  1
  C  C20  1  0.250184  0.041461  0.865799  1
  C  C21  1  0.243009  0.046028  0.365866  1
  C  C22  1  0.750859  0.950471  0.633394  1
  C  C23  1  0.742696  0.945822  0.132277  1
  O  O24  1  0.751394  0.100198  0.640344  1
  O  O25  1  0.723744  0.094350  0.141574  1
  O  O26  1  0.247104  0.088400  0.987878  1
  O  O27  1  0.250527  0.089820  0.488444  1
  O  O28  1  0.252754  0.140814  0.767626  1
  O  O29  1  0.258132  0.147708  0.269454  1
  O  O30  1  0.938088  0.322928  0.898068  1
  O  O31  1  0.566978  0.320625  0.904404  1
  O  O32  1  0.937034  0.314346  0.398939  1
  O  O33  1  0.566700  0.325910  0.414000  1
  O  O34  1  0.746453  0.413428  0.693861  1
  O  O35  1  0.247495  0.423402  0.603054  1
  O  O36  1  0.734798  0.418182  0.200515  1
  O  O37  1  0.267955  0.426274  0.093880  1
  O  O38  1  0.747160  0.582180  0.895085  1
  O  O39  1  0.245817  0.586465  0.806774  1
  O  O40  1  0.768133  0.579106  0.404528  1
  O  O41  1  0.234104  0.581861  0.300124  1
  O  O42  1  0.437262  0.684466  0.604579  1
  O  O43  1  0.069305  0.688631  0.597768  1
  O  O44  1  0.433513  0.694286  0.103761  1
  O  O45  1  0.066859  0.681855  0.088092  1
  O  O46  1  0.753018  0.865323  0.740112  1
  O  O47  1  0.755793  0.860001  0.238371  1
  O  O48  1  0.748263  0.884759  0.518827  1
  O  O49  1  0.749339  0.882227  0.017066  1
  O  O50  1  0.250962  0.895914  0.839917  1
  O  O51  1  0.221569  0.902902  0.336114  1
