# generated using pymatgen
data_V4OF11
_symmetry_space_group_name_H-M   'P 1'
_cell_length_a   5.26314036
_cell_length_b   5.46167165
_cell_length_c   17.45299901
_cell_angle_alpha   88.75202256
_cell_angle_beta   98.38114715
_cell_angle_gamma   118.68982199
_symmetry_Int_Tables_number   1
_chemical_formula_structural   V4OF11
_chemical_formula_sum   'V8 O2 F22'
_cell_volume   434.73146553
_cell_formula_units_Z   2
loop_
 _symmetry_equiv_pos_site_id
 _symmetry_equiv_pos_as_xyz
  1  'x, y, z'
loop_
 _atom_site_type_symbol
 _atom_site_label
 _atom_site_symmetry_multiplicity
 _atom_site_fract_x
 _atom_site_fract_y
 _atom_site_fract_z
 _atom_site_occupancy
  V  V0  1  0.229424  0.599430  0.879832  1
  V  V1  1  0.254105  0.121533  0.373740  1
  V  V2  1  0.496908  0.243010  0.751260  1
  V  V3  1  0.508058  0.738534  0.242514  1
  V  V4  1  0.749057  0.871152  0.625552  1
  V  V5  1  0.749347  0.386546  0.125861  1
  V  V6  1  0.999066  0.012739  0.998481  1
  V  V7  1  0.000533  0.497779  0.499805  1
  O  O8  1  0.052465  0.329878  0.934695  1
  O  O9  1  0.577558  0.593330  0.169797  1
  F  F10  1  0.070198  0.838037  0.911889  1
  F  F11  1  0.022737  0.809242  0.437112  1
  F  F12  1  0.460306  0.925096  0.815336  1
  F  F13  1  0.068385  0.033604  0.713831  1
  F  F14  1  0.075773  0.334423  0.411438  1
  F  F15  1  0.077201  0.541604  0.212250  1
  F  F16  1  0.575555  0.799172  0.962091  1
  F  F17  1  0.434954  0.422080  0.838364  1
  F  F18  1  0.421670  0.906931  0.331901  1
  F  F19  1  0.429987  0.713856  0.536933  1
  F  F20  1  0.519689  0.556596  0.688108  1
  F  F21  1  0.482197  0.448724  0.314109  1
  F  F22  1  0.571163  0.085927  0.663024  1
  F  F23  1  0.573715  0.280896  0.462419  1
  F  F24  1  0.425204  0.213890  0.038253  1
  F  F25  1  0.927358  0.657071  0.588277  1
  F  F26  1  0.927542  0.461967  0.788257  1
  F  F27  1  0.922250  0.968567  0.286569  1
  F  F28  1  0.522500  0.064314  0.187323  1
  F  F29  1  0.969042  0.690976  0.061901  1
  F  F30  1  0.980659  0.185472  0.562581  1
  F  F31  1  0.925393  0.167627  0.086493  1
