# generated using pymatgen
data_Li2CrFeO4
_symmetry_space_group_name_H-M   'P 1'
_cell_length_a   5.16771366
_cell_length_b   5.95173682
_cell_length_c   7.87606873
_cell_angle_alpha   100.87939026
_cell_angle_beta   109.04519987
_cell_angle_gamma   89.93773012
_symmetry_Int_Tables_number   1
_chemical_formula_structural   Li2CrFeO4
_chemical_formula_sum   'Li6 Cr3 Fe3 O12'
_cell_volume   224.38946152
_cell_formula_units_Z   3
loop_
 _symmetry_equiv_pos_site_id
 _symmetry_equiv_pos_as_xyz
  1  'x, y, z'
loop_
 _atom_site_type_symbol
 _atom_site_label
 _atom_site_symmetry_multiplicity
 _atom_site_fract_x
 _atom_site_fract_y
 _atom_site_fract_z
 _atom_site_occupancy
  Li  Li0  1  0.497564  0.748331  0.498906  1
  Li  Li1  1  0.502436  0.251669  0.501094  1
  Li  Li2  1  0.498989  0.915134  0.166095  1
  Li  Li3  1  0.499827  0.416931  0.166589  1
  Li  Li4  1  0.501011  0.084866  0.833905  1
  Li  Li5  1  0.500173  0.583069  0.833411  1
  Cr  Cr6  1  0.000000  0.500000  0.500000  1
  Cr  Cr7  1  0.000486  0.665706  0.167233  1
  Cr  Cr8  1  0.999514  0.334294  0.832767  1
  Fe  Fe9  1  0.000000  0.000000  0.500000  1
  Fe  Fe10  1  0.000582  0.165795  0.166321  1
  Fe  Fe11  1  0.999418  0.834205  0.833679  1
  O  O12  1  0.770734  0.045160  0.672543  1
  O  O13  1  0.774462  0.543297  0.671268  1
  O  O14  1  0.228669  0.789181  0.661620  1
  O  O15  1  0.224524  0.290937  0.661177  1
  O  O16  1  0.775476  0.709063  0.338823  1
  O  O17  1  0.229266  0.954840  0.327457  1
  O  O18  1  0.771331  0.210819  0.338380  1
  O  O19  1  0.771999  0.874736  0.006427  1
  O  O20  1  0.225538  0.456703  0.328732  1
  O  O21  1  0.774555  0.376880  0.004547  1
  O  O22  1  0.225445  0.623120  0.995453  1
  O  O23  1  0.228001  0.125264  0.993573  1
