# generated using pymatgen
data_Li6Bi(BO3)3
_symmetry_space_group_name_H-M   'P 1'
_cell_length_a   6.80006695
_cell_length_b   16.73112984
_cell_length_c   7.35578372
_cell_angle_alpha   90.00000000
_cell_angle_beta   105.59268349
_cell_angle_gamma   90.00000000
_symmetry_Int_Tables_number   1
_chemical_formula_structural   Li6Bi(BO3)3
_chemical_formula_sum   'Li24 Bi4 B12 O36'
_cell_volume   806.08805404
_cell_formula_units_Z   4
loop_
 _symmetry_equiv_pos_site_id
 _symmetry_equiv_pos_as_xyz
  1  'x, y, z'
loop_
 _atom_site_type_symbol
 _atom_site_label
 _atom_site_symmetry_multiplicity
 _atom_site_fract_x
 _atom_site_fract_y
 _atom_site_fract_z
 _atom_site_occupancy
  Li  Li0  1  0.322611  0.001621  0.928822  1
  Li  Li1  1  0.422261  0.449371  0.856042  1
  Li  Li2  1  0.822611  0.498379  0.928822  1
  Li  Li3  1  0.054949  0.536245  0.695900  1
  Li  Li4  1  0.922261  0.050629  0.856042  1
  Li  Li5  1  0.368255  0.293651  0.711991  1
  Li  Li6  1  0.554949  0.963755  0.695900  1
  Li  Li7  1  0.052635  0.704531  0.565356  1
  Li  Li8  1  0.168931  0.030413  0.544250  1
  Li  Li9  1  0.868255  0.206349  0.711991  1
  Li  Li10  1  0.552635  0.795469  0.565356  1
  Li  Li11  1  0.668931  0.469587  0.544250  1
  Li  Li12  1  0.331069  0.530413  0.455750  1
  Li  Li13  1  0.447365  0.204531  0.434644  1
  Li  Li14  1  0.131745  0.793651  0.288009  1
  Li  Li15  1  0.831069  0.969587  0.455750  1
  Li  Li16  1  0.947365  0.295469  0.434644  1
  Li  Li17  1  0.445051  0.036245  0.304100  1
  Li  Li18  1  0.631745  0.706349  0.288009  1
  Li  Li19  1  0.077739  0.949371  0.143958  1
  Li  Li20  1  0.945051  0.463755  0.304100  1
  Li  Li21  1  0.177389  0.501621  0.071178  1
  Li  Li22  1  0.577739  0.550629  0.143958  1
  Li  Li23  1  0.677389  0.998379  0.071178  1
  Bi  Bi24  1  0.346194  0.813294  0.924680  1
  Bi  Bi25  1  0.846194  0.686706  0.924680  1
  Bi  Bi26  1  0.153806  0.313294  0.075320  1
  Bi  Bi27  1  0.653806  0.186706  0.075320  1
  B  B28  1  0.340491  0.633036  0.920206  1
  B  B29  1  0.840491  0.866964  0.920206  1
  B  B30  1  0.493969  0.118039  0.705132  1
  B  B31  1  0.183665  0.886597  0.557677  1
  B  B32  1  0.993969  0.381961  0.705132  1
  B  B33  1  0.683665  0.613403  0.557677  1
  B  B34  1  0.316335  0.386597  0.442323  1
  B  B35  1  0.006031  0.618039  0.294868  1
  B  B36  1  0.816335  0.113403  0.442323  1
  B  B37  1  0.506031  0.881961  0.294868  1
  B  B38  1  0.159509  0.133036  0.079794  1
  B  B39  1  0.659509  0.366964  0.079794  1
  O  O40  1  0.471980  0.330883  0.990858  1
  O  O41  1  0.032461  0.429367  0.868682  1
  O  O42  1  0.322810  0.551430  0.915418  1
  O  O43  1  0.173326  0.682730  0.846692  1
  O  O44  1  0.971980  0.169117  0.990858  1
  O  O45  1  0.532461  0.070633  0.868682  1
  O  O46  1  0.049232  0.301295  0.729288  1
  O  O47  1  0.822810  0.948570  0.915418  1
  O  O48  1  0.673326  0.817270  0.846692  1
  O  O49  1  0.264555  0.933498  0.719078  1
  O  O50  1  0.549232  0.198705  0.729288  1
  O  O51  1  0.764555  0.566502  0.719078  1
  O  O52  1  0.222776  0.805011  0.572164  1
  O  O53  1  0.428937  0.423498  0.604811  1
  O  O54  1  0.091209  0.586314  0.470080  1
  O  O55  1  0.408791  0.086314  0.529920  1
  O  O56  1  0.722776  0.694989  0.572164  1
  O  O57  1  0.071063  0.923498  0.395189  1
  O  O58  1  0.928937  0.076502  0.604811  1
  O  O59  1  0.277224  0.305011  0.427836  1
  O  O60  1  0.591209  0.913686  0.470080  1
  O  O61  1  0.908791  0.413686  0.529920  1
  O  O62  1  0.571063  0.576502  0.395189  1
  O  O63  1  0.777224  0.194989  0.427836  1
  O  O64  1  0.235445  0.433498  0.280922  1
  O  O65  1  0.450768  0.801295  0.270712  1
  O  O66  1  0.735445  0.066502  0.280922  1
  O  O67  1  0.326674  0.182730  0.153308  1
  O  O68  1  0.177190  0.051430  0.084582  1
  O  O69  1  0.950768  0.698705  0.270712  1
  O  O70  1  0.467539  0.929367  0.131318  1
  O  O71  1  0.028020  0.830883  0.009142  1
  O  O72  1  0.826674  0.317270  0.153308  1
  O  O73  1  0.677190  0.448570  0.084582  1
  O  O74  1  0.967539  0.570633  0.131318  1
  O  O75  1  0.528020  0.669117  0.009142  1
