# generated using pymatgen
data_MnCo3O8
_symmetry_space_group_name_H-M   'P 1'
_cell_length_a   5.75216697
_cell_length_b   5.75216697
_cell_length_c   5.75216697
_cell_angle_alpha   59.64939595
_cell_angle_beta   59.64939595
_cell_angle_gamma   59.64939595
_symmetry_Int_Tables_number   1
_chemical_formula_structural   MnCo3O8
_chemical_formula_sum   'Mn1 Co3 O8'
_cell_volume   133.50755164
_cell_formula_units_Z   1
loop_
 _symmetry_equiv_pos_site_id
 _symmetry_equiv_pos_as_xyz
  1  'x, y, z'
loop_
 _atom_site_type_symbol
 _atom_site_label
 _atom_site_symmetry_multiplicity
 _atom_site_fract_x
 _atom_site_fract_y
 _atom_site_fract_z
 _atom_site_occupancy
  Mn  Mn0  1  0.000000  0.000000  0.000000  1
  Co  Co1  1  0.000000  0.500000  0.500000  1
  Co  Co2  1  0.500000  1.000000  0.500000  1
  Co  Co3  1  0.500000  0.500000  0.000000  1
  O  O4  1  0.763353  0.763353  0.272851  1
  O  O5  1  0.763353  0.272851  0.763353  1
  O  O6  1  0.272851  0.763353  0.763353  1
  O  O7  1  0.267260  0.267260  0.267260  1
  O  O8  1  0.732740  0.732740  0.732740  1
  O  O9  1  0.727149  0.236647  0.236647  1
  O  O10  1  0.236647  0.727149  0.236647  1
  O  O11  1  0.236647  0.236647  0.727149  1
