# generated using pymatgen
data_ThNb4O12
_symmetry_space_group_name_H-M   'P 1'
_cell_length_a   8.90265701
_cell_length_b   8.90265701
_cell_length_c   8.90265701
_cell_angle_alpha   143.25515702
_cell_angle_beta   143.25515702
_cell_angle_gamma   52.94256292
_symmetry_Int_Tables_number   1
_chemical_formula_structural   ThNb4O12
_chemical_formula_sum   'Th1 Nb4 O12'
_cell_volume   250.99766860
_cell_formula_units_Z   1
loop_
 _symmetry_equiv_pos_site_id
 _symmetry_equiv_pos_as_xyz
  1  'x, y, z'
loop_
 _atom_site_type_symbol
 _atom_site_label
 _atom_site_symmetry_multiplicity
 _atom_site_fract_x
 _atom_site_fract_y
 _atom_site_fract_z
 _atom_site_occupancy
  Th  Th0  1  0.500000  0.500000  0.000000  1
  Nb  Nb1  1  0.627947  0.127947  0.500000  1
  Nb  Nb2  1  0.372053  0.872053  0.500000  1
  Nb  Nb3  1  0.127947  0.627947  0.500000  1
  Nb  Nb4  1  0.872053  0.372053  0.500000  1
  O  O5  1  0.250000  0.750000  0.500000  1
  O  O6  1  0.152527  0.152527  0.529811  1
  O  O7  1  0.750000  0.250000  0.500000  1
  O  O8  1  0.622716  0.152527  0.000000  1
  O  O9  1  0.152527  0.622716  1.000000  1
  O  O10  1  0.622716  0.622716  0.470189  1
  O  O11  1  0.500000  0.000000  0.500000  1
  O  O12  1  0.847473  0.847473  0.470189  1
  O  O13  1  0.000000  0.500000  0.500000  1
  O  O14  1  0.847473  0.377284  0.000000  1
  O  O15  1  0.377284  0.847473  1.000000  1
  O  O16  1  0.377284  0.377284  0.529811  1
