# generated using pymatgen
data_Li6Ti2O7
_symmetry_space_group_name_H-M   'P 1'
_cell_length_a   5.81150915
_cell_length_b   5.81150915
_cell_length_c   9.78877370
_cell_angle_alpha   80.24048430
_cell_angle_beta   99.75951570
_cell_angle_gamma   120.15995584
_symmetry_Int_Tables_number   1
_chemical_formula_structural   Li6Ti2O7
_chemical_formula_sum   'Li12 Ti4 O14'
_cell_volume   280.32723873
_cell_formula_units_Z   2
loop_
 _symmetry_equiv_pos_site_id
 _symmetry_equiv_pos_as_xyz
  1  'x, y, z'
loop_
 _atom_site_type_symbol
 _atom_site_label
 _atom_site_symmetry_multiplicity
 _atom_site_fract_x
 _atom_site_fract_y
 _atom_site_fract_z
 _atom_site_occupancy
  Li  Li0  1  0.078286  0.670093  0.886774  1
  Li  Li1  1  0.329907  0.921714  0.386774  1
  Li  Li2  1  0.078477  0.207064  0.903342  1
  Li  Li3  1  0.529042  0.670849  0.889565  1
  Li  Li4  1  0.792936  0.921523  0.403342  1
  Li  Li5  1  0.329151  0.470958  0.389565  1
  Li  Li6  1  0.670849  0.529042  0.610435  1
  Li  Li7  1  0.207064  0.078477  0.596658  1
  Li  Li8  1  0.470958  0.329151  0.110435  1
  Li  Li9  1  0.921523  0.792936  0.096658  1
  Li  Li10  1  0.670093  0.078286  0.613226  1
  Li  Li11  1  0.921714  0.329907  0.113226  1
  Ti  Ti12  1  0.203630  0.571535  0.630932  1
  Ti  Ti13  1  0.428465  0.796370  0.130932  1
  Ti  Ti14  1  0.571535  0.203630  0.869068  1
  Ti  Ti15  1  0.796370  0.428465  0.369068  1
  O  O16  1  0.355098  0.858512  0.749544  1
  O  O17  1  0.728376  0.001290  0.997813  1
  O  O18  1  0.141488  0.644902  0.249544  1
  O  O19  1  0.998710  0.271624  0.497813  1
  O  O20  1  0.495416  0.739197  0.527137  1
  O  O21  1  0.346179  0.346179  0.750000  1
  O  O22  1  0.260803  0.504584  0.027137  1
  O  O23  1  0.739197  0.495416  0.972863  1
  O  O24  1  0.653821  0.653821  0.250000  1
  O  O25  1  0.504584  0.260803  0.472863  1
  O  O26  1  0.001290  0.728376  0.502187  1
  O  O27  1  0.858512  0.355098  0.750456  1
  O  O28  1  0.271624  0.998710  0.002187  1
  O  O29  1  0.644902  0.141488  0.250456  1
