# generated using pymatgen
data_Li5BO4
_symmetry_space_group_name_H-M   'P 1'
_cell_length_a   8.59244400
_cell_length_b   8.70293555
_cell_length_c   8.94574983
_cell_angle_alpha   90.00000000
_cell_angle_beta   90.00000000
_cell_angle_gamma   90.00000000
_symmetry_Int_Tables_number   1
_chemical_formula_structural   Li5BO4
_chemical_formula_sum   'Li40 B8 O32'
_cell_volume   668.95857729
_cell_formula_units_Z   8
loop_
 _symmetry_equiv_pos_site_id
 _symmetry_equiv_pos_as_xyz
  1  'x, y, z'
loop_
 _atom_site_type_symbol
 _atom_site_label
 _atom_site_symmetry_multiplicity
 _atom_site_fract_x
 _atom_site_fract_y
 _atom_site_fract_z
 _atom_site_occupancy
  Li  Li0  1  0.407296  0.177196  0.129279  1
  Li  Li1  1  0.907296  0.177196  0.370721  1
  Li  Li2  1  0.569393  0.087236  0.596741  1
  Li  Li3  1  0.069393  0.087236  0.903259  1
  Li  Li4  1  0.365753  0.144456  0.858709  1
  Li  Li5  1  0.865753  0.144456  0.641291  1
  Li  Li6  1  0.185939  0.123661  0.409299  1
  Li  Li7  1  0.685939  0.123661  0.090701  1
  Li  Li8  1  0.140134  0.082832  0.653779  1
  Li  Li9  1  0.640134  0.082832  0.846221  1
  Li  Li10  1  0.140134  0.417168  0.153779  1
  Li  Li11  1  0.640134  0.417168  0.346221  1
  Li  Li12  1  0.185939  0.376339  0.909299  1
  Li  Li13  1  0.685939  0.376339  0.590701  1
  Li  Li14  1  0.365753  0.355544  0.358709  1
  Li  Li15  1  0.865753  0.355544  0.141291  1
  Li  Li16  1  0.069393  0.412764  0.403259  1
  Li  Li17  1  0.569393  0.412764  0.096741  1
  Li  Li18  1  0.907296  0.322804  0.870721  1
  Li  Li19  1  0.407296  0.322804  0.629279  1
  Li  Li20  1  0.092704  0.677196  0.129279  1
  Li  Li21  1  0.592704  0.677196  0.370721  1
  Li  Li22  1  0.930607  0.587236  0.596741  1
  Li  Li23  1  0.430607  0.587236  0.903259  1
  Li  Li24  1  0.634247  0.644456  0.641291  1
  Li  Li25  1  0.134247  0.644456  0.858709  1
  Li  Li26  1  0.314061  0.623661  0.409299  1
  Li  Li27  1  0.814061  0.623661  0.090701  1
  Li  Li28  1  0.359866  0.582832  0.653779  1
  Li  Li29  1  0.859866  0.582832  0.846221  1
  Li  Li30  1  0.359866  0.917168  0.153779  1
  Li  Li31  1  0.859866  0.917168  0.346221  1
  Li  Li32  1  0.314061  0.876339  0.909299  1
  Li  Li33  1  0.814061  0.876339  0.590701  1
  Li  Li34  1  0.634247  0.855544  0.141291  1
  Li  Li35  1  0.134247  0.855544  0.358709  1
  Li  Li36  1  0.930607  0.912764  0.096741  1
  Li  Li37  1  0.430607  0.912764  0.403259  1
  Li  Li38  1  0.092704  0.822804  0.629279  1
  Li  Li39  1  0.592704  0.822804  0.870721  1
  B  B40  1  0.133045  0.143776  0.142378  1
  B  B41  1  0.633045  0.143776  0.357622  1
  B  B42  1  0.133045  0.356224  0.642378  1
  B  B43  1  0.633045  0.356224  0.857622  1
  B  B44  1  0.366955  0.643776  0.142378  1
  B  B45  1  0.866955  0.643776  0.357622  1
  B  B46  1  0.366955  0.856224  0.642378  1
  B  B47  1  0.866955  0.856224  0.857622  1
  O  O48  1  0.038954  0.035391  0.242536  1
  O  O49  1  0.538954  0.035391  0.257464  1
  O  O50  1  0.240747  0.052664  0.034673  1
  O  O51  1  0.740747  0.052664  0.465327  1
  O  O52  1  0.228694  0.244720  0.241548  1
  O  O53  1  0.728694  0.244720  0.258452  1
  O  O54  1  0.533896  0.251241  0.956842  1
  O  O55  1  0.033896  0.251241  0.543158  1
  O  O56  1  0.033896  0.248759  0.043158  1
  O  O57  1  0.533896  0.248759  0.456842  1
  O  O58  1  0.228694  0.255280  0.741548  1
  O  O59  1  0.728694  0.255280  0.758452  1
  O  O60  1  0.240747  0.447336  0.534673  1
  O  O61  1  0.740747  0.447336  0.965327  1
  O  O62  1  0.538954  0.464609  0.757464  1
  O  O63  1  0.038954  0.464609  0.742536  1
  O  O64  1  0.461046  0.535391  0.242536  1
  O  O65  1  0.961046  0.535391  0.257464  1
  O  O66  1  0.259253  0.552664  0.034673  1
  O  O67  1  0.759253  0.552664  0.465327  1
  O  O68  1  0.271306  0.744720  0.241548  1
  O  O69  1  0.771306  0.744720  0.258452  1
  O  O70  1  0.466104  0.751241  0.543158  1
  O  O71  1  0.966104  0.751241  0.956842  1
  O  O72  1  0.966104  0.748759  0.456842  1
  O  O73  1  0.466104  0.748759  0.043158  1
  O  O74  1  0.271306  0.755280  0.741548  1
  O  O75  1  0.771306  0.755280  0.758452  1
  O  O76  1  0.259253  0.947336  0.534673  1
  O  O77  1  0.759253  0.947336  0.965327  1
  O  O78  1  0.461046  0.964609  0.742536  1
  O  O79  1  0.961046  0.964609  0.757464  1
