# generated using pymatgen
data_Li4V3Fe3(TeO8)2
_symmetry_space_group_name_H-M   'P 1'
_cell_length_a   5.94584278
_cell_length_b   6.02220968
_cell_length_c   10.23177850
_cell_angle_alpha   90.51310233
_cell_angle_beta   89.83172001
_cell_angle_gamma   118.88339586
_symmetry_Int_Tables_number   1
_chemical_formula_structural   Li4V3Fe3(TeO8)2
_chemical_formula_sum   'Li4 V3 Fe3 Te2 O16'
_cell_volume   320.78235366
_cell_formula_units_Z   1
loop_
 _symmetry_equiv_pos_site_id
 _symmetry_equiv_pos_as_xyz
  1  'x, y, z'
loop_
 _atom_site_type_symbol
 _atom_site_label
 _atom_site_symmetry_multiplicity
 _atom_site_fract_x
 _atom_site_fract_y
 _atom_site_fract_z
 _atom_site_occupancy
  Li  Li0  1  0.675782  0.331469  0.098859  1
  Li  Li1  1  0.993350  0.997400  0.005255  1
  Li  Li2  1  0.998613  0.991525  0.515291  1
  Li  Li3  1  0.330124  0.673440  0.593245  1
  V  V4  1  0.799520  0.642518  0.772984  1
  V  V5  1  0.659503  0.812567  0.279722  1
  V  V6  1  0.172718  0.827144  0.284890  1
  Fe  Fe7  1  0.840011  0.180482  0.780693  1
  Fe  Fe8  1  0.341966  0.167187  0.785049  1
  Fe  Fe9  1  0.163674  0.337486  0.288324  1
  Te  Te10  1  0.656654  0.306940  0.506298  1
  Te  Te11  1  0.321143  0.662934  0.991828  1
  O  O12  1  0.829278  0.142954  0.403850  1
  O  O13  1  0.526638  0.042988  0.643252  1
  O  O14  1  0.687584  0.348720  0.892105  1
  O  O15  1  0.984339  0.981711  0.696897  1
  O  O16  1  0.998844  0.005339  0.190061  1
  O  O17  1  0.316598  0.150510  0.405658  1
  O  O18  1  0.972570  0.491090  0.667370  1
  O  O19  1  0.527630  0.517239  0.666226  1
  O  O20  1  0.160509  0.328092  0.903756  1
  O  O21  1  0.873351  0.716323  0.388192  1
  O  O22  1  0.510936  0.524084  0.186606  1
  O  O23  1  0.028848  0.519118  0.176985  1
  O  O24  1  0.337347  0.669474  0.391315  1
  O  O25  1  0.663748  0.834067  0.893138  1
  O  O26  1  0.480964  0.977602  0.184264  1
  O  O27  1  0.148057  0.819600  0.900045  1
