# generated using pymatgen
data_Hf2N2O
_symmetry_space_group_name_H-M   'P 1'
_cell_length_a   8.71845661
_cell_length_b   8.72425409
_cell_length_c   8.72788603
_cell_angle_alpha   109.49838084
_cell_angle_beta   109.23486044
_cell_angle_gamma   109.48997427
_symmetry_Int_Tables_number   1
_chemical_formula_structural   Hf2N2O
_chemical_formula_sum   'Hf16 N16 O8'
_cell_volume   512.23521645
_cell_formula_units_Z   8
loop_
 _symmetry_equiv_pos_site_id
 _symmetry_equiv_pos_as_xyz
  1  'x, y, z'
loop_
 _atom_site_type_symbol
 _atom_site_label
 _atom_site_symmetry_multiplicity
 _atom_site_fract_x
 _atom_site_fract_y
 _atom_site_fract_z
 _atom_site_occupancy
  Hf  Hf0  1  0.726244  0.968843  0.755899  1
  Hf  Hf1  1  0.510668  0.500127  0.498968  1
  Hf  Hf2  1  0.241967  0.779222  0.529680  1
  Hf  Hf3  1  0.755115  0.721928  0.967811  1
  Hf  Hf4  1  0.955881  0.250236  0.213379  1
  Hf  Hf5  1  0.462161  0.242773  0.704730  1
  Hf  Hf6  1  0.505940  0.995882  0.009355  1
  Hf  Hf7  1  0.785971  0.534310  0.250112  1
  Hf  Hf8  1  0.206557  0.472820  0.747682  1
  Hf  Hf9  1  0.990029  0.001796  0.487923  1
  Hf  Hf10  1  0.030261  0.743840  0.789813  1
  Hf  Hf11  1  0.541471  0.752083  0.284453  1
  Hf  Hf12  1  0.251371  0.292718  0.036404  1
  Hf  Hf13  1  0.749465  0.214116  0.463970  1
  Hf  Hf14  1  0.012105  0.501988  0.002902  1
  Hf  Hf15  1  0.286206  0.031205  0.255160  1
  N  N16  1  0.045479  0.538739  0.274580  1
  N  N17  1  0.733168  0.961849  0.008131  1
  N  N18  1  0.229856  0.989348  0.460839  1
  N  N19  1  0.769118  0.734971  0.720156  1
  N  N20  1  0.969717  0.227505  0.956901  1
  N  N21  1  0.722959  0.270534  0.233244  1
  N  N22  1  0.771645  0.008869  0.543463  1
  N  N23  1  0.533420  0.489780  0.266603  1
  N  N24  1  0.272193  0.729537  0.758539  1
  N  N25  1  0.951887  0.466424  0.727839  1
  N  N26  1  0.764255  0.771076  0.227472  1
  N  N27  1  0.018154  0.239850  0.465404  1
  N  N28  1  0.482111  0.951493  0.223725  1
  N  N29  1  0.273343  0.544013  0.031358  1
  N  N30  1  0.544163  0.276754  0.515025  1
  N  N31  1  0.032211  0.775367  0.045894  1
  O  O32  1  0.720281  0.447904  0.963876  1
  O  O33  1  0.517467  0.050992  0.772900  1
  O  O34  1  0.261632  0.038581  0.987232  1
  O  O35  1  0.452077  0.728249  0.494487  1
  O  O36  1  0.228526  0.260597  0.269872  1
  O  O37  1  0.242110  0.225650  0.776136  1
  O  O38  1  0.465917  0.506106  0.742562  1
  O  O39  1  0.986896  0.761929  0.535517  1
