# generated using pymatgen
data_LaTiNO2
_symmetry_space_group_name_H-M   'P 1'
_cell_length_a   5.57518365
_cell_length_b   5.56376655
_cell_length_c   8.06911916
_cell_angle_alpha   90.00000000
_cell_angle_beta   90.08900800
_cell_angle_gamma   90.00000000
_symmetry_Int_Tables_number   1
_chemical_formula_structural   LaTiNO2
_chemical_formula_sum   'La4 Ti4 N4 O8'
_cell_volume   250.29586904
_cell_formula_units_Z   4
loop_
 _symmetry_equiv_pos_site_id
 _symmetry_equiv_pos_as_xyz
  1  'x, y, z'
loop_
 _atom_site_type_symbol
 _atom_site_label
 _atom_site_symmetry_multiplicity
 _atom_site_fract_x
 _atom_site_fract_y
 _atom_site_fract_z
 _atom_site_occupancy
  La  La0  1  0.251483  0.506480  0.742026  1
  La  La1  1  0.244618  0.504432  0.257673  1
  La  La2  1  0.748517  0.006480  0.257974  1
  La  La3  1  0.755382  0.004432  0.742327  1
  Ti  Ti4  1  0.735423  0.507346  0.502543  1
  Ti  Ti5  1  0.752613  0.503670  0.985025  1
  Ti  Ti6  1  0.264577  0.007346  0.497457  1
  Ti  Ti7  1  0.247387  0.003670  0.014975  1
  N  N8  1  0.448860  0.296294  0.499951  1
  N  N9  1  0.758434  0.500748  0.753285  1
  N  N10  1  0.551140  0.796294  0.500049  1
  N  N11  1  0.241566  0.000748  0.246715  1
  O  O12  1  0.554688  0.196500  0.999050  1
  O  O13  1  0.939860  0.179440  0.499828  1
  O  O14  1  0.058720  0.309204  0.998455  1
  O  O15  1  0.768968  0.495944  0.249224  1
  O  O16  1  0.445312  0.696500  0.000950  1
  O  O17  1  0.060140  0.679440  0.500172  1
  O  O18  1  0.941280  0.809204  0.001545  1
  O  O19  1  0.231032  0.995944  0.750776  1
