# generated using pymatgen
data_Li6Cr2O7
_symmetry_space_group_name_H-M   'P 1'
_cell_length_a   5.06244879
_cell_length_b   5.80589531
_cell_length_c   9.80056140
_cell_angle_alpha   90.00000000
_cell_angle_beta   110.60503997
_cell_angle_gamma   90.00000000
_symmetry_Int_Tables_number   1
_chemical_formula_structural   Li6Cr2O7
_chemical_formula_sum   'Li12 Cr4 O14'
_cell_volume   269.63105298
_cell_formula_units_Z   2
loop_
 _symmetry_equiv_pos_site_id
 _symmetry_equiv_pos_as_xyz
  1  'x, y, z'
loop_
 _atom_site_type_symbol
 _atom_site_label
 _atom_site_symmetry_multiplicity
 _atom_site_fract_x
 _atom_site_fract_y
 _atom_site_fract_z
 _atom_site_occupancy
  Li  Li0  1  0.229440  0.782960  0.862735  1
  Li  Li1  1  0.236419  0.231060  0.867866  1
  Li  Li2  1  0.808354  0.504709  0.869255  1
  Li  Li3  1  0.763581  0.731060  0.632134  1
  Li  Li4  1  0.770560  0.282960  0.637265  1
  Li  Li5  1  0.191646  0.004709  0.630745  1
  Li  Li6  1  0.808354  0.995291  0.369255  1
  Li  Li7  1  0.229440  0.717040  0.362735  1
  Li  Li8  1  0.236419  0.268940  0.367866  1
  Li  Li9  1  0.191646  0.495291  0.130745  1
  Li  Li10  1  0.763581  0.768940  0.132134  1
  Li  Li11  1  0.770560  0.217040  0.137265  1
  Cr  Cr12  1  0.740094  0.007289  0.867215  1
  Cr  Cr13  1  0.259906  0.507289  0.632785  1
  Cr  Cr14  1  0.740094  0.492711  0.367215  1
  Cr  Cr15  1  0.259906  0.992711  0.132785  1
  O  O16  1  0.500000  0.000000  0.000000  1
  O  O17  1  0.984254  0.775397  0.993933  1
  O  O18  1  0.945467  0.007322  0.746110  1
  O  O19  1  0.054533  0.507322  0.753890  1
  O  O20  1  0.515464  0.264695  0.762864  1
  O  O21  1  0.484536  0.764695  0.737136  1
  O  O22  1  0.015746  0.275397  0.506067  1
  O  O23  1  0.984254  0.724603  0.493933  1
  O  O24  1  0.500000  0.500000  0.500000  1
  O  O25  1  0.515464  0.235305  0.262864  1
  O  O26  1  0.484536  0.735305  0.237136  1
  O  O27  1  0.945467  0.492678  0.246110  1
  O  O28  1  0.054533  0.992678  0.253890  1
  O  O29  1  0.015746  0.224603  0.006067  1
