# generated using pymatgen
data_La(ClO4)3
_symmetry_space_group_name_H-M   'P 1'
_cell_length_a   9.86048345
_cell_length_b   9.86048345
_cell_length_c   9.86048345
_cell_angle_alpha   51.49624018
_cell_angle_beta   51.49624018
_cell_angle_gamma   51.49624018
_symmetry_Int_Tables_number   1
_chemical_formula_structural   La(ClO4)3
_chemical_formula_sum   'La2 Cl6 O24'
_cell_volume   542.19635499
_cell_formula_units_Z   2
loop_
 _symmetry_equiv_pos_site_id
 _symmetry_equiv_pos_as_xyz
  1  'x, y, z'
loop_
 _atom_site_type_symbol
 _atom_site_label
 _atom_site_symmetry_multiplicity
 _atom_site_fract_x
 _atom_site_fract_y
 _atom_site_fract_z
 _atom_site_occupancy
  La  La0  1  0.058817  0.058817  0.058817  1
  La  La1  1  0.558817  0.558817  0.558817  1
  Cl  Cl2  1  0.468117  0.186888  0.845994  1
  Cl  Cl3  1  0.186888  0.845994  0.468117  1
  Cl  Cl4  1  0.345994  0.686888  0.968117  1
  Cl  Cl5  1  0.845994  0.468117  0.186888  1
  Cl  Cl6  1  0.968117  0.345994  0.686888  1
  Cl  Cl7  1  0.686888  0.968117  0.345994  1
  O  O8  1  0.075496  0.140198  0.744855  1
  O  O9  1  0.140198  0.744855  0.075496  1
  O  O10  1  0.290223  0.201104  0.884384  1
  O  O11  1  0.003246  0.946521  0.570406  1
  O  O12  1  0.421981  0.330608  0.893662  1
  O  O13  1  0.070406  0.446521  0.503246  1
  O  O14  1  0.384384  0.701104  0.790223  1
  O  O15  1  0.744855  0.075496  0.140198  1
  O  O16  1  0.570406  0.003246  0.946521  1
  O  O17  1  0.244855  0.640198  0.575496  1
  O  O18  1  0.201104  0.884384  0.290223  1
  O  O19  1  0.330608  0.893662  0.421981  1
  O  O20  1  0.575496  0.244855  0.640198  1
  O  O21  1  0.503246  0.070406  0.446521  1
  O  O22  1  0.790223  0.384384  0.701104  1
  O  O23  1  0.701104  0.790223  0.384384  1
  O  O24  1  0.446521  0.503246  0.070406  1
  O  O25  1  0.640198  0.575496  0.244855  1
  O  O26  1  0.393662  0.830608  0.921981  1
  O  O27  1  0.893662  0.421981  0.330608  1
  O  O28  1  0.884384  0.290223  0.201104  1
  O  O29  1  0.946521  0.570406  0.003246  1
  O  O30  1  0.921981  0.393662  0.830608  1
  O  O31  1  0.830608  0.921981  0.393662  1
