# generated using pymatgen
data_Bi12PbO19
_symmetry_space_group_name_H-M   'P 1'
_cell_length_a   9.05767500
_cell_length_b   9.05767500
_cell_length_c   9.05767500
_cell_angle_alpha   109.81767422
_cell_angle_beta   109.81767422
_cell_angle_gamma   109.81767422
_symmetry_Int_Tables_number   1
_chemical_formula_structural   Bi12PbO19
_chemical_formula_sum   'Bi12 Pb1 O19'
_cell_volume   564.58571171
_cell_formula_units_Z   1
loop_
 _symmetry_equiv_pos_site_id
 _symmetry_equiv_pos_as_xyz
  1  'x, y, z'
loop_
 _atom_site_type_symbol
 _atom_site_label
 _atom_site_symmetry_multiplicity
 _atom_site_fract_x
 _atom_site_fract_y
 _atom_site_fract_z
 _atom_site_occupancy
  Bi  Bi0  1  0.680739  0.832964  0.476762  1
  Bi  Bi1  1  0.194553  0.492775  0.321961  1
  Bi  Bi2  1  0.162933  0.856424  0.661464  1
  Bi  Bi3  1  0.138927  0.296888  0.824532  1
  Bi  Bi4  1  0.476762  0.680739  0.832964  1
  Bi  Bi5  1  0.296888  0.824532  0.138927  1
  Bi  Bi6  1  0.661464  0.162933  0.856424  1
  Bi  Bi7  1  0.492775  0.321961  0.194553  1
  Bi  Bi8  1  0.856424  0.661464  0.162933  1
  Bi  Bi9  1  0.832964  0.476762  0.680739  1
  Bi  Bi10  1  0.824532  0.138927  0.296888  1
  Bi  Bi11  1  0.321961  0.194553  0.492775  1
  Pb  Pb12  1  0.959371  0.959371  0.959371  1
  O  O13  1  0.387907  0.387907  0.387907  1
  O  O14  1  0.374953  0.736238  0.625113  1
  O  O15  1  0.647701  0.884999  0.256889  1
  O  O16  1  0.367870  0.631952  0.248200  1
  O  O17  1  0.019063  0.239318  0.004004  1
  O  O18  1  0.116595  0.761130  0.380467  1
  O  O19  1  0.631016  0.002269  0.001983  1
  O  O20  1  0.002269  0.001983  0.631016  1
  O  O21  1  0.248200  0.367870  0.631952  1
  O  O22  1  0.256889  0.647701  0.884999  1
  O  O23  1  0.761130  0.380467  0.116595  1
  O  O24  1  0.736238  0.625113  0.374953  1
  O  O25  1  0.001983  0.631016  0.002269  1
  O  O26  1  0.884999  0.256889  0.647701  1
  O  O27  1  0.239318  0.004004  0.019063  1
  O  O28  1  0.004004  0.019063  0.239318  1
  O  O29  1  0.380467  0.116595  0.761130  1
  O  O30  1  0.625113  0.374953  0.736238  1
  O  O31  1  0.631952  0.248200  0.367870  1
