# generated using pymatgen
data_Co4TeO8
_symmetry_space_group_name_H-M   'P 1'
_cell_length_a   5.88810147
_cell_length_b   5.88810147
_cell_length_c   6.32751790
_cell_angle_alpha   57.62018495
_cell_angle_beta   122.37981505
_cell_angle_gamma   119.07596810
_symmetry_Int_Tables_number   1
_chemical_formula_structural   Co4TeO8
_chemical_formula_sum   'Co4 Te1 O8'
_cell_volume   150.23387740
_cell_formula_units_Z   1
loop_
 _symmetry_equiv_pos_site_id
 _symmetry_equiv_pos_as_xyz
  1  'x, y, z'
loop_
 _atom_site_type_symbol
 _atom_site_label
 _atom_site_symmetry_multiplicity
 _atom_site_fract_x
 _atom_site_fract_y
 _atom_site_fract_z
 _atom_site_occupancy
  Co  Co0  1  0.000000  0.000000  0.000000  1
  Co  Co1  1  0.000000  0.500000  0.000000  1
  Co  Co2  1  0.500000  0.000000  0.000000  1
  Co  Co3  1  0.500000  0.500000  0.500000  1
  Te  Te4  1  0.500000  0.500000  0.000000  1
  O  O5  1  0.747218  0.252782  0.200357  1
  O  O6  1  0.723731  0.738505  0.215808  1
  O  O7  1  0.261495  0.276269  0.215808  1
  O  O8  1  0.252782  0.747218  0.799643  1
  O  O9  1  0.251863  0.748137  0.197001  1
  O  O10  1  0.276269  0.261495  0.784192  1
  O  O11  1  0.738505  0.723731  0.784192  1
  O  O12  1  0.748137  0.251863  0.802999  1
