# generated using pymatgen
data_B8O
_symmetry_space_group_name_H-M   'P 1'
_cell_length_a   9.09966564
_cell_length_b   9.09966564
_cell_length_c   5.14194538
_cell_angle_alpha   87.86117030
_cell_angle_beta   92.13882970
_cell_angle_gamma   108.62531721
_symmetry_Int_Tables_number   1
_chemical_formula_structural   B8O
_chemical_formula_sum   'B48 O6'
_cell_volume   403.04817996
_cell_formula_units_Z   6
loop_
 _symmetry_equiv_pos_site_id
 _symmetry_equiv_pos_as_xyz
  1  'x, y, z'
loop_
 _atom_site_type_symbol
 _atom_site_label
 _atom_site_symmetry_multiplicity
 _atom_site_fract_x
 _atom_site_fract_y
 _atom_site_fract_z
 _atom_site_occupancy
  B  B0  1  0.100798  0.899202  0.877423  1
  B  B1  1  0.000355  0.999645  0.335543  1
  B  B2  1  0.503093  0.003724  0.835466  1
  B  B3  1  0.668645  0.003710  0.669957  1
  B  B4  1  0.166843  0.999621  0.168917  1
  B  B5  1  0.338346  0.897912  0.638842  1
  B  B6  1  0.500814  0.832987  0.668607  1
  B  B7  1  0.000379  0.833157  0.168917  1
  B  B8  1  0.102088  0.661654  0.638842  1
  B  B9  1  0.599224  0.897962  0.377645  1
  B  B10  1  0.899330  0.837878  0.859872  1
  B  B11  1  0.393614  0.823607  0.357490  1
  B  B12  1  0.497614  0.668448  0.836971  1
  B  B13  1  0.996276  0.496907  0.835466  1
  B  B14  1  0.661761  0.599186  0.858425  1
  B  B15  1  0.176393  0.606386  0.357490  1
  B  B16  1  0.167013  0.499186  0.668607  1
  B  B17  1  0.331552  0.502386  0.836971  1
  B  B18  1  0.837878  0.899330  0.140128  1
  B  B19  1  0.499868  0.500132  0.664736  1
  B  B20  1  0.996290  0.331355  0.669957  1
  B  B21  1  0.897962  0.599224  0.622355  1
  B  B22  1  0.393666  0.606334  0.140081  1
  B  B23  1  0.599186  0.661761  0.141575  1
  B  B24  1  0.102038  0.400776  0.377645  1
  B  B25  1  0.606334  0.393666  0.859919  1
  B  B26  1  0.400814  0.338239  0.858425  1
  B  B27  1  0.003710  0.668645  0.330043  1
  B  B28  1  0.500132  0.499868  0.335264  1
  B  B29  1  0.162122  0.100670  0.859872  1
  B  B30  1  0.668448  0.497614  0.163029  1
  B  B31  1  0.832987  0.500814  0.331393  1
  B  B32  1  0.823607  0.393614  0.642510  1
  B  B33  1  0.338239  0.400814  0.141575  1
  B  B34  1  0.003724  0.503093  0.164534  1
  B  B35  1  0.502386  0.331552  0.163029  1
  B  B36  1  0.400776  0.102038  0.622355  1
  B  B37  1  0.100670  0.162122  0.140128  1
  B  B38  1  0.606386  0.176393  0.642510  1
  B  B39  1  0.897912  0.338346  0.361158  1
  B  B40  1  0.499186  0.167013  0.331393  1
  B  B41  1  0.999621  0.166843  0.831083  1
  B  B42  1  0.661654  0.102088  0.361158  1
  B  B43  1  0.331355  0.996290  0.330043  1
  B  B44  1  0.833157  0.000379  0.831083  1
  B  B45  1  0.496907  0.996276  0.164534  1
  B  B46  1  0.999645  0.000355  0.664457  1
  B  B47  1  0.899202  0.100798  0.122577  1
  O  O48  1  0.190427  0.809573  0.760857  1
  O  O49  1  0.810102  0.689423  0.741040  1
  O  O50  1  0.689423  0.810102  0.258960  1
  O  O51  1  0.310577  0.189898  0.741040  1
  O  O52  1  0.189898  0.310577  0.258960  1
  O  O53  1  0.809573  0.190427  0.239143  1
