# generated using pymatgen
data_LiVP2O7
_symmetry_space_group_name_H-M   'P 1'
_cell_length_a   5.10355961
_cell_length_b   8.61187190
_cell_length_c   6.83021366
_cell_angle_alpha   90.00000000
_cell_angle_beta   109.49459935
_cell_angle_gamma   90.00000000
_symmetry_Int_Tables_number   1
_chemical_formula_structural   LiVP2O7
_chemical_formula_sum   'Li2 V2 P4 O14'
_cell_volume   282.98674126
_cell_formula_units_Z   2
loop_
 _symmetry_equiv_pos_site_id
 _symmetry_equiv_pos_as_xyz
  1  'x, y, z'
loop_
 _atom_site_type_symbol
 _atom_site_label
 _atom_site_symmetry_multiplicity
 _atom_site_fract_x
 _atom_site_fract_y
 _atom_site_fract_z
 _atom_site_occupancy
  Li  Li0  1  0.224352  0.513444  0.767782  1
  Li  Li1  1  0.775648  0.013444  0.232218  1
  V  V2  1  0.196678  0.147786  0.685010  1
  V  V3  1  0.803322  0.647786  0.314990  1
  P  P4  1  0.388623  0.810970  0.527767  1
  P  P5  1  0.177561  0.216267  0.057920  1
  P  P6  1  0.822439  0.716267  0.942080  1
  P  P7  1  0.611377  0.310970  0.472233  1
  O  O8  1  0.048194  0.678960  0.857718  1
  O  O9  1  0.108374  0.324412  0.867663  1
  O  O10  1  0.232213  0.963809  0.509099  1
  O  O11  1  0.201272  0.664150  0.487178  1
  O  O12  1  0.419733  0.308250  0.605560  1
  O  O13  1  0.689271  0.574507  0.023695  1
  O  O14  1  0.572536  0.804656  0.767348  1
  O  O15  1  0.427464  0.304656  0.232652  1
  O  O16  1  0.310729  0.074507  0.976305  1
  O  O17  1  0.580267  0.808250  0.394440  1
  O  O18  1  0.798728  0.164150  0.512822  1
  O  O19  1  0.767787  0.463809  0.490901  1
  O  O20  1  0.891626  0.824412  0.132337  1
  O  O21  1  0.951806  0.178960  0.142282  1
