# generated using pymatgen
data_Li4Mn(TeO4)3
_symmetry_space_group_name_H-M   'P 1'
_cell_length_a   5.20019025
_cell_length_b   5.48608014
_cell_length_c   7.64033192
_cell_angle_alpha   85.86239188
_cell_angle_beta   89.73654362
_cell_angle_gamma   89.84414564
_symmetry_Int_Tables_number   1
_chemical_formula_structural   Li4Mn(TeO4)3
_chemical_formula_sum   'Li4 Mn1 Te3 O12'
_cell_volume   217.39740878
_cell_formula_units_Z   1
loop_
 _symmetry_equiv_pos_site_id
 _symmetry_equiv_pos_as_xyz
  1  'x, y, z'
loop_
 _atom_site_type_symbol
 _atom_site_label
 _atom_site_symmetry_multiplicity
 _atom_site_fract_x
 _atom_site_fract_y
 _atom_site_fract_z
 _atom_site_occupancy
  Li  Li0  1  0.992931  0.509499  0.223532  1
  Li  Li1  1  0.504379  0.986675  0.770865  1
  Li  Li2  1  0.006460  0.520091  0.772322  1
  Li  Li3  1  0.497644  0.981970  0.225034  1
  Mn  Mn4  1  0.001564  0.938044  0.964060  1
  Te  Te5  1  0.002175  0.922950  0.462361  1
  Te  Te6  1  0.497642  0.424337  0.961766  1
  Te  Te7  1  0.499536  0.420650  0.464214  1
  O  O8  1  0.872728  0.900447  0.690881  1
  O  O9  1  0.804443  0.226328  0.379561  1
  O  O10  1  0.639245  0.404216  0.699030  1
  O  O11  1  0.365446  0.396402  0.221368  1
  O  O12  1  0.804743  0.596057  0.006250  1
  O  O13  1  0.309704  0.715206  0.895149  1
  O  O14  1  0.692455  0.716736  0.378689  1
  O  O15  1  0.126428  0.891949  0.232638  1
  O  O16  1  0.664733  0.113552  0.008516  1
  O  O17  1  0.328154  0.096457  0.524367  1
  O  O18  1  0.207572  0.242664  0.889424  1
  O  O19  1  0.182018  0.590974  0.527575  1
