# generated using pymatgen
data_Ba6Na2P2Ru2O17
_symmetry_space_group_name_H-M   'P 1'
_cell_length_a   5.86927255
_cell_length_b   5.86927255
_cell_length_c   29.62474837
_cell_angle_alpha   90.00000000
_cell_angle_beta   90.00000000
_cell_angle_gamma   120.00000000
_symmetry_Int_Tables_number   1
_chemical_formula_structural   Ba6Na2P2Ru2O17
_chemical_formula_sum   'Ba12 Na4 P4 Ru4 O34'
_cell_volume   883.79971350
_cell_formula_units_Z   2
loop_
 _symmetry_equiv_pos_site_id
 _symmetry_equiv_pos_as_xyz
  1  'x, y, z'
loop_
 _atom_site_type_symbol
 _atom_site_label
 _atom_site_symmetry_multiplicity
 _atom_site_fract_x
 _atom_site_fract_y
 _atom_site_fract_z
 _atom_site_occupancy
  Ba  Ba0  1  0.333333  0.666667  0.177678  1
  Ba  Ba1  1  0.333333  0.666667  0.589866  1
  Ba  Ba2  1  0.000000  0.000000  0.000000  1
  Ba  Ba3  1  0.000000  0.000000  0.250000  1
  Ba  Ba4  1  0.333333  0.666667  0.322322  1
  Ba  Ba5  1  0.000000  0.000000  0.500000  1
  Ba  Ba6  1  0.000000  0.000000  0.750000  1
  Ba  Ba7  1  0.333333  0.666667  0.910134  1
  Ba  Ba8  1  0.666667  0.333333  0.089866  1
  Ba  Ba9  1  0.666667  0.333333  0.822322  1
  Ba  Ba10  1  0.666667  0.333333  0.677678  1
  Ba  Ba11  1  0.666667  0.333333  0.410134  1
  Na  Na12  1  0.000000  0.000000  0.121955  1
  Na  Na13  1  0.000000  0.000000  0.378045  1
  Na  Na14  1  0.000000  0.000000  0.621955  1
  Na  Na15  1  0.000000  0.000000  0.878045  1
  P  P16  1  0.333333  0.666667  0.053513  1
  P  P17  1  0.333333  0.666667  0.446487  1
  P  P18  1  0.666667  0.333333  0.553513  1
  P  P19  1  0.666667  0.333333  0.946487  1
  Ru  Ru20  1  0.333333  0.666667  0.703032  1
  Ru  Ru21  1  0.333333  0.666667  0.796968  1
  Ru  Ru22  1  0.666667  0.333333  0.203032  1
  Ru  Ru23  1  0.666667  0.333333  0.296968  1
  O  O24  1  0.175775  0.824225  0.668364  1
  O  O25  1  0.175775  0.824225  0.831636  1
  O  O26  1  0.974159  0.487080  0.250000  1
  O  O27  1  0.188752  0.811248  0.072236  1
  O  O28  1  0.188752  0.811248  0.427764  1
  O  O29  1  0.512920  0.025841  0.250000  1
  O  O30  1  0.188752  0.377504  0.072236  1
  O  O31  1  0.175775  0.351550  0.668364  1
  O  O32  1  0.333333  0.666667  0.498638  1
  O  O33  1  0.333333  0.666667  0.001362  1
  O  O34  1  0.188752  0.377504  0.427764  1
  O  O35  1  0.175775  0.351550  0.831636  1
  O  O36  1  0.622496  0.811248  0.072236  1
  O  O37  1  0.622496  0.811248  0.427764  1
  O  O38  1  0.351550  0.175775  0.168364  1
  O  O39  1  0.351550  0.175775  0.331636  1
  O  O40  1  0.512920  0.487080  0.250000  1
  O  O41  1  0.487080  0.512920  0.750000  1
  O  O42  1  0.648450  0.824225  0.668364  1
  O  O43  1  0.648450  0.824225  0.831636  1
  O  O44  1  0.377504  0.188752  0.572236  1
  O  O45  1  0.377504  0.188752  0.927764  1
  O  O46  1  0.487080  0.974159  0.750000  1
  O  O47  1  0.666667  0.333333  0.501362  1
  O  O48  1  0.666667  0.333333  0.998638  1
  O  O49  1  0.824225  0.648450  0.168364  1
  O  O50  1  0.824225  0.648450  0.331636  1
  O  O51  1  0.811248  0.622496  0.572236  1
  O  O52  1  0.811248  0.622496  0.927764  1
  O  O53  1  0.811248  0.188752  0.572236  1
  O  O54  1  0.811248  0.188752  0.927764  1
  O  O55  1  0.025841  0.512920  0.750000  1
  O  O56  1  0.824225  0.175775  0.168364  1
  O  O57  1  0.824225  0.175775  0.331636  1
