# generated using pymatgen
data_Li6Ni3P6WO24
_symmetry_space_group_name_H-M   'P 1'
_cell_length_a   8.69906253
_cell_length_b   8.75355676
_cell_length_c   8.75449128
_cell_angle_alpha   60.48115721
_cell_angle_beta   60.29935075
_cell_angle_gamma   60.52766816
_symmetry_Int_Tables_number   1
_chemical_formula_structural   Li6Ni3P6WO24
_chemical_formula_sum   'Li6 Ni3 P6 W1 O24'
_cell_volume   476.02510616
_cell_formula_units_Z   1
loop_
 _symmetry_equiv_pos_site_id
 _symmetry_equiv_pos_as_xyz
  1  'x, y, z'
loop_
 _atom_site_type_symbol
 _atom_site_label
 _atom_site_symmetry_multiplicity
 _atom_site_fract_x
 _atom_site_fract_y
 _atom_site_fract_z
 _atom_site_occupancy
  Li  Li0  1  0.038255  0.025953  0.017770  1
  Li  Li1  1  0.751150  0.155810  0.351566  1
  Li  Li2  1  0.470716  0.497789  0.489131  1
  Li  Li3  1  0.319158  0.841943  0.634279  1
  Li  Li4  1  0.633438  0.324319  0.839110  1
  Li  Li5  1  0.843549  0.634464  0.319334  1
  Ni  Ni6  1  0.145677  0.149573  0.143083  1
  Ni  Ni7  1  0.355333  0.362433  0.351634  1
  Ni  Ni8  1  0.648239  0.649259  0.648248  1
  P  P9  1  0.047336  0.747308  0.441532  1
  P  P10  1  0.445838  0.048941  0.742194  1
  P  P11  1  0.745248  0.445461  0.045295  1
  P  P12  1  0.249258  0.537663  0.959763  1
  P  P13  1  0.540921  0.962422  0.251010  1
  P  P14  1  0.956006  0.248187  0.534005  1
  W  W15  1  0.852582  0.850443  0.853102  1
  O  O16  1  0.131432  0.263623  0.512908  1
  O  O17  1  0.268023  0.532286  0.125201  1
  O  O18  1  0.047982  0.922017  0.270564  1
  O  O19  1  0.549379  0.120868  0.272185  1
  O  O20  1  0.233792  0.594667  0.445119  1
  O  O21  1  0.976121  0.812277  0.618464  1
  O  O22  1  0.264646  0.081461  0.900244  1
  O  O23  1  0.480565  0.220959  0.572826  1
  O  O24  1  0.589847  0.448862  0.233063  1
  O  O25  1  0.194912  0.385855  0.987572  1
  O  O26  1  0.086845  0.737504  0.905033  1
  O  O27  1  0.379243  0.003625  0.202501  1
  O  O28  1  0.616947  0.972559  0.817826  1
  O  O29  1  0.903519  0.260481  0.072724  1
  O  O30  1  0.816865  0.613565  0.980402  1
  O  O31  1  0.415062  0.562642  0.772594  1
  O  O32  1  0.562762  0.774716  0.414100  1
  O  O33  1  0.737327  0.905671  0.085385  1
  O  O34  1  0.965474  0.197994  0.385989  1
  O  O35  1  0.772869  0.414642  0.564177  1
  O  O36  1  0.475140  0.893585  0.687667  1
  O  O37  1  0.907561  0.084558  0.734040  1
  O  O38  1  0.686028  0.479143  0.892245  1
  O  O39  1  0.894954  0.683473  0.477114  1
