# generated using pymatgen
data_Hf3N2O3
_symmetry_space_group_name_H-M   'P 1'
_cell_length_a   5.66902215
_cell_length_b   5.66902215
_cell_length_c   10.64915229
_cell_angle_alpha   89.47922307
_cell_angle_beta   90.52077693
_cell_angle_gamma   138.64083485
_symmetry_Int_Tables_number   1
_chemical_formula_structural   Hf3N2O3
_chemical_formula_sum   'Hf6 N4 O6'
_cell_volume   226.13398019
_cell_formula_units_Z   2
loop_
 _symmetry_equiv_pos_site_id
 _symmetry_equiv_pos_as_xyz
  1  'x, y, z'
loop_
 _atom_site_type_symbol
 _atom_site_label
 _atom_site_symmetry_multiplicity
 _atom_site_fract_x
 _atom_site_fract_y
 _atom_site_fract_z
 _atom_site_occupancy
  Hf  Hf0  1  0.815545  0.184455  0.751258  1
  Hf  Hf1  1  0.854945  0.145055  0.058189  1
  Hf  Hf2  1  0.863401  0.136599  0.444534  1
  Hf  Hf3  1  0.192075  0.807925  0.250388  1
  Hf  Hf4  1  0.142642  0.857358  0.944985  1
  Hf  Hf5  1  0.136831  0.863169  0.559690  1
  N  N6  1  0.699971  0.300029  0.921004  1
  N  N7  1  0.953287  0.046713  0.615159  1
  N  N8  1  0.295525  0.704475  0.425231  1
  N  N9  1  0.298529  0.701471  0.079995  1
  O  O10  1  0.689404  0.310596  0.580921  1
  O  O11  1  0.752380  0.247620  0.248118  1
  O  O12  1  0.954267  0.045733  0.887114  1
  O  O13  1  0.245131  0.754869  0.742627  1
  O  O14  1  0.043634  0.956366  0.115291  1
  O  O15  1  0.042443  0.957557  0.379841  1
