# generated using pymatgen
data_Mn3Cr3(SnO8)2
_symmetry_space_group_name_H-M   'P 1'
_cell_length_a   5.84989526
_cell_length_b   5.84989526
_cell_length_c   9.51162972
_cell_angle_alpha   89.88248440
_cell_angle_beta   90.11751560
_cell_angle_gamma   120.16541287
_symmetry_Int_Tables_number   1
_chemical_formula_structural   Mn3Cr3(SnO8)2
_chemical_formula_sum   'Mn3 Cr3 Sn2 O16'
_cell_volume   281.41952749
_cell_formula_units_Z   1
loop_
 _symmetry_equiv_pos_site_id
 _symmetry_equiv_pos_as_xyz
  1  'x, y, z'
loop_
 _atom_site_type_symbol
 _atom_site_label
 _atom_site_symmetry_multiplicity
 _atom_site_fract_x
 _atom_site_fract_y
 _atom_site_fract_z
 _atom_site_occupancy
  Mn  Mn0  1  0.829738  0.170262  0.214638  1
  Mn  Mn1  1  0.166712  0.336506  0.714310  1
  Mn  Mn2  1  0.663494  0.833288  0.714310  1
  Cr  Cr3  1  0.332656  0.171385  0.213803  1
  Cr  Cr4  1  0.828615  0.667344  0.213803  1
  Cr  Cr5  1  0.165443  0.834557  0.708386  1
  Sn  Sn6  1  0.670193  0.329807  0.491677  1
  Sn  Sn7  1  0.334086  0.665914  0.989646  1
  O  O8  1  0.325018  0.158399  0.609049  1
  O  O9  1  0.523705  0.476295  0.328107  1
  O  O10  1  0.669609  0.330391  0.106962  1
  O  O11  1  0.996815  0.003185  0.311710  1
  O  O12  1  0.996947  0.003053  0.812542  1
  O  O13  1  0.841601  0.674982  0.609049  1
  O  O14  1  0.518665  0.035211  0.330841  1
  O  O15  1  0.964789  0.481335  0.330841  1
  O  O16  1  0.165065  0.834935  0.110490  1
  O  O17  1  0.841864  0.158136  0.605081  1
  O  O18  1  0.037307  0.517785  0.828192  1
  O  O19  1  0.482215  0.962693  0.828192  1
  O  O20  1  0.337712  0.662288  0.607777  1
  O  O21  1  0.161135  0.320954  0.106902  1
  O  O22  1  0.482720  0.517280  0.829895  1
  O  O23  1  0.679046  0.838865  0.106902  1
