# generated using pymatgen
data_Li17Ni11O28
_symmetry_space_group_name_H-M   'P 1'
_cell_length_a   6.43919552
_cell_length_b   7.59454166
_cell_length_c   10.20377534
_cell_angle_alpha   111.48048559
_cell_angle_beta   92.85817551
_cell_angle_gamma   90.45538032
_symmetry_Int_Tables_number   1
_chemical_formula_structural   Li17Ni11O28
_chemical_formula_sum   'Li17 Ni11 O28'
_cell_volume   463.57166816
_cell_formula_units_Z   1
loop_
 _symmetry_equiv_pos_site_id
 _symmetry_equiv_pos_as_xyz
  1  'x, y, z'
loop_
 _atom_site_type_symbol
 _atom_site_label
 _atom_site_symmetry_multiplicity
 _atom_site_fract_x
 _atom_site_fract_y
 _atom_site_fract_z
 _atom_site_occupancy
  Li  Li0  1  0.239201  0.747628  0.996484  1
  Li  Li1  1  0.466422  0.109799  0.144428  1
  Li  Li2  1  0.760799  0.252372  0.003516  1
  Li  Li3  1  0.968192  0.604116  0.146385  1
  Li  Li4  1  0.181211  0.970359  0.290369  1
  Li  Li5  1  0.072186  0.288285  0.215305  1
  Li  Li6  1  0.676721  0.466505  0.285678  1
  Li  Li7  1  0.388678  0.312620  0.425448  1
  Li  Li8  1  0.897053  0.820103  0.431221  1
  Li  Li9  1  0.611322  0.687380  0.574552  1
  Li  Li10  1  0.500000  0.000000  0.500000  1
  Li  Li11  1  0.102947  0.179897  0.568779  1
  Li  Li12  1  0.323279  0.533495  0.714322  1
  Li  Li13  1  0.533578  0.890201  0.855572  1
  Li  Li14  1  0.927814  0.711715  0.784695  1
  Li  Li15  1  0.818789  0.029641  0.709631  1
  Li  Li16  1  0.031808  0.395884  0.853615  1
  Ni  Ni17  1  0.859010  0.933888  0.074075  1
  Ni  Ni18  1  0.353546  0.428993  0.072374  1
  Ni  Ni19  1  0.568821  0.790832  0.216394  1
  Ni  Ni20  1  0.785105  0.145607  0.357665  1
  Ni  Ni21  1  0.285442  0.646008  0.358050  1
  Ni  Ni22  1  0.000000  0.500000  0.500000  1
  Ni  Ni23  1  0.714558  0.353992  0.641950  1
  Ni  Ni24  1  0.214895  0.854393  0.642335  1
  Ni  Ni25  1  0.431179  0.209168  0.783606  1
  Ni  Ni26  1  0.140990  0.066112  0.925925  1
  Ni  Ni27  1  0.646454  0.571007  0.927626  1
  O  O28  1  0.575646  0.846427  0.047784  1
  O  O29  1  0.923836  0.677349  0.975430  1
  O  O30  1  0.424354  0.153573  0.952216  1
  O  O31  1  0.076164  0.322651  0.024570  1
  O  O32  1  0.142884  0.011468  0.091255  1
  O  O33  1  0.367777  0.397404  0.248437  1
  O  O34  1  0.263467  0.697129  0.191225  1
  O  O35  1  0.775004  0.182506  0.182731  1
  O  O36  1  0.640769  0.529683  0.102991  1
  O  O37  1  0.506028  0.049071  0.319149  1
  O  O38  1  0.873376  0.901869  0.250299  1
  O  O39  1  0.065158  0.240913  0.395651  1
  O  O40  1  0.568928  0.728871  0.379672  1
  O  O41  1  0.003094  0.558613  0.332809  1
  O  O42  1  0.305448  0.609515  0.533255  1
  O  O43  1  0.694552  0.390485  0.466745  1
  O  O44  1  0.203517  0.893268  0.469536  1
  O  O45  1  0.431072  0.271129  0.620328  1
  O  O46  1  0.493972  0.950929  0.680851  1
  O  O47  1  0.796483  0.106732  0.530464  1
  O  O48  1  0.632223  0.602596  0.751563  1
  O  O49  1  0.996906  0.441387  0.667191  1
  O  O50  1  0.934842  0.759087  0.604349  1
  O  O51  1  0.126624  0.098131  0.749701  1
  O  O52  1  0.224996  0.817494  0.817269  1
  O  O53  1  0.736533  0.302871  0.808775  1
  O  O54  1  0.359231  0.470317  0.897009  1
  O  O55  1  0.857116  0.988532  0.908745  1
