# generated using pymatgen
data_LiCrPO5
_symmetry_space_group_name_H-M   'P 1'
_cell_length_a   6.21980879
_cell_length_b   10.45583657
_cell_length_c   12.58168991
_cell_angle_alpha   90.00000000
_cell_angle_beta   90.00000000
_cell_angle_gamma   90.00000000
_symmetry_Int_Tables_number   1
_chemical_formula_structural   LiCrPO5
_chemical_formula_sum   'Li8 Cr8 P8 O40'
_cell_volume   818.22886733
_cell_formula_units_Z   8
loop_
 _symmetry_equiv_pos_site_id
 _symmetry_equiv_pos_as_xyz
  1  'x, y, z'
loop_
 _atom_site_type_symbol
 _atom_site_label
 _atom_site_symmetry_multiplicity
 _atom_site_fract_x
 _atom_site_fract_y
 _atom_site_fract_z
 _atom_site_occupancy
  Li  Li0  1  0.858227  0.072621  0.098302  1
  Li  Li1  1  0.281983  0.831104  0.162868  1
  Li  Li2  1  0.781983  0.331104  0.337132  1
  Li  Li3  1  0.358227  0.572621  0.401698  1
  Li  Li4  1  0.641773  0.072621  0.598302  1
  Li  Li5  1  0.218017  0.831104  0.662868  1
  Li  Li6  1  0.718017  0.331104  0.837132  1
  Li  Li7  1  0.141773  0.572621  0.901698  1
  Cr  Cr8  1  0.998963  0.508520  0.129844  1
  Cr  Cr9  1  0.249108  0.258143  0.247067  1
  Cr  Cr10  1  0.749108  0.758143  0.252933  1
  Cr  Cr11  1  0.498963  0.008520  0.370156  1
  Cr  Cr12  1  0.501037  0.508520  0.629844  1
  Cr  Cr13  1  0.250892  0.258143  0.747067  1
  Cr  Cr14  1  0.750892  0.758143  0.752933  1
  Cr  Cr15  1  0.001037  0.008520  0.870156  1
  P  P16  1  0.829231  0.767355  0.003659  1
  P  P17  1  0.502037  0.507252  0.187703  1
  P  P18  1  0.002037  0.007252  0.312297  1
  P  P19  1  0.329231  0.267355  0.496341  1
  P  P20  1  0.670769  0.767355  0.503659  1
  P  P21  1  0.997963  0.507252  0.687703  1
  P  P22  1  0.497963  0.007252  0.812297  1
  P  P23  1  0.170769  0.267355  0.996341  1
  O  O24  1  0.031906  0.392249  0.001337  1
  O  O25  1  0.990895  0.653814  0.015988  1
  O  O26  1  0.312141  0.248041  0.094755  1
  O  O27  1  0.674958  0.776168  0.100093  1
  O  O28  1  0.692382  0.487053  0.112701  1
  O  O29  1  0.307318  0.532436  0.116562  1
  O  O30  1  0.960093  0.634913  0.225855  1
  O  O31  1  0.020028  0.378095  0.226450  1
  O  O32  1  0.024909  0.121609  0.232662  1
  O  O33  1  0.977487  0.890788  0.235543  1
  O  O34  1  0.477487  0.390788  0.264457  1
  O  O35  1  0.524909  0.621609  0.267338  1
  O  O36  1  0.520028  0.878095  0.273550  1
  O  O37  1  0.460093  0.134913  0.274145  1
  O  O38  1  0.807318  0.032436  0.383438  1
  O  O39  1  0.192382  0.987053  0.387299  1
  O  O40  1  0.174958  0.276168  0.399907  1
  O  O41  1  0.812141  0.748041  0.405245  1
  O  O42  1  0.490895  0.153814  0.484012  1
  O  O43  1  0.531906  0.892249  0.498663  1
  O  O44  1  0.468094  0.392249  0.501337  1
  O  O45  1  0.509105  0.653814  0.515988  1
  O  O46  1  0.187859  0.248041  0.594755  1
  O  O47  1  0.825042  0.776168  0.600093  1
  O  O48  1  0.807618  0.487053  0.612701  1
  O  O49  1  0.192682  0.532436  0.616562  1
  O  O50  1  0.539907  0.634913  0.725855  1
  O  O51  1  0.479972  0.378095  0.726450  1
  O  O52  1  0.475091  0.121609  0.732662  1
  O  O53  1  0.522513  0.890788  0.735543  1
  O  O54  1  0.022513  0.390788  0.764457  1
  O  O55  1  0.975091  0.621609  0.767338  1
  O  O56  1  0.979972  0.878095  0.773550  1
  O  O57  1  0.039907  0.134913  0.774145  1
  O  O58  1  0.692682  0.032436  0.883438  1
  O  O59  1  0.307618  0.987053  0.887299  1
  O  O60  1  0.325042  0.276168  0.899907  1
  O  O61  1  0.687859  0.748041  0.905245  1
  O  O62  1  0.009105  0.153814  0.984012  1
  O  O63  1  0.968094  0.892249  0.998663  1
