# generated using pymatgen
data_Li2Mn3GaO8
_symmetry_space_group_name_H-M   'P 1'
_cell_length_a   5.90486924
_cell_length_b   5.90486924
_cell_length_c   5.90486924
_cell_angle_alpha   60.38852153
_cell_angle_beta   60.38852153
_cell_angle_gamma   60.38852153
_symmetry_Int_Tables_number   1
_chemical_formula_structural   Li2Mn3GaO8
_chemical_formula_sum   'Li2 Mn3 Ga1 O8'
_cell_volume   146.86398140
_cell_formula_units_Z   1
loop_
 _symmetry_equiv_pos_site_id
 _symmetry_equiv_pos_as_xyz
  1  'x, y, z'
loop_
 _atom_site_type_symbol
 _atom_site_label
 _atom_site_symmetry_multiplicity
 _atom_site_fract_x
 _atom_site_fract_y
 _atom_site_fract_z
 _atom_site_occupancy
  Li  Li0  1  0.878177  0.878177  0.878177  1
  Li  Li1  1  0.121823  0.121823  0.121823  1
  Mn  Mn2  1  0.500000  0.500000  0.000000  1
  Mn  Mn3  1  0.000000  0.500000  0.500000  1
  Mn  Mn4  1  0.500000  0.000000  0.500000  1
  Ga  Ga5  1  0.500000  0.500000  0.500000  1
  O  O6  1  0.739198  0.739198  0.739198  1
  O  O7  1  0.739412  0.292151  0.739412  1
  O  O8  1  0.739412  0.739412  0.292151  1
  O  O9  1  0.292151  0.739412  0.739412  1
  O  O10  1  0.260588  0.260588  0.707849  1
  O  O11  1  0.707849  0.260588  0.260588  1
  O  O12  1  0.260588  0.707849  0.260588  1
  O  O13  1  0.260802  0.260802  0.260802  1
