# generated using pymatgen
data_Na5LiFe2P2(CO7)2
_symmetry_space_group_name_H-M   'P 1'
_cell_length_a   8.98746577
_cell_length_b   6.59028983
_cell_length_c   10.39780760
_cell_angle_alpha   90.00000000
_cell_angle_beta   91.14799828
_cell_angle_gamma   90.00000000
_symmetry_Int_Tables_number   1
_chemical_formula_structural   Na5LiFe2P2(CO7)2
_chemical_formula_sum   'Na10 Li2 Fe4 P4 C4 O28'
_cell_volume   615.73857230
_cell_formula_units_Z   2
loop_
 _symmetry_equiv_pos_site_id
 _symmetry_equiv_pos_as_xyz
  1  'x, y, z'
loop_
 _atom_site_type_symbol
 _atom_site_label
 _atom_site_symmetry_multiplicity
 _atom_site_fract_x
 _atom_site_fract_y
 _atom_site_fract_z
 _atom_site_occupancy
  Na  Na0  1  0.081514  0.496802  0.119808  1
  Na  Na1  1  0.081514  0.503198  0.619808  1
  Na  Na2  1  0.260626  0.251334  0.375145  1
  Na  Na3  1  0.260632  0.749096  0.375290  1
  Na  Na4  1  0.260632  0.250904  0.875290  1
  Na  Na5  1  0.260626  0.748666  0.875145  1
  Na  Na6  1  0.739922  0.752092  0.124646  1
  Na  Na7  1  0.739922  0.247908  0.624646  1
  Na  Na8  1  0.915883  0.000483  0.380210  1
  Na  Na9  1  0.915883  0.999517  0.880210  1
  Li  Li10  1  0.728903  0.246187  0.122644  1
  Li  Li11  1  0.728903  0.753813  0.622644  1
  Fe  Fe12  1  0.356373  0.999521  0.107281  1
  Fe  Fe13  1  0.356373  0.000479  0.607281  1
  Fe  Fe14  1  0.646978  0.502200  0.393271  1
  Fe  Fe15  1  0.646978  0.497800  0.893271  1
  P  P16  1  0.417162  0.495647  0.150932  1
  P  P17  1  0.417162  0.504353  0.650932  1
  P  P18  1  0.588908  0.004109  0.350424  1
  P  P19  1  0.588908  0.995891  0.850424  1
  C  C20  1  0.054699  0.006700  0.133929  1
  C  C21  1  0.054699  0.993300  0.633929  1
  C  C22  1  0.939823  0.498136  0.364434  1
  C  C23  1  0.939823  0.501864  0.864434  1
  O  O24  1  0.083555  0.499896  0.356865  1
  O  O25  1  0.083555  0.500104  0.856865  1
  O  O26  1  0.119728  0.999452  0.022755  1
  O  O27  1  0.119728  0.000548  0.522755  1
  O  O28  1  0.137414  0.998718  0.238472  1
  O  O29  1  0.137414  0.001282  0.738472  1
  O  O30  1  0.318143  0.310731  0.109851  1
  O  O31  1  0.326675  0.686528  0.106218  1
  O  O32  1  0.326675  0.313472  0.606218  1
  O  O33  1  0.318143  0.689269  0.609851  1
  O  O34  1  0.434325  0.500144  0.300291  1
  O  O35  1  0.433441  0.000378  0.411185  1
  O  O36  1  0.434325  0.499856  0.800291  1
  O  O37  1  0.433441  0.999622  0.911185  1
  O  O38  1  0.572861  0.483844  0.090406  1
  O  O39  1  0.572872  0.011954  0.200211  1
  O  O40  1  0.572861  0.516156  0.590406  1
  O  O41  1  0.572872  0.988046  0.700211  1
  O  O42  1  0.682657  0.814636  0.391852  1
  O  O43  1  0.681894  0.190340  0.396692  1
  O  O44  1  0.681894  0.809660  0.896692  1
  O  O45  1  0.682657  0.185364  0.891852  1
  O  O46  1  0.856138  0.494463  0.260455  1
  O  O47  1  0.856138  0.505537  0.760455  1
  O  O48  1  0.877751  0.500719  0.476675  1
  O  O49  1  0.877751  0.499281  0.976675  1
  O  O50  1  0.911122  0.020961  0.140057  1
  O  O51  1  0.911122  0.979039  0.640057  1
