# generated using pymatgen
data_ZrCd2H12(O3F4)2
_symmetry_space_group_name_H-M   'P 1'
_cell_length_a   7.16218590
_cell_length_b   7.16218590
_cell_length_c   12.83055775
_cell_angle_alpha   72.91976628
_cell_angle_beta   107.08023372
_cell_angle_gamma   108.39933145
_symmetry_Int_Tables_number   1
_chemical_formula_structural   ZrCd2H12(O3F4)2
_chemical_formula_sum   'Zr2 Cd4 H24 O12 F16'
_cell_volume   582.13398179
_cell_formula_units_Z   2
loop_
 _symmetry_equiv_pos_site_id
 _symmetry_equiv_pos_as_xyz
  1  'x, y, z'
loop_
 _atom_site_type_symbol
 _atom_site_label
 _atom_site_symmetry_multiplicity
 _atom_site_fract_x
 _atom_site_fract_y
 _atom_site_fract_z
 _atom_site_occupancy
  Zr  Zr0  1  0.235236  0.235236  0.750000  1
  Zr  Zr1  1  0.764764  0.764764  0.250000  1
  Cd  Cd2  1  0.707983  0.064188  0.788688  1
  Cd  Cd3  1  0.064188  0.707983  0.711312  1
  Cd  Cd4  1  0.292017  0.935812  0.211312  1
  Cd  Cd5  1  0.935812  0.292017  0.288688  1
  H  H6  1  0.646744  0.538922  0.642221  1
  H  H7  1  0.538922  0.646744  0.857779  1
  H  H8  1  0.353256  0.461078  0.357779  1
  H  H9  1  0.461078  0.353256  0.142221  1
  H  H10  1  0.734729  0.655001  0.533052  1
  H  H11  1  0.655001  0.734729  0.966948  1
  H  H12  1  0.265271  0.344999  0.466948  1
  H  H13  1  0.344999  0.265271  0.033052  1
  H  H14  1  0.904799  0.433340  0.896492  1
  H  H15  1  0.433340  0.904799  0.603508  1
  H  H16  1  0.095201  0.566660  0.103508  1
  H  H17  1  0.566660  0.095201  0.396492  1
  H  H18  1  0.887211  0.649577  0.889258  1
  H  H19  1  0.649577  0.887211  0.610742  1
  H  H20  1  0.112789  0.350423  0.110742  1
  H  H21  1  0.350423  0.112789  0.389258  1
  H  H22  1  0.631155  0.182364  0.952018  1
  H  H23  1  0.182364  0.631155  0.547982  1
  H  H24  1  0.368845  0.817636  0.047982  1
  H  H25  1  0.817636  0.368845  0.452018  1
  H  H26  1  0.825899  0.095486  0.019782  1
  H  H27  1  0.095486  0.825899  0.480218  1
  H  H28  1  0.174101  0.904514  0.980218  1
  H  H29  1  0.904514  0.174101  0.519782  1
  O  O30  1  0.728910  0.669870  0.606650  1
  O  O31  1  0.669870  0.728910  0.893350  1
  O  O32  1  0.271090  0.330130  0.393350  1
  O  O33  1  0.330130  0.271090  0.106650  1
  O  O34  1  0.578643  0.971857  0.625343  1
  O  O35  1  0.971857  0.578643  0.874657  1
  O  O36  1  0.421357  0.028143  0.374657  1
  O  O37  1  0.028143  0.421357  0.125343  1
  O  O38  1  0.766152  0.177136  0.947495  1
  O  O39  1  0.177136  0.766152  0.552505  1
  O  O40  1  0.233848  0.822864  0.052505  1
  O  O41  1  0.822864  0.233848  0.447495  1
  F  F42  1  0.043074  0.023742  0.857477  1
  F  F43  1  0.023742  0.043074  0.642523  1
  F  F44  1  0.956926  0.976258  0.142523  1
  F  F45  1  0.976258  0.956926  0.357477  1
  F  F46  1  0.963381  0.333322  0.714320  1
  F  F47  1  0.333322  0.963381  0.785680  1
  F  F48  1  0.036619  0.666678  0.285680  1
  F  F49  1  0.666678  0.036619  0.214320  1
  F  F50  1  0.538631  0.323200  0.726624  1
  F  F51  1  0.323200  0.538631  0.773376  1
  F  F52  1  0.461369  0.676800  0.273376  1
  F  F53  1  0.676800  0.461369  0.226624  1
  F  F54  1  0.226970  0.402822  0.580650  1
  F  F55  1  0.402822  0.226970  0.919350  1
  F  F56  1  0.773030  0.597178  0.419350  1
  F  F57  1  0.597178  0.773030  0.080650  1
