# generated using pymatgen
data_NaV5O10
_symmetry_space_group_name_H-M   'P 1'
_cell_length_a   5.61303122
_cell_length_b   5.71149686
_cell_length_c   7.13283140
_cell_angle_alpha   83.33819367
_cell_angle_beta   111.03765356
_cell_angle_gamma   115.51031275
_symmetry_Int_Tables_number   1
_chemical_formula_structural   NaV5O10
_chemical_formula_sum   'Na1 V5 O10'
_cell_volume   192.41815437
_cell_formula_units_Z   1
loop_
 _symmetry_equiv_pos_site_id
 _symmetry_equiv_pos_as_xyz
  1  'x, y, z'
loop_
 _atom_site_type_symbol
 _atom_site_label
 _atom_site_symmetry_multiplicity
 _atom_site_fract_x
 _atom_site_fract_y
 _atom_site_fract_z
 _atom_site_occupancy
  Na  Na0  1  0.557319  0.981871  0.268769  1
  V  V1  1  0.980917  0.004740  0.005883  1
  V  V2  1  0.198894  0.486352  0.400941  1
  V  V3  1  0.644287  0.513607  0.161344  1
  V  V4  1  0.416856  0.002790  0.771768  1
  V  V5  1  0.774389  0.502468  0.629622  1
  O  O6  1  0.412980  0.212596  0.011258  1
  O  O7  1  0.824550  0.361079  0.421008  1
  O  O8  1  0.014729  0.686159  0.166759  1
  O  O9  1  0.590842  0.795041  0.987226  1
  O  O10  1  0.076815  0.196095  0.214090  1
  O  O11  1  0.402065  0.318961  0.625724  1
  O  O12  1  0.579490  0.630317  0.371990  1
  O  O13  1  0.996533  0.802319  0.780000  1
  O  O14  1  0.810510  0.213139  0.806696  1
  O  O15  1  0.318825  0.792465  0.576926  1
