# generated using pymatgen
data_VO2F
_symmetry_space_group_name_H-M   'P 1'
_cell_length_a   5.04270284
_cell_length_b   5.23480716
_cell_length_c   12.53016410
_cell_angle_alpha   88.83632173
_cell_angle_beta   88.16001051
_cell_angle_gamma   63.12622506
_symmetry_Int_Tables_number   1
_chemical_formula_structural   VO2F
_chemical_formula_sum   'V6 O12 F6'
_cell_volume   294.88638601
_cell_formula_units_Z   6
loop_
 _symmetry_equiv_pos_site_id
 _symmetry_equiv_pos_as_xyz
  1  'x, y, z'
loop_
 _atom_site_type_symbol
 _atom_site_label
 _atom_site_symmetry_multiplicity
 _atom_site_fract_x
 _atom_site_fract_y
 _atom_site_fract_z
 _atom_site_occupancy
  V  V0  1  0.372807  0.319249  0.339965  1
  V  V1  1  0.274377  0.393184  0.840227  1
  V  V2  1  0.725623  0.606816  0.159773  1
  V  V3  1  0.627193  0.680751  0.660035  1
  V  V4  1  0.000000  0.000000  0.500000  1
  V  V5  1  0.000000  0.000000  0.000000  1
  O  O6  1  0.484951  0.470428  0.720791  1
  O  O7  1  0.603822  0.191423  0.448068  1
  O  O8  1  0.250280  0.671306  0.918994  1
  O  O9  1  0.866873  0.863150  0.608902  1
  O  O10  1  0.051075  0.465620  0.219242  1
  O  O11  1  0.202625  0.182655  0.944399  1
  O  O12  1  0.797375  0.817345  0.055601  1
  O  O13  1  0.948925  0.534380  0.780758  1
  O  O14  1  0.133127  0.136850  0.391098  1
  O  O15  1  0.749720  0.328694  0.081006  1
  O  O16  1  0.396178  0.808577  0.551932  1
  O  O17  1  0.515049  0.529572  0.279209  1
  F  F18  1  0.735604  0.135147  0.884468  1
  F  F19  1  0.068427  0.661100  0.417921  1
  F  F20  1  0.591079  0.008155  0.251958  1
  F  F21  1  0.931573  0.338900  0.582079  1
  F  F22  1  0.408921  0.991845  0.748042  1
  F  F23  1  0.264396  0.864853  0.115532  1
