# generated using pymatgen
data_LiVO3
_symmetry_space_group_name_H-M   'P 1'
_cell_length_a   4.95027653
_cell_length_b   4.95027653
_cell_length_c   5.36632721
_cell_angle_alpha   77.40280829
_cell_angle_beta   102.59719171
_cell_angle_gamma   64.17095561
_symmetry_Int_Tables_number   1
_chemical_formula_structural   LiVO3
_chemical_formula_sum   'Li2 V2 O6'
_cell_volume   107.92856214
_cell_formula_units_Z   2
loop_
 _symmetry_equiv_pos_site_id
 _symmetry_equiv_pos_as_xyz
  1  'x, y, z'
loop_
 _atom_site_type_symbol
 _atom_site_label
 _atom_site_symmetry_multiplicity
 _atom_site_fract_x
 _atom_site_fract_y
 _atom_site_fract_z
 _atom_site_occupancy
  Li  Li0  1  0.002380  0.002380  0.000000  1
  Li  Li1  1  0.364290  0.364290  0.000000  1
  V  V2  1  0.817893  0.817893  0.500000  1
  V  V3  1  0.169643  0.169643  0.500000  1
  O  O4  1  0.814238  0.165796  0.264604  1
  O  O5  1  0.165796  0.814238  0.735396  1
  O  O6  1  0.970467  0.400393  0.718764  1
  O  O7  1  0.400393  0.970467  0.281236  1
  O  O8  1  0.578499  0.031750  0.711574  1
  O  O9  1  0.031750  0.578499  0.288426  1
