# generated using pymatgen
data_Mg2FeO4
_symmetry_space_group_name_H-M   'P 1'
_cell_length_a   5.16292475
_cell_length_b   5.91871113
_cell_length_c   11.02650057
_cell_angle_alpha   90.00000000
_cell_angle_beta   117.85903610
_cell_angle_gamma   90.00000000
_symmetry_Int_Tables_number   1
_chemical_formula_structural   Mg2FeO4
_chemical_formula_sum   'Mg8 Fe4 O16'
_cell_volume   297.89417517
_cell_formula_units_Z   4
loop_
 _symmetry_equiv_pos_site_id
 _symmetry_equiv_pos_as_xyz
  1  'x, y, z'
loop_
 _atom_site_type_symbol
 _atom_site_label
 _atom_site_symmetry_multiplicity
 _atom_site_fract_x
 _atom_site_fract_y
 _atom_site_fract_z
 _atom_site_occupancy
  Mg  Mg0  1  0.708039  0.129573  0.961145  1
  Mg  Mg1  1  0.291961  0.629573  0.538855  1
  Mg  Mg2  1  0.995681  0.614838  0.254081  1
  Mg  Mg3  1  0.004319  0.114838  0.245919  1
  Mg  Mg4  1  0.995681  0.885162  0.754081  1
  Mg  Mg5  1  0.004319  0.385162  0.745919  1
  Mg  Mg6  1  0.708039  0.370427  0.461145  1
  Mg  Mg7  1  0.291961  0.870427  0.038855  1
  Fe  Fe8  1  0.728895  0.630736  0.971521  1
  Fe  Fe9  1  0.271105  0.130736  0.528479  1
  Fe  Fe10  1  0.728895  0.869264  0.471521  1
  Fe  Fe11  1  0.271105  0.369264  0.028479  1
  O  O12  1  0.293542  0.879203  0.392365  1
  O  O13  1  0.181147  0.138445  0.115317  1
  O  O14  1  0.816002  0.398009  0.880080  1
  O  O15  1  0.265101  0.358900  0.392450  1
  O  O16  1  0.183998  0.898009  0.619920  1
  O  O17  1  0.734899  0.858900  0.107550  1
  O  O18  1  0.293542  0.620797  0.892365  1
  O  O19  1  0.181147  0.361555  0.615317  1
  O  O20  1  0.818853  0.638445  0.384683  1
  O  O21  1  0.706458  0.379203  0.107635  1
  O  O22  1  0.265101  0.141100  0.892450  1
  O  O23  1  0.816002  0.101991  0.380080  1
  O  O24  1  0.734899  0.641100  0.607550  1
  O  O25  1  0.183998  0.601991  0.119920  1
  O  O26  1  0.818853  0.861555  0.884683  1
  O  O27  1  0.706458  0.120797  0.607635  1
