# generated using pymatgen
data_V5W3O20
_symmetry_space_group_name_H-M   'P 1'
_cell_length_a   7.61958928
_cell_length_b   7.82732454
_cell_length_c   12.98269334
_cell_angle_alpha   90.37456869
_cell_angle_beta   107.02164752
_cell_angle_gamma   90.08941336
_symmetry_Int_Tables_number   1
_chemical_formula_structural   V5W3O20
_chemical_formula_sum   'V10 W6 O40'
_cell_volume   740.36123342
_cell_formula_units_Z   2
loop_
 _symmetry_equiv_pos_site_id
 _symmetry_equiv_pos_as_xyz
  1  'x, y, z'
loop_
 _atom_site_type_symbol
 _atom_site_label
 _atom_site_symmetry_multiplicity
 _atom_site_fract_x
 _atom_site_fract_y
 _atom_site_fract_z
 _atom_site_occupancy
  V  V0  1  0.172484  0.205162  0.844160  1
  V  V1  1  0.679228  0.211635  0.858781  1
  V  V2  1  0.173690  0.709719  0.847950  1
  V  V3  1  0.828336  0.795425  0.654774  1
  V  V4  1  0.824106  0.284978  0.660056  1
  V  V5  1  0.171664  0.204575  0.345226  1
  V  V6  1  0.175894  0.715022  0.339944  1
  V  V7  1  0.827516  0.794838  0.155840  1
  V  V8  1  0.320772  0.788365  0.141219  1
  V  V9  1  0.826310  0.290281  0.152050  1
  W  W10  1  0.679079  0.719197  0.856080  1
  W  W11  1  0.319658  0.773966  0.642883  1
  W  W12  1  0.324268  0.275156  0.646951  1
  W  W13  1  0.680342  0.226034  0.357117  1
  W  W14  1  0.675732  0.724844  0.353049  1
  W  W15  1  0.320921  0.280803  0.143920  1
  O  O16  1  0.172540  0.992409  0.848550  1
  O  O17  1  0.674094  0.994802  0.847779  1
  O  O18  1  0.176104  0.497378  0.852122  1
  O  O19  1  0.673028  0.491176  0.849358  1
  O  O20  1  0.415572  0.243541  0.812435  1
  O  O21  1  0.411435  0.752199  0.814364  1
  O  O22  1  0.902691  0.750914  0.815689  1
  O  O23  1  0.898140  0.247348  0.811798  1
  O  O24  1  0.090838  0.252338  0.681741  1
  O  O25  1  0.587630  0.251734  0.671314  1
  O  O26  1  0.095700  0.746341  0.681746  1
  O  O27  1  0.585355  0.749327  0.679541  1
  O  O28  1  0.322347  0.007232  0.646359  1
  O  O29  1  0.327057  0.509035  0.650746  1
  O  O30  1  0.826332  0.006272  0.648548  1
  O  O31  1  0.827235  0.494697  0.653530  1
  O  O32  1  0.243045  0.750305  0.495811  1
  O  O33  1  0.246418  0.255319  0.500631  1
  O  O34  1  0.756955  0.249695  0.504189  1
  O  O35  1  0.753582  0.744681  0.499369  1
  O  O36  1  0.173668  0.993728  0.351452  1
  O  O37  1  0.172765  0.505303  0.346470  1
  O  O38  1  0.677653  0.992768  0.353641  1
  O  O39  1  0.672943  0.490965  0.349254  1
  O  O40  1  0.909162  0.747662  0.318259  1
  O  O41  1  0.412370  0.748266  0.328686  1
  O  O42  1  0.414645  0.250673  0.320459  1
  O  O43  1  0.904300  0.253659  0.318254  1
  O  O44  1  0.097309  0.249086  0.184311  1
  O  O45  1  0.101860  0.752652  0.188202  1
  O  O46  1  0.584428  0.756459  0.187565  1
  O  O47  1  0.588565  0.247801  0.185636  1
  O  O48  1  0.325906  0.005198  0.152221  1
  O  O49  1  0.827460  0.007591  0.151450  1
  O  O50  1  0.326972  0.508824  0.150642  1
  O  O51  1  0.823896  0.502622  0.147878  1
  O  O52  1  0.746720  0.242818  0.993774  1
  O  O53  1  0.249474  0.251324  0.999655  1
  O  O54  1  0.253280  0.757182  0.006226  1
  O  O55  1  0.750526  0.748676  0.000345  1
