# generated using pymatgen
data_LiV4O5F7
_symmetry_space_group_name_H-M   'P 1'
_cell_length_a   5.26575827
_cell_length_b   5.45422832
_cell_length_c   7.25544419
_cell_angle_alpha   93.76903854
_cell_angle_beta   90.42672004
_cell_angle_gamma   90.64881534
_symmetry_Int_Tables_number   1
_chemical_formula_structural   LiV4O5F7
_chemical_formula_sum   'Li1 V4 O5 F7'
_cell_volume   207.91001837
_cell_formula_units_Z   1
loop_
 _symmetry_equiv_pos_site_id
 _symmetry_equiv_pos_as_xyz
  1  'x, y, z'
loop_
 _atom_site_type_symbol
 _atom_site_label
 _atom_site_symmetry_multiplicity
 _atom_site_fract_x
 _atom_site_fract_y
 _atom_site_fract_z
 _atom_site_occupancy
  Li  Li0  1  0.980069  0.580695  0.200524  1
  V  V1  1  0.509804  0.494050  0.478786  1
  V  V2  1  0.482471  0.493520  0.975159  1
  V  V3  1  0.011998  0.031418  0.020521  1
  V  V4  1  0.002546  0.997468  0.516201  1
  O  O5  1  0.923243  0.981388  0.254238  1
  O  O6  1  0.595362  0.499964  0.251960  1
  O  O7  1  0.425822  0.503465  0.744725  1
  O  O8  1  0.184860  0.315477  0.047473  1
  O  O9  1  0.070646  0.991784  0.747747  1
  F  F10  1  0.814282  0.311617  0.545639  1
  F  F11  1  0.808990  0.690924  0.968400  1
  F  F12  1  0.690662  0.195449  0.960059  1
  F  F13  1  0.682516  0.808496  0.545457  1
  F  F14  1  0.314398  0.185590  0.454677  1
  F  F15  1  0.299608  0.799213  0.053801  1
  F  F16  1  0.182319  0.671116  0.441194  1
