# generated using pymatgen
data_FeCo3(PO4)4
_symmetry_space_group_name_H-M   'P 1'
_cell_length_a   4.83882706
_cell_length_b   5.90717264
_cell_length_c   9.82476114
_cell_angle_alpha   90.00000000
_cell_angle_beta   90.43973171
_cell_angle_gamma   90.00000000
_symmetry_Int_Tables_number   1
_chemical_formula_structural   FeCo3(PO4)4
_chemical_formula_sum   'Fe1 Co3 P4 O16'
_cell_volume   280.82060740
_cell_formula_units_Z   1
loop_
 _symmetry_equiv_pos_site_id
 _symmetry_equiv_pos_as_xyz
  1  'x, y, z'
loop_
 _atom_site_type_symbol
 _atom_site_label
 _atom_site_symmetry_multiplicity
 _atom_site_fract_x
 _atom_site_fract_y
 _atom_site_fract_z
 _atom_site_occupancy
  Fe  Fe0  1  0.043448  0.000000  0.276896  1
  Co  Co1  1  0.969749  0.500000  0.729828  1
  Co  Co2  1  0.570739  0.500000  0.214594  1
  Co  Co3  1  0.468097  0.000000  0.770196  1
  P  P4  1  0.904335  0.000000  0.599751  1
  P  P5  1  0.580530  0.000000  0.093528  1
  P  P6  1  0.410774  0.500000  0.903973  1
  P  P7  1  0.090664  0.500000  0.400190  1
  O  O8  1  0.847385  0.000000  0.446962  1
  O  O9  1  0.759377  0.204187  0.671541  1
  O  O10  1  0.759377  0.795813  0.671541  1
  O  O11  1  0.773778  0.500000  0.379842  1
  O  O12  1  0.725726  0.500000  0.881148  1
  O  O13  1  0.733257  0.202342  0.169797  1
  O  O14  1  0.733257  0.797658  0.169797  1
  O  O15  1  0.654491  0.000000  0.942143  1
  O  O16  1  0.346974  0.500000  0.057377  1
  O  O17  1  0.260437  0.703874  0.832816  1
  O  O18  1  0.260437  0.296126  0.832816  1
  O  O19  1  0.271170  0.000000  0.115151  1
  O  O20  1  0.221441  0.000000  0.623790  1
  O  O21  1  0.236277  0.705474  0.330232  1
  O  O22  1  0.236277  0.294526  0.330232  1
  O  O23  1  0.142002  0.500000  0.555858  1
