# generated using pymatgen
data_YAlO3
_symmetry_space_group_name_H-M   'P 1'
_cell_length_a   6.73805631
_cell_length_b   6.73805631
_cell_length_c   10.11813886
_cell_angle_alpha   90.00000000
_cell_angle_beta   90.00000000
_cell_angle_gamma   120.16636095
_symmetry_Int_Tables_number   1
_chemical_formula_structural   YAlO3
_chemical_formula_sum   'Y6 Al6 O18'
_cell_volume   397.16416842
_cell_formula_units_Z   6
loop_
 _symmetry_equiv_pos_site_id
 _symmetry_equiv_pos_as_xyz
  1  'x, y, z'
loop_
 _atom_site_type_symbol
 _atom_site_label
 _atom_site_symmetry_multiplicity
 _atom_site_fract_x
 _atom_site_fract_y
 _atom_site_fract_z
 _atom_site_occupancy
  Y  Y0  1  0.169854  0.830146  0.000000  1
  Y  Y1  1  0.169854  0.830146  0.500000  1
  Y  Y2  1  0.830146  0.169854  0.000000  1
  Y  Y3  1  0.830146  0.169854  0.500000  1
  Y  Y4  1  0.500000  0.500000  0.500000  1
  Y  Y5  1  0.500000  0.500000  1.000000  1
  Al  Al6  1  0.834396  0.565526  0.250000  1
  Al  Al7  1  0.434474  0.165604  0.750000  1
  Al  Al8  1  0.565526  0.834396  0.250000  1
  Al  Al9  1  0.165604  0.434474  0.750000  1
  Al  Al10  1  0.893251  0.893251  0.750000  1
  Al  Al11  1  0.106749  0.106749  0.250000  1
  O  O12  1  0.092929  0.836145  0.250000  1
  O  O13  1  0.163855  0.907071  0.750000  1
  O  O14  1  0.833662  0.477742  0.411855  1
  O  O15  1  0.833662  0.477742  0.088145  1
  O  O16  1  0.522258  0.166338  0.911855  1
  O  O17  1  0.522258  0.166338  0.588145  1
  O  O18  1  0.477742  0.833662  0.088145  1
  O  O19  1  0.166338  0.522258  0.911855  1
  O  O20  1  0.477742  0.833662  0.411855  1
  O  O21  1  0.166338  0.522258  0.588145  1
  O  O22  1  0.836145  0.092929  0.250000  1
  O  O23  1  0.907071  0.163855  0.750000  1
  O  O24  1  0.425585  0.425585  0.750000  1
  O  O25  1  0.812208  0.812208  0.916320  1
  O  O26  1  0.812208  0.812208  0.583680  1
  O  O27  1  0.187792  0.187792  0.416320  1
  O  O28  1  0.187792  0.187792  0.083680  1
  O  O29  1  0.574415  0.574415  0.250000  1
