# generated using pymatgen
data_Li3Fe8(BO3)8
_symmetry_space_group_name_H-M   'P 1'
_cell_length_a   5.24270890
_cell_length_b   9.10460356
_cell_length_c   10.21524805
_cell_angle_alpha   89.18095739
_cell_angle_beta   89.74915495
_cell_angle_gamma   89.12005106
_symmetry_Int_Tables_number   1
_chemical_formula_structural   Li3Fe8(BO3)8
_chemical_formula_sum   'Li3 Fe8 B8 O24'
_cell_volume   487.49071564
_cell_formula_units_Z   1
loop_
 _symmetry_equiv_pos_site_id
 _symmetry_equiv_pos_as_xyz
  1  'x, y, z'
loop_
 _atom_site_type_symbol
 _atom_site_label
 _atom_site_symmetry_multiplicity
 _atom_site_fract_x
 _atom_site_fract_y
 _atom_site_fract_z
 _atom_site_occupancy
  Li  Li0  1  0.323409  0.330897  0.407213  1
  Li  Li1  1  0.661158  0.678368  0.667705  1
  Li  Li2  1  0.686019  0.672863  0.168812  1
  Fe  Fe3  1  0.164368  0.845443  0.626701  1
  Fe  Fe4  1  0.172078  0.496637  0.125832  1
  Fe  Fe5  1  0.327161  0.993564  0.880680  1
  Fe  Fe6  1  0.311440  0.666930  0.380972  1
  Fe  Fe7  1  0.673704  0.330952  0.629184  1
  Fe  Fe8  1  0.672598  0.008300  0.128287  1
  Fe  Fe9  1  0.841296  0.151659  0.375660  1
  Fe  Fe10  1  0.823103  0.493210  0.881308  1
  B  B11  1  0.167509  0.505313  0.624989  1
  B  B12  1  0.170789  0.826090  0.124218  1
  B  B13  1  0.342081  0.005447  0.378680  1
  B  B14  1  0.321457  0.668394  0.874549  1
  B  B15  1  0.658888  0.997372  0.630247  1
  B  B16  1  0.671956  0.334661  0.133037  1
  B  B17  1  0.828870  0.491972  0.374379  1
  B  B18  1  0.827539  0.162918  0.874544  1
  O  O19  1  0.091253  0.486270  0.337637  1
  O  O20  1  0.084622  0.142723  0.873081  1
  O  O21  1  0.192396  0.798245  0.831059  1
  O  O22  1  0.246082  0.877258  0.436645  1
  O  O23  1  0.212926  0.135047  0.385254  1
  O  O24  1  0.179420  0.558882  0.936450  1
  O  O25  1  0.315987  0.381807  0.614133  1
  O  O26  1  0.327670  0.936368  0.074465  1
  O  O27  1  0.279809  0.642091  0.597196  1
  O  O28  1  0.295636  0.696733  0.167250  1
  O  O29  1  0.412920  0.346211  0.142096  1
  O  O30  1  0.411023  0.993022  0.681505  1
  O  O31  1  0.579949  0.995697  0.316547  1
  O  O32  1  0.575074  0.654260  0.853749  1
  O  O33  1  0.716532  0.289126  0.820523  1
  O  O34  1  0.718668  0.364459  0.428144  1
  O  O35  1  0.689799  0.616568  0.352827  1
  O  O36  1  0.668993  0.056307  0.931039  1
  O  O37  1  0.810581  0.459923  0.094601  1
  O  O38  1  0.803927  0.870397  0.628604  1
  O  O39  1  0.750278  0.128033  0.582057  1
  O  O40  1  0.799704  0.204746  0.162135  1
  O  O41  1  0.912311  0.842175  0.130596  1
  O  O42  1  0.907878  0.502774  0.656815  1
