# generated using pymatgen
data_Mn3(O2F)2
_symmetry_space_group_name_H-M   'P 1'
_cell_length_a   5.56231234
_cell_length_b   5.56231234
_cell_length_c   7.69450172
_cell_angle_alpha   68.80212480
_cell_angle_beta   111.19787520
_cell_angle_gamma   111.03934329
_symmetry_Int_Tables_number   1
_chemical_formula_structural   Mn3(O2F)2
_chemical_formula_sum   'Mn6 O8 F4'
_cell_volume   199.67437102
_cell_formula_units_Z   2
loop_
 _symmetry_equiv_pos_site_id
 _symmetry_equiv_pos_as_xyz
  1  'x, y, z'
loop_
 _atom_site_type_symbol
 _atom_site_label
 _atom_site_symmetry_multiplicity
 _atom_site_fract_x
 _atom_site_fract_y
 _atom_site_fract_z
 _atom_site_occupancy
  Mn  Mn0  1  0.326320  0.673680  0.847836  1
  Mn  Mn1  1  0.661870  0.338130  0.657827  1
  Mn  Mn2  1  0.339181  0.660819  0.316990  1
  Mn  Mn3  1  0.658831  0.341169  0.179294  1
  Mn  Mn4  1  0.002285  0.997715  0.495524  1
  Mn  Mn5  1  0.007167  0.992833  0.000387  1
  O  O6  1  0.966419  0.638716  0.670639  1
  O  O7  1  0.636572  0.971443  0.332558  1
  O  O8  1  0.231836  0.768164  0.047472  1
  O  O9  1  0.561186  0.438814  0.366805  1
  O  O10  1  0.028557  0.363428  0.332558  1
  O  O11  1  0.361284  0.033581  0.670639  1
  O  O12  1  0.695118  0.692245  0.001539  1
  O  O13  1  0.307755  0.304882  0.001539  1
  F  F14  1  0.119156  0.880844  0.308167  1
  F  F15  1  0.432774  0.567226  0.614825  1
  F  F16  1  0.775560  0.224440  0.960813  1
  F  F17  1  0.888129  0.111871  0.694586  1
