# generated using pymatgen
data_Li2V2CoO6
_symmetry_space_group_name_H-M   'P 1'
_cell_length_a   5.14512413
_cell_length_b   5.14512413
_cell_length_c   10.31986571
_cell_angle_alpha   90.00000000
_cell_angle_beta   90.00000000
_cell_angle_gamma   120.91859433
_symmetry_Int_Tables_number   1
_chemical_formula_structural   Li2V2CoO6
_chemical_formula_sum   'Li4 V4 Co2 O12'
_cell_volume   234.36972787
_cell_formula_units_Z   2
loop_
 _symmetry_equiv_pos_site_id
 _symmetry_equiv_pos_as_xyz
  1  'x, y, z'
loop_
 _atom_site_type_symbol
 _atom_site_label
 _atom_site_symmetry_multiplicity
 _atom_site_fract_x
 _atom_site_fract_y
 _atom_site_fract_z
 _atom_site_occupancy
  Li  Li0  1  0.336919  0.836919  0.750000  1
  Li  Li1  1  0.163081  0.663081  0.250000  1
  Li  Li2  1  0.836919  0.336919  0.750000  1
  Li  Li3  1  0.663081  0.163081  0.250000  1
  V  V4  1  0.162876  0.837124  0.500000  1
  V  V5  1  0.337124  0.662876  0.000000  1
  V  V6  1  0.662876  0.337124  0.000000  1
  V  V7  1  0.837124  0.162876  0.500000  1
  Co  Co8  1  0.000000  0.000000  0.000000  1
  Co  Co9  1  0.500000  0.500000  0.500000  1
  O  O10  1  0.356775  0.989688  0.107186  1
  O  O11  1  0.643225  0.010312  0.892814  1
  O  O12  1  0.489688  0.856775  0.392814  1
  O  O13  1  0.143225  0.510312  0.607186  1
  O  O14  1  0.838082  0.838082  0.594537  1
  O  O15  1  0.661918  0.661918  0.094537  1
  O  O16  1  0.338082  0.338082  0.905463  1
  O  O17  1  0.010312  0.643225  0.892814  1
  O  O18  1  0.161918  0.161918  0.405463  1
  O  O19  1  0.856775  0.489688  0.392814  1
  O  O20  1  0.510312  0.143225  0.607186  1
  O  O21  1  0.989688  0.356775  0.107186  1
