# generated using pymatgen
data_Cr2(SO4)3
_symmetry_space_group_name_H-M   'P 1'
_cell_length_a   8.27805559
_cell_length_b   8.62799908
_cell_length_c   14.28180944
_cell_angle_alpha   90.00000000
_cell_angle_beta   124.79081079
_cell_angle_gamma   90.00000000
_symmetry_Int_Tables_number   1
_chemical_formula_structural   Cr2(SO4)3
_chemical_formula_sum   'Cr8 S12 O48'
_cell_volume   837.70699774
_cell_formula_units_Z   4
loop_
 _symmetry_equiv_pos_site_id
 _symmetry_equiv_pos_as_xyz
  1  'x, y, z'
loop_
 _atom_site_type_symbol
 _atom_site_label
 _atom_site_symmetry_multiplicity
 _atom_site_fract_x
 _atom_site_fract_y
 _atom_site_fract_z
 _atom_site_occupancy
  Cr  Cr0  1  0.363102  0.969651  0.111817  1
  Cr  Cr1  1  0.636898  0.469651  0.388183  1
  Cr  Cr2  1  0.867677  0.033040  0.615360  1
  Cr  Cr3  1  0.132323  0.533040  0.884640  1
  Cr  Cr4  1  0.867677  0.466960  0.115360  1
  Cr  Cr5  1  0.132323  0.966960  0.384640  1
  Cr  Cr6  1  0.363102  0.530349  0.611817  1
  Cr  Cr7  1  0.636898  0.030349  0.888183  1
  S  S8  1  0.547153  0.752426  0.507530  1
  S  S9  1  0.258030  0.619827  0.150945  1
  S  S10  1  0.969684  0.886900  0.854562  1
  S  S11  1  0.741970  0.119827  0.349055  1
  S  S12  1  0.030316  0.386900  0.645438  1
  S  S13  1  0.452847  0.252426  0.992470  1
  S  S14  1  0.547153  0.747574  0.007530  1
  S  S15  1  0.969684  0.613100  0.354562  1
  S  S16  1  0.258030  0.880173  0.650945  1
  S  S17  1  0.030316  0.113100  0.145438  1
  S  S18  1  0.741970  0.380173  0.849055  1
  S  S19  1  0.452847  0.247574  0.492470  1
  O  O20  1  0.606733  0.128674  0.552842  1
  O  O21  1  0.155314  0.113729  0.101407  1
  O  O22  1  0.454325  0.322013  0.398881  1
  O  O23  1  0.872646  0.425729  0.813954  1
  O  O24  1  0.513587  0.639803  0.419994  1
  O  O25  1  0.288379  0.789877  0.168993  1
  O  O26  1  0.161455  0.584211  0.029245  1
  O  O27  1  0.883609  0.996753  0.758255  1
  O  O28  1  0.977090  0.730106  0.814964  1
  O  O29  1  0.743396  0.823653  0.558602  1
  O  O30  1  0.446241  0.532951  0.219846  1
  O  O31  1  0.553759  0.032951  0.280154  1
  O  O32  1  0.173495  0.937646  0.944254  1
  O  O33  1  0.826505  0.437646  0.555746  1
  O  O34  1  0.256604  0.323653  0.941398  1
  O  O35  1  0.022910  0.230106  0.685036  1
  O  O36  1  0.838545  0.084211  0.470755  1
  O  O37  1  0.116391  0.496753  0.741745  1
  O  O38  1  0.711621  0.289877  0.331007  1
  O  O39  1  0.486413  0.139803  0.080006  1
  O  O40  1  0.545675  0.822013  0.101119  1
  O  O41  1  0.844686  0.613729  0.398593  1
  O  O42  1  0.127354  0.925729  0.686046  1
  O  O43  1  0.393267  0.628674  0.947158  1
  O  O44  1  0.606733  0.371326  0.052842  1
  O  O45  1  0.872646  0.074271  0.313954  1
  O  O46  1  0.155314  0.386271  0.601407  1
  O  O47  1  0.454325  0.177987  0.898881  1
  O  O48  1  0.513587  0.860197  0.919994  1
  O  O49  1  0.288379  0.710123  0.668993  1
  O  O50  1  0.883609  0.503247  0.258255  1
  O  O51  1  0.161455  0.915789  0.529245  1
  O  O52  1  0.977090  0.769894  0.314964  1
  O  O53  1  0.743396  0.676347  0.058602  1
  O  O54  1  0.173495  0.562354  0.444254  1
  O  O55  1  0.826505  0.062354  0.055746  1
  O  O56  1  0.446241  0.967049  0.719846  1
  O  O57  1  0.553759  0.467049  0.780154  1
  O  O58  1  0.256604  0.176347  0.441398  1
  O  O59  1  0.022910  0.269894  0.185036  1
  O  O60  1  0.116391  0.003247  0.241745  1
  O  O61  1  0.838545  0.415789  0.970755  1
  O  O62  1  0.711621  0.210123  0.831007  1
  O  O63  1  0.486413  0.360197  0.580006  1
  O  O64  1  0.127354  0.574271  0.186046  1
  O  O65  1  0.545675  0.677987  0.601119  1
  O  O66  1  0.844686  0.886271  0.898593  1
  O  O67  1  0.393267  0.871326  0.447158  1
