# generated using pymatgen
data_LiFe2(CO3)4
_symmetry_space_group_name_H-M   'P 1'
_cell_length_a   7.35465791
_cell_length_b   9.67565474
_cell_length_c   8.50575589
_cell_angle_alpha   90.00000000
_cell_angle_beta   108.70230060
_cell_angle_gamma   90.00000000
_symmetry_Int_Tables_number   1
_chemical_formula_structural   LiFe2(CO3)4
_chemical_formula_sum   'Li2 Fe4 C8 O24'
_cell_volume   573.31889247
_cell_formula_units_Z   2
loop_
 _symmetry_equiv_pos_site_id
 _symmetry_equiv_pos_as_xyz
  1  'x, y, z'
loop_
 _atom_site_type_symbol
 _atom_site_label
 _atom_site_symmetry_multiplicity
 _atom_site_fract_x
 _atom_site_fract_y
 _atom_site_fract_z
 _atom_site_occupancy
  Li  Li0  1  0.255827  0.913857  0.893947  1
  Li  Li1  1  0.744173  0.413857  0.106053  1
  Fe  Fe2  1  0.289868  0.345735  0.815753  1
  Fe  Fe3  1  0.710132  0.845735  0.184247  1
  Fe  Fe4  1  0.819511  0.149741  0.329532  1
  Fe  Fe5  1  0.180489  0.649741  0.670468  1
  C  C6  1  0.516118  0.115019  0.000169  1
  C  C7  1  0.483882  0.615019  0.999831  1
  C  C8  1  0.505126  0.485404  0.616711  1
  C  C9  1  0.494874  0.985404  0.383289  1
  C  C10  1  0.013203  0.996811  0.109261  1
  C  C11  1  0.986797  0.496811  0.890739  1
  C  C12  1  0.000195  0.401808  0.479299  1
  C  C13  1  0.999805  0.901808  0.520701  1
  O  O14  1  0.372408  0.158484  0.876774  1
  O  O15  1  0.466015  0.482072  0.983051  1
  O  O16  1  0.369427  0.701334  0.901324  1
  O  O17  1  0.630573  0.201334  0.098676  1
  O  O18  1  0.533985  0.982072  0.016949  1
  O  O19  1  0.365733  0.976668  0.451182  1
  O  O20  1  0.627592  0.658484  0.123226  1
  O  O21  1  0.414602  0.600938  0.613924  1
  O  O22  1  0.468566  0.374771  0.687889  1
  O  O23  1  0.531434  0.874771  0.312111  1
  O  O24  1  0.585398  0.100938  0.386076  1
  O  O25  1  0.862932  0.508148  0.961726  1
  O  O26  1  0.634267  0.476668  0.548818  1
  O  O27  1  0.905009  0.885534  0.085710  1
  O  O28  1  0.988883  0.094434  0.207598  1
  O  O29  1  0.011117  0.594434  0.792402  1
  O  O30  1  0.094991  0.385534  0.914290  1
  O  O31  1  0.875061  0.348287  0.346748  1
  O  O32  1  0.137068  0.008148  0.038274  1
  O  O33  1  0.964683  0.031152  0.520083  1
  O  O34  1  0.918635  0.819087  0.399973  1
  O  O35  1  0.081365  0.319087  0.600027  1
  O  O36  1  0.035317  0.531152  0.479917  1
  O  O37  1  0.124939  0.848287  0.653252  1
