# generated using pymatgen
data_Li2Cu2Si8O19
_symmetry_space_group_name_H-M   'P 1'
_cell_length_a   4.92570800
_cell_length_b   7.18828529
_cell_length_c   12.33771979
_cell_angle_alpha   73.70058881
_cell_angle_beta   78.57431116
_cell_angle_gamma   70.19948777
_symmetry_Int_Tables_number   1
_chemical_formula_structural   Li2Cu2Si8O19
_chemical_formula_sum   'Li2 Cu2 Si8 O19'
_cell_volume   391.92388189
_cell_formula_units_Z   1
loop_
 _symmetry_equiv_pos_site_id
 _symmetry_equiv_pos_as_xyz
  1  'x, y, z'
loop_
 _atom_site_type_symbol
 _atom_site_label
 _atom_site_symmetry_multiplicity
 _atom_site_fract_x
 _atom_site_fract_y
 _atom_site_fract_z
 _atom_site_occupancy
  Li  Li0  1  0.457222  0.424023  0.368945  1
  Li  Li1  1  0.239587  0.576417  0.635124  1
  Cu  Cu2  1  0.728126  0.004776  0.595314  1
  Cu  Cu3  1  0.337160  0.992118  0.402656  1
  Si  Si4  1  0.770078  0.686984  0.069709  1
  Si  Si5  1  0.145878  0.147711  0.832112  1
  Si  Si6  1  0.068896  0.281202  0.578797  1
  Si  Si7  1  0.220532  0.270983  0.171017  1
  Si  Si8  1  0.663083  0.728899  0.827842  1
  Si  Si9  1  0.932667  0.716389  0.421580  1
  Si  Si10  1  0.127915  0.849643  0.167945  1
  Si  Si11  1  0.529442  0.310453  0.929719  1
  O  O12  1  0.855857  0.858452  0.108295  1
  O  O13  1  0.420205  0.736589  0.096836  1
  O  O14  1  0.122017  0.297034  0.704391  1
  O  O15  1  0.748038  0.277887  0.571524  1
  O  O16  1  0.927196  0.466266  0.147255  1
  O  O17  1  0.335715  0.092433  0.542216  1
  O  O18  1  0.326945  0.245896  0.291915  1
  O  O19  1  0.368039  0.924925  0.825946  1
  O  O20  1  0.474269  0.304929  0.064873  1
  O  O21  1  0.843589  0.698363  0.933858  1
  O  O22  1  0.121290  0.073649  0.172016  1
  O  O23  1  0.866329  0.754290  0.707578  1
  O  O24  1  0.972761  0.907018  0.457558  1
  O  O25  1  0.546119  0.530919  0.851436  1
  O  O26  1  0.601843  0.718809  0.427916  1
  O  O27  1  0.126830  0.701234  0.296040  1
  O  O28  1  0.127125  0.499232  0.500770  1
  O  O29  1  0.254338  0.261066  0.903552  1
  O  O30  1  0.824017  0.138343  0.892447  1
