# generated using pymatgen
data_Li4V3Cr2Co(PO4)6
_symmetry_space_group_name_H-M   'P 1'
_cell_length_a   8.47614052
_cell_length_b   8.51585704
_cell_length_c   8.77966239
_cell_angle_alpha   62.17190160
_cell_angle_beta   62.85297656
_cell_angle_gamma   63.31213784
_symmetry_Int_Tables_number   1
_chemical_formula_structural   Li4V3Cr2Co(PO4)6
_chemical_formula_sum   'Li4 V3 Cr2 Co1 P6 O24'
_cell_volume   475.72072807
_cell_formula_units_Z   1
loop_
 _symmetry_equiv_pos_site_id
 _symmetry_equiv_pos_as_xyz
  1  'x, y, z'
loop_
 _atom_site_type_symbol
 _atom_site_label
 _atom_site_symmetry_multiplicity
 _atom_site_fract_x
 _atom_site_fract_y
 _atom_site_fract_z
 _atom_site_occupancy
  Li  Li0  1  0.750418  0.140406  0.356675  1
  Li  Li1  1  0.236550  0.848027  0.661902  1
  Li  Li2  1  0.652578  0.231784  0.847832  1
  Li  Li3  1  0.852701  0.652623  0.227218  1
  V  V4  1  0.358291  0.356320  0.353955  1
  V  V5  1  0.145223  0.146199  0.144737  1
  V  V6  1  0.645403  0.648275  0.650474  1
  Cr  Cr7  1  0.004576  0.004124  0.994013  1
  Cr  Cr8  1  0.493883  0.503278  0.503045  1
  Co  Co9  1  0.849297  0.848314  0.845474  1
  P  P10  1  0.066304  0.746524  0.451104  1
  P  P11  1  0.439426  0.056904  0.754775  1
  P  P12  1  0.752168  0.440232  0.049997  1
  P  P13  1  0.248041  0.548417  0.964006  1
  P  P14  1  0.552817  0.959897  0.251418  1
  P  P15  1  0.942155  0.249329  0.535075  1
  O  O16  1  0.463604  0.902336  0.696509  1
  O  O17  1  0.694246  0.462192  0.899381  1
  O  O18  1  0.905355  0.687716  0.483943  1
  O  O19  1  0.078139  0.909526  0.265073  1
  O  O20  1  0.048792  0.800350  0.604382  1
  O  O21  1  0.258692  0.587506  0.424974  1
  O  O22  1  0.247827  0.078759  0.909017  1
  O  O23  1  0.434675  0.245746  0.589227  1
  O  O24  1  0.172014  0.394740  0.008043  1
  O  O25  1  0.605033  0.411975  0.244925  1
  O  O26  1  0.091628  0.743323  0.947621  1
  O  O27  1  0.390620  0.021475  0.185651  1
  O  O28  1  0.597795  0.026615  0.815951  1
  O  O29  1  0.905023  0.239788  0.079694  1
  O  O30  1  0.393479  0.570845  0.771197  1
  O  O31  1  0.813757  0.599594  0.019783  1
  O  O32  1  0.566794  0.761230  0.398760  1
  O  O33  1  0.745537  0.940742  0.095869  1
  O  O34  1  0.746249  0.403830  0.566139  1
  O  O35  1  0.954825  0.189660  0.388168  1
  O  O36  1  0.932209  0.094092  0.725434  1
  O  O37  1  0.106575  0.316219  0.475733  1
  O  O38  1  0.324653  0.504952  0.111016  1
  O  O39  1  0.532646  0.103137  0.324813  1
