# generated using pymatgen
data_Na6Co2P(CO4)4
_symmetry_space_group_name_H-M   'P 1'
_cell_length_a   9.86786913
_cell_length_b   9.86786913
_cell_length_c   9.86786913
_cell_angle_alpha   60.00000000
_cell_angle_beta   60.00000000
_cell_angle_gamma   60.00000000
_symmetry_Int_Tables_number   1
_chemical_formula_structural   Na6Co2P(CO4)4
_chemical_formula_sum   'Na12 Co4 P2 C8 O32'
_cell_volume   679.44631176
_cell_formula_units_Z   2
loop_
 _symmetry_equiv_pos_site_id
 _symmetry_equiv_pos_as_xyz
  1  'x, y, z'
loop_
 _atom_site_type_symbol
 _atom_site_label
 _atom_site_symmetry_multiplicity
 _atom_site_fract_x
 _atom_site_fract_y
 _atom_site_fract_z
 _atom_site_occupancy
  Na  Na0  1  0.458626  0.458626  0.041374  1
  Na  Na1  1  0.041374  0.458626  0.041374  1
  Na  Na2  1  0.458626  0.041374  0.041374  1
  Na  Na3  1  0.041374  0.458626  0.458626  1
  Na  Na4  1  0.208626  0.208626  0.791374  1
  Na  Na5  1  0.791374  0.208626  0.791374  1
  Na  Na6  1  0.458626  0.041374  0.458626  1
  Na  Na7  1  0.041374  0.041374  0.458626  1
  Na  Na8  1  0.791374  0.208626  0.208626  1
  Na  Na9  1  0.208626  0.791374  0.791374  1
  Na  Na10  1  0.791374  0.791374  0.208626  1
  Na  Na11  1  0.208626  0.791374  0.208626  1
  Co  Co12  1  0.625000  0.625000  0.125000  1
  Co  Co13  1  0.125000  0.625000  0.625000  1
  Co  Co14  1  0.625000  0.625000  0.625000  1
  Co  Co15  1  0.625000  0.125000  0.625000  1
  P  P16  1  1.000000  1.000000  1.000000  1
  P  P17  1  0.250000  0.250000  0.250000  1
  C  C18  1  0.840694  0.477917  0.840694  1
  C  C19  1  0.840694  0.840694  0.840694  1
  C  C20  1  0.477917  0.840694  0.840694  1
  C  C21  1  0.840694  0.840694  0.477917  1
  C  C22  1  0.409306  0.409306  0.772083  1
  C  C23  1  0.772083  0.409306  0.409306  1
  C  C24  1  0.409306  0.409306  0.409306  1
  C  C25  1  0.409306  0.772083  0.409306  1
  O  O26  1  0.064549  0.806352  0.064549  1
  O  O27  1  0.064549  0.064549  0.064549  1
  O  O28  1  0.806352  0.064549  0.064549  1
  O  O29  1  0.064549  0.064549  0.806352  1
  O  O30  1  0.724572  0.475287  0.984001  1
  O  O31  1  0.984001  0.475287  0.816140  1
  O  O32  1  0.816140  0.724572  0.984001  1
  O  O33  1  0.816140  0.475287  0.724572  1
  O  O34  1  0.475287  0.816140  0.984001  1
  O  O35  1  0.475287  0.724572  0.816140  1
  O  O36  1  0.984001  0.816140  0.724572  1
  O  O37  1  0.724572  0.984001  0.816140  1
  O  O38  1  0.984001  0.724572  0.475287  1
  O  O39  1  0.475287  0.984001  0.724572  1
  O  O40  1  0.724572  0.816140  0.475287  1
  O  O41  1  0.433860  0.265999  0.774713  1
  O  O42  1  0.816140  0.984001  0.475287  1
  O  O43  1  0.525428  0.433860  0.774713  1
  O  O44  1  0.774713  0.265999  0.525428  1
  O  O45  1  0.265999  0.525428  0.774713  1
  O  O46  1  0.525428  0.265999  0.433860  1
  O  O47  1  0.265999  0.433860  0.525428  1
  O  O48  1  0.774713  0.525428  0.433860  1
  O  O49  1  0.774713  0.433860  0.265999  1
  O  O50  1  0.433860  0.774713  0.525428  1
  O  O51  1  0.433860  0.525428  0.265999  1
  O  O52  1  0.265999  0.774713  0.433860  1
  O  O53  1  0.525428  0.774713  0.265999  1
  O  O54  1  0.185451  0.185451  0.443648  1
  O  O55  1  0.443648  0.185451  0.185451  1
  O  O56  1  0.185451  0.185451  0.185451  1
  O  O57  1  0.185451  0.443648  0.185451  1
