# generated using pymatgen
data_Li2VCrO4
_symmetry_space_group_name_H-M   'P 1'
_cell_length_a   9.90193506
_cell_length_b   9.90193506
_cell_length_c   5.22363297
_cell_angle_alpha   84.44479975
_cell_angle_beta   95.55520025
_cell_angle_gamma   162.74515653
_symmetry_Int_Tables_number   1
_chemical_formula_structural   Li2VCrO4
_chemical_formula_sum   'Li4 V2 Cr2 O8'
_cell_volume   151.19060372
_cell_formula_units_Z   2
loop_
 _symmetry_equiv_pos_site_id
 _symmetry_equiv_pos_as_xyz
  1  'x, y, z'
loop_
 _atom_site_type_symbol
 _atom_site_label
 _atom_site_symmetry_multiplicity
 _atom_site_fract_x
 _atom_site_fract_y
 _atom_site_fract_z
 _atom_site_occupancy
  Li  Li0  1  0.000000  0.000000  0.000000  1
  Li  Li1  1  0.749543  0.250457  0.253601  1
  Li  Li2  1  0.500000  0.500000  0.500000  1
  Li  Li3  1  0.250457  0.749543  0.746399  1
  V  V4  1  0.374899  0.625101  0.124973  1
  V  V5  1  0.625101  0.374899  0.875027  1
  Cr  Cr6  1  0.875159  0.124841  0.625066  1
  Cr  Cr7  1  0.124841  0.875159  0.374934  1
  O  O8  1  0.931506  0.068494  0.312704  1
  O  O9  1  0.181669  0.818331  0.063445  1
  O  O10  1  0.568237  0.431763  0.193206  1
  O  O11  1  0.681567  0.318433  0.556202  1
  O  O12  1  0.318433  0.681567  0.443798  1
  O  O13  1  0.818331  0.181669  0.936555  1
  O  O14  1  0.068494  0.931506  0.687296  1
  O  O15  1  0.431763  0.568237  0.806794  1
