# generated using pymatgen
data_Li3Ti2(PO4)3
_symmetry_space_group_name_H-M   'P 1'
_cell_length_a   9.84571496
_cell_length_b   9.84571496
_cell_length_c   9.87484135
_cell_angle_alpha   85.68291883
_cell_angle_beta   94.31708117
_cell_angle_gamma   94.31441062
_symmetry_Int_Tables_number   1
_chemical_formula_structural   Li3Ti2(PO4)3
_chemical_formula_sum   'Li12 Ti8 P12 O48'
_cell_volume   949.49203486
_cell_formula_units_Z   4
loop_
 _symmetry_equiv_pos_site_id
 _symmetry_equiv_pos_as_xyz
  1  'x, y, z'
loop_
 _atom_site_type_symbol
 _atom_site_label
 _atom_site_symmetry_multiplicity
 _atom_site_fract_x
 _atom_site_fract_y
 _atom_site_fract_z
 _atom_site_occupancy
  Li  Li0  1  0.966839  0.230502  0.410483  1
  Li  Li1  1  0.183508  0.488788  0.521107  1
  Li  Li2  1  0.230502  0.966839  0.589517  1
  Li  Li3  1  0.488788  0.183508  0.478893  1
  Li  Li4  1  0.479429  0.964188  0.743657  1
  Li  Li5  1  0.964188  0.479429  0.256343  1
  Li  Li6  1  0.667115  0.262274  0.736013  1
  Li  Li7  1  0.262274  0.667115  0.263987  1
  Li  Li8  1  0.489652  0.827642  0.996860  1
  Li  Li9  1  0.750705  0.997840  0.911553  1
  Li  Li10  1  0.827642  0.489652  0.003140  1
  Li  Li11  1  0.997840  0.750705  0.088447  1
  Ti  Ti12  1  0.038852  0.250279  0.789042  1
  Ti  Ti13  1  0.747034  0.967646  0.286732  1
  Ti  Ti14  1  0.540120  0.540120  0.500000  1
  Ti  Ti15  1  0.750867  0.750867  0.500000  1
  Ti  Ti16  1  0.250439  0.250439  0.000000  1
  Ti  Ti17  1  0.250279  0.038852  0.210958  1
  Ti  Ti18  1  0.463581  0.463581  0.000000  1
  Ti  Ti19  1  0.967646  0.747034  0.713268  1
  P  P20  1  0.053240  0.828503  0.400509  1
  P  P21  1  0.326279  0.349687  0.304425  1
  P  P22  1  0.445568  0.850012  0.421587  1
  P  P23  1  0.349687  0.326279  0.695575  1
  P  P24  1  0.181534  0.946327  0.902752  1
  P  P25  1  0.151650  0.553399  0.928114  1
  P  P26  1  0.850012  0.445568  0.578413  1
  P  P27  1  0.828503  0.053240  0.599491  1
  P  P28  1  0.658262  0.680521  0.804336  1
  P  P29  1  0.553399  0.151650  0.071886  1
  P  P30  1  0.680521  0.658262  0.195664  1
  P  P31  1  0.946327  0.181534  0.097248  1
  O  O32  1  0.095964  0.708219  0.328232  1
  O  O33  1  0.121059  0.968447  0.353142  1
  O  O34  1  0.208074  0.427202  0.344948  1
  O  O35  1  0.312344  0.191368  0.337637  1
  O  O36  1  0.086575  0.815922  0.558503  1
  O  O37  1  0.377520  0.892502  0.280133  1
  O  O38  1  0.465874  0.395591  0.374457  1
  O  O39  1  0.191368  0.312344  0.662363  1
  O  O40  1  0.412797  0.691771  0.436783  1
  O  O41  1  0.044131  0.877980  0.847965  1
  O  O42  1  0.100098  0.615750  0.787602  1
  O  O43  1  0.403944  0.931393  0.536336  1
  O  O44  1  0.395591  0.465874  0.625543  1
  O  O45  1  0.674270  0.622936  0.353830  1
  O  O46  1  0.605500  0.879233  0.419131  1
  O  O47  1  0.121815  0.393217  0.920900  1
  O  O48  1  0.169444  0.105918  0.873224  1
  O  O49  1  0.427202  0.208074  0.655052  1
  O  O50  1  0.307122  0.910181  0.834959  1
  O  O51  1  0.074918  0.593456  0.046391  1
  O  O52  1  0.376885  0.333732  0.854360  1
  O  O53  1  0.105918  0.169444  0.126776  1
  O  O54  1  0.691771  0.412797  0.563217  1
  O  O55  1  0.815922  0.086575  0.441497  1
  O  O56  1  0.187734  0.911461  0.060301  1
  O  O57  1  0.308828  0.583674  0.950643  1
  O  O58  1  0.894070  0.833512  0.370458  1
  O  O59  1  0.622936  0.674270  0.646170  1
  O  O60  1  0.931393  0.403944  0.463664  1
  O  O61  1  0.708219  0.095964  0.671768  1
  O  O62  1  0.602449  0.810255  0.849498  1
  O  O63  1  0.879233  0.605500  0.580869  1
  O  O64  1  0.833512  0.894070  0.629542  1
  O  O65  1  0.393217  0.121815  0.079100  1
  O  O66  1  0.333732  0.376885  0.145640  1
  O  O67  1  0.602033  0.543978  0.872383  1
  O  O68  1  0.593456  0.074918  0.953609  1
  O  O69  1  0.968447  0.121059  0.646858  1
  O  O70  1  0.892502  0.377520  0.719867  1
  O  O71  1  0.583674  0.308828  0.049357  1
  O  O72  1  0.816747  0.683082  0.835114  1
  O  O73  1  0.543978  0.602033  0.127617  1
  O  O74  1  0.615750  0.100098  0.212398  1
  O  O75  1  0.911461  0.187734  0.939699  1
  O  O76  1  0.683082  0.816747  0.164886  1
  O  O77  1  0.810255  0.602449  0.150502  1
  O  O78  1  0.877980  0.044131  0.152035  1
  O  O79  1  0.910181  0.307122  0.165041  1
