# generated using pymatgen
data_TiNi3Sb2(PO4)6
_symmetry_space_group_name_H-M   'P 1'
_cell_length_a   8.67319487
_cell_length_b   8.67319487
_cell_length_c   8.67319487
_cell_angle_alpha   60.36387632
_cell_angle_beta   60.36387632
_cell_angle_gamma   60.36387632
_symmetry_Int_Tables_number   1
_chemical_formula_structural   TiNi3Sb2(PO4)6
_chemical_formula_sum   'Ti1 Ni3 Sb2 P6 O24'
_cell_volume   465.13850626
_cell_formula_units_Z   1
loop_
 _symmetry_equiv_pos_site_id
 _symmetry_equiv_pos_as_xyz
  1  'x, y, z'
loop_
 _atom_site_type_symbol
 _atom_site_label
 _atom_site_symmetry_multiplicity
 _atom_site_fract_x
 _atom_site_fract_y
 _atom_site_fract_z
 _atom_site_occupancy
  Ti  Ti0  1  0.143742  0.143742  0.143742  1
  Ni  Ni1  1  0.848255  0.848255  0.848255  1
  Ni  Ni2  1  0.652026  0.652026  0.652026  1
  Ni  Ni3  1  0.351885  0.351885  0.351885  1
  Sb  Sb4  1  0.987512  0.987512  0.987512  1
  Sb  Sb5  1  0.498067  0.498067  0.498067  1
  P  P6  1  0.753543  0.459553  0.047763  1
  P  P7  1  0.459553  0.047763  0.753543  1
  P  P8  1  0.047763  0.753543  0.459553  1
  P  P9  1  0.955235  0.251090  0.538901  1
  P  P10  1  0.538901  0.955235  0.251090  1
  P  P11  1  0.251090  0.538901  0.955235  1
  O  O12  1  0.900372  0.689987  0.484838  1
  O  O13  1  0.689987  0.484838  0.900372  1
  O  O14  1  0.923164  0.095378  0.736895  1
  O  O15  1  0.484838  0.900372  0.689987  1
  O  O16  1  0.010208  0.178109  0.383685  1
  O  O17  1  0.751532  0.410960  0.544482  1
  O  O18  1  0.736895  0.923164  0.095378  1
  O  O19  1  0.544482  0.751532  0.410960  1
  O  O20  1  0.811952  0.611051  0.017830  1
  O  O21  1  0.410960  0.544482  0.751532  1
  O  O22  1  0.909125  0.260647  0.081389  1
  O  O23  1  0.611051  0.017830  0.811952  1
  O  O24  1  0.383685  0.010208  0.178109  1
  O  O25  1  0.095378  0.736895  0.923164  1
  O  O26  1  0.590325  0.436849  0.254153  1
  O  O27  1  0.178109  0.383685  0.010208  1
  O  O28  1  0.436849  0.254153  0.590325  1
  O  O29  1  0.260647  0.081389  0.909125  1
  O  O30  1  0.254153  0.590325  0.436849  1
  O  O31  1  0.017830  0.811952  0.611051  1
  O  O32  1  0.509303  0.095661  0.324531  1
  O  O33  1  0.081389  0.909125  0.260647  1
  O  O34  1  0.324531  0.509303  0.095661  1
  O  O35  1  0.095661  0.324531  0.509303  1
