# generated using pymatgen
data_NaFe2(MoO4)3
_symmetry_space_group_name_H-M   'P 1'
_cell_length_a   6.97376231
_cell_length_b   6.99698715
_cell_length_c   11.92080100
_cell_angle_alpha   103.35291426
_cell_angle_beta   103.41423119
_cell_angle_gamma   88.26938503
_symmetry_Int_Tables_number   1
_chemical_formula_structural   NaFe2(MoO4)3
_chemical_formula_sum   'Na2 Fe4 Mo6 O24'
_cell_volume   550.34607447
_cell_formula_units_Z   2
loop_
 _symmetry_equiv_pos_site_id
 _symmetry_equiv_pos_as_xyz
  1  'x, y, z'
loop_
 _atom_site_type_symbol
 _atom_site_label
 _atom_site_symmetry_multiplicity
 _atom_site_fract_x
 _atom_site_fract_y
 _atom_site_fract_z
 _atom_site_occupancy
  Na  Na0  1  0.819734  0.397562  0.868046  1
  Na  Na1  1  0.180266  0.602438  0.131954  1
  Fe  Fe2  1  0.302237  0.297318  0.591104  1
  Fe  Fe3  1  0.670744  0.307585  0.188619  1
  Fe  Fe4  1  0.697763  0.702682  0.408896  1
  Fe  Fe5  1  0.329256  0.692415  0.811381  1
  Mo  Mo6  1  0.247469  0.754692  0.500026  1
  Mo  Mo7  1  0.805012  0.798920  0.743333  1
  Mo  Mo8  1  0.347314  0.250141  0.893002  1
  Mo  Mo9  1  0.194988  0.201080  0.256667  1
  Mo  Mo10  1  0.652686  0.749859  0.106998  1
  Mo  Mo11  1  0.752531  0.245308  0.499974  1
  O  O12  1  0.643435  0.631305  0.232427  1
  O  O13  1  0.691923  0.005264  0.165368  1
  O  O14  1  0.151011  0.345533  0.957153  1
  O  O15  1  0.723948  0.399250  0.392904  1
  O  O16  1  0.260807  0.263837  0.419706  1
  O  O17  1  0.308077  0.994736  0.834632  1
  O  O18  1  0.378872  0.296077  0.199342  1
  O  O19  1  0.739193  0.736163  0.580294  1
  O  O20  1  0.423213  0.704944  0.997815  1
  O  O21  1  0.994776  0.738956  0.421492  1
  O  O22  1  0.397524  0.676325  0.394747  1
  O  O23  1  0.175462  0.945018  0.208003  1
  O  O24  1  0.848989  0.654467  0.042847  1
  O  O25  1  0.681229  0.997720  0.422564  1
  O  O26  1  0.356565  0.368695  0.767573  1
  O  O27  1  0.970343  0.321753  0.205736  1
  O  O28  1  0.602476  0.323675  0.605253  1
  O  O29  1  0.318771  0.002280  0.577436  1
  O  O30  1  0.621128  0.703923  0.800658  1
  O  O31  1  0.824538  0.054982  0.791997  1
  O  O32  1  0.276052  0.600750  0.607096  1
  O  O33  1  0.576787  0.295056  0.002185  1
  O  O34  1  0.029657  0.678247  0.794264  1
  O  O35  1  0.005224  0.261044  0.578508  1
