# generated using pymatgen
data_Mg3WO6
_symmetry_space_group_name_H-M   'P 1'
_cell_length_a   9.96054850
_cell_length_b   9.96054850
_cell_length_c   9.96054850
_cell_angle_alpha   90.00000000
_cell_angle_beta   90.00000000
_cell_angle_gamma   90.00000000
_symmetry_Int_Tables_number   1
_chemical_formula_structural   Mg3WO6
_chemical_formula_sum   'Mg24 W8 O48'
_cell_volume   988.21118122
_cell_formula_units_Z   8
loop_
 _symmetry_equiv_pos_site_id
 _symmetry_equiv_pos_as_xyz
  1  'x, y, z'
loop_
 _atom_site_type_symbol
 _atom_site_label
 _atom_site_symmetry_multiplicity
 _atom_site_fract_x
 _atom_site_fract_y
 _atom_site_fract_z
 _atom_site_occupancy
  Mg  Mg0  1  0.092508  0.754340  0.131413  1
  Mg  Mg1  1  0.092508  0.745660  0.631413  1
  Mg  Mg2  1  0.131413  0.092508  0.754340  1
  Mg  Mg3  1  0.131413  0.407492  0.254340  1
  Mg  Mg4  1  0.254340  0.368587  0.907492  1
  Mg  Mg5  1  0.254340  0.131413  0.407492  1
  Mg  Mg6  1  0.245660  0.868587  0.907492  1
  Mg  Mg7  1  0.245660  0.631413  0.407492  1
  Mg  Mg8  1  0.368587  0.907492  0.254340  1
  Mg  Mg9  1  0.368587  0.592508  0.754340  1
  Mg  Mg10  1  0.407492  0.254340  0.131413  1
  Mg  Mg11  1  0.407492  0.245660  0.631413  1
  Mg  Mg12  1  0.592508  0.754340  0.368587  1
  Mg  Mg13  1  0.592508  0.745660  0.868587  1
  Mg  Mg14  1  0.631413  0.407492  0.245660  1
  Mg  Mg15  1  0.631413  0.092508  0.745660  1
  Mg  Mg16  1  0.754340  0.131413  0.092508  1
  Mg  Mg17  1  0.754340  0.368587  0.592508  1
  Mg  Mg18  1  0.745660  0.631413  0.092508  1
  Mg  Mg19  1  0.745660  0.868587  0.592508  1
  Mg  Mg20  1  0.868587  0.592508  0.745660  1
  Mg  Mg21  1  0.868587  0.907492  0.245660  1
  Mg  Mg22  1  0.907492  0.254340  0.368587  1
  Mg  Mg23  1  0.907492  0.245660  0.868587  1
  W  W24  1  0.122716  0.122716  0.122716  1
  W  W25  1  0.122716  0.377284  0.622716  1
  W  W26  1  0.377284  0.622716  0.122716  1
  W  W27  1  0.377284  0.877284  0.622716  1
  W  W28  1  0.622716  0.122716  0.377284  1
  W  W29  1  0.622716  0.377284  0.877284  1
  W  W30  1  0.877284  0.622716  0.377284  1
  W  W31  1  0.877284  0.877284  0.877284  1
  O  O32  1  0.043637  0.692940  0.437794  1
  O  O33  1  0.043637  0.807060  0.937794  1
  O  O34  1  0.062206  0.956363  0.192940  1
  O  O35  1  0.062206  0.543637  0.692940  1
  O  O36  1  0.092138  0.209306  0.305929  1
  O  O37  1  0.092138  0.290694  0.805929  1
  O  O38  1  0.192940  0.437794  0.456363  1
  O  O39  1  0.192940  0.062206  0.956363  1
  O  O40  1  0.194071  0.907862  0.709306  1
  O  O41  1  0.194071  0.592138  0.209306  1
  O  O42  1  0.209306  0.305929  0.092138  1
  O  O43  1  0.209306  0.194071  0.592138  1
  O  O44  1  0.290694  0.805929  0.092138  1
  O  O45  1  0.290694  0.694071  0.592138  1
  O  O46  1  0.305929  0.092138  0.209306  1
  O  O47  1  0.305929  0.407862  0.709306  1
  O  O48  1  0.307060  0.562206  0.956363  1
  O  O49  1  0.307060  0.937794  0.456363  1
  O  O50  1  0.407862  0.709306  0.305929  1
  O  O51  1  0.407862  0.790694  0.805929  1
  O  O52  1  0.437794  0.043637  0.692940  1
  O  O53  1  0.437794  0.456363  0.192940  1
  O  O54  1  0.456363  0.192940  0.437794  1
  O  O55  1  0.456363  0.307060  0.937794  1
  O  O56  1  0.543637  0.692940  0.062206  1
  O  O57  1  0.543637  0.807060  0.562206  1
  O  O58  1  0.562206  0.956363  0.307060  1
  O  O59  1  0.562206  0.543637  0.807060  1
  O  O60  1  0.592138  0.209306  0.194071  1
  O  O61  1  0.592138  0.290694  0.694071  1
  O  O62  1  0.692940  0.062206  0.543637  1
  O  O63  1  0.692940  0.437794  0.043637  1
  O  O64  1  0.694071  0.592138  0.290694  1
  O  O65  1  0.694071  0.907862  0.790694  1
  O  O66  1  0.709306  0.305929  0.407862  1
  O  O67  1  0.709306  0.194071  0.907862  1
  O  O68  1  0.790694  0.694071  0.907862  1
  O  O69  1  0.790694  0.805929  0.407862  1
  O  O70  1  0.805929  0.092138  0.290694  1
  O  O71  1  0.805929  0.407862  0.790694  1
  O  O72  1  0.807060  0.562206  0.543637  1
  O  O73  1  0.807060  0.937794  0.043637  1
  O  O74  1  0.907862  0.709306  0.194071  1
  O  O75  1  0.907862  0.790694  0.694071  1
  O  O76  1  0.937794  0.043637  0.807060  1
  O  O77  1  0.937794  0.456363  0.307060  1
  O  O78  1  0.956363  0.192940  0.062206  1
  O  O79  1  0.956363  0.307060  0.562206  1
