# generated using pymatgen
data_Li4MnCo3(PO4)4
_symmetry_space_group_name_H-M   'P 1'
_cell_length_a   4.75988334
_cell_length_b   6.01533001
_cell_length_c   11.39676320
_cell_angle_alpha   90.00000000
_cell_angle_beta   114.72673836
_cell_angle_gamma   90.00000000
_symmetry_Int_Tables_number   1
_chemical_formula_structural   Li4MnCo3(PO4)4
_chemical_formula_sum   'Li4 Mn1 Co3 P4 O16'
_cell_volume   296.39635336
_cell_formula_units_Z   1
loop_
 _symmetry_equiv_pos_site_id
 _symmetry_equiv_pos_as_xyz
  1  'x, y, z'
loop_
 _atom_site_type_symbol
 _atom_site_label
 _atom_site_symmetry_multiplicity
 _atom_site_fract_x
 _atom_site_fract_y
 _atom_site_fract_z
 _atom_site_occupancy
  Li  Li0  1  0.001649  0.250356  0.001275  1
  Li  Li1  1  0.001649  0.749644  0.001275  1
  Li  Li2  1  0.998768  0.748869  0.499158  1
  Li  Li3  1  0.998768  0.251131  0.499158  1
  Mn  Mn4  1  0.693277  0.000000  0.719816  1
  Co  Co5  1  0.304652  0.500000  0.278930  1
  Co  Co6  1  0.258117  0.500000  0.781140  1
  Co  Co7  1  0.742814  0.000000  0.220069  1
  P  P8  1  0.490298  0.000000  0.403902  1
  P  P9  1  0.324639  0.000000  0.908865  1
  P  P10  1  0.681897  0.500000  0.094197  1
  P  P11  1  0.502966  0.500000  0.592679  1
  O  O12  1  0.752628  0.000000  0.542453  1
  O  O13  1  0.556049  0.205264  0.333203  1
  O  O14  1  0.556049  0.794736  0.333203  1
  O  O15  1  0.831589  0.500000  0.598733  1
  O  O16  1  0.363101  0.500000  0.098252  1
  O  O17  1  0.119742  0.206010  0.837994  1
  O  O18  1  0.119742  0.793990  0.837994  1
  O  O19  1  0.340128  0.000000  0.047947  1
  O  O20  1  0.662361  0.500000  0.954648  1
  O  O21  1  0.890614  0.704992  0.165031  1
  O  O22  1  0.890614  0.295008  0.165031  1
  O  O23  1  0.643673  0.000000  0.905786  1
  O  O24  1  0.164275  0.000000  0.401180  1
  O  O25  1  0.431977  0.702217  0.662953  1
  O  O26  1  0.431977  0.297783  0.662953  1
  O  O27  1  0.245989  0.500000  0.452177  1
