# generated using pymatgen
data_Li4Bi3O8
_symmetry_space_group_name_H-M   'P 1'
_cell_length_a   6.56055549
_cell_length_b   4.25213463
_cell_length_c   14.07295998
_cell_angle_alpha   90.00000000
_cell_angle_beta   90.80599178
_cell_angle_gamma   90.00000000
_symmetry_Int_Tables_number   1
_chemical_formula_structural   Li4Bi3O8
_chemical_formula_sum   'Li8 Bi6 O16'
_cell_volume   392.54558780
_cell_formula_units_Z   2
loop_
 _symmetry_equiv_pos_site_id
 _symmetry_equiv_pos_as_xyz
  1  'x, y, z'
loop_
 _atom_site_type_symbol
 _atom_site_label
 _atom_site_symmetry_multiplicity
 _atom_site_fract_x
 _atom_site_fract_y
 _atom_site_fract_z
 _atom_site_occupancy
  Li  Li0  1  0.200787  0.250000  0.395289  1
  Li  Li1  1  0.034492  0.250000  0.676003  1
  Li  Li2  1  0.611852  0.750000  0.040823  1
  Li  Li3  1  0.410937  0.750000  0.317300  1
  Li  Li4  1  0.589063  0.250000  0.682700  1
  Li  Li5  1  0.388148  0.250000  0.959177  1
  Li  Li6  1  0.965508  0.750000  0.323997  1
  Li  Li7  1  0.799213  0.750000  0.604711  1
  Bi  Bi8  1  0.154802  0.750000  0.085590  1
  Bi  Bi9  1  0.313024  0.750000  0.551482  1
  Bi  Bi10  1  0.310730  0.750000  0.806076  1
  Bi  Bi11  1  0.689270  0.250000  0.193924  1
  Bi  Bi12  1  0.686976  0.250000  0.448518  1
  Bi  Bi13  1  0.845198  0.250000  0.914410  1
  O  O14  1  0.104997  0.250000  0.048557  1
  O  O15  1  0.432772  0.750000  0.174547  1
  O  O16  1  0.187719  0.750000  0.414783  1
  O  O17  1  0.085831  0.750000  0.654948  1
  O  O18  1  0.120138  0.250000  0.812861  1
  O  O19  1  0.474517  0.250000  0.331750  1
  O  O20  1  0.369543  0.250000  0.533743  1
  O  O21  1  0.638933  0.250000  0.035767  1
  O  O22  1  0.361067  0.750000  0.964233  1
  O  O23  1  0.630457  0.750000  0.466257  1
  O  O24  1  0.525483  0.750000  0.668250  1
  O  O25  1  0.879862  0.750000  0.187139  1
  O  O26  1  0.914169  0.250000  0.345052  1
  O  O27  1  0.812281  0.250000  0.585217  1
  O  O28  1  0.567228  0.250000  0.825453  1
  O  O29  1  0.895003  0.750000  0.951443  1
