# generated using pymatgen
data_Li2Fe(PO3)4
_symmetry_space_group_name_H-M   'P 1'
_cell_length_a   9.37551566
_cell_length_b   9.37551566
_cell_length_c   4.66945613
_cell_angle_alpha   90.00000000
_cell_angle_beta   90.00000000
_cell_angle_gamma   90.00000000
_symmetry_Int_Tables_number   1
_chemical_formula_structural   Li2Fe(PO3)4
_chemical_formula_sum   'Li4 Fe2 P8 O24'
_cell_volume   410.44656606
_cell_formula_units_Z   2
loop_
 _symmetry_equiv_pos_site_id
 _symmetry_equiv_pos_as_xyz
  1  'x, y, z'
loop_
 _atom_site_type_symbol
 _atom_site_label
 _atom_site_symmetry_multiplicity
 _atom_site_fract_x
 _atom_site_fract_y
 _atom_site_fract_z
 _atom_site_occupancy
  Li  Li0  1  0.250000  0.250000  0.500000  1
  Li  Li1  1  0.750000  0.250000  0.500000  1
  Li  Li2  1  0.750000  0.750000  0.500000  1
  Li  Li3  1  0.250000  0.750000  0.500000  1
  Fe  Fe4  1  0.500000  0.500000  0.500000  1
  Fe  Fe5  1  0.000000  0.000000  0.500000  1
  P  P6  1  0.000000  0.275874  0.000000  1
  P  P7  1  0.775874  0.500000  0.000000  1
  P  P8  1  0.224126  0.500000  0.000000  1
  P  P9  1  0.000000  0.724126  0.000000  1
  P  P10  1  0.500000  0.775874  0.000000  1
  P  P11  1  0.275874  0.000000  0.000000  1
  P  P12  1  0.724126  0.000000  0.000000  1
  P  P13  1  0.500000  0.224126  0.000000  1
  O  O14  1  0.570060  0.299740  0.245635  1
  O  O15  1  0.429940  0.299740  0.754365  1
  O  O16  1  0.115488  0.384512  0.855050  1
  O  O17  1  0.884512  0.384512  0.144950  1
  O  O18  1  0.299740  0.429940  0.245635  1
  O  O19  1  0.700260  0.429940  0.754365  1
  O  O20  1  0.700260  0.570060  0.245635  1
  O  O21  1  0.299740  0.570060  0.754365  1
  O  O22  1  0.115488  0.615488  0.144950  1
  O  O23  1  0.884512  0.615488  0.855050  1
  O  O24  1  0.429940  0.700260  0.245635  1
  O  O25  1  0.570060  0.700260  0.754365  1
  O  O26  1  0.929940  0.799740  0.245635  1
  O  O27  1  0.070060  0.799740  0.754365  1
  O  O28  1  0.384512  0.884512  0.855050  1
  O  O29  1  0.615488  0.884512  0.144950  1
  O  O30  1  0.200260  0.929940  0.245635  1
  O  O31  1  0.799740  0.929940  0.754365  1
  O  O32  1  0.799740  0.070060  0.245635  1
  O  O33  1  0.200260  0.070060  0.754365  1
  O  O34  1  0.384512  0.115488  0.144950  1
  O  O35  1  0.615488  0.115488  0.855050  1
  O  O36  1  0.929940  0.200260  0.754365  1
  O  O37  1  0.070060  0.200260  0.245635  1
