# generated using pymatgen
data_Ba2YBr7
_symmetry_space_group_name_H-M   'P 1'
_cell_length_a   12.05825548
_cell_length_b   12.05825548
_cell_length_c   12.26346790
_cell_angle_alpha   65.64077058
_cell_angle_beta   114.35922942
_cell_angle_gamma   111.05841017
_symmetry_Int_Tables_number   1
_chemical_formula_structural   Ba2YBr7
_chemical_formula_sum   'Ba8 Y4 Br28'
_cell_volume   1440.81081991
_cell_formula_units_Z   4
loop_
 _symmetry_equiv_pos_site_id
 _symmetry_equiv_pos_as_xyz
  1  'x, y, z'
loop_
 _atom_site_type_symbol
 _atom_site_label
 _atom_site_symmetry_multiplicity
 _atom_site_fract_x
 _atom_site_fract_y
 _atom_site_fract_z
 _atom_site_occupancy
  Ba  Ba0  1  0.260455  0.099076  0.036570  1
  Ba  Ba1  1  0.320261  0.563582  0.032019  1
  Ba  Ba2  1  0.436418  0.679739  0.532019  1
  Ba  Ba3  1  0.099076  0.260455  0.463430  1
  Ba  Ba4  1  0.900924  0.739545  0.536570  1
  Ba  Ba5  1  0.563582  0.320261  0.467981  1
  Ba  Ba6  1  0.679739  0.436418  0.967981  1
  Ba  Ba7  1  0.739545  0.900924  0.963430  1
  Y  Y8  1  0.011641  0.668427  0.174903  1
  Y  Y9  1  0.668427  0.011641  0.325097  1
  Y  Y10  1  0.331573  0.988359  0.674903  1
  Y  Y11  1  0.988359  0.331573  0.825097  1
  Br  Br12  1  0.218864  0.376795  0.789334  1
  Br  Br13  1  0.091648  0.962182  0.676164  1
  Br  Br14  1  0.036783  0.574751  0.835864  1
  Br  Br15  1  0.439498  0.869784  0.931223  1
  Br  Br16  1  0.225428  0.767728  0.104537  1
  Br  Br17  1  0.425249  0.963217  0.335864  1
  Br  Br18  1  0.130216  0.560502  0.431223  1
  Br  Br19  1  0.767728  0.225428  0.395463  1
  Br  Br20  1  0.131850  0.274210  0.078716  1
  Br  Br21  1  0.623205  0.781136  0.289334  1
  Br  Br22  1  0.725790  0.868150  0.578716  1
  Br  Br23  1  0.352815  0.479964  0.348400  1
  Br  Br24  1  0.962182  0.091648  0.823836  1
  Br  Br25  1  0.520036  0.647185  0.848400  1
  Br  Br26  1  0.479964  0.352815  0.151600  1
  Br  Br27  1  0.037818  0.908352  0.176164  1
  Br  Br28  1  0.647185  0.520036  0.651600  1
  Br  Br29  1  0.274210  0.131850  0.421284  1
  Br  Br30  1  0.376795  0.218864  0.710666  1
  Br  Br31  1  0.868150  0.725790  0.921284  1
  Br  Br32  1  0.232272  0.774572  0.604537  1
  Br  Br33  1  0.869784  0.439498  0.568777  1
  Br  Br34  1  0.574751  0.036783  0.664136  1
  Br  Br35  1  0.774572  0.232272  0.895463  1
  Br  Br36  1  0.560502  0.130216  0.068777  1
  Br  Br37  1  0.963217  0.425249  0.164136  1
  Br  Br38  1  0.908352  0.037818  0.323836  1
  Br  Br39  1  0.781136  0.623205  0.210666  1
