# generated using pymatgen
data_Li2Mn3(BO3)3
_symmetry_space_group_name_H-M   'P 1'
_cell_length_a   5.86184151
_cell_length_b   8.28736548
_cell_length_c   9.06725760
_cell_angle_alpha   112.66098394
_cell_angle_beta   102.25647553
_cell_angle_gamma   102.10976003
_symmetry_Int_Tables_number   1
_chemical_formula_structural   Li2Mn3(BO3)3
_chemical_formula_sum   'Li4 Mn6 B6 O18'
_cell_volume   375.87413161
_cell_formula_units_Z   2
loop_
 _symmetry_equiv_pos_site_id
 _symmetry_equiv_pos_as_xyz
  1  'x, y, z'
loop_
 _atom_site_type_symbol
 _atom_site_label
 _atom_site_symmetry_multiplicity
 _atom_site_fract_x
 _atom_site_fract_y
 _atom_site_fract_z
 _atom_site_occupancy
  Li  Li0  1  0.043985  0.387192  0.224175  1
  Li  Li1  1  0.402340  0.719298  0.886366  1
  Li  Li2  1  0.919640  0.612902  0.771084  1
  Li  Li3  1  0.723084  0.059671  0.558919  1
  Mn  Mn4  1  0.237476  0.991203  0.789146  1
  Mn  Mn5  1  0.121865  0.370188  0.887294  1
  Mn  Mn6  1  0.439048  0.690659  0.542394  1
  Mn  Mn7  1  0.537791  0.295839  0.440840  1
  Mn  Mn8  1  0.882650  0.642439  0.132971  1
  Mn  Mn9  1  0.769338  0.020668  0.196953  1
  B  B10  1  0.103232  0.365707  0.543648  1
  B  B11  1  0.217519  0.953976  0.106331  1
  B  B12  1  0.443783  0.704916  0.225403  1
  B  B13  1  0.566888  0.312687  0.788312  1
  B  B14  1  0.785830  0.033767  0.881459  1
  B  B15  1  0.892014  0.630263  0.460332  1
  O  O16  1  0.155131  0.851729  0.936264  1
  O  O17  1  0.130511  0.756059  0.557483  1
  O  O18  1  0.053653  0.929201  0.194753  1
  O  O19  1  0.172390  0.477605  0.714241  1
  O  O20  1  0.241220  0.413590  0.447556  1
  O  O21  1  0.221175  0.561777  0.145186  1
  O  O22  1  0.568846  0.883123  0.801326  1
  O  O23  1  0.422022  0.267343  0.878194  1
  O  O24  1  0.540277  0.805274  0.397189  1
  O  O25  1  0.504709  0.206717  0.618459  1
  O  O26  1  0.571759  0.749675  0.122988  1
  O  O27  1  0.455581  0.078814  0.202669  1
  O  O28  1  0.784407  0.464705  0.876258  1
  O  O29  1  0.732915  0.598605  0.552820  1
  O  O30  1  0.821834  0.529160  0.292141  1
  O  O31  1  0.914290  0.083479  0.784381  1
  O  O32  1  0.889067  0.214333  0.456241  1
  O  O33  1  0.870273  0.136951  0.054718  1
