# generated using pymatgen
data_BaYI5
_symmetry_space_group_name_H-M   'P 1'
_cell_length_a   8.05757477
_cell_length_b   8.61481693
_cell_length_c   18.91437898
_cell_angle_alpha   90.00000000
_cell_angle_beta   90.00000000
_cell_angle_gamma   90.00000000
_symmetry_Int_Tables_number   1
_chemical_formula_structural   BaYI5
_chemical_formula_sum   'Ba4 Y4 I20'
_cell_volume   1312.93275633
_cell_formula_units_Z   4
loop_
 _symmetry_equiv_pos_site_id
 _symmetry_equiv_pos_as_xyz
  1  'x, y, z'
loop_
 _atom_site_type_symbol
 _atom_site_label
 _atom_site_symmetry_multiplicity
 _atom_site_fract_x
 _atom_site_fract_y
 _atom_site_fract_z
 _atom_site_occupancy
  Ba  Ba0  1  0.767059  0.707295  0.666388  1
  Ba  Ba1  1  0.267059  0.792705  0.333612  1
  Ba  Ba2  1  0.732941  0.292705  0.166388  1
  Ba  Ba3  1  0.232941  0.207295  0.833612  1
  Y  Y4  1  0.327963  0.126919  0.585090  1
  Y  Y5  1  0.827963  0.373081  0.414910  1
  Y  Y6  1  0.172037  0.873081  0.085090  1
  Y  Y7  1  0.672037  0.626919  0.914910  1
  I  I8  1  0.142854  0.911669  0.684568  1
  I  I9  1  0.599274  0.094918  0.693133  1
  I  I10  1  0.155532  0.384880  0.660044  1
  I  I11  1  0.480751  0.858304  0.506065  1
  I  I12  1  0.542134  0.393679  0.522564  1
  I  I13  1  0.042134  0.106321  0.477436  1
  I  I14  1  0.980751  0.641696  0.493935  1
  I  I15  1  0.655532  0.115120  0.339956  1
  I  I16  1  0.099274  0.405082  0.306867  1
  I  I17  1  0.642854  0.588331  0.315432  1
  I  I18  1  0.357146  0.088331  0.184568  1
  I  I19  1  0.900726  0.905082  0.193133  1
  I  I20  1  0.344468  0.615120  0.160044  1
  I  I21  1  0.019249  0.141696  0.006065  1
  I  I22  1  0.957866  0.606321  0.022564  1
  I  I23  1  0.457866  0.893679  0.977436  1
  I  I24  1  0.519249  0.358304  0.993935  1
  I  I25  1  0.844468  0.884880  0.839956  1
  I  I26  1  0.400726  0.594918  0.806867  1
  I  I27  1  0.857146  0.411669  0.815432  1
