# generated using pymatgen
data_Na2CrCSO7
_symmetry_space_group_name_H-M   'P 1'
_cell_length_a   5.24783071
_cell_length_b   7.12102637
_cell_length_c   8.93883377
_cell_angle_alpha   90.00000000
_cell_angle_beta   90.70861642
_cell_angle_gamma   90.00000000
_symmetry_Int_Tables_number   1
_chemical_formula_structural   Na2CrCSO7
_chemical_formula_sum   'Na4 Cr2 C2 S2 O14'
_cell_volume   334.01814220
_cell_formula_units_Z   2
loop_
 _symmetry_equiv_pos_site_id
 _symmetry_equiv_pos_as_xyz
  1  'x, y, z'
loop_
 _atom_site_type_symbol
 _atom_site_label
 _atom_site_symmetry_multiplicity
 _atom_site_fract_x
 _atom_site_fract_y
 _atom_site_fract_z
 _atom_site_occupancy
  Na  Na0  1  0.768633  0.003919  0.219557  1
  Na  Na1  1  0.768633  0.496081  0.219557  1
  Na  Na2  1  0.231367  0.503919  0.780443  1
  Na  Na3  1  0.231367  0.996081  0.780443  1
  Cr  Cr4  1  0.228925  0.250000  0.355034  1
  Cr  Cr5  1  0.771075  0.750000  0.644966  1
  C  C6  1  0.275189  0.250000  0.074584  1
  C  C7  1  0.724811  0.750000  0.925416  1
  S  S8  1  0.284943  0.750000  0.419286  1
  S  S9  1  0.715057  0.250000  0.580714  1
  O  O10  1  0.717450  0.750000  0.066454  1
  O  O11  1  0.058265  0.250000  0.148252  1
  O  O12  1  0.478509  0.250000  0.162326  1
  O  O13  1  0.205251  0.920620  0.337086  1
  O  O14  1  0.205251  0.579380  0.337086  1
  O  O15  1  0.827450  0.250000  0.426377  1
  O  O16  1  0.572436  0.750000  0.438084  1
  O  O17  1  0.427564  0.250000  0.561916  1
  O  O18  1  0.172550  0.750000  0.573623  1
  O  O19  1  0.794749  0.420620  0.662914  1
  O  O20  1  0.794749  0.079380  0.662914  1
  O  O21  1  0.521491  0.750000  0.837674  1
  O  O22  1  0.941735  0.750000  0.851748  1
  O  O23  1  0.282550  0.250000  0.933546  1
