# generated using pymatgen
data_Li4Cr3Ni3(WO8)2
_symmetry_space_group_name_H-M   'P 1'
_cell_length_a   5.93128270
_cell_length_b   5.93128270
_cell_length_c   9.65264229
_cell_angle_alpha   89.61933359
_cell_angle_beta   90.38066641
_cell_angle_gamma   119.55051222
_symmetry_Int_Tables_number   1
_chemical_formula_structural   Li4Cr3Ni3(WO8)2
_chemical_formula_sum   'Li4 Cr3 Ni3 W2 O16'
_cell_volume   295.40004292
_cell_formula_units_Z   1
loop_
 _symmetry_equiv_pos_site_id
 _symmetry_equiv_pos_as_xyz
  1  'x, y, z'
loop_
 _atom_site_type_symbol
 _atom_site_label
 _atom_site_symmetry_multiplicity
 _atom_site_fract_x
 _atom_site_fract_y
 _atom_site_fract_z
 _atom_site_occupancy
  Li  Li0  1  0.335128  0.664872  0.093020  1
  Li  Li1  1  0.000558  0.999442  0.013143  1
  Li  Li2  1  0.999452  0.000548  0.508123  1
  Li  Li3  1  0.668775  0.331225  0.594450  1
  Cr  Cr4  1  0.167087  0.341197  0.785181  1
  Cr  Cr5  1  0.658803  0.832913  0.785181  1
  Cr  Cr6  1  0.824882  0.175118  0.277623  1
  Ni  Ni7  1  0.169729  0.830271  0.785177  1
  Ni  Ni8  1  0.339333  0.171150  0.288660  1
  Ni  Ni9  1  0.828850  0.660667  0.288660  1
  W  W10  1  0.330392  0.669608  0.512769  1
  W  W11  1  0.660977  0.339023  0.010691  1
  O  O12  1  0.166158  0.347569  0.409708  1
  O  O13  1  0.480960  0.519040  0.656588  1
  O  O14  1  0.336322  0.663678  0.892355  1
  O  O15  1  0.996981  0.003019  0.694107  1
  O  O16  1  0.990349  0.009651  0.203752  1
  O  O17  1  0.652431  0.833842  0.409708  1
  O  O18  1  0.039467  0.512532  0.650098  1
  O  O19  1  0.487468  0.960533  0.650098  1
  O  O20  1  0.827813  0.172187  0.906393  1
  O  O21  1  0.170485  0.829515  0.415046  1
  O  O22  1  0.535524  0.038229  0.150903  1
  O  O23  1  0.961771  0.464476  0.150903  1
  O  O24  1  0.679673  0.320327  0.389031  1
  O  O25  1  0.341911  0.174372  0.912265  1
  O  O26  1  0.522443  0.477557  0.146178  1
  O  O27  1  0.825628  0.658089  0.912265  1
