# generated using pymatgen
data_LiVF5
_symmetry_space_group_name_H-M   'P 1'
_cell_length_a   7.31356800
_cell_length_b   6.76892652
_cell_length_c   7.63146679
_cell_angle_alpha   90.00000000
_cell_angle_beta   90.87112696
_cell_angle_gamma   90.00000000
_symmetry_Int_Tables_number   1
_chemical_formula_structural   LiVF5
_chemical_formula_sum   'Li4 V4 F20'
_cell_volume   377.75213177
_cell_formula_units_Z   4
loop_
 _symmetry_equiv_pos_site_id
 _symmetry_equiv_pos_as_xyz
  1  'x, y, z'
loop_
 _atom_site_type_symbol
 _atom_site_label
 _atom_site_symmetry_multiplicity
 _atom_site_fract_x
 _atom_site_fract_y
 _atom_site_fract_z
 _atom_site_occupancy
  Li  Li0  1  0.251197  0.258598  0.962911  1
  Li  Li1  1  0.251197  0.241402  0.462911  1
  Li  Li2  1  0.748803  0.758598  0.537089  1
  Li  Li3  1  0.748803  0.741402  0.037089  1
  V  V4  1  0.254699  0.764495  0.609442  1
  V  V5  1  0.254699  0.735505  0.109442  1
  V  V6  1  0.745301  0.264495  0.890558  1
  V  V7  1  0.745301  0.235505  0.390558  1
  F  F8  1  0.995072  0.248726  0.895460  1
  F  F9  1  0.995072  0.251274  0.395460  1
  F  F10  1  0.251987  0.682807  0.857400  1
  F  F11  1  0.251987  0.817193  0.357400  1
  F  F12  1  0.239997  0.036934  0.647624  1
  F  F13  1  0.239997  0.463066  0.147624  1
  F  F14  1  0.272820  0.497609  0.556704  1
  F  F15  1  0.272820  0.002391  0.056704  1
  F  F16  1  0.496667  0.294368  0.875961  1
  F  F17  1  0.496667  0.205632  0.375961  1
  F  F18  1  0.503333  0.794368  0.624039  1
  F  F19  1  0.503333  0.705632  0.124039  1
  F  F20  1  0.727180  0.997609  0.943296  1
  F  F21  1  0.727180  0.502391  0.443296  1
  F  F22  1  0.760003  0.536934  0.852376  1
  F  F23  1  0.760003  0.963066  0.352376  1
  F  F24  1  0.748013  0.182807  0.642600  1
  F  F25  1  0.748013  0.317193  0.142600  1
  F  F26  1  0.004928  0.748726  0.604540  1
  F  F27  1  0.004928  0.751274  0.104540  1
