# generated using pymatgen
data_Li4V3Cr3(WO8)2
_symmetry_space_group_name_H-M   'P 1'
_cell_length_a   5.98771906
_cell_length_b   5.98771906
_cell_length_c   9.71618447
_cell_angle_alpha   89.92258976
_cell_angle_beta   90.07741024
_cell_angle_gamma   120.05287124
_symmetry_Int_Tables_number   1
_chemical_formula_structural   Li4V3Cr3(WO8)2
_chemical_formula_sum   'Li4 V3 Cr3 W2 O16'
_cell_volume   301.52065107
_cell_formula_units_Z   1
loop_
 _symmetry_equiv_pos_site_id
 _symmetry_equiv_pos_as_xyz
  1  'x, y, z'
loop_
 _atom_site_type_symbol
 _atom_site_label
 _atom_site_symmetry_multiplicity
 _atom_site_fract_x
 _atom_site_fract_y
 _atom_site_fract_z
 _atom_site_occupancy
  Li  Li0  1  0.333973  0.666027  0.097069  1
  Li  Li1  1  0.999267  0.000733  0.006881  1
  Li  Li2  1  0.997892  0.002108  0.508020  1
  Li  Li3  1  0.666715  0.333285  0.600036  1
  V  V4  1  0.168971  0.831029  0.787053  1
  V  V5  1  0.338576  0.167428  0.287185  1
  V  V6  1  0.832572  0.661424  0.287185  1
  Cr  Cr7  1  0.171887  0.339276  0.786376  1
  Cr  Cr8  1  0.660724  0.828113  0.786376  1
  Cr  Cr9  1  0.830282  0.169718  0.285229  1
  W  W10  1  0.333356  0.666644  0.513594  1
  W  W11  1  0.667258  0.332742  0.013046  1
  O  O12  1  0.167426  0.339133  0.404756  1
  O  O13  1  0.480577  0.519423  0.659493  1
  O  O14  1  0.332677  0.667323  0.891690  1
  O  O15  1  0.999878  0.000122  0.693832  1
  O  O16  1  0.999880  0.000120  0.191550  1
  O  O17  1  0.660867  0.832574  0.404756  1
  O  O18  1  0.040999  0.518408  0.654681  1
  O  O19  1  0.481592  0.959001  0.654681  1
  O  O20  1  0.828917  0.171083  0.905083  1
  O  O21  1  0.166045  0.833955  0.407046  1
  O  O22  1  0.521408  0.037235  0.156925  1
  O  O23  1  0.962765  0.478592  0.156925  1
  O  O24  1  0.665900  0.334100  0.392769  1
  O  O25  1  0.333047  0.170506  0.904630  1
  O  O26  1  0.522092  0.477908  0.150943  1
  O  O27  1  0.829494  0.666953  0.904630  1
