# generated using pymatgen
data_Na3Mn3O8
_symmetry_space_group_name_H-M   'P 1'
_cell_length_a   8.76913317
_cell_length_b   8.76913317
_cell_length_c   8.76913317
_cell_angle_alpha   90.00000000
_cell_angle_beta   90.00000000
_cell_angle_gamma   90.00000000
_symmetry_Int_Tables_number   1
_chemical_formula_structural   Na3Mn3O8
_chemical_formula_sum   'Na12 Mn12 O32'
_cell_volume   674.32614154
_cell_formula_units_Z   4
loop_
 _symmetry_equiv_pos_site_id
 _symmetry_equiv_pos_as_xyz
  1  'x, y, z'
loop_
 _atom_site_type_symbol
 _atom_site_label
 _atom_site_symmetry_multiplicity
 _atom_site_fract_x
 _atom_site_fract_y
 _atom_site_fract_z
 _atom_site_occupancy
  Na  Na0  1  0.513360  0.513360  0.513360  1
  Na  Na1  1  0.625000  0.375000  0.875000  1
  Na  Na2  1  0.736640  0.736640  0.736640  1
  Na  Na3  1  0.763360  0.263360  0.236640  1
  Na  Na4  1  0.875000  0.625000  0.375000  1
  Na  Na5  1  0.986640  0.486640  0.013360  1
  Na  Na6  1  0.013360  0.986640  0.486640  1
  Na  Na7  1  0.125000  0.125000  0.125000  1
  Na  Na8  1  0.236640  0.763360  0.263360  1
  Na  Na9  1  0.263360  0.236640  0.763360  1
  Na  Na10  1  0.375000  0.875000  0.625000  1
  Na  Na11  1  0.486640  0.013360  0.986640  1
  Mn  Mn12  1  0.604136  0.645864  0.125000  1
  Mn  Mn13  1  0.625000  0.895864  0.354136  1
  Mn  Mn14  1  0.645864  0.125000  0.604136  1
  Mn  Mn15  1  0.854136  0.875000  0.104136  1
  Mn  Mn16  1  0.875000  0.104136  0.854136  1
  Mn  Mn17  1  0.895864  0.354136  0.625000  1
  Mn  Mn18  1  0.104136  0.854136  0.875000  1
  Mn  Mn19  1  0.125000  0.604136  0.645864  1
  Mn  Mn20  1  0.145864  0.375000  0.395864  1
  Mn  Mn21  1  0.354136  0.625000  0.895864  1
  Mn  Mn22  1  0.375000  0.395864  0.145864  1
  Mn  Mn23  1  0.395864  0.145864  0.375000  1
  O  O24  1  0.569282  0.641661  0.906813  1
  O  O25  1  0.593187  0.430718  0.141661  1
  O  O26  1  0.620284  0.120284  0.379716  1
  O  O27  1  0.641661  0.906813  0.569282  1
  O  O28  1  0.608339  0.680718  0.343187  1
  O  O29  1  0.629716  0.870284  0.129716  1
  O  O30  1  0.656813  0.108339  0.819282  1
  O  O31  1  0.680718  0.343187  0.608339  1
  O  O32  1  0.819282  0.656813  0.108339  1
  O  O33  1  0.843187  0.891661  0.319282  1
  O  O34  1  0.870284  0.129716  0.629716  1
  O  O35  1  0.891661  0.319282  0.843187  1
  O  O36  1  0.858339  0.093187  0.069282  1
  O  O37  1  0.879716  0.879716  0.879716  1
  O  O38  1  0.906813  0.569282  0.641661  1
  O  O39  1  0.930718  0.358339  0.406813  1
  O  O40  1  0.069282  0.858339  0.093187  1
  O  O41  1  0.093187  0.069282  0.858339  1
  O  O42  1  0.120284  0.379716  0.620284  1
  O  O43  1  0.141661  0.593187  0.430718  1
  O  O44  1  0.108339  0.819282  0.656813  1
  O  O45  1  0.129716  0.629716  0.870284  1
  O  O46  1  0.156813  0.391661  0.180718  1
  O  O47  1  0.180718  0.156813  0.391661  1
  O  O48  1  0.319282  0.843187  0.891661  1
  O  O49  1  0.343187  0.608339  0.680718  1
  O  O50  1  0.370284  0.370284  0.370284  1
  O  O51  1  0.391661  0.180718  0.156813  1
  O  O52  1  0.358339  0.406813  0.930718  1
  O  O53  1  0.379716  0.620284  0.120284  1
  O  O54  1  0.406813  0.930718  0.358339  1
  O  O55  1  0.430718  0.141661  0.593187  1
