# generated using pymatgen
data_LiNi7O7F
_symmetry_space_group_name_H-M   'P 1'
_cell_length_a   5.19270712
_cell_length_b   2.98097872
_cell_length_c   9.89749994
_cell_angle_alpha   90.00000000
_cell_angle_beta   99.49777294
_cell_angle_gamma   90.00000000
_symmetry_Int_Tables_number   1
_chemical_formula_structural   LiNi7O7F
_chemical_formula_sum   'Li1 Ni7 O7 F1'
_cell_volume   151.10670277
_cell_formula_units_Z   1
loop_
 _symmetry_equiv_pos_site_id
 _symmetry_equiv_pos_as_xyz
  1  'x, y, z'
loop_
 _atom_site_type_symbol
 _atom_site_label
 _atom_site_symmetry_multiplicity
 _atom_site_fract_x
 _atom_site_fract_y
 _atom_site_fract_z
 _atom_site_occupancy
  Li  Li0  1  0.252018  0.500000  0.731224  1
  Ni  Ni1  1  0.997674  0.500000  0.007195  1
  Ni  Ni2  1  0.000132  0.000000  0.506391  1
  Ni  Ni3  1  0.750278  0.500000  0.255947  1
  Ni  Ni4  1  0.495540  0.500000  0.503315  1
  Ni  Ni5  1  0.728028  0.000000  0.743621  1
  Ni  Ni6  1  0.513048  0.000000  0.001365  1
  Ni  Ni7  1  0.252877  0.000000  0.254730  1
  O  O8  1  0.866190  0.500000  0.627438  1
  O  O9  1  0.878897  0.000000  0.125526  1
  O  O10  1  0.645076  0.500000  0.881428  1
  O  O11  1  0.370515  0.500000  0.118601  1
  O  O12  1  0.623930  0.000000  0.372260  1
  O  O13  1  0.372986  0.000000  0.621282  1
  O  O14  1  0.121195  0.500000  0.373689  1
  F  F15  1  0.131615  0.000000  0.875987  1
