# generated using pymatgen
data_Ti3V2P6WO24
_symmetry_space_group_name_H-M   'P 1'
_cell_length_a   8.66316671
_cell_length_b   8.66316671
_cell_length_c   8.66316671
_cell_angle_alpha   60.50008472
_cell_angle_beta   60.50008472
_cell_angle_gamma   60.50008472
_symmetry_Int_Tables_number   1
_chemical_formula_structural   Ti3V2P6WO24
_chemical_formula_sum   'Ti3 V2 P6 W1 O24'
_cell_volume   464.93883325
_cell_formula_units_Z   1
loop_
 _symmetry_equiv_pos_site_id
 _symmetry_equiv_pos_as_xyz
  1  'x, y, z'
loop_
 _atom_site_type_symbol
 _atom_site_label
 _atom_site_symmetry_multiplicity
 _atom_site_fract_x
 _atom_site_fract_y
 _atom_site_fract_z
 _atom_site_occupancy
  Ti  Ti0  1  0.645509  0.645509  0.645509  1
  Ti  Ti1  1  0.855776  0.855776  0.855776  1
  Ti  Ti2  1  0.355099  0.355099  0.355099  1
  V  V3  1  0.996668  0.996668  0.996668  1
  V  V4  1  0.501221  0.501221  0.501221  1
  P  P5  1  0.953993  0.251960  0.547289  1
  P  P6  1  0.547289  0.953993  0.251960  1
  P  P7  1  0.251960  0.547289  0.953993  1
  P  P8  1  0.744070  0.460529  0.043724  1
  P  P9  1  0.460529  0.043724  0.744070  1
  P  P10  1  0.043724  0.744070  0.460529  1
  W  W11  1  0.140802  0.140802  0.140802  1
  O  O12  1  0.499533  0.116613  0.314088  1
  O  O13  1  0.314088  0.499533  0.116613  1
  O  O14  1  0.116613  0.314088  0.499533  1
  O  O15  1  0.940698  0.090016  0.740742  1
  O  O16  1  0.982223  0.190897  0.397301  1
  O  O17  1  0.760359  0.414156  0.569152  1
  O  O18  1  0.740742  0.940698  0.090016  1
  O  O19  1  0.569152  0.760359  0.414156  1
  O  O20  1  0.815059  0.614483  0.999741  1
  O  O21  1  0.414156  0.569152  0.760359  1
  O  O22  1  0.898014  0.264202  0.053214  1
  O  O23  1  0.614483  0.999741  0.815059  1
  O  O24  1  0.397301  0.982223  0.190897  1
  O  O25  1  0.090016  0.740742  0.940698  1
  O  O26  1  0.585361  0.446141  0.238268  1
  O  O27  1  0.190897  0.397301  0.982223  1
  O  O28  1  0.446141  0.238268  0.585361  1
  O  O29  1  0.264202  0.053214  0.898014  1
  O  O30  1  0.238268  0.585361  0.446141  1
  O  O31  1  0.999741  0.815059  0.614483  1
  O  O32  1  0.053214  0.898014  0.264202  1
  O  O33  1  0.886749  0.674316  0.512023  1
  O  O34  1  0.674316  0.512023  0.886749  1
  O  O35  1  0.512023  0.886749  0.674316  1
