# generated using pymatgen
data_LiP4WO12
_symmetry_space_group_name_H-M   'P 1'
_cell_length_a   5.34034755
_cell_length_b   14.03782990
_cell_length_c   7.39221417
_cell_angle_alpha   90.00000000
_cell_angle_beta   95.96981930
_cell_angle_gamma   90.00000000
_symmetry_Int_Tables_number   1
_chemical_formula_structural   LiP4WO12
_chemical_formula_sum   'Li2 P8 W2 O24'
_cell_volume   551.16593839
_cell_formula_units_Z   2
loop_
 _symmetry_equiv_pos_site_id
 _symmetry_equiv_pos_as_xyz
  1  'x, y, z'
loop_
 _atom_site_type_symbol
 _atom_site_label
 _atom_site_symmetry_multiplicity
 _atom_site_fract_x
 _atom_site_fract_y
 _atom_site_fract_z
 _atom_site_occupancy
  Li  Li0  1  0.625527  0.009960  0.103280  1
  Li  Li1  1  0.374473  0.509960  0.896720  1
  P  P2  1  0.033796  0.095149  0.558761  1
  P  P3  1  0.992442  0.378733  0.445133  1
  P  P4  1  0.136063  0.672555  0.097454  1
  P  P5  1  0.214862  0.319601  0.108361  1
  P  P6  1  0.785138  0.819601  0.891639  1
  P  P7  1  0.863937  0.172555  0.902546  1
  P  P8  1  0.007558  0.878733  0.554867  1
  P  P9  1  0.966204  0.595149  0.441239  1
  W  W10  1  0.511991  0.235869  0.505497  1
  W  W11  1  0.488009  0.735869  0.494503  1
  O  O12  1  0.046114  0.262000  0.953193  1
  O  O13  1  0.035818  0.109083  0.774998  1
  O  O14  1  0.000867  0.862463  0.769406  1
  O  O15  1  0.177916  0.614382  0.936517  1
  O  O16  1  0.068983  0.488675  0.477400  1
  O  O17  1  0.159358  0.657218  0.545540  1
  O  O18  1  0.195291  0.323571  0.556257  1
  O  O19  1  0.299782  0.102559  0.510261  1
  O  O20  1  0.272894  0.866587  0.508026  1
  O  O21  1  0.378571  0.250534  0.223148  1
  O  O22  1  0.362967  0.711012  0.212928  1
  O  O23  1  0.336544  0.399199  0.019525  1
  O  O24  1  0.663456  0.899199  0.980475  1
  O  O25  1  0.637033  0.211012  0.787072  1
  O  O26  1  0.621429  0.750534  0.776852  1
  O  O27  1  0.727106  0.366587  0.491974  1
  O  O28  1  0.700218  0.602559  0.489739  1
  O  O29  1  0.804709  0.823571  0.443743  1
  O  O30  1  0.840642  0.157218  0.454460  1
  O  O31  1  0.931017  0.988675  0.522600  1
  O  O32  1  0.822084  0.114382  0.063483  1
  O  O33  1  0.999133  0.362463  0.230594  1
  O  O34  1  0.964182  0.609083  0.225002  1
  O  O35  1  0.953886  0.762000  0.046807  1
