# generated using pymatgen
data_Ti3Fe3(SbO8)2
_symmetry_space_group_name_H-M   'P 1'
_cell_length_a   6.02327208
_cell_length_b   6.02327208
_cell_length_c   9.36533941
_cell_angle_alpha   89.60305593
_cell_angle_beta   90.39694407
_cell_angle_gamma   120.31587224
_symmetry_Int_Tables_number   1
_chemical_formula_structural   Ti3Fe3(SbO8)2
_chemical_formula_sum   'Ti3 Fe3 Sb2 O16'
_cell_volume   293.30138372
_cell_formula_units_Z   1
loop_
 _symmetry_equiv_pos_site_id
 _symmetry_equiv_pos_as_xyz
  1  'x, y, z'
loop_
 _atom_site_type_symbol
 _atom_site_label
 _atom_site_symmetry_multiplicity
 _atom_site_fract_x
 _atom_site_fract_y
 _atom_site_fract_z
 _atom_site_occupancy
  Ti  Ti0  1  0.336444  0.167508  0.210411  1
  Ti  Ti1  1  0.832492  0.663556  0.210411  1
  Ti  Ti2  1  0.164429  0.835571  0.713746  1
  Fe  Fe3  1  0.831026  0.168974  0.208836  1
  Fe  Fe4  1  0.168501  0.338304  0.707541  1
  Fe  Fe5  1  0.661696  0.831499  0.707541  1
  Sb  Sb6  1  0.669120  0.330880  0.489613  1
  Sb  Sb7  1  0.335337  0.664663  0.987293  1
  O  O8  1  0.345796  0.165133  0.603977  1
  O  O9  1  0.523981  0.476019  0.339511  1
  O  O10  1  0.659077  0.340923  0.103389  1
  O  O11  1  0.003920  0.996080  0.302415  1
  O  O12  1  0.000387  0.999613  0.802850  1
  O  O13  1  0.834867  0.654204  0.603977  1
  O  O14  1  0.516059  0.046326  0.340420  1
  O  O15  1  0.953674  0.483941  0.340420  1
  O  O16  1  0.174301  0.825699  0.106515  1
  O  O17  1  0.831695  0.168305  0.600209  1
  O  O18  1  0.043160  0.529364  0.841720  1
  O  O19  1  0.470636  0.956840  0.841720  1
  O  O20  1  0.331006  0.668994  0.604299  1
  O  O21  1  0.175553  0.342075  0.103909  1
  O  O22  1  0.477690  0.522310  0.841027  1
  O  O23  1  0.657925  0.824447  0.103909  1
