# generated using pymatgen
data_SmTh4O10
_symmetry_space_group_name_H-M   'P 1'
_cell_length_a   6.87108076
_cell_length_b   6.87108076
_cell_length_c   6.87108076
_cell_angle_alpha   99.59899920
_cell_angle_beta   99.59899920
_cell_angle_gamma   131.79727019
_symmetry_Int_Tables_number   1
_chemical_formula_structural   SmTh4O10
_chemical_formula_sum   'Sm1 Th4 O10'
_cell_volume   220.75705357
_cell_formula_units_Z   1
loop_
 _symmetry_equiv_pos_site_id
 _symmetry_equiv_pos_as_xyz
  1  'x, y, z'
loop_
 _atom_site_type_symbol
 _atom_site_label
 _atom_site_symmetry_multiplicity
 _atom_site_fract_x
 _atom_site_fract_y
 _atom_site_fract_z
 _atom_site_occupancy
  Sm  Sm0  1  0.500000  0.500000  0.000000  1
  Th  Th1  1  0.298637  0.899202  0.197838  1
  Th  Th2  1  0.701363  0.100798  0.802162  1
  Th  Th3  1  0.899202  0.701363  0.600565  1
  Th  Th4  1  0.100798  0.298637  0.399435  1
  O  O5  1  0.651965  0.954177  0.101366  1
  O  O6  1  0.147190  0.449402  0.101366  1
  O  O7  1  0.550598  0.651965  0.697788  1
  O  O8  1  0.045823  0.147190  0.697788  1
  O  O9  1  0.250000  0.750000  0.500000  1
  O  O10  1  0.750000  0.250000  0.500000  1
  O  O11  1  0.348035  0.045823  0.898634  1
  O  O12  1  0.852810  0.550598  0.898634  1
  O  O13  1  0.954177  0.852810  0.302212  1
  O  O14  1  0.449402  0.348035  0.302212  1
