# generated using pymatgen
data_Na7Li4Yb5C12O37
_symmetry_space_group_name_H-M   'P 1'
_cell_length_a   10.29251402
_cell_length_b   10.29251402
_cell_length_c   10.34674503
_cell_angle_alpha   60.79252527
_cell_angle_beta   119.20747473
_cell_angle_gamma   120.65961976
_symmetry_Int_Tables_number   1
_chemical_formula_structural   Na7Li4Yb5C12O37
_chemical_formula_sum   'Na7 Li4 Yb5 C12 O37'
_cell_volume   780.13557513
_cell_formula_units_Z   1
loop_
 _symmetry_equiv_pos_site_id
 _symmetry_equiv_pos_as_xyz
  1  'x, y, z'
loop_
 _atom_site_type_symbol
 _atom_site_label
 _atom_site_symmetry_multiplicity
 _atom_site_fract_x
 _atom_site_fract_y
 _atom_site_fract_z
 _atom_site_occupancy
  Na  Na0  1  0.883128  0.636908  0.118741  1
  Na  Na1  1  0.363092  0.116872  0.118741  1
  Na  Na2  1  0.365207  0.634793  0.108043  1
  Na  Na3  1  0.887647  0.112353  0.636787  1
  Na  Na4  1  0.119083  0.880917  0.373601  1
  Na  Na5  1  0.124080  0.371134  0.877053  1
  Na  Na6  1  0.628866  0.875920  0.877053  1
  Li  Li7  1  0.999395  0.000605  0.001186  1
  Li  Li8  1  0.003661  0.500373  0.002244  1
  Li  Li9  1  0.499627  0.996339  0.002244  1
  Li  Li10  1  0.371143  0.628857  0.643414  1
  Yb  Yb11  1  0.637652  0.878224  0.385470  1
  Yb  Yb12  1  0.121776  0.362348  0.385470  1
  Yb  Yb13  1  0.882227  0.633728  0.632062  1
  Yb  Yb14  1  0.366272  0.117773  0.632062  1
  Yb  Yb15  1  0.621554  0.378446  0.872410  1
  C  C16  1  0.774648  0.225352  0.213748  1
  C  C17  1  0.482714  0.517286  0.935365  1
  C  C18  1  0.769126  0.827585  0.227068  1
  C  C19  1  0.483055  0.940485  0.515996  1
  C  C20  1  0.172415  0.230874  0.227068  1
  C  C21  1  0.210875  0.789125  0.132614  1
  C  C22  1  0.471667  0.528333  0.522118  1
  C  C23  1  0.772814  0.227186  0.837453  1
  C  C24  1  0.864845  0.784881  0.787134  1
  C  C25  1  0.215119  0.135155  0.787134  1
  C  C26  1  0.059515  0.516945  0.515996  1
  C  C27  1  0.209858  0.790142  0.786844  1
  O  O28  1  0.630277  0.149525  0.140439  1
  O  O29  1  0.850475  0.369723  0.140439  1
  O  O30  1  0.843027  0.156973  0.358661  1
  O  O31  1  0.845494  0.838184  0.152871  1
  O  O32  1  0.161816  0.154506  0.152871  1
  O  O33  1  0.631367  0.845748  0.155748  1
  O  O34  1  0.154252  0.368633  0.155748  1
  O  O35  1  0.826118  0.799529  0.377598  1
  O  O36  1  0.200471  0.173882  0.377598  1
  O  O37  1  0.138066  0.643720  0.133297  1
  O  O38  1  0.356280  0.861934  0.133297  1
  O  O39  1  0.633407  0.366593  0.533125  1
  O  O40  1  0.846630  0.153370  0.845991  1
  O  O41  1  0.138914  0.861086  0.131734  1
  O  O42  1  0.401119  0.598881  0.382497  1
  O  O43  1  0.841974  0.376475  0.833882  1
  O  O44  1  0.623525  0.158026  0.833882  1
  O  O45  1  0.396256  0.384990  0.597018  1
  O  O46  1  0.615010  0.603744  0.597018  1
  O  O47  1  0.864175  0.854806  0.644260  1
  O  O48  1  0.145194  0.135825  0.644260  1
  O  O49  1  0.061203  0.583900  0.374507  1
  O  O50  1  0.416100  0.938797  0.374507  1
  O  O51  1  0.361857  0.139904  0.854344  1
  O  O52  1  0.860096  0.638143  0.854344  1
  O  O53  1  0.619353  0.922076  0.592881  1
  O  O54  1  0.077924  0.380647  0.592881  1
  O  O55  1  0.411237  0.946467  0.584889  1
  O  O56  1  0.053533  0.588763  0.584889  1
  O  O57  1  0.142301  0.128251  0.862292  1
  O  O58  1  0.871749  0.857699  0.862292  1
  O  O59  1  0.629124  0.586773  0.939085  1
  O  O60  1  0.413227  0.370876  0.939085  1
  O  O61  1  0.404338  0.595662  0.913537  1
  O  O62  1  0.139755  0.860245  0.645108  1
  O  O63  1  0.133748  0.645451  0.856503  1
  O  O64  1  0.354549  0.866252  0.856503  1
