# generated using pymatgen
data_Ba2CaI6
_symmetry_space_group_name_H-M   'P 1'
_cell_length_a   8.29486944
_cell_length_b   9.44043885
_cell_length_c   23.73917009
_cell_angle_alpha   90.00000000
_cell_angle_beta   90.00000000
_cell_angle_gamma   90.00000000
_symmetry_Int_Tables_number   1
_chemical_formula_structural   Ba2CaI6
_chemical_formula_sum   'Ba8 Ca4 I24'
_cell_volume   1858.94812327
_cell_formula_units_Z   4
loop_
 _symmetry_equiv_pos_site_id
 _symmetry_equiv_pos_as_xyz
  1  'x, y, z'
loop_
 _atom_site_type_symbol
 _atom_site_label
 _atom_site_symmetry_multiplicity
 _atom_site_fract_x
 _atom_site_fract_y
 _atom_site_fract_z
 _atom_site_occupancy
  Ba  Ba0  1  0.732615  0.665747  0.158662  1
  Ba  Ba1  1  0.232615  0.334253  0.158662  1
  Ba  Ba2  1  0.232615  0.834253  0.341338  1
  Ba  Ba3  1  0.732615  0.165747  0.341338  1
  Ba  Ba4  1  0.267385  0.834253  0.658662  1
  Ba  Ba5  1  0.767385  0.165747  0.658662  1
  Ba  Ba6  1  0.767385  0.665747  0.841338  1
  Ba  Ba7  1  0.267385  0.334253  0.841338  1
  Ca  Ca8  1  0.250000  0.851287  0.000000  1
  Ca  Ca9  1  0.750000  0.148713  0.000000  1
  Ca  Ca10  1  0.750000  0.648713  0.500000  1
  Ca  Ca11  1  0.250000  0.351287  0.500000  1
  I  I12  1  0.051221  0.079412  0.075905  1
  I  I13  1  0.551221  0.920588  0.075905  1
  I  I14  1  0.079393  0.616974  0.076386  1
  I  I15  1  0.579393  0.383026  0.076386  1
  I  I16  1  0.887222  0.390256  0.238824  1
  I  I17  1  0.387222  0.609744  0.238824  1
  I  I18  1  0.887222  0.890256  0.261176  1
  I  I19  1  0.387222  0.109744  0.261176  1
  I  I20  1  0.579393  0.883026  0.423614  1
  I  I21  1  0.079393  0.116974  0.423614  1
  I  I22  1  0.051221  0.579412  0.424095  1
  I  I23  1  0.551221  0.420588  0.424095  1
  I  I24  1  0.448779  0.579412  0.575905  1
  I  I25  1  0.948779  0.420588  0.575905  1
  I  I26  1  0.920607  0.883026  0.576386  1
  I  I27  1  0.420607  0.116974  0.576386  1
  I  I28  1  0.612778  0.890256  0.738824  1
  I  I29  1  0.112778  0.109744  0.738824  1
  I  I30  1  0.112778  0.609744  0.761176  1
  I  I31  1  0.612778  0.390256  0.761176  1
  I  I32  1  0.420607  0.616974  0.923614  1
  I  I33  1  0.920607  0.383026  0.923614  1
  I  I34  1  0.948779  0.920588  0.924095  1
  I  I35  1  0.448779  0.079412  0.924095  1
