# generated using pymatgen
data_Li2Cu2F7
_symmetry_space_group_name_H-M   'P 1'
_cell_length_a   5.19783174
_cell_length_b   6.71603933
_cell_length_c   8.52145187
_cell_angle_alpha   108.85387206
_cell_angle_beta   103.44329710
_cell_angle_gamma   86.48613978
_symmetry_Int_Tables_number   1
_chemical_formula_structural   Li2Cu2F7
_chemical_formula_sum   'Li4 Cu4 F14'
_cell_volume   273.76902156
_cell_formula_units_Z   2
loop_
 _symmetry_equiv_pos_site_id
 _symmetry_equiv_pos_as_xyz
  1  'x, y, z'
loop_
 _atom_site_type_symbol
 _atom_site_label
 _atom_site_symmetry_multiplicity
 _atom_site_fract_x
 _atom_site_fract_y
 _atom_site_fract_z
 _atom_site_occupancy
  Li  Li0  1  0.679873  0.242693  0.905769  1
  Li  Li1  1  0.134134  0.010915  0.740316  1
  Li  Li2  1  0.865866  0.989085  0.259684  1
  Li  Li3  1  0.320127  0.757307  0.094231  1
  Cu  Cu4  1  0.709604  0.715481  0.818660  1
  Cu  Cu5  1  0.184874  0.479416  0.667598  1
  Cu  Cu6  1  0.815126  0.520584  0.332402  1
  Cu  Cu7  1  0.290396  0.284519  0.181340  1
  F  F8  1  0.363681  0.183119  0.954541  1
  F  F9  1  0.057655  0.622901  0.897813  1
  F  F10  1  0.549765  0.432342  0.777066  1
  F  F11  1  0.067928  0.208618  0.623144  1
  F  F12  1  0.342851  0.754097  0.705744  1
  F  F13  1  0.826134  0.979328  0.815528  1
  F  F14  1  0.821709  0.584922  0.590085  1
  F  F15  1  0.178291  0.415078  0.409915  1
  F  F16  1  0.173866  0.020672  0.184472  1
  F  F17  1  0.657149  0.245903  0.294256  1
  F  F18  1  0.932072  0.791382  0.376856  1
  F  F19  1  0.450235  0.567658  0.222934  1
  F  F20  1  0.942345  0.377099  0.102187  1
  F  F21  1  0.636319  0.816881  0.045459  1
