# generated using pymatgen
data_Li2CoO3
_symmetry_space_group_name_H-M   'P 1'
_cell_length_a   3.29048104
_cell_length_b   8.20410637
_cell_length_c   9.69694829
_cell_angle_alpha   90.00000000
_cell_angle_beta   90.00000000
_cell_angle_gamma   90.00000000
_symmetry_Int_Tables_number   1
_chemical_formula_structural   Li2CoO3
_chemical_formula_sum   'Li8 Co4 O12'
_cell_volume   261.77354536
_cell_formula_units_Z   4
loop_
 _symmetry_equiv_pos_site_id
 _symmetry_equiv_pos_as_xyz
  1  'x, y, z'
loop_
 _atom_site_type_symbol
 _atom_site_label
 _atom_site_symmetry_multiplicity
 _atom_site_fract_x
 _atom_site_fract_y
 _atom_site_fract_z
 _atom_site_occupancy
  Li  Li0  1  0.500000  0.092241  0.889969  1
  Li  Li1  1  0.000000  0.355630  0.795828  1
  Li  Li2  1  0.500000  0.855630  0.704172  1
  Li  Li3  1  0.000000  0.592241  0.610031  1
  Li  Li4  1  0.000000  0.407759  0.389969  1
  Li  Li5  1  0.500000  0.144370  0.295828  1
  Li  Li6  1  0.000000  0.644370  0.204172  1
  Li  Li7  1  0.500000  0.907759  0.110031  1
  Co  Co8  1  0.500000  0.632160  0.901359  1
  Co  Co9  1  0.000000  0.132160  0.598641  1
  Co  Co10  1  0.000000  0.867840  0.401359  1
  Co  Co11  1  0.500000  0.367840  0.098641  1
  O  O12  1  0.500000  0.401724  0.909472  1
  O  O13  1  0.500000  0.840831  0.914796  1
  O  O14  1  0.000000  0.117926  0.776889  1
  O  O15  1  0.500000  0.617926  0.723111  1
  O  O16  1  0.000000  0.340831  0.585204  1
  O  O17  1  0.000000  0.901724  0.590528  1
  O  O18  1  0.000000  0.098276  0.409472  1
  O  O19  1  0.000000  0.659169  0.414796  1
  O  O20  1  0.500000  0.382074  0.276889  1
  O  O21  1  0.000000  0.882074  0.223111  1
  O  O22  1  0.500000  0.159169  0.085204  1
  O  O23  1  0.500000  0.598276  0.090528  1
