# generated using pymatgen
data_Li14Mn2O9
_symmetry_space_group_name_H-M   'P 1'
_cell_length_a   5.91667031
_cell_length_b   5.91667031
_cell_length_c   8.13279975
_cell_angle_alpha   90.00000000
_cell_angle_beta   90.00000000
_cell_angle_gamma   120.00000000
_symmetry_Int_Tables_number   1
_chemical_formula_structural   Li14Mn2O9
_chemical_formula_sum   'Li14 Mn2 O9'
_cell_volume   246.56160676
_cell_formula_units_Z   1
loop_
 _symmetry_equiv_pos_site_id
 _symmetry_equiv_pos_as_xyz
  1  'x, y, z'
loop_
 _atom_site_type_symbol
 _atom_site_label
 _atom_site_symmetry_multiplicity
 _atom_site_fract_x
 _atom_site_fract_y
 _atom_site_fract_z
 _atom_site_occupancy
  Li  Li0  1  0.065001  0.705590  0.904464  1
  Li  Li1  1  0.311144  0.937938  0.585231  1
  Li  Li2  1  0.062062  0.373206  0.585231  1
  Li  Li3  1  0.000000  0.000000  0.260306  1
  Li  Li4  1  0.000000  0.000000  0.739694  1
  Li  Li5  1  0.294410  0.359412  0.904464  1
  Li  Li6  1  0.640588  0.934999  0.904464  1
  Li  Li7  1  0.373206  0.311144  0.414769  1
  Li  Li8  1  0.626794  0.688856  0.585231  1
  Li  Li9  1  0.359412  0.065001  0.095536  1
  Li  Li10  1  0.705590  0.640588  0.095536  1
  Li  Li11  1  0.937938  0.626794  0.414769  1
  Li  Li12  1  0.688856  0.062062  0.414769  1
  Li  Li13  1  0.934999  0.294410  0.095536  1
  Mn  Mn14  1  0.333333  0.666667  0.252203  1
  Mn  Mn15  1  0.666667  0.333333  0.747797  1
  O  O16  1  0.309953  0.979060  0.341436  1
  O  O17  1  0.020940  0.330892  0.341436  1
  O  O18  1  0.333333  0.666667  0.004599  1
  O  O19  1  0.000000  0.000000  0.000000  1
  O  O20  1  0.330892  0.309953  0.658564  1
  O  O21  1  0.669108  0.690047  0.341436  1
  O  O22  1  0.666667  0.333333  0.995401  1
  O  O23  1  0.979060  0.669108  0.658564  1
  O  O24  1  0.690047  0.020940  0.658564  1
