# generated using pymatgen
data_K2ZnP4(HO2)8
_symmetry_space_group_name_H-M   'P 1'
_cell_length_a   6.91730217
_cell_length_b   7.43535780
_cell_length_c   7.60860835
_cell_angle_alpha   81.00826942
_cell_angle_beta   73.96000110
_cell_angle_gamma   83.54756082
_symmetry_Int_Tables_number   1
_chemical_formula_structural   K2ZnP4(HO2)8
_chemical_formula_sum   'K2 Zn1 P4 H8 O16'
_cell_volume   370.48569305
_cell_formula_units_Z   1
loop_
 _symmetry_equiv_pos_site_id
 _symmetry_equiv_pos_as_xyz
  1  'x, y, z'
loop_
 _atom_site_type_symbol
 _atom_site_label
 _atom_site_symmetry_multiplicity
 _atom_site_fract_x
 _atom_site_fract_y
 _atom_site_fract_z
 _atom_site_occupancy
  K  K0  1  0.107787  0.735157  0.297416  1
  K  K1  1  0.892213  0.264843  0.702584  1
  Zn  Zn2  1  0.500000  0.500000  0.500000  1
  P  P3  1  0.320248  0.273477  0.244469  1
  P  P4  1  0.252456  0.812611  0.756746  1
  P  P5  1  0.747544  0.187389  0.243254  1
  P  P6  1  0.679752  0.726523  0.755531  1
  H  H7  1  0.048050  0.274521  0.075013  1
  H  H8  1  0.248784  0.045514  0.465450  1
  H  H9  1  0.391324  0.189179  0.715514  1
  H  H10  1  0.376832  0.331760  0.855262  1
  H  H11  1  0.623168  0.668240  0.144738  1
  H  H12  1  0.608676  0.810821  0.284486  1
  H  H13  1  0.751216  0.954486  0.534550  1
  H  H14  1  0.951950  0.725479  0.924987  1
  O  O15  1  0.233962  0.351708  0.083455  1
  O  O16  1  0.233146  0.081849  0.332432  1
  O  O17  1  0.290529  0.393340  0.395079  1
  O  O18  1  0.258479  0.011491  0.667372  1
  O  O19  1  0.074346  0.788117  0.937125  1
  O  O20  1  0.257152  0.674376  0.629245  1
  O  O21  1  0.558348  0.231173  0.150828  1
  O  O22  1  0.544595  0.704608  0.266084  1
  O  O23  1  0.455405  0.295392  0.733916  1
  O  O24  1  0.441652  0.768827  0.849172  1
  O  O25  1  0.742848  0.325624  0.370755  1
  O  O26  1  0.925654  0.211883  0.062875  1
  O  O27  1  0.741521  0.988509  0.332628  1
  O  O28  1  0.709471  0.606660  0.604921  1
  O  O29  1  0.766854  0.918151  0.667568  1
  O  O30  1  0.766038  0.648292  0.916545  1
