# generated using pymatgen
data_Li3VF6
_symmetry_space_group_name_H-M   'P 1'
_cell_length_a   5.12429225
_cell_length_b   8.56740193
_cell_length_c   9.78971106
_cell_angle_alpha   90.00000000
_cell_angle_beta   90.00000000
_cell_angle_gamma   90.00000000
_symmetry_Int_Tables_number   1
_chemical_formula_structural   Li3VF6
_chemical_formula_sum   'Li12 V4 F24'
_cell_volume   429.78663514
_cell_formula_units_Z   4
loop_
 _symmetry_equiv_pos_site_id
 _symmetry_equiv_pos_as_xyz
  1  'x, y, z'
loop_
 _atom_site_type_symbol
 _atom_site_label
 _atom_site_symmetry_multiplicity
 _atom_site_fract_x
 _atom_site_fract_y
 _atom_site_fract_z
 _atom_site_occupancy
  Li  Li0  1  0.504170  0.548681  0.104383  1
  Li  Li1  1  0.992440  0.146586  0.125703  1
  Li  Li2  1  0.497503  0.951550  0.146467  1
  Li  Li3  1  0.997503  0.451550  0.353533  1
  Li  Li4  1  0.492440  0.646586  0.374297  1
  Li  Li5  1  0.004170  0.048681  0.395617  1
  Li  Li6  1  0.504170  0.951319  0.604383  1
  Li  Li7  1  0.992440  0.353414  0.625703  1
  Li  Li8  1  0.497503  0.548450  0.646467  1
  Li  Li9  1  0.997503  0.048450  0.853533  1
  Li  Li10  1  0.492440  0.853414  0.874297  1
  Li  Li11  1  0.004170  0.451319  0.895617  1
  V  V12  1  0.000647  0.759816  0.128142  1
  V  V13  1  0.500647  0.259816  0.371858  1
  V  V14  1  0.000647  0.740184  0.628142  1
  V  V15  1  0.500647  0.240184  0.871858  1
  F  F16  1  0.180354  0.915485  0.008812  1
  F  F17  1  0.670159  0.753302  0.020752  1
  F  F18  1  0.157348  0.591389  0.023914  1
  F  F19  1  0.852712  0.940990  0.227456  1
  F  F20  1  0.322266  0.769669  0.240290  1
  F  F21  1  0.815190  0.611520  0.249159  1
  F  F22  1  0.315190  0.111520  0.250841  1
  F  F23  1  0.822266  0.269669  0.259710  1
  F  F24  1  0.352712  0.440990  0.272544  1
  F  F25  1  0.657348  0.091389  0.476086  1
  F  F26  1  0.170159  0.253302  0.479248  1
  F  F27  1  0.680354  0.415485  0.491188  1
  F  F28  1  0.180354  0.584515  0.508812  1
  F  F29  1  0.670159  0.746698  0.520752  1
  F  F30  1  0.157348  0.908611  0.523914  1
  F  F31  1  0.852712  0.559010  0.727456  1
  F  F32  1  0.322266  0.730331  0.740290  1
  F  F33  1  0.815190  0.888480  0.749159  1
  F  F34  1  0.315190  0.388480  0.750841  1
  F  F35  1  0.822266  0.230331  0.759710  1
  F  F36  1  0.352712  0.059010  0.772544  1
  F  F37  1  0.657348  0.408611  0.976086  1
  F  F38  1  0.170159  0.246698  0.979248  1
  F  F39  1  0.680354  0.084515  0.991188  1
