# generated using pymatgen
data_Na3SiH3O5
_symmetry_space_group_name_H-M   'P 1'
_cell_length_a   7.97929634
_cell_length_b   6.01068751
_cell_length_c   11.27796167
_cell_angle_alpha   90.00000000
_cell_angle_beta   105.22813077
_cell_angle_gamma   90.00000000
_symmetry_Int_Tables_number   1
_chemical_formula_structural   Na3SiH3O5
_chemical_formula_sum   'Na12 Si4 H12 O20'
_cell_volume   521.91058681
_cell_formula_units_Z   4
loop_
 _symmetry_equiv_pos_site_id
 _symmetry_equiv_pos_as_xyz
  1  'x, y, z'
loop_
 _atom_site_type_symbol
 _atom_site_label
 _atom_site_symmetry_multiplicity
 _atom_site_fract_x
 _atom_site_fract_y
 _atom_site_fract_z
 _atom_site_occupancy
  Na  Na0  1  0.250124  0.511038  0.334661  1
  Na  Na1  1  0.749876  0.011038  0.165339  1
  Na  Na2  1  0.749876  0.488962  0.665339  1
  Na  Na3  1  0.250124  0.988962  0.834661  1
  Na  Na4  1  0.398944  0.807326  0.568270  1
  Na  Na5  1  0.601056  0.307326  0.931730  1
  Na  Na6  1  0.601056  0.192674  0.431730  1
  Na  Na7  1  0.398944  0.692674  0.068270  1
  Na  Na8  1  0.978539  0.256080  0.440105  1
  Na  Na9  1  0.021461  0.756080  0.059895  1
  Na  Na10  1  0.021461  0.743920  0.559895  1
  Na  Na11  1  0.978539  0.243920  0.940105  1
  Si  Si12  1  0.692063  0.706120  0.364130  1
  Si  Si13  1  0.307937  0.206120  0.135870  1
  Si  Si14  1  0.307937  0.293880  0.635870  1
  Si  Si15  1  0.692063  0.793880  0.864130  1
  H  H16  1  0.570292  0.402329  0.167086  1
  H  H17  1  0.429708  0.902329  0.332914  1
  H  H18  1  0.429708  0.597671  0.832914  1
  H  H19  1  0.570292  0.097671  0.667086  1
  H  H20  1  0.987321  0.884818  0.324958  1
  H  H21  1  0.012679  0.384818  0.175042  1
  H  H22  1  0.012679  0.115182  0.675042  1
  H  H23  1  0.987321  0.615182  0.824958  1
  H  H24  1  0.160843  0.972697  0.284055  1
  H  H25  1  0.839157  0.472697  0.215945  1
  H  H26  1  0.839157  0.027303  0.715945  1
  H  H27  1  0.160843  0.527303  0.784055  1
  O  O28  1  0.491981  0.770947  0.384614  1
  O  O29  1  0.508019  0.270947  0.115386  1
  O  O30  1  0.508019  0.229053  0.615386  1
  O  O31  1  0.491981  0.729053  0.884614  1
  O  O32  1  0.770800  0.512165  0.463956  1
  O  O33  1  0.229200  0.012165  0.036044  1
  O  O34  1  0.229200  0.487835  0.536044  1
  O  O35  1  0.770800  0.987835  0.963956  1
  O  O36  1  0.811525  0.933961  0.388176  1
  O  O37  1  0.188475  0.433961  0.111824  1
  O  O38  1  0.188475  0.066039  0.611824  1
  O  O39  1  0.811525  0.566039  0.888176  1
  O  O40  1  0.662377  0.630277  0.219308  1
  O  O41  1  0.337623  0.130277  0.280692  1
  O  O42  1  0.337623  0.369723  0.780692  1
  O  O43  1  0.662377  0.869723  0.719308  1
  O  O44  1  0.073004  0.848223  0.276618  1
  O  O45  1  0.926996  0.348223  0.223382  1
  O  O46  1  0.926996  0.151777  0.723382  1
  O  O47  1  0.073004  0.651777  0.776618  1
