# generated using pymatgen
data_Li6Cr5CuO12
_symmetry_space_group_name_H-M   'P 1'
_cell_length_a   5.09468792
_cell_length_b   5.09468792
_cell_length_c   9.99949180
_cell_angle_alpha   85.71589576
_cell_angle_beta   94.28410424
_cell_angle_gamma   59.93795144
_symmetry_Int_Tables_number   1
_chemical_formula_structural   Li6Cr5CuO12
_chemical_formula_sum   'Li6 Cr5 Cu1 O12'
_cell_volume   222.10613281
_cell_formula_units_Z   1
loop_
 _symmetry_equiv_pos_site_id
 _symmetry_equiv_pos_as_xyz
  1  'x, y, z'
loop_
 _atom_site_type_symbol
 _atom_site_label
 _atom_site_symmetry_multiplicity
 _atom_site_fract_x
 _atom_site_fract_y
 _atom_site_fract_z
 _atom_site_occupancy
  Li  Li0  1  0.885648  0.114352  0.248698  1
  Li  Li1  1  0.779296  0.551758  0.757798  1
  Li  Li2  1  0.448242  0.220704  0.757798  1
  Li  Li3  1  0.551758  0.779296  0.242202  1
  Li  Li4  1  0.220704  0.448242  0.242202  1
  Li  Li5  1  0.114352  0.885648  0.751302  1
  Cr  Cr6  1  0.166576  0.166576  0.000000  1
  Cr  Cr7  1  0.500000  0.500000  0.000000  1
  Cr  Cr8  1  0.833424  0.833424  0.000000  1
  Cr  Cr9  1  0.333286  0.333286  0.500000  1
  Cr  Cr10  1  0.666714  0.666714  0.500000  1
  Cu  Cu11  1  0.000000  0.000000  0.500000  1
  O  O12  1  0.801470  0.198530  0.889512  1
  O  O13  1  0.301577  0.035533  0.388142  1
  O  O14  1  0.964467  0.698423  0.388142  1
  O  O15  1  0.865005  0.468516  0.110667  1
  O  O16  1  0.531484  0.134995  0.110667  1
  O  O17  1  0.622540  0.377460  0.386147  1
  O  O18  1  0.377460  0.622540  0.613853  1
  O  O19  1  0.468516  0.865005  0.889333  1
  O  O20  1  0.134995  0.531484  0.889333  1
  O  O21  1  0.035533  0.301577  0.611858  1
  O  O22  1  0.698423  0.964467  0.611858  1
  O  O23  1  0.198530  0.801470  0.110488  1
