# generated using pymatgen
data_MgMnO3
_symmetry_space_group_name_H-M   'P 1'
_cell_length_a   5.00810116
_cell_length_b   5.22758938
_cell_length_c   7.30440528
_cell_angle_alpha   90.00000000
_cell_angle_beta   90.00000000
_cell_angle_gamma   90.00000000
_symmetry_Int_Tables_number   1
_chemical_formula_structural   MgMnO3
_chemical_formula_sum   'Mg4 Mn4 O12'
_cell_volume   191.23149553
_cell_formula_units_Z   4
loop_
 _symmetry_equiv_pos_site_id
 _symmetry_equiv_pos_as_xyz
  1  'x, y, z'
loop_
 _atom_site_type_symbol
 _atom_site_label
 _atom_site_symmetry_multiplicity
 _atom_site_fract_x
 _atom_site_fract_y
 _atom_site_fract_z
 _atom_site_occupancy
  Mg  Mg0  1  0.017511  0.935144  0.750000  1
  Mg  Mg1  1  0.482489  0.435144  0.750000  1
  Mg  Mg2  1  0.517511  0.564856  0.250000  1
  Mg  Mg3  1  0.982489  0.064856  0.250000  1
  Mn  Mn4  1  0.000000  0.500000  0.000000  1
  Mn  Mn5  1  0.000000  0.500000  0.500000  1
  Mn  Mn6  1  0.500000  0.000000  0.500000  1
  Mn  Mn7  1  0.500000  0.000000  0.000000  1
  O  O8  1  0.126822  0.443215  0.250000  1
  O  O9  1  0.187066  0.192993  0.566404  1
  O  O10  1  0.187066  0.192993  0.933596  1
  O  O11  1  0.312934  0.692993  0.566404  1
  O  O12  1  0.312934  0.692993  0.933596  1
  O  O13  1  0.373178  0.943215  0.250000  1
  O  O14  1  0.626822  0.056785  0.750000  1
  O  O15  1  0.687066  0.307007  0.066404  1
  O  O16  1  0.687066  0.307007  0.433596  1
  O  O17  1  0.812934  0.807007  0.066404  1
  O  O18  1  0.812934  0.807007  0.433596  1
  O  O19  1  0.873178  0.556785  0.750000  1
