# generated using pymatgen
data_Ba4LiNb3O12
_symmetry_space_group_name_H-M   'P 1'
_cell_length_a   5.88214627
_cell_length_b   10.21268493
_cell_length_c   19.35707882
_cell_angle_alpha   90.00000000
_cell_angle_beta   90.00000000
_cell_angle_gamma   90.00000000
_symmetry_Int_Tables_number   1
_chemical_formula_structural   Ba4LiNb3O12
_chemical_formula_sum   'Ba16 Li4 Nb12 O48'
_cell_volume   1162.82824455
_cell_formula_units_Z   4
loop_
 _symmetry_equiv_pos_site_id
 _symmetry_equiv_pos_as_xyz
  1  'x, y, z'
loop_
 _atom_site_type_symbol
 _atom_site_label
 _atom_site_symmetry_multiplicity
 _atom_site_fract_x
 _atom_site_fract_y
 _atom_site_fract_z
 _atom_site_occupancy
  Ba  Ba0  1  0.750000  0.072033  0.633184  1
  Ba  Ba1  1  0.750000  0.084420  0.251443  1
  Ba  Ba2  1  0.750000  0.752312  0.501659  1
  Ba  Ba3  1  0.750000  0.093471  0.861070  1
  Ba  Ba4  1  0.750000  0.747688  0.001659  1
  Ba  Ba5  1  0.750000  0.415580  0.751443  1
  Ba  Ba6  1  0.750000  0.406529  0.361070  1
  Ba  Ba7  1  0.750000  0.427967  0.133184  1
  Ba  Ba8  1  0.250000  0.593471  0.638930  1
  Ba  Ba9  1  0.250000  0.584420  0.248557  1
  Ba  Ba10  1  0.250000  0.915580  0.748557  1
  Ba  Ba11  1  0.250000  0.927967  0.366816  1
  Ba  Ba12  1  0.250000  0.906529  0.138930  1
  Ba  Ba13  1  0.250000  0.252312  0.998341  1
  Ba  Ba14  1  0.250000  0.247688  0.498341  1
  Ba  Ba15  1  0.250000  0.572033  0.866816  1
  Li  Li16  1  0.750000  0.750721  0.666762  1
  Li  Li17  1  0.750000  0.749279  0.166762  1
  Li  Li18  1  0.250000  0.249279  0.333238  1
  Li  Li19  1  0.250000  0.250721  0.833238  1
  Nb  Nb20  1  0.750000  0.080658  0.064216  1
  Nb  Nb21  1  0.750000  0.748537  0.809778  1
  Nb  Nb22  1  0.750000  0.751463  0.309778  1
  Nb  Nb23  1  0.750000  0.086638  0.436995  1
  Nb  Nb24  1  0.750000  0.413362  0.936995  1
  Nb  Nb25  1  0.750000  0.419342  0.564216  1
  Nb  Nb26  1  0.250000  0.586638  0.063005  1
  Nb  Nb27  1  0.250000  0.248537  0.690222  1
  Nb  Nb28  1  0.250000  0.913362  0.563005  1
  Nb  Nb29  1  0.250000  0.919342  0.935784  1
  Nb  Nb30  1  0.250000  0.251463  0.190222  1
  Nb  Nb31  1  0.250000  0.580658  0.435784  1
  O  O32  1  0.750000  0.584529  0.880492  1
  O  O33  1  0.750000  0.247461  0.499504  1
  O  O34  1  0.750000  0.252539  0.999504  1
  O  O35  1  0.750000  0.926930  0.120744  1
  O  O36  1  0.750000  0.915471  0.380492  1
  O  O37  1  0.750000  0.573070  0.620744  1
  O  O38  1  0.750000  0.909455  0.759103  1
  O  O39  1  0.750000  0.590545  0.259103  1
  O  O40  1  0.989667  0.829236  0.258028  1
  O  O41  1  0.989667  0.670764  0.758028  1
  O  O42  1  0.995858  0.166145  0.119091  1
  O  O43  1  0.988275  0.160642  0.379291  1
  O  O44  1  0.995858  0.333855  0.619091  1
  O  O45  1  0.988275  0.339358  0.879291  1
  O  O46  1  0.000000  0.000000  0.500000  1
  O  O47  1  0.000000  0.000000  0.000000  1
  O  O48  1  0.000000  0.500000  0.500000  1
  O  O49  1  0.000000  0.500000  0.000000  1
  O  O50  1  0.004142  0.666145  0.380909  1
  O  O51  1  0.011725  0.660642  0.120709  1
  O  O52  1  0.011725  0.839358  0.620709  1
  O  O53  1  0.004142  0.833855  0.880909  1
  O  O54  1  0.010333  0.329236  0.241972  1
  O  O55  1  0.010333  0.170764  0.741972  1
  O  O56  1  0.250000  0.073070  0.879256  1
  O  O57  1  0.250000  0.752539  0.500496  1
  O  O58  1  0.250000  0.747461  0.000496  1
  O  O59  1  0.250000  0.084529  0.619508  1
  O  O60  1  0.250000  0.426930  0.379256  1
  O  O61  1  0.250000  0.415471  0.119508  1
  O  O62  1  0.250000  0.090545  0.240897  1
  O  O63  1  0.250000  0.409455  0.740897  1
  O  O64  1  0.489667  0.329236  0.241972  1
  O  O65  1  0.489667  0.170764  0.741972  1
  O  O66  1  0.495858  0.666145  0.380909  1
  O  O67  1  0.488275  0.660642  0.120709  1
  O  O68  1  0.495858  0.833855  0.880909  1
  O  O69  1  0.488275  0.839358  0.620709  1
  O  O70  1  0.500000  0.500000  0.500000  1
  O  O71  1  0.500000  0.500000  0.000000  1
  O  O72  1  0.500000  0.000000  0.500000  1
  O  O73  1  0.500000  0.000000  0.000000  1
  O  O74  1  0.504142  0.166145  0.119091  1
  O  O75  1  0.511725  0.160642  0.379291  1
  O  O76  1  0.504142  0.333855  0.619091  1
  O  O77  1  0.511725  0.339358  0.879291  1
  O  O78  1  0.510333  0.829236  0.258028  1
  O  O79  1  0.510333  0.670764  0.758028  1
