# generated using pymatgen
data_Na5Mn7O16
_symmetry_space_group_name_H-M   'P 1'
_cell_length_a   6.21015668
_cell_length_b   5.97796055
_cell_length_c   8.81149478
_cell_angle_alpha   90.00000000
_cell_angle_beta   91.96886715
_cell_angle_gamma   90.00000000
_symmetry_Int_Tables_number   1
_chemical_formula_structural   Na5Mn7O16
_chemical_formula_sum   'Na5 Mn7 O16'
_cell_volume   326.92544646
_cell_formula_units_Z   1
loop_
 _symmetry_equiv_pos_site_id
 _symmetry_equiv_pos_as_xyz
  1  'x, y, z'
loop_
 _atom_site_type_symbol
 _atom_site_label
 _atom_site_symmetry_multiplicity
 _atom_site_fract_x
 _atom_site_fract_y
 _atom_site_fract_z
 _atom_site_occupancy
  Na  Na0  1  0.237005  0.000000  0.373589  1
  Na  Na1  1  0.235131  0.500000  0.119051  1
  Na  Na2  1  0.000000  0.000000  0.000000  1
  Na  Na3  1  0.764869  0.500000  0.880949  1
  Na  Na4  1  0.762995  0.000000  0.626411  1
  Mn  Mn5  1  0.729856  0.249110  0.249622  1
  Mn  Mn6  1  0.729856  0.750890  0.249622  1
  Mn  Mn7  1  0.500000  0.000000  0.000000  1
  Mn  Mn8  1  0.270144  0.750890  0.750378  1
  Mn  Mn9  1  0.270144  0.249110  0.750378  1
  Mn  Mn10  1  0.500000  0.500000  0.500000  1
  Mn  Mn11  1  0.000000  0.500000  0.500000  1
  O  O12  1  0.517425  0.500000  0.277880  1
  O  O13  1  0.931389  0.500000  0.251204  1
  O  O14  1  0.515883  0.000000  0.228657  1
  O  O15  1  0.920421  0.000000  0.262604  1
  O  O16  1  0.711435  0.771591  0.038400  1
  O  O17  1  0.711435  0.228409  0.038400  1
  O  O18  1  0.288565  0.228409  0.961600  1
  O  O19  1  0.288565  0.771591  0.961600  1
  O  O20  1  0.079579  0.000000  0.737396  1
  O  O21  1  0.484117  0.000000  0.771343  1
  O  O22  1  0.068611  0.500000  0.748796  1
  O  O23  1  0.482575  0.500000  0.722120  1
  O  O24  1  0.256264  0.709096  0.520891  1
  O  O25  1  0.256264  0.290904  0.520891  1
  O  O26  1  0.743736  0.290904  0.479109  1
  O  O27  1  0.743736  0.709096  0.479109  1
