# generated using pymatgen
data_V2OF5
_symmetry_space_group_name_H-M   'P 1'
_cell_length_a   5.28089559
_cell_length_b   5.28089559
_cell_length_c   9.54943240
_cell_angle_alpha   73.39925950
_cell_angle_beta   106.60074050
_cell_angle_gamma   120.16357218
_symmetry_Int_Tables_number   1
_chemical_formula_structural   V2OF5
_chemical_formula_sum   'V4 O2 F10'
_cell_volume   217.38433759
_cell_formula_units_Z   2
loop_
 _symmetry_equiv_pos_site_id
 _symmetry_equiv_pos_as_xyz
  1  'x, y, z'
loop_
 _atom_site_type_symbol
 _atom_site_label
 _atom_site_symmetry_multiplicity
 _atom_site_fract_x
 _atom_site_fract_y
 _atom_site_fract_z
 _atom_site_occupancy
  V  V0  1  0.033169  0.260523  0.132334  1
  V  V1  1  0.741075  0.496740  0.371592  1
  V  V2  1  0.496740  0.741075  0.628408  1
  V  V3  1  0.260523  0.033169  0.867666  1
  O  O4  1  0.358837  0.298667  0.242424  1
  O  O5  1  0.298667  0.358837  0.757576  1
  F  F6  1  0.123403  0.718375  0.500941  1
  F  F7  1  0.031777  0.031777  0.000000  1
  F  F8  1  0.470247  0.960751  0.755863  1
  F  F9  1  0.781450  0.881141  0.248121  1
  F  F10  1  0.718375  0.123403  0.499059  1
  F  F11  1  0.206392  0.634451  0.994340  1
  F  F12  1  0.527850  0.527850  0.500000  1
  F  F13  1  0.634451  0.206392  0.005660  1
  F  F14  1  0.960751  0.470247  0.244137  1
  F  F15  1  0.881141  0.781450  0.751879  1
