# generated using pymatgen
data_B5H7
_symmetry_space_group_name_H-M   'P 1'
_cell_length_a   12.46380596
_cell_length_b   5.63607924
_cell_length_c   14.31442485
_cell_angle_alpha   90.00000000
_cell_angle_beta   124.99695230
_cell_angle_gamma   90.00000000
_symmetry_Int_Tables_number   1
_chemical_formula_structural   B5H7
_chemical_formula_sum   'B40 H56'
_cell_volume   823.72522694
_cell_formula_units_Z   8
loop_
 _symmetry_equiv_pos_site_id
 _symmetry_equiv_pos_as_xyz
  1  'x, y, z'
loop_
 _atom_site_type_symbol
 _atom_site_label
 _atom_site_symmetry_multiplicity
 _atom_site_fract_x
 _atom_site_fract_y
 _atom_site_fract_z
 _atom_site_occupancy
  B  B0  1  0.162683  0.999696  0.298139  1
  B  B1  1  0.837317  0.000304  0.701861  1
  B  B2  1  0.162683  0.000304  0.798139  1
  B  B3  1  0.837317  0.999696  0.201861  1
  B  B4  1  0.337505  0.495163  0.134474  1
  B  B5  1  0.662495  0.504837  0.865526  1
  B  B6  1  0.337505  0.504837  0.634474  1
  B  B7  1  0.662495  0.495163  0.365526  1
  B  B8  1  0.900189  0.000768  0.102514  1
  B  B9  1  0.099811  0.999232  0.897486  1
  B  B10  1  0.900189  0.999232  0.602514  1
  B  B11  1  0.099811  0.000768  0.397486  1
  B  B12  1  0.600986  0.496071  0.203752  1
  B  B13  1  0.399014  0.503929  0.796248  1
  B  B14  1  0.600986  0.503929  0.703752  1
  B  B15  1  0.399014  0.496071  0.296248  1
  B  B16  1  0.047622  0.172805  0.175007  1
  B  B17  1  0.952378  0.827195  0.824993  1
  B  B18  1  0.047622  0.827195  0.675007  1
  B  B19  1  0.952378  0.172805  0.324993  1
  B  B20  1  0.453886  0.323294  0.127798  1
  B  B21  1  0.546114  0.676706  0.872202  1
  B  B22  1  0.453886  0.676706  0.627798  1
  B  B23  1  0.546114  0.323294  0.372202  1
  B  B24  1  0.917729  0.239018  0.188836  1
  B  B25  1  0.082271  0.760982  0.811164  1
  B  B26  1  0.917729  0.760982  0.688836  1
  B  B27  1  0.082271  0.239018  0.311164  1
  B  B28  1  0.582518  0.257001  0.271586  1
  B  B29  1  0.417482  0.742999  0.728414  1
  B  B30  1  0.582518  0.742999  0.771586  1
  B  B31  1  0.417482  0.257001  0.228414  1
  B  B32  1  0.056878  0.870355  0.160122  1
  B  B33  1  0.943122  0.129645  0.839878  1
  B  B34  1  0.056878  0.129645  0.660122  1
  B  B35  1  0.943122  0.870355  0.339878  1
  B  B36  1  0.444486  0.625667  0.103623  1
  B  B37  1  0.555514  0.374333  0.896377  1
  B  B38  1  0.444486  0.374333  0.603623  1
  B  B39  1  0.555514  0.625667  0.396377  1
  H  H40  1  0.278096  0.992881  0.344813  1
  H  H41  1  0.721904  0.007119  0.655187  1
  H  H42  1  0.278096  0.007119  0.844813  1
  H  H43  1  0.721904  0.992881  0.155187  1
  H  H44  1  0.222295  0.500039  0.065309  1
  H  H45  1  0.777705  0.499961  0.934691  1
  H  H46  1  0.222295  0.499961  0.565309  1
  H  H47  1  0.777705  0.500039  0.434691  1
  H  H48  1  0.076564  0.307992  0.129236  1
  H  H49  1  0.923436  0.692008  0.870764  1
  H  H50  1  0.076564  0.692008  0.629236  1
  H  H51  1  0.923436  0.307992  0.370764  1
  H  H52  1  0.426166  0.187297  0.053751  1
  H  H53  1  0.573834  0.812703  0.946249  1
  H  H54  1  0.426166  0.812703  0.553751  1
  H  H55  1  0.573834  0.187297  0.446249  1
  H  H56  1  0.088998  0.762716  0.109008  1
  H  H57  1  0.911002  0.237284  0.890992  1
  H  H58  1  0.088998  0.237284  0.609008  1
  H  H59  1  0.911002  0.762716  0.390992  1
  H  H60  1  0.413285  0.735107  0.020882  1
  H  H61  1  0.586715  0.264893  0.979118  1
  H  H62  1  0.413285  0.264893  0.520882  1
  H  H63  1  0.586715  0.735107  0.479118  1
  H  H64  1  0.819065  0.994364  0.002314  1
  H  H65  1  0.180935  0.005636  0.997686  1
  H  H66  1  0.819065  0.005636  0.502314  1
  H  H67  1  0.180935  0.994364  0.497686  1
  H  H68  1  0.683071  0.502072  0.185720  1
  H  H69  1  0.316929  0.497928  0.814280  1
  H  H70  1  0.683071  0.497928  0.685720  1
  H  H71  1  0.316929  0.502072  0.314280  1
  H  H72  1  0.849556  0.405990  0.138282  1
  H  H73  1  0.150444  0.594010  0.861718  1
  H  H74  1  0.849556  0.594010  0.638282  1
  H  H75  1  0.150444  0.405990  0.361718  1
  H  H76  1  0.651039  0.090023  0.289756  1
  H  H77  1  0.348961  0.909977  0.710244  1
  H  H78  1  0.651039  0.909977  0.789756  1
  H  H79  1  0.348961  0.090023  0.210244  1
  H  H80  1  0.121770  0.778101  0.266128  1
  H  H81  1  0.878230  0.221899  0.733872  1
  H  H82  1  0.121770  0.221899  0.766128  1
  H  H83  1  0.878230  0.778101  0.233872  1
  H  H84  1  0.376946  0.717540  0.142318  1
  H  H85  1  0.623054  0.282460  0.857682  1
  H  H86  1  0.376946  0.282460  0.642318  1
  H  H87  1  0.623054  0.717540  0.357682  1
  H  H88  1  0.941511  0.778256  0.130903  1
  H  H89  1  0.058489  0.221744  0.869097  1
  H  H90  1  0.941511  0.221744  0.630903  1
  H  H91  1  0.058489  0.778256  0.369097  1
  H  H92  1  0.558930  0.717885  0.191131  1
  H  H93  1  0.441070  0.282115  0.808869  1
  H  H94  1  0.558930  0.282115  0.691131  1
  H  H95  1  0.441070  0.717885  0.308869  1
