# generated using pymatgen
data_Zr2N2O
_symmetry_space_group_name_H-M   'P 1'
_cell_length_a   3.12381843
_cell_length_b   5.57555659
_cell_length_c   13.84090738
_cell_angle_alpha   90.00000000
_cell_angle_beta   90.00000000
_cell_angle_gamma   90.00000000
_symmetry_Int_Tables_number   1
_chemical_formula_structural   Zr2N2O
_chemical_formula_sum   'Zr8 N8 O4'
_cell_volume   241.06744970
_cell_formula_units_Z   4
loop_
 _symmetry_equiv_pos_site_id
 _symmetry_equiv_pos_as_xyz
  1  'x, y, z'
loop_
 _atom_site_type_symbol
 _atom_site_label
 _atom_site_symmetry_multiplicity
 _atom_site_fract_x
 _atom_site_fract_y
 _atom_site_fract_z
 _atom_site_occupancy
  Zr  Zr0  1  0.750000  0.697044  0.080479  1
  Zr  Zr1  1  0.750000  0.211948  0.196411  1
  Zr  Zr2  1  0.250000  0.711948  0.303589  1
  Zr  Zr3  1  0.250000  0.197044  0.419521  1
  Zr  Zr4  1  0.750000  0.802956  0.580479  1
  Zr  Zr5  1  0.750000  0.288052  0.696411  1
  Zr  Zr6  1  0.250000  0.788052  0.803589  1
  Zr  Zr7  1  0.250000  0.302956  0.919521  1
  N  N8  1  0.250000  0.942228  0.152652  1
  N  N9  1  0.250000  0.487970  0.170989  1
  N  N10  1  0.750000  0.987970  0.329011  1
  N  N11  1  0.750000  0.442228  0.347348  1
  N  N12  1  0.250000  0.557772  0.652652  1
  N  N13  1  0.250000  0.012030  0.670989  1
  N  N14  1  0.750000  0.512030  0.829011  1
  N  N15  1  0.750000  0.057772  0.847348  1
  O  O16  1  0.750000  0.305085  0.026925  1
  O  O17  1  0.250000  0.805085  0.473075  1
  O  O18  1  0.750000  0.194915  0.526925  1
  O  O19  1  0.250000  0.694915  0.973075  1
