# generated using pymatgen
data_CuAsO3
_symmetry_space_group_name_H-M   'P 1'
_cell_length_a   5.78812066
_cell_length_b   5.78812066
_cell_length_c   5.78812066
_cell_angle_alpha   51.33916995
_cell_angle_beta   51.33916995
_cell_angle_gamma   51.33916995
_symmetry_Int_Tables_number   1
_chemical_formula_structural   CuAsO3
_chemical_formula_sum   'Cu2 As2 O6'
_cell_volume   109.14805136
_cell_formula_units_Z   2
loop_
 _symmetry_equiv_pos_site_id
 _symmetry_equiv_pos_as_xyz
  1  'x, y, z'
loop_
 _atom_site_type_symbol
 _atom_site_label
 _atom_site_symmetry_multiplicity
 _atom_site_fract_x
 _atom_site_fract_y
 _atom_site_fract_z
 _atom_site_occupancy
  Cu  Cu0  1  0.130671  0.130671  0.130671  1
  Cu  Cu1  1  0.869329  0.869329  0.869329  1
  As  As2  1  0.337783  0.337783  0.337783  1
  As  As3  1  0.662217  0.662217  0.662217  1
  O  O4  1  0.065343  0.448874  0.700619  1
  O  O5  1  0.551126  0.299381  0.934657  1
  O  O6  1  0.299381  0.934657  0.551126  1
  O  O7  1  0.700619  0.065343  0.448874  1
  O  O8  1  0.448874  0.700619  0.065343  1
  O  O9  1  0.934657  0.551126  0.299381  1
