# generated using pymatgen
data_Li4Mn2(PO4)3
_symmetry_space_group_name_H-M   'P 1'
_cell_length_a   8.37664082
_cell_length_b   8.51945855
_cell_length_c   9.23860998
_cell_angle_alpha   92.29689579
_cell_angle_beta   115.48486925
_cell_angle_gamma   119.11043823
_symmetry_Int_Tables_number   1
_chemical_formula_structural   Li4Mn2(PO4)3
_chemical_formula_sum   'Li8 Mn4 P6 O24'
_cell_volume   493.29463498
_cell_formula_units_Z   2
loop_
 _symmetry_equiv_pos_site_id
 _symmetry_equiv_pos_as_xyz
  1  'x, y, z'
loop_
 _atom_site_type_symbol
 _atom_site_label
 _atom_site_symmetry_multiplicity
 _atom_site_fract_x
 _atom_site_fract_y
 _atom_site_fract_z
 _atom_site_occupancy
  Li  Li0  1  0.931432  0.662139  0.854370  1
  Li  Li1  1  0.194907  0.267610  0.864318  1
  Li  Li2  1  0.632491  0.941751  0.901860  1
  Li  Li3  1  0.668695  0.205320  0.408552  1
  Li  Li4  1  0.331305  0.794680  0.591448  1
  Li  Li5  1  0.367509  0.058249  0.098140  1
  Li  Li6  1  0.805093  0.732390  0.135682  1
  Li  Li7  1  0.068568  0.337861  0.145630  1
  Mn  Mn8  1  0.311313  0.650279  0.966007  1
  Mn  Mn9  1  0.283686  0.147011  0.437233  1
  Mn  Mn10  1  0.716314  0.852989  0.562767  1
  Mn  Mn11  1  0.688687  0.349721  0.033993  1
  P  P12  1  0.805513  0.253115  0.760650  1
  P  P13  1  0.214514  0.951898  0.751568  1
  P  P14  1  0.496658  0.550108  0.752553  1
  P  P15  1  0.503342  0.449892  0.247447  1
  P  P16  1  0.785486  0.048102  0.248432  1
  P  P17  1  0.194487  0.746885  0.239350  1
  O  O18  1  0.359296  0.150573  0.897718  1
  O  O19  1  0.696413  0.564186  0.897762  1
  O  O20  1  0.748678  0.211964  0.905416  1
  O  O21  1  0.983257  0.467536  0.819152  1
  O  O22  1  0.888407  0.129340  0.749422  1
  O  O23  1  0.612241  0.202441  0.592759  1
  O  O24  1  0.998995  0.852009  0.743732  1
  O  O25  1  0.320301  0.838894  0.807524  1
  O  O26  1  0.334696  0.504402  0.815072  1
  O  O27  1  0.616880  0.605659  0.407927  1
  O  O28  1  0.429307  0.252162  0.274031  1
  O  O29  1  0.799729  0.025739  0.414786  1
  O  O30  1  0.200271  0.974261  0.585214  1
  O  O31  1  0.570693  0.747838  0.725969  1
  O  O32  1  0.383120  0.394341  0.592073  1
  O  O33  1  0.665304  0.495598  0.184928  1
  O  O34  1  0.679699  0.161106  0.192476  1
  O  O35  1  0.001005  0.147991  0.256268  1
  O  O36  1  0.387759  0.797559  0.407241  1
  O  O37  1  0.111593  0.870660  0.250578  1
  O  O38  1  0.016743  0.532464  0.180848  1
  O  O39  1  0.251322  0.788036  0.094584  1
  O  O40  1  0.303587  0.435814  0.102238  1
  O  O41  1  0.640704  0.849427  0.102282  1
