# generated using pymatgen
data_Li5Mn2Fe3(PO4)6
_symmetry_space_group_name_H-M   'P 1'
_cell_length_a   8.54833819
_cell_length_b   8.62437991
_cell_length_c   8.63285351
_cell_angle_alpha   61.71923297
_cell_angle_beta   62.05098089
_cell_angle_gamma   61.97367196
_symmetry_Int_Tables_number   1
_chemical_formula_structural   Li5Mn2Fe3(PO4)6
_chemical_formula_sum   'Li5 Mn2 Fe3 P6 O24'
_cell_volume   469.31465559
_cell_formula_units_Z   1
loop_
 _symmetry_equiv_pos_site_id
 _symmetry_equiv_pos_as_xyz
  1  'x, y, z'
loop_
 _atom_site_type_symbol
 _atom_site_label
 _atom_site_symmetry_multiplicity
 _atom_site_fract_x
 _atom_site_fract_y
 _atom_site_fract_z
 _atom_site_occupancy
  Li  Li0  1  0.753877  0.142710  0.355657  1
  Li  Li1  1  0.197863  0.851244  0.662215  1
  Li  Li2  1  0.661993  0.195909  0.852194  1
  Li  Li3  1  0.851509  0.661358  0.196771  1
  Li  Li4  1  0.845158  0.839851  0.845011  1
  Mn  Mn5  1  0.007605  0.997039  0.991883  1
  Mn  Mn6  1  0.488424  0.506612  0.500423  1
  Fe  Fe7  1  0.148872  0.146742  0.141337  1
  Fe  Fe8  1  0.351821  0.356902  0.353281  1
  Fe  Fe9  1  0.650383  0.651302  0.656608  1
  P  P10  1  0.054107  0.751555  0.452678  1
  P  P11  1  0.451532  0.052899  0.755473  1
  P  P12  1  0.753237  0.452027  0.054471  1
  P  P13  1  0.255556  0.541530  0.956713  1
  P  P14  1  0.547916  0.959152  0.256974  1
  P  P15  1  0.949760  0.253732  0.539206  1
  O  O16  1  0.112372  0.321452  0.478186  1
  O  O17  1  0.333869  0.491171  0.106592  1
  O  O18  1  0.049849  0.916478  0.263776  1
  O  O19  1  0.521658  0.107215  0.325394  1
  O  O20  1  0.033709  0.809731  0.603047  1
  O  O21  1  0.245587  0.593769  0.421612  1
  O  O22  1  0.255020  0.069092  0.908812  1
  O  O23  1  0.439728  0.239131  0.586863  1
  O  O24  1  0.188672  0.386045  0.995517  1
  O  O25  1  0.597912  0.419788  0.250471  1
  O  O26  1  0.098898  0.733276  0.945902  1
  O  O27  1  0.380067  0.009158  0.199974  1
  O  O28  1  0.603589  0.026432  0.817774  1
  O  O29  1  0.903461  0.251709  0.074391  1
  O  O30  1  0.407289  0.566846  0.758215  1
  O  O31  1  0.814712  0.601742  0.030523  1
  O  O32  1  0.564721  0.761444  0.410460  1
  O  O33  1  0.737395  0.941588  0.097057  1
  O  O34  1  0.753854  0.409025  0.570383  1
  O  O35  1  0.967712  0.193314  0.387778  1
  O  O36  1  0.492193  0.889042  0.697067  1
  O  O37  1  0.946576  0.096896  0.730457  1
  O  O38  1  0.692384  0.492993  0.892644  1
  O  O39  1  0.889157  0.689102  0.499209  1
