# generated using pymatgen
data_H48PtW6C8(NO)24
_symmetry_space_group_name_H-M   'P 1'
_cell_length_a   10.61525215
_cell_length_b   10.61525215
_cell_length_c   10.61525215
_cell_angle_alpha   76.32278765
_cell_angle_beta   76.32278765
_cell_angle_gamma   76.32278765
_symmetry_Int_Tables_number   1
_chemical_formula_structural   H48PtW6C8(NO)24
_chemical_formula_sum   'H48 Pt1 W6 C8 N24 O24'
_cell_volume   1108.44611143
_cell_formula_units_Z   1
loop_
 _symmetry_equiv_pos_site_id
 _symmetry_equiv_pos_as_xyz
  1  'x, y, z'
loop_
 _atom_site_type_symbol
 _atom_site_label
 _atom_site_symmetry_multiplicity
 _atom_site_fract_x
 _atom_site_fract_y
 _atom_site_fract_z
 _atom_site_occupancy
  H  H0  1  0.278535  0.957723  0.137260  1
  H  H1  1  0.649573  0.828872  0.145212  1
  H  H2  1  0.506889  0.790313  0.114613  1
  H  H3  1  0.862740  0.721465  0.042277  1
  H  H4  1  0.171128  0.854788  0.350427  1
  H  H5  1  0.638039  0.993086  0.521548  1
  H  H6  1  0.209687  0.885387  0.493111  1
  H  H7  1  0.321245  0.447574  0.076830  1
  H  H8  1  0.478452  0.361961  0.006914  1
  H  H9  1  0.134968  0.401731  0.046263  1
  H  H10  1  0.618766  0.726928  0.419584  1
  H  H11  1  0.470673  0.533974  0.238497  1
  H  H12  1  0.885387  0.493111  0.209687  1
  H  H13  1  0.552426  0.923170  0.678755  1
  H  H14  1  0.953737  0.865032  0.598270  1
  H  H15  1  0.466026  0.761503  0.529327  1
  H  H16  1  0.273072  0.580416  0.381234  1
  H  H17  1  0.854788  0.350427  0.171128  1
  H  H18  1  0.042277  0.862740  0.721465  1
  H  H19  1  0.580416  0.381234  0.273072  1
  H  H20  1  0.923170  0.678755  0.552426  1
  H  H21  1  0.598270  0.953737  0.865032  1
  H  H22  1  0.006914  0.478452  0.361961  1
  H  H23  1  0.761503  0.529327  0.466026  1
  H  H24  1  0.238497  0.470673  0.533974  1
  H  H25  1  0.993086  0.521548  0.638039  1
  H  H26  1  0.401730  0.046263  0.134968  1
  H  H27  1  0.076830  0.321245  0.447574  1
  H  H28  1  0.419584  0.618766  0.726928  1
  H  H29  1  0.957723  0.137260  0.278535  1
  H  H30  1  0.145212  0.649573  0.828872  1
  H  H31  1  0.726928  0.419584  0.618766  1
  H  H32  1  0.533974  0.238497  0.470673  1
  H  H33  1  0.046263  0.134968  0.401730  1
  H  H34  1  0.447574  0.076830  0.321245  1
  H  H35  1  0.114613  0.506889  0.790313  1
  H  H36  1  0.529327  0.466026  0.761503  1
  H  H37  1  0.381234  0.273072  0.580416  1
  H  H38  1  0.865032  0.598270  0.953737  1
  H  H39  1  0.521548  0.638039  0.993086  1
  H  H40  1  0.678755  0.552426  0.923170  1
  H  H41  1  0.790313  0.114613  0.506889  1
  H  H42  1  0.361961  0.006914  0.478452  1
  H  H43  1  0.828872  0.145212  0.649573  1
  H  H44  1  0.137260  0.278535  0.957723  1
  H  H45  1  0.493111  0.209687  0.885387  1
  H  H46  1  0.350427  0.171128  0.854788  1
  H  H47  1  0.721465  0.042277  0.862740  1
  Pt  Pt48  1  0.000000  0.000000  0.000000  1
  W  W49  1  0.180044  0.712902  0.103433  1
  W  W50  1  0.896567  0.819956  0.287098  1
  W  W51  1  0.287098  0.896567  0.819956  1
  W  W52  1  0.712902  0.103433  0.180044  1
  W  W53  1  0.103433  0.180044  0.712902  1
  W  W54  1  0.819956  0.287098  0.896567  1
  C  C55  1  0.681236  0.687010  0.031362  1
  C  C56  1  0.312990  0.968638  0.318764  1
  C  C57  1  0.968638  0.318764  0.312990  1
  C  C58  1  0.414997  0.414997  0.414997  1
  C  C59  1  0.585003  0.585003  0.585003  1
  C  C60  1  0.031362  0.681236  0.687010  1
  C  C61  1  0.687010  0.031362  0.681236  1
  C  C62  1  0.318764  0.312990  0.968638  1
  N  N63  1  0.335188  0.988180  0.187006  1
  N  N64  1  0.606968  0.776533  0.101604  1
  N  N65  1  0.812994  0.664812  0.011820  1
  N  N66  1  0.223467  0.898396  0.393032  1
  N  N67  1  0.378406  0.383677  0.018454  1
  N  N68  1  0.616323  0.981546  0.621594  1
  N  N69  1  0.552625  0.698687  0.502092  1
  N  N70  1  0.898396  0.393032  0.223467  1
  N  N71  1  0.497908  0.447375  0.301313  1
  N  N72  1  0.011820  0.812994  0.664812  1
  N  N73  1  0.301313  0.497908  0.447375  1
  N  N74  1  0.981546  0.621594  0.616323  1
  N  N75  1  0.018454  0.378406  0.383677  1
  N  N76  1  0.698687  0.502092  0.552625  1
  N  N77  1  0.988180  0.187006  0.335188  1
  N  N78  1  0.502092  0.552625  0.698687  1
  N  N79  1  0.101604  0.606968  0.776533  1
  N  N80  1  0.447375  0.301313  0.497908  1
  N  N81  1  0.383677  0.018454  0.378406  1
  N  N82  1  0.621594  0.616323  0.981546  1
  N  N83  1  0.776533  0.101604  0.606968  1
  N  N84  1  0.187006  0.335188  0.988180  1
  N  N85  1  0.393032  0.223467  0.898396  1
  N  N86  1  0.664812  0.011820  0.812994  1
  O  O87  1  0.190276  0.919113  0.022084  1
  O  O88  1  0.977916  0.809724  0.080887  1
  O  O89  1  0.724919  0.908685  0.233073  1
  O  O90  1  0.342018  0.674604  0.145900  1
  O  O91  1  0.091315  0.766927  0.275081  1
  O  O92  1  0.137068  0.554298  0.129474  1
  O  O93  1  0.870526  0.862932  0.445702  1
  O  O94  1  0.854100  0.657982  0.325396  1
  O  O95  1  0.325396  0.854100  0.657982  1
  O  O96  1  0.766927  0.275081  0.091315  1
  O  O97  1  0.080887  0.977916  0.809724  1
  O  O98  1  0.445702  0.870526  0.862932  1
  O  O99  1  0.554298  0.129474  0.137068  1
  O  O100  1  0.919113  0.022084  0.190276  1
  O  O101  1  0.233073  0.724919  0.908685  1
  O  O102  1  0.674604  0.145900  0.342018  1
  O  O103  1  0.145900  0.342018  0.674604  1
  O  O104  1  0.129474  0.137068  0.554298  1
  O  O105  1  0.862932  0.445702  0.870526  1
  O  O106  1  0.908685  0.233073  0.724919  1
  O  O107  1  0.657982  0.325396  0.854100  1
  O  O108  1  0.275081  0.091315  0.766927  1
  O  O109  1  0.022084  0.190276  0.919113  1
  O  O110  1  0.809724  0.080887  0.977916  1
