# generated using pymatgen
data_Li3Fe2(BO4)2
_symmetry_space_group_name_H-M   'P 1'
_cell_length_a   6.63769232
_cell_length_b   5.19665122
_cell_length_c   10.94373008
_cell_angle_alpha   90.00000000
_cell_angle_beta   97.18109694
_cell_angle_gamma   90.00000000
_symmetry_Int_Tables_number   1
_chemical_formula_structural   Li3Fe2(BO4)2
_chemical_formula_sum   'Li6 Fe4 B4 O16'
_cell_volume   374.52949257
_cell_formula_units_Z   2
loop_
 _symmetry_equiv_pos_site_id
 _symmetry_equiv_pos_as_xyz
  1  'x, y, z'
loop_
 _atom_site_type_symbol
 _atom_site_label
 _atom_site_symmetry_multiplicity
 _atom_site_fract_x
 _atom_site_fract_y
 _atom_site_fract_z
 _atom_site_occupancy
  Li  Li0  1  0.108641  0.901967  0.786751  1
  Li  Li1  1  0.108641  0.098033  0.286751  1
  Li  Li2  1  0.791409  0.588545  0.931274  1
  Li  Li3  1  0.791409  0.411455  0.431274  1
  Li  Li4  1  0.903931  0.397259  0.709271  1
  Li  Li5  1  0.903931  0.602741  0.209271  1
  Fe  Fe6  1  0.512941  0.097134  0.844721  1
  Fe  Fe7  1  0.498108  0.585503  0.653095  1
  Fe  Fe8  1  0.512941  0.902866  0.344721  1
  Fe  Fe9  1  0.498108  0.414497  0.153095  1
  B  B10  1  0.195462  0.425481  0.928830  1
  B  B11  1  0.195462  0.574519  0.428830  1
  B  B12  1  0.794280  0.917906  0.568516  1
  B  B13  1  0.794280  0.082094  0.068516  1
  O  O14  1  0.049256  0.560051  0.859082  1
  O  O15  1  0.049256  0.439949  0.359082  1
  O  O16  1  0.257300  0.183340  0.894581  1
  O  O17  1  0.257300  0.816660  0.394581  1
  O  O18  1  0.287281  0.473542  0.539708  1
  O  O19  1  0.287281  0.526458  0.039708  1
  O  O20  1  0.396864  0.865791  0.726154  1
  O  O21  1  0.396864  0.134209  0.226154  1
  O  O22  1  0.622461  0.401314  0.788064  1
  O  O23  1  0.622461  0.598686  0.288064  1
  O  O24  1  0.714102  0.951136  0.961039  1
  O  O25  1  0.714102  0.048864  0.461039  1
  O  O26  1  0.742372  0.651579  0.576775  1
  O  O27  1  0.742372  0.348421  0.076775  1
  O  O28  1  0.908729  0.040496  0.659778  1
  O  O29  1  0.908729  0.959504  0.159778  1
