# generated using pymatgen
data_Li3CoPO5
_symmetry_space_group_name_H-M   'P 1'
_cell_length_a   4.96605257
_cell_length_b   5.43448021
_cell_length_c   15.78318495
_cell_angle_alpha   90.00000000
_cell_angle_beta   90.00000000
_cell_angle_gamma   90.00000000
_symmetry_Int_Tables_number   1
_chemical_formula_structural   Li3CoPO5
_chemical_formula_sum   'Li12 Co4 P4 O20'
_cell_volume   425.95524460
_cell_formula_units_Z   4
loop_
 _symmetry_equiv_pos_site_id
 _symmetry_equiv_pos_as_xyz
  1  'x, y, z'
loop_
 _atom_site_type_symbol
 _atom_site_label
 _atom_site_symmetry_multiplicity
 _atom_site_fract_x
 _atom_site_fract_y
 _atom_site_fract_z
 _atom_site_occupancy
  Li  Li0  1  0.006874  0.662205  0.595982  1
  Li  Li1  1  0.006874  0.162205  0.904018  1
  Li  Li2  1  0.006709  0.668842  0.002598  1
  Li  Li3  1  0.006709  0.168842  0.497402  1
  Li  Li4  1  0.491459  0.332265  0.802243  1
  Li  Li5  1  0.491459  0.832265  0.697757  1
  Li  Li6  1  0.506874  0.337795  0.404018  1
  Li  Li7  1  0.506874  0.837795  0.095982  1
  Li  Li8  1  0.506709  0.331158  0.997402  1
  Li  Li9  1  0.506709  0.831158  0.502598  1
  Li  Li10  1  0.991459  0.167735  0.302243  1
  Li  Li11  1  0.991459  0.667735  0.197757  1
  Co  Co12  1  0.005709  0.174180  0.703423  1
  Co  Co13  1  0.005709  0.674180  0.796577  1
  Co  Co14  1  0.505709  0.325820  0.203423  1
  Co  Co15  1  0.505709  0.825820  0.296577  1
  P  P16  1  0.000289  0.166436  0.098280  1
  P  P17  1  0.000289  0.666436  0.401720  1
  P  P18  1  0.500289  0.333564  0.598280  1
  P  P19  1  0.500289  0.833564  0.901720  1
  O  O20  1  0.103340  0.334918  0.805716  1
  O  O21  1  0.103340  0.834918  0.694284  1
  O  O22  1  0.107739  0.310182  0.019939  1
  O  O23  1  0.107739  0.810182  0.480061  1
  O  O24  1  0.101419  0.396249  0.401669  1
  O  O25  1  0.101419  0.896249  0.098331  1
  O  O26  1  0.095344  0.297929  0.181703  1
  O  O27  1  0.095344  0.797929  0.318297  1
  O  O28  1  0.184919  0.327942  0.596170  1
  O  O29  1  0.184919  0.827942  0.903830  1
  O  O30  1  0.603340  0.665082  0.194284  1
  O  O31  1  0.603340  0.165082  0.305716  1
  O  O32  1  0.607739  0.189818  0.519939  1
  O  O33  1  0.607739  0.689818  0.980061  1
  O  O34  1  0.601419  0.103751  0.901669  1
  O  O35  1  0.601419  0.603751  0.598331  1
  O  O36  1  0.595344  0.202071  0.681703  1
  O  O37  1  0.595344  0.702071  0.818297  1
  O  O38  1  0.684919  0.172058  0.096170  1
  O  O39  1  0.684919  0.672058  0.403830  1
