# generated using pymatgen
data_TeWO6
_symmetry_space_group_name_H-M   'P 1'
_cell_length_a   5.33112615
_cell_length_b   5.33112615
_cell_length_c   5.33112615
_cell_angle_alpha   57.54367963
_cell_angle_beta   57.54367963
_cell_angle_gamma   57.54367963
_symmetry_Int_Tables_number   1
_chemical_formula_structural   TeWO6
_chemical_formula_sum   'Te1 W1 O6'
_cell_volume   101.08632198
_cell_formula_units_Z   1
loop_
 _symmetry_equiv_pos_site_id
 _symmetry_equiv_pos_as_xyz
  1  'x, y, z'
loop_
 _atom_site_type_symbol
 _atom_site_label
 _atom_site_symmetry_multiplicity
 _atom_site_fract_x
 _atom_site_fract_y
 _atom_site_fract_z
 _atom_site_occupancy
  Te  Te0  1  0.500000  0.500000  0.500000  1
  W  W1  1  0.000000  0.000000  0.000000  1
  O  O2  1  0.745088  0.138837  0.355644  1
  O  O3  1  0.861163  0.644356  0.254912  1
  O  O4  1  0.355644  0.745088  0.138837  1
  O  O5  1  0.644356  0.254912  0.861163  1
  O  O6  1  0.138837  0.355644  0.745088  1
  O  O7  1  0.254912  0.861163  0.644356  1
