# generated using pymatgen
data_AlPO4
_symmetry_space_group_name_H-M   'P 1'
_cell_length_a   5.32007997
_cell_length_b   12.84761059
_cell_length_c   12.87865673
_cell_angle_alpha   117.28472828
_cell_angle_beta   90.81361643
_cell_angle_gamma   90.89186721
_symmetry_Int_Tables_number   1
_chemical_formula_structural   AlPO4
_chemical_formula_sum   'Al6 P6 O24'
_cell_volume   782.00175364
_cell_formula_units_Z   6
loop_
 _symmetry_equiv_pos_site_id
 _symmetry_equiv_pos_as_xyz
  1  'x, y, z'
loop_
 _atom_site_type_symbol
 _atom_site_label
 _atom_site_symmetry_multiplicity
 _atom_site_fract_x
 _atom_site_fract_y
 _atom_site_fract_z
 _atom_site_occupancy
  Al  Al0  1  0.734043  0.843012  0.920401  1
  Al  Al1  1  0.265957  0.156988  0.079599  1
  Al  Al2  1  0.732435  0.013586  0.369000  1
  Al  Al3  1  0.267565  0.986414  0.631000  1
  Al  Al4  1  0.730166  0.360168  0.873955  1
  Al  Al5  1  0.269834  0.639832  0.126045  1
  P  P6  1  0.766256  0.079824  0.161494  1
  P  P7  1  0.233744  0.920176  0.838506  1
  P  P8  1  0.762709  0.633503  0.983531  1
  P  P9  1  0.237291  0.366497  0.016469  1
  P  P10  1  0.772863  0.129837  0.641009  1
  P  P11  1  0.227137  0.870163  0.358991  1
  O  O12  1  0.740789  0.705912  0.917243  1
  O  O13  1  0.259211  0.294088  0.082757  1
  O  O14  1  0.757153  0.084402  0.282175  1
  O  O15  1  0.242847  0.915598  0.717825  1
  O  O16  1  0.752341  0.950622  0.066705  1
  O  O17  1  0.247659  0.049378  0.933295  1
  O  O18  1  0.453604  0.852400  0.853879  1
  O  O19  1  0.546396  0.147600  0.146121  1
  O  O20  1  0.012925  0.139253  0.154772  1
  O  O21  1  0.987075  0.860747  0.845228  1
  O  O22  1  0.737422  0.503670  0.891719  1
  O  O23  1  0.262578  0.496330  0.108281  1
  O  O24  1  0.753971  0.118204  0.516630  1
  O  O25  1  0.246029  0.881796  0.483370  1
  O  O26  1  0.019529  0.658690  0.047447  1
  O  O27  1  0.980471  0.341310  0.952553  1
  O  O28  1  0.443653  0.334497  0.924686  1
  O  O29  1  0.556347  0.665503  0.075314  1
  O  O30  1  0.436739  0.942907  0.339323  1
  O  O31  1  0.563261  0.057093  0.660677  1
  O  O32  1  0.027439  0.087214  0.662252  1
  O  O33  1  0.972561  0.912786  0.337748  1
  O  O34  1  0.749910  0.260399  0.726079  1
  O  O35  1  0.250090  0.739601  0.273921  1
