# generated using pymatgen
data_Li5FeP3O11
_symmetry_space_group_name_H-M   'P 1'
_cell_length_a   5.36501861
_cell_length_b   8.52565049
_cell_length_c   9.61994114
_cell_angle_alpha   84.21414772
_cell_angle_beta   88.70407997
_cell_angle_gamma   85.40168822
_symmetry_Int_Tables_number   1
_chemical_formula_structural   Li5FeP3O11
_chemical_formula_sum   'Li10 Fe2 P6 O22'
_cell_volume   436.32115642
_cell_formula_units_Z   2
loop_
 _symmetry_equiv_pos_site_id
 _symmetry_equiv_pos_as_xyz
  1  'x, y, z'
loop_
 _atom_site_type_symbol
 _atom_site_label
 _atom_site_symmetry_multiplicity
 _atom_site_fract_x
 _atom_site_fract_y
 _atom_site_fract_z
 _atom_site_occupancy
  Li  Li0  1  0.779643  0.670295  0.656704  1
  Li  Li1  1  0.709772  0.375934  0.167735  1
  Li  Li2  1  0.673873  0.614366  0.319419  1
  Li  Li3  1  0.827787  0.383819  0.844695  1
  Li  Li4  1  0.496939  0.996735  0.155887  1
  Li  Li5  1  0.503061  0.003265  0.844113  1
  Li  Li6  1  0.172213  0.616181  0.155305  1
  Li  Li7  1  0.326127  0.385634  0.680581  1
  Li  Li8  1  0.290228  0.624066  0.832265  1
  Li  Li9  1  0.220357  0.329705  0.343296  1
  Fe  Fe10  1  0.000000  0.000000  0.000000  1
  Fe  Fe11  1  0.500000  0.000000  0.500000  1
  P  P12  1  0.965434  0.043453  0.686392  1
  P  P13  1  0.783384  0.703382  0.984679  1
  P  P14  1  0.729293  0.326889  0.523532  1
  P  P15  1  0.270707  0.673111  0.476468  1
  P  P16  1  0.216616  0.296618  0.015321  1
  P  P17  1  0.034566  0.956547  0.313608  1
  O  O18  1  0.055025  0.745503  0.940118  1
  O  O19  1  0.950055  0.189685  0.564747  1
  O  O20  1  0.875670  0.118832  0.820372  1
  O  O21  1  0.796517  0.599249  0.127484  1
  O  O22  1  0.819735  0.400776  0.382358  1
  O  O23  1  0.758818  0.016323  0.313630  1
  O  O24  1  0.773268  0.928184  0.655706  1
  O  O25  1  0.706178  0.433353  0.643761  1
  O  O26  1  0.662987  0.618550  0.870585  1
  O  O27  1  0.639641  0.866251  0.006662  1
  O  O28  1  0.520681  0.751458  0.481892  1
  O  O29  1  0.479319  0.248542  0.518108  1
  O  O30  1  0.360359  0.133749  0.993338  1
  O  O31  1  0.337013  0.381450  0.129415  1
  O  O32  1  0.293822  0.566647  0.356239  1
  O  O33  1  0.226732  0.071816  0.344294  1
  O  O34  1  0.241182  0.983677  0.686370  1
  O  O35  1  0.180265  0.599224  0.617642  1
  O  O36  1  0.203483  0.400751  0.872516  1
  O  O37  1  0.124330  0.881168  0.179628  1
  O  O38  1  0.049945  0.810315  0.435253  1
  O  O39  1  0.944975  0.254497  0.059882  1
