# generated using pymatgen
data_Li3Fe4(Si3O10)2
_symmetry_space_group_name_H-M   'P 1'
_cell_length_a   5.49530675
_cell_length_b   5.51151757
_cell_length_c   16.64361893
_cell_angle_alpha   86.14323871
_cell_angle_beta   86.76361266
_cell_angle_gamma   60.62101731
_symmetry_Int_Tables_number   1
_chemical_formula_structural   Li3Fe4(Si3O10)2
_chemical_formula_sum   'Li3 Fe4 Si6 O20'
_cell_volume   438.10942142
_cell_formula_units_Z   1
loop_
 _symmetry_equiv_pos_site_id
 _symmetry_equiv_pos_as_xyz
  1  'x, y, z'
loop_
 _atom_site_type_symbol
 _atom_site_label
 _atom_site_symmetry_multiplicity
 _atom_site_fract_x
 _atom_site_fract_y
 _atom_site_fract_z
 _atom_site_occupancy
  Li  Li0  1  0.354129  0.153247  0.551956  1
  Li  Li1  1  0.817031  0.567909  0.267472  1
  Li  Li2  1  0.850136  0.640076  0.949326  1
  Fe  Fe3  1  0.993523  0.193900  0.416283  1
  Fe  Fe4  1  0.188018  0.993765  0.923158  1
  Fe  Fe5  1  0.807499  0.003826  0.081587  1
  Fe  Fe6  1  0.003083  0.817233  0.578825  1
  Si  Si7  1  0.132929  0.870258  0.249055  1
  Si  Si8  1  0.314365  0.535537  0.402716  1
  Si  Si9  1  0.472382  0.676649  0.099045  1
  Si  Si10  1  0.519530  0.323541  0.901291  1
  Si  Si11  1  0.675231  0.482370  0.599148  1
  Si  Si12  1  0.854909  0.144319  0.750589  1
  O  O13  1  0.057361  0.143429  0.298588  1
  O  O14  1  0.114244  0.045807  0.811283  1
  O  O15  1  0.173690  0.610045  0.312936  1
  O  O16  1  0.517765  0.365761  0.094007  1
  O  O17  1  0.106741  0.812440  0.455472  1
  O  O18  1  0.192216  0.904010  0.048278  1
  O  O19  1  0.290365  0.266573  0.439327  1
  O  O20  1  0.233836  0.317787  0.933272  1
  O  O21  1  0.374493  0.493355  0.589166  1
  O  O22  1  0.430493  0.762643  0.195341  1
  O  O23  1  0.575489  0.224459  0.808154  1
  O  O24  1  0.629035  0.493831  0.394484  1
  O  O25  1  0.734982  0.708275  0.060906  1
  O  O26  1  0.678622  0.769734  0.566896  1
  O  O27  1  0.797507  0.073947  0.951065  1
  O  O28  1  0.917351  0.210477  0.548649  1
  O  O29  1  0.507940  0.622384  0.912936  1
  O  O30  1  0.780390  0.423184  0.692414  1
  O  O31  1  0.891673  0.893654  0.192090  1
  O  O32  1  0.950772  0.886417  0.691465  1
