# generated using pymatgen
data_Li4Mn3SnO8
_symmetry_space_group_name_H-M   'P 1'
_cell_length_a   6.04892170
_cell_length_b   6.04892170
_cell_length_c   6.17915340
_cell_angle_alpha   60.38515550
_cell_angle_beta   119.61484450
_cell_angle_gamma   117.87737196
_symmetry_Int_Tables_number   1
_chemical_formula_structural   Li4Mn3SnO8
_chemical_formula_sum   'Li4 Mn3 Sn1 O8'
_cell_volume   163.24605805
_cell_formula_units_Z   1
loop_
 _symmetry_equiv_pos_site_id
 _symmetry_equiv_pos_as_xyz
  1  'x, y, z'
loop_
 _atom_site_type_symbol
 _atom_site_label
 _atom_site_symmetry_multiplicity
 _atom_site_fract_x
 _atom_site_fract_y
 _atom_site_fract_z
 _atom_site_occupancy
  Li  Li0  1  0.500000  0.500000  0.500000  1
  Li  Li1  1  0.000000  0.500000  0.000000  1
  Li  Li2  1  0.500000  0.000000  0.000000  1
  Li  Li3  1  0.000000  0.000000  0.500000  1
  Mn  Mn4  1  0.500000  0.000000  0.500000  1
  Mn  Mn5  1  0.000000  0.500000  0.500000  1
  Mn  Mn6  1  0.500000  0.500000  0.000000  1
  Sn  Sn7  1  0.000000  0.000000  0.000000  1
  O  O8  1  0.750950  0.249050  0.301932  1
  O  O9  1  0.225190  0.253905  0.744070  1
  O  O10  1  0.746095  0.774810  0.744070  1
  O  O11  1  0.249050  0.750950  0.698068  1
  O  O12  1  0.244493  0.755507  0.220297  1
  O  O13  1  0.774810  0.746095  0.255930  1
  O  O14  1  0.253905  0.225190  0.255930  1
  O  O15  1  0.755507  0.244493  0.779703  1
