# generated using pymatgen
data_Li2Cu2F7
_symmetry_space_group_name_H-M   'P 1'
_cell_length_a   6.84808223
_cell_length_b   6.84808223
_cell_length_c   8.37319380
_cell_angle_alpha   55.58351527
_cell_angle_beta   124.41648473
_cell_angle_gamma   153.62891488
_symmetry_Int_Tables_number   1
_chemical_formula_structural   Li2Cu2F7
_chemical_formula_sum   'Li2 Cu2 F7'
_cell_volume   142.02050580
_cell_formula_units_Z   1
loop_
 _symmetry_equiv_pos_site_id
 _symmetry_equiv_pos_as_xyz
  1  'x, y, z'
loop_
 _atom_site_type_symbol
 _atom_site_label
 _atom_site_symmetry_multiplicity
 _atom_site_fract_x
 _atom_site_fract_y
 _atom_site_fract_z
 _atom_site_occupancy
  Li  Li0  1  0.297511  0.702489  0.338448  1
  Li  Li1  1  0.759874  0.240126  0.893903  1
  Cu  Cu2  1  0.970656  0.029344  0.698720  1
  Cu  Cu3  1  0.522836  0.477164  0.141652  1
  F  F4  1  0.687947  0.312053  0.230594  1
  F  F5  1  0.357959  0.642041  0.626377  1
  F  F6  1  0.993284  0.006716  0.951288  1
  F  F7  1  0.918081  0.081919  0.437242  1
  F  F8  1  0.344918  0.655082  0.015306  1
  F  F9  1  0.591252  0.408748  0.777989  1
  F  F10  1  0.051687  0.948313  0.300132  1
