# generated using pymatgen
data_Na5Cr2As(CO4)4
_symmetry_space_group_name_H-M   'P 1'
_cell_length_a   9.93880080
_cell_length_b   9.92761835
_cell_length_c   9.87907516
_cell_angle_alpha   60.23639972
_cell_angle_beta   60.12386425
_cell_angle_gamma   59.63973603
_symmetry_Int_Tables_number   1
_chemical_formula_structural   Na5Cr2As(CO4)4
_chemical_formula_sum   'Na10 Cr4 As2 C8 O32'
_cell_volume   689.21360296
_cell_formula_units_Z   2
loop_
 _symmetry_equiv_pos_site_id
 _symmetry_equiv_pos_as_xyz
  1  'x, y, z'
loop_
 _atom_site_type_symbol
 _atom_site_label
 _atom_site_symmetry_multiplicity
 _atom_site_fract_x
 _atom_site_fract_y
 _atom_site_fract_z
 _atom_site_occupancy
  Na  Na0  1  0.674126  0.069845  0.841986  1
  Na  Na1  1  0.068824  0.673654  0.843152  1
  Na  Na2  1  0.408014  0.835957  0.575874  1
  Na  Na3  1  0.835629  0.406848  0.576346  1
  Na  Na4  1  0.670845  0.670845  0.829155  1
  Na  Na5  1  0.069845  0.674126  0.414043  1
  Na  Na6  1  0.673654  0.068824  0.414371  1
  Na  Na7  1  0.420845  0.420845  0.579155  1
  Na  Na8  1  0.835957  0.408014  0.180155  1
  Na  Na9  1  0.406848  0.835629  0.181176  1
  Cr  Cr10  1  0.752286  0.247294  0.000657  1
  Cr  Cr11  1  0.247294  0.752286  0.999763  1
  Cr  Cr12  1  0.249343  0.250237  0.497714  1
  Cr  Cr13  1  0.250237  0.249343  0.002706  1
  As  As14  1  0.626873  0.626873  0.373127  1
  As  As15  1  0.876873  0.876873  0.623127  1
  C  C16  1  0.462541  0.462521  0.862272  1
  C  C17  1  0.040856  0.038258  0.785665  1
  C  C18  1  0.387728  0.037334  0.787459  1
  C  C19  1  0.037334  0.387728  0.787479  1
  C  C20  1  0.464335  0.114779  0.209144  1
  C  C21  1  0.114779  0.464335  0.211742  1
  C  C22  1  0.462521  0.462541  0.212666  1
  C  C23  1  0.038258  0.040856  0.135221  1
  O  O24  1  0.436684  0.347965  0.859622  1
  O  O25  1  0.065722  0.894474  0.898522  1
  O  O26  1  0.347470  0.606495  0.858543  1
  O  O27  1  0.895838  0.153496  0.811030  1
  O  O28  1  0.605231  0.436071  0.860548  1
  O  O29  1  0.412949  0.694354  0.446636  1
  O  O30  1  0.694354  0.412949  0.446062  1
  O  O31  1  0.156948  0.065113  0.646028  1
  O  O32  1  0.894270  0.390378  0.902035  1
  O  O33  1  0.390378  0.894270  0.813316  1
  O  O34  1  0.687883  0.688611  0.162271  1
  O  O35  1  0.688611  0.687883  0.461236  1
  O  O36  1  0.351478  0.108718  0.184278  1
  O  O37  1  0.108718  0.351478  0.355526  1
  O  O38  1  0.062508  0.391457  0.643505  1
  O  O39  1  0.391457  0.062508  0.902530  1
  O  O40  1  0.110364  0.438970  0.096504  1
  O  O41  1  0.438970  0.110364  0.354162  1
  O  O42  1  0.389452  0.151850  0.644769  1
  O  O43  1  0.151850  0.389452  0.813929  1
  O  O44  1  0.803938  0.803364  0.555646  1
  O  O45  1  0.803364  0.803938  0.837051  1
  O  O46  1  0.603972  0.118088  0.093052  1
  O  O47  1  0.118088  0.603972  0.184887  1
  O  O48  1  0.347965  0.436684  0.355730  1
  O  O49  1  0.788764  0.087729  0.561389  1
  O  O50  1  0.087729  0.788764  0.562117  1
  O  O51  1  0.894474  0.065722  0.141282  1
  O  O52  1  0.606495  0.347470  0.187492  1
  O  O53  1  0.153496  0.895838  0.139636  1
  O  O54  1  0.436071  0.605231  0.098150  1
  O  O55  1  0.065113  0.156948  0.131912  1
