# generated using pymatgen
data_Na2LiMnPCO7
_symmetry_space_group_name_H-M   'P 1'
_cell_length_a   6.82335446
_cell_length_b   8.85903187
_cell_length_c   10.22184600
_cell_angle_alpha   91.04088292
_cell_angle_beta   90.01371987
_cell_angle_gamma   90.33642931
_symmetry_Int_Tables_number   1
_chemical_formula_structural   Na2LiMnPCO7
_chemical_formula_sum   'Na8 Li4 Mn4 P4 C4 O28'
_cell_volume   617.78071603
_cell_formula_units_Z   4
loop_
 _symmetry_equiv_pos_site_id
 _symmetry_equiv_pos_as_xyz
  1  'x, y, z'
loop_
 _atom_site_type_symbol
 _atom_site_label
 _atom_site_symmetry_multiplicity
 _atom_site_fract_x
 _atom_site_fract_y
 _atom_site_fract_z
 _atom_site_occupancy
  Na  Na0  1  0.250752  0.916161  0.378394  1
  Na  Na1  1  0.000272  0.744299  0.626009  1
  Na  Na2  1  0.499337  0.743959  0.625921  1
  Na  Na3  1  0.000392  0.741856  0.123733  1
  Na  Na4  1  0.500160  0.741826  0.122991  1
  Na  Na5  1  0.500646  0.254516  0.874460  1
  Na  Na6  1  0.502131  0.256886  0.376363  1
  Na  Na7  1  0.998640  0.255841  0.375606  1
  Li  Li8  1  0.240961  0.919441  0.875337  1
  Li  Li9  1  0.979470  0.267666  0.882484  1
  Li  Li10  1  0.758135  0.090317  0.628144  1
  Li  Li11  1  0.754195  0.092206  0.122425  1
  Mn  Mn12  1  0.749816  0.641232  0.885918  1
  Mn  Mn13  1  0.750561  0.636347  0.389218  1
  Mn  Mn14  1  0.247712  0.356965  0.614778  1
  Mn  Mn15  1  0.246353  0.355823  0.107856  1
  P  P16  1  0.245610  0.593281  0.851616  1
  P  P17  1  0.250362  0.588250  0.353298  1
  P  P18  1  0.753578  0.402259  0.649794  1
  P  P19  1  0.748956  0.403719  0.142985  1
  C  C20  1  0.759037  0.955078  0.867582  1
  C  C21  1  0.750313  0.947559  0.365161  1
  C  C22  1  0.248182  0.058335  0.641023  1
  C  C23  1  0.249375  0.051261  0.127955  1
  O  O24  1  0.250981  0.914096  0.661062  1
  O  O25  1  0.251490  0.908304  0.149281  1
  O  O26  1  0.751874  0.913970  0.988655  1
  O  O27  1  0.751459  0.910571  0.487824  1
  O  O28  1  0.748776  0.853760  0.773275  1
  O  O29  1  0.751325  0.843061  0.273691  1
  O  O30  1  0.068237  0.694244  0.891895  1
  O  O31  1  0.432742  0.681974  0.895080  1
  O  O32  1  0.067577  0.681241  0.395838  1
  O  O33  1  0.434252  0.682115  0.395056  1
  O  O34  1  0.247962  0.573481  0.699591  1
  O  O35  1  0.749182  0.562630  0.590005  1
  O  O36  1  0.249137  0.568821  0.200980  1
  O  O37  1  0.750348  0.563818  0.083290  1
  O  O38  1  0.233001  0.432143  0.910174  1
  O  O39  1  0.767365  0.422778  0.802195  1
  O  O40  1  0.251242  0.428872  0.413639  1
  O  O41  1  0.754306  0.424631  0.294904  1
  O  O42  1  0.568027  0.307307  0.614074  1
  O  O43  1  0.930162  0.306669  0.601595  1
  O  O44  1  0.564841  0.309131  0.103708  1
  O  O45  1  0.927218  0.306508  0.096875  1
  O  O46  1  0.243535  0.151049  0.740901  1
  O  O47  1  0.246118  0.146911  0.227055  1
  O  O48  1  0.249881  0.111804  0.523617  1
  O  O49  1  0.250014  0.100954  0.009265  1
  O  O50  1  0.775672  0.096405  0.836708  1
  O  O51  1  0.748333  0.087666  0.330719  1
