# generated using pymatgen
data_Li4Ti2Fe3Cu3O16
_symmetry_space_group_name_H-M   'P 1'
_cell_length_a   5.92146769
_cell_length_b   5.92146769
_cell_length_c   9.56284137
_cell_angle_alpha   89.54465545
_cell_angle_beta   90.45534455
_cell_angle_gamma   119.88203266
_symmetry_Int_Tables_number   1
_chemical_formula_structural   Li4Ti2Fe3Cu3O16
_chemical_formula_sum   'Li4 Ti2 Fe3 Cu3 O16'
_cell_volume   290.71874176
_cell_formula_units_Z   1
loop_
 _symmetry_equiv_pos_site_id
 _symmetry_equiv_pos_as_xyz
  1  'x, y, z'
loop_
 _atom_site_type_symbol
 _atom_site_label
 _atom_site_symmetry_multiplicity
 _atom_site_fract_x
 _atom_site_fract_y
 _atom_site_fract_z
 _atom_site_occupancy
  Li  Li0  1  0.663216  0.336784  0.102357  1
  Li  Li1  1  0.000365  0.999635  0.004164  1
  Li  Li2  1  0.003862  0.996138  0.508930  1
  Li  Li3  1  0.333358  0.666642  0.604757  1
  Ti  Ti4  1  0.670475  0.329525  0.502166  1
  Ti  Ti5  1  0.337103  0.662897  0.003926  1
  Fe  Fe6  1  0.829709  0.170291  0.783316  1
  Fe  Fe7  1  0.659447  0.828361  0.283629  1
  Fe  Fe8  1  0.171639  0.340553  0.283629  1
  Cu  Cu9  1  0.833169  0.657253  0.785618  1
  Cu  Cu10  1  0.342747  0.166831  0.785618  1
  Cu  Cu11  1  0.170362  0.829638  0.287218  1
  O  O12  1  0.829095  0.666637  0.407902  1
  O  O13  1  0.522819  0.477181  0.657613  1
  O  O14  1  0.661977  0.338023  0.889948  1
  O  O15  1  0.006361  0.993639  0.699073  1
  O  O16  1  0.007677  0.992323  0.194889  1
  O  O17  1  0.333363  0.170905  0.407902  1
  O  O18  1  0.963636  0.479590  0.654428  1
  O  O19  1  0.520410  0.036364  0.654428  1
  O  O20  1  0.163931  0.836069  0.906552  1
  O  O21  1  0.831505  0.168495  0.406815  1
  O  O22  1  0.480147  0.963173  0.156685  1
  O  O23  1  0.036827  0.519853  0.156685  1
  O  O24  1  0.327643  0.672357  0.393058  1
  O  O25  1  0.659904  0.840683  0.907673  1
  O  O26  1  0.480693  0.519307  0.155619  1
  O  O27  1  0.159317  0.340096  0.907673  1
