# generated using pymatgen
data_Li2TiCo2O5
_symmetry_space_group_name_H-M   'P 1'
_cell_length_a   7.90750414
_cell_length_b   7.90750414
_cell_length_c   5.11582354
_cell_angle_alpha   84.18918096
_cell_angle_beta   95.81081904
_cell_angle_gamma   37.46836677
_symmetry_Int_Tables_number   1
_chemical_formula_structural   Li2TiCo2O5
_chemical_formula_sum   'Li4 Ti2 Co4 O10'
_cell_volume   184.67260420
_cell_formula_units_Z   2
loop_
 _symmetry_equiv_pos_site_id
 _symmetry_equiv_pos_as_xyz
  1  'x, y, z'
loop_
 _atom_site_type_symbol
 _atom_site_label
 _atom_site_symmetry_multiplicity
 _atom_site_fract_x
 _atom_site_fract_y
 _atom_site_fract_z
 _atom_site_occupancy
  Li  Li0  1  0.749691  0.749691  0.250000  1
  Li  Li1  1  0.552179  0.552179  0.250000  1
  Li  Li2  1  0.250309  0.250309  0.750000  1
  Li  Li3  1  0.447821  0.447821  0.750000  1
  Ti  Ti4  1  0.647645  0.647645  0.750000  1
  Ti  Ti5  1  0.352355  0.352355  0.250000  1
  Co  Co6  1  0.151532  0.151532  0.250000  1
  Co  Co7  1  0.951170  0.951170  0.250000  1
  Co  Co8  1  0.848468  0.848468  0.750000  1
  Co  Co9  1  0.048830  0.048830  0.750000  1
  O  O10  1  0.588457  0.114092  0.016875  1
  O  O11  1  0.885908  0.411543  0.516875  1
  O  O12  1  0.000000  0.500000  0.000000  1
  O  O13  1  0.683999  0.203853  0.490003  1
  O  O14  1  0.796147  0.316001  0.990003  1
  O  O15  1  0.411543  0.885908  0.983125  1
  O  O16  1  0.203853  0.683999  0.009997  1
  O  O17  1  0.114092  0.588457  0.483125  1
  O  O18  1  0.500000  0.000000  0.500000  1
  O  O19  1  0.316001  0.796147  0.509997  1
