# generated using pymatgen
data_Li2TiF6
_symmetry_space_group_name_H-M   'P 1'
_cell_length_a   4.72180044
_cell_length_b   4.72180044
_cell_length_c   9.06898036
_cell_angle_alpha   90.00000000
_cell_angle_beta   90.00000000
_cell_angle_gamma   90.00000000
_symmetry_Int_Tables_number   1
_chemical_formula_structural   Li2TiF6
_chemical_formula_sum   'Li4 Ti2 F12'
_cell_volume   202.19653923
_cell_formula_units_Z   2
loop_
 _symmetry_equiv_pos_site_id
 _symmetry_equiv_pos_as_xyz
  1  'x, y, z'
loop_
 _atom_site_type_symbol
 _atom_site_label
 _atom_site_symmetry_multiplicity
 _atom_site_fract_x
 _atom_site_fract_y
 _atom_site_fract_z
 _atom_site_occupancy
  Li  Li0  1  0.000000  0.000000  0.338395  1
  Li  Li1  1  0.500000  0.500000  0.838395  1
  Li  Li2  1  0.500000  0.500000  0.161605  1
  Li  Li3  1  0.000000  0.000000  0.661605  1
  Ti  Ti4  1  0.000000  0.000000  0.000000  1
  Ti  Ti5  1  0.500000  0.500000  0.500000  1
  F  F6  1  0.215168  0.784832  0.500000  1
  F  F7  1  0.692647  0.692647  0.653114  1
  F  F8  1  0.284832  0.284832  0.000000  1
  F  F9  1  0.715168  0.715168  0.000000  1
  F  F10  1  0.784832  0.215168  0.500000  1
  F  F11  1  0.192647  0.807353  0.846886  1
  F  F12  1  0.307353  0.307353  0.346886  1
  F  F13  1  0.692647  0.692647  0.346886  1
  F  F14  1  0.807353  0.192647  0.846886  1
  F  F15  1  0.807353  0.192647  0.153114  1
  F  F16  1  0.192647  0.807353  0.153114  1
  F  F17  1  0.307353  0.307353  0.653114  1
