# generated using pymatgen
data_Rb2Fe2O3
_symmetry_space_group_name_H-M   'P 1'
_cell_length_a   6.37125854
_cell_length_b   8.23166599
_cell_length_c   12.09719317
_cell_angle_alpha   90.00000000
_cell_angle_beta   90.00000000
_cell_angle_gamma   90.00000000
_symmetry_Int_Tables_number   1
_chemical_formula_structural   Rb2Fe2O3
_chemical_formula_sum   'Rb8 Fe8 O12'
_cell_volume   634.45026690
_cell_formula_units_Z   4
loop_
 _symmetry_equiv_pos_site_id
 _symmetry_equiv_pos_as_xyz
  1  'x, y, z'
loop_
 _atom_site_type_symbol
 _atom_site_label
 _atom_site_symmetry_multiplicity
 _atom_site_fract_x
 _atom_site_fract_y
 _atom_site_fract_z
 _atom_site_occupancy
  Rb  Rb0  1  0.250000  0.877197  0.058446  1
  Rb  Rb1  1  0.750000  0.503241  0.120772  1
  Rb  Rb2  1  0.250000  0.003241  0.379228  1
  Rb  Rb3  1  0.750000  0.377197  0.441554  1
  Rb  Rb4  1  0.250000  0.622803  0.558446  1
  Rb  Rb5  1  0.750000  0.996759  0.620772  1
  Rb  Rb6  1  0.250000  0.496759  0.879228  1
  Rb  Rb7  1  0.750000  0.122803  0.941554  1
  Fe  Fe8  1  0.250000  0.280385  0.145302  1
  Fe  Fe9  1  0.750000  0.098360  0.226835  1
  Fe  Fe10  1  0.250000  0.598360  0.273165  1
  Fe  Fe11  1  0.750000  0.780385  0.354698  1
  Fe  Fe12  1  0.250000  0.219615  0.645302  1
  Fe  Fe13  1  0.750000  0.401640  0.726835  1
  Fe  Fe14  1  0.250000  0.901640  0.773165  1
  Fe  Fe15  1  0.750000  0.719615  0.854698  1
  O  O16  1  0.250000  0.513681  0.123832  1
  O  O17  1  0.999353  0.151857  0.145975  1
  O  O18  1  0.500647  0.151857  0.145975  1
  O  O19  1  0.000647  0.651857  0.354025  1
  O  O20  1  0.499353  0.651857  0.354025  1
  O  O21  1  0.750000  0.013681  0.376168  1
  O  O22  1  0.250000  0.986319  0.623832  1
  O  O23  1  0.999353  0.348143  0.645975  1
  O  O24  1  0.500647  0.348143  0.645975  1
  O  O25  1  0.499353  0.848143  0.854025  1
  O  O26  1  0.000647  0.848143  0.854025  1
  O  O27  1  0.750000  0.486319  0.876168  1
