# generated using pymatgen
data_Fe4OF8
_symmetry_space_group_name_H-M   'P 1'
_cell_length_a   5.41094610
_cell_length_b   5.41094610
_cell_length_c   14.95565084
_cell_angle_alpha   89.55458187
_cell_angle_beta   90.44541813
_cell_angle_gamma   120.62844534
_symmetry_Int_Tables_number   1
_chemical_formula_structural   Fe4OF8
_chemical_formula_sum   'Fe8 O2 F16'
_cell_volume   376.77299640
_cell_formula_units_Z   2
loop_
 _symmetry_equiv_pos_site_id
 _symmetry_equiv_pos_as_xyz
  1  'x, y, z'
loop_
 _atom_site_type_symbol
 _atom_site_label
 _atom_site_symmetry_multiplicity
 _atom_site_fract_x
 _atom_site_fract_y
 _atom_site_fract_z
 _atom_site_occupancy
  Fe  Fe0  1  0.361044  0.697785  0.822401  1
  Fe  Fe1  1  0.337939  0.670702  0.517115  1
  Fe  Fe2  1  0.329298  0.662061  0.017115  1
  Fe  Fe3  1  0.302215  0.638956  0.322401  1
  Fe  Fe4  1  0.648184  0.297520  0.973032  1
  Fe  Fe5  1  0.702480  0.351816  0.473032  1
  Fe  Fe6  1  0.680135  0.351912  0.679959  1
  Fe  Fe7  1  0.648088  0.319865  0.179959  1
  O  O8  1  0.576672  0.958144  0.925448  1
  O  O9  1  0.041856  0.423328  0.425448  1
  F  F10  1  0.635018  0.627297  0.743949  1
  F  F11  1  0.625362  0.643934  0.422955  1
  F  F12  1  0.356066  0.374638  0.922955  1
  F  F13  1  0.608716  0.002505  0.248019  1
  F  F14  1  0.372703  0.364982  0.243949  1
  F  F15  1  0.997495  0.391284  0.748019  1
  F  F16  1  0.390864  0.012857  0.423663  1
  F  F17  1  0.946608  0.359655  0.078275  1
  F  F18  1  0.987143  0.609136  0.923663  1
  F  F19  1  0.640345  0.053392  0.578275  1
  F  F20  1  0.961948  0.609712  0.583505  1
  F  F21  1  0.978029  0.615081  0.239454  1
  F  F22  1  0.630538  0.578709  0.079159  1
  F  F23  1  0.390288  0.038052  0.083505  1
  F  F24  1  0.384919  0.021971  0.739454  1
  F  F25  1  0.421291  0.369462  0.579159  1
