# generated using pymatgen
data_Na2Ge2O5
_symmetry_space_group_name_H-M   'P 1'
_cell_length_a   5.00855726
_cell_length_b   8.53849630
_cell_length_c   12.32295987
_cell_angle_alpha   90.00000000
_cell_angle_beta   90.00000000
_cell_angle_gamma   90.00000000
_symmetry_Int_Tables_number   1
_chemical_formula_structural   Na2Ge2O5
_chemical_formula_sum   'Na8 Ge8 O20'
_cell_volume   526.99812730
_cell_formula_units_Z   4
loop_
 _symmetry_equiv_pos_site_id
 _symmetry_equiv_pos_as_xyz
  1  'x, y, z'
loop_
 _atom_site_type_symbol
 _atom_site_label
 _atom_site_symmetry_multiplicity
 _atom_site_fract_x
 _atom_site_fract_y
 _atom_site_fract_z
 _atom_site_occupancy
  Na  Na0  1  0.432675  0.933729  0.771742  1
  Na  Na1  1  0.398126  0.813128  0.305643  1
  Na  Na2  1  0.898126  0.686872  0.805643  1
  Na  Na3  1  0.932675  0.566271  0.271742  1
  Na  Na4  1  0.432675  0.433729  0.728258  1
  Na  Na5  1  0.398126  0.313128  0.194357  1
  Na  Na6  1  0.898126  0.186872  0.694357  1
  Na  Na7  1  0.932675  0.066271  0.228258  1
  Ge  Ge8  1  0.476352  0.950571  0.071918  1
  Ge  Ge9  1  0.858313  0.889809  0.474258  1
  Ge  Ge10  1  0.358313  0.610191  0.974258  1
  Ge  Ge11  1  0.976352  0.549429  0.571918  1
  Ge  Ge12  1  0.476352  0.450571  0.428082  1
  Ge  Ge13  1  0.858313  0.389809  0.025742  1
  Ge  Ge14  1  0.358313  0.110191  0.525742  1
  Ge  Ge15  1  0.976352  0.049429  0.928082  1
  O  O16  1  0.904585  0.961606  0.806438  1
  O  O17  1  0.831219  0.972748  0.049494  1
  O  O18  1  0.503205  0.928853  0.481041  1
  O  O19  1  0.928862  0.833504  0.343170  1
  O  O20  1  0.917491  0.755618  0.583989  1
  O  O21  1  0.417491  0.744382  0.083989  1
  O  O22  1  0.428862  0.666496  0.843170  1
  O  O23  1  0.003205  0.571147  0.981041  1
  O  O24  1  0.331219  0.527252  0.549494  1
  O  O25  1  0.404585  0.538394  0.306438  1
  O  O26  1  0.904585  0.461606  0.693562  1
  O  O27  1  0.831219  0.472748  0.450506  1
  O  O28  1  0.503205  0.428853  0.018959  1
  O  O29  1  0.928862  0.333504  0.156830  1
  O  O30  1  0.917491  0.255618  0.916011  1
  O  O31  1  0.417491  0.244382  0.416011  1
  O  O32  1  0.428862  0.166496  0.656830  1
  O  O33  1  0.003205  0.071147  0.518959  1
  O  O34  1  0.331219  0.027252  0.950506  1
  O  O35  1  0.404585  0.038394  0.193562  1
