# generated using pymatgen
data_Ce(WO4)2
_symmetry_space_group_name_H-M   'P 1'
_cell_length_a   9.68151587
_cell_length_b   9.68151587
_cell_length_c   9.68151587
_cell_angle_alpha   90.00000000
_cell_angle_beta   90.00000000
_cell_angle_gamma   90.00000000
_symmetry_Int_Tables_number   1
_chemical_formula_structural   Ce(WO4)2
_chemical_formula_sum   'Ce4 W8 O32'
_cell_volume   907.46542070
_cell_formula_units_Z   4
loop_
 _symmetry_equiv_pos_site_id
 _symmetry_equiv_pos_as_xyz
  1  'x, y, z'
loop_
 _atom_site_type_symbol
 _atom_site_label
 _atom_site_symmetry_multiplicity
 _atom_site_fract_x
 _atom_site_fract_y
 _atom_site_fract_z
 _atom_site_occupancy
  Ce  Ce0  1  0.247848  0.252152  0.747848  1
  Ce  Ce1  1  0.252152  0.747848  0.247848  1
  Ce  Ce2  1  0.747848  0.247848  0.252152  1
  Ce  Ce3  1  0.752152  0.752152  0.752152  1
  W  W4  1  0.091348  0.091348  0.091348  1
  W  W5  1  0.150320  0.650320  0.849680  1
  W  W6  1  0.349680  0.349680  0.349680  1
  W  W7  1  0.408652  0.908652  0.591348  1
  W  W8  1  0.591348  0.408652  0.908652  1
  W  W9  1  0.650320  0.849680  0.150320  1
  W  W10  1  0.849680  0.150320  0.650320  1
  W  W11  1  0.908652  0.591348  0.408652  1
  O  O12  1  0.013226  0.486774  0.513226  1
  O  O13  1  0.031400  0.192040  0.679374  1
  O  O14  1  0.038048  0.695136  0.313828  1
  O  O15  1  0.179374  0.468600  0.807960  1
  O  O16  1  0.186172  0.961952  0.195136  1
  O  O17  1  0.192040  0.679374  0.031400  1
  O  O18  1  0.195136  0.186172  0.961952  1
  O  O19  1  0.243768  0.243768  0.243768  1
  O  O20  1  0.256232  0.756232  0.743768  1
  O  O21  1  0.304864  0.813828  0.461952  1
  O  O22  1  0.307960  0.320626  0.531400  1
  O  O23  1  0.313828  0.038048  0.695136  1
  O  O24  1  0.320626  0.531400  0.307960  1
  O  O25  1  0.461952  0.304864  0.813828  1
  O  O26  1  0.468600  0.807960  0.179374  1
  O  O27  1  0.486774  0.513226  0.013226  1
  O  O28  1  0.513226  0.013226  0.486774  1
  O  O29  1  0.531400  0.307960  0.320626  1
  O  O30  1  0.538048  0.804864  0.686172  1
  O  O31  1  0.679374  0.031400  0.192040  1
  O  O32  1  0.686172  0.538048  0.804864  1
  O  O33  1  0.692040  0.820626  0.968600  1
  O  O34  1  0.695136  0.313828  0.038048  1
  O  O35  1  0.743768  0.256232  0.756232  1
  O  O36  1  0.756232  0.743768  0.256232  1
  O  O37  1  0.804864  0.686172  0.538048  1
  O  O38  1  0.807960  0.179374  0.468600  1
  O  O39  1  0.813828  0.461952  0.304864  1
  O  O40  1  0.820626  0.968600  0.692040  1
  O  O41  1  0.961952  0.195136  0.186172  1
  O  O42  1  0.968600  0.692040  0.820626  1
  O  O43  1  0.986774  0.986774  0.986774  1
