# generated using pymatgen
data_Ca5DyTi5Fe(SiO5)6
_symmetry_space_group_name_H-M   'P 1'
_cell_length_a   5.51109464
_cell_length_b   7.51469208
_cell_length_c   14.50805278
_cell_angle_alpha   86.85500001
_cell_angle_beta   85.18229217
_cell_angle_gamma   72.33402504
_symmetry_Int_Tables_number   1
_chemical_formula_structural   Ca5DyTi5Fe(SiO5)6
_chemical_formula_sum   'Ca5 Dy1 Ti5 Fe1 Si6 O30'
_cell_volume   570.20884845
_cell_formula_units_Z   1
loop_
 _symmetry_equiv_pos_site_id
 _symmetry_equiv_pos_as_xyz
  1  'x, y, z'
loop_
 _atom_site_type_symbol
 _atom_site_label
 _atom_site_symmetry_multiplicity
 _atom_site_fract_x
 _atom_site_fract_y
 _atom_site_fract_z
 _atom_site_occupancy
  Ca  Ca0  1  0.067649  0.103319  0.638183  1
  Ca  Ca1  1  0.395300  0.775793  0.972589  1
  Ca  Ca2  1  0.602150  0.226796  0.025114  1
  Ca  Ca3  1  0.935963  0.895095  0.364849  1
  Ca  Ca4  1  0.270905  0.557214  0.693500  1
  Dy  Dy5  1  0.728657  0.443106  0.307884  1
  Ti  Ti6  1  0.662263  0.843114  0.168346  1
  Ti  Ti7  1  0.994008  0.505604  0.000306  1
  Ti  Ti8  1  0.006386  0.493898  0.500579  1
  Ti  Ti9  1  0.331869  0.168430  0.833720  1
  Ti  Ti10  1  0.666433  0.832333  0.665904  1
  Fe  Fe11  1  0.333649  0.164643  0.334948  1
  Si  Si12  1  0.066957  0.111400  0.144487  1
  Si  Si13  1  0.406698  0.770534  0.476197  1
  Si  Si14  1  0.262683  0.556240  0.189980  1
  Si  Si15  1  0.741075  0.439388  0.809451  1
  Si  Si16  1  0.597082  0.227845  0.523287  1
  Si  Si17  1  0.925411  0.894371  0.855941  1
  O  O18  1  0.434880  0.685774  0.222269  1
  O  O19  1  0.738505  0.690330  0.059890  1
  O  O20  1  0.769959  0.353927  0.556798  1
  O  O21  1  0.931157  0.315299  0.094581  1
  O  O22  1  0.038985  0.141909  0.257175  1
  O  O23  1  0.962030  0.637990  0.232302  1
  O  O24  1  0.061888  0.361807  0.392514  1
  O  O25  1  0.100475  0.021917  0.885846  1
  O  O26  1  0.267191  0.978150  0.432018  1
  O  O27  1  0.367510  0.017605  0.104627  1
  O  O28  1  0.398303  0.787559  0.589791  1
  O  O29  1  0.273756  0.539437  0.076479  1
  O  O30  1  0.297520  0.317261  0.564980  1
  O  O31  1  0.416603  0.353352  0.237619  1
  O  O32  1  0.410241  0.022910  0.725672  1
  O  O33  1  0.601448  0.967981  0.274741  1
  O  O34  1  0.605434  0.645549  0.761060  1
  O  O35  1  0.701445  0.672892  0.430513  1
  O  O36  1  0.725213  0.462227  0.922781  1
  O  O37  1  0.614175  0.219565  0.409211  1
  O  O38  1  0.628292  0.985820  0.899042  1
  O  O39  1  0.730721  0.017930  0.567729  1
  O  O40  1  0.900073  0.977670  0.113844  1
  O  O41  1  0.929451  0.646578  0.604338  1
  O  O42  1  0.038632  0.347261  0.767204  1
  O  O43  1  0.940479  0.872685  0.742573  1
  O  O44  1  0.062881  0.687687  0.904028  1
  O  O45  1  0.235454  0.640365  0.445061  1
  O  O46  1  0.256798  0.309850  0.939514  1
  O  O47  1  0.565362  0.311590  0.780535  1
