# generated using pymatgen
data_LiSnPO4
_symmetry_space_group_name_H-M   'P 1'
_cell_length_a   9.45668127
_cell_length_b   7.07595373
_cell_length_c   18.97434787
_cell_angle_alpha   90.00000000
_cell_angle_beta   119.77889630
_cell_angle_gamma   90.00000000
_symmetry_Int_Tables_number   1
_chemical_formula_structural   LiSnPO4
_chemical_formula_sum   'Li12 Sn12 P12 O48'
_cell_volume   1102.00743278
_cell_formula_units_Z   12
loop_
 _symmetry_equiv_pos_site_id
 _symmetry_equiv_pos_as_xyz
  1  'x, y, z'
loop_
 _atom_site_type_symbol
 _atom_site_label
 _atom_site_symmetry_multiplicity
 _atom_site_fract_x
 _atom_site_fract_y
 _atom_site_fract_z
 _atom_site_occupancy
  Li  Li0  1  0.660263  0.983515  0.420163  1
  Li  Li1  1  0.329624  0.026861  0.088711  1
  Li  Li2  1  0.983623  0.013456  0.732079  1
  Li  Li3  1  0.016377  0.513456  0.767921  1
  Li  Li4  1  0.670376  0.526861  0.411289  1
  Li  Li5  1  0.339737  0.483515  0.079837  1
  Li  Li6  1  0.660263  0.516485  0.920163  1
  Li  Li7  1  0.329624  0.473139  0.588711  1
  Li  Li8  1  0.983623  0.486544  0.232079  1
  Li  Li9  1  0.016377  0.986544  0.267921  1
  Li  Li10  1  0.670376  0.973139  0.911289  1
  Li  Li11  1  0.339737  0.016485  0.579837  1
  Sn  Sn12  1  0.937223  0.247482  0.901288  1
  Sn  Sn13  1  0.366613  0.261796  0.280374  1
  Sn  Sn14  1  0.694711  0.258500  0.565385  1
  Sn  Sn15  1  0.305289  0.758500  0.934615  1
  Sn  Sn16  1  0.633387  0.761796  0.219626  1
  Sn  Sn17  1  0.062777  0.747482  0.598712  1
  Sn  Sn18  1  0.937223  0.252518  0.401288  1
  Sn  Sn19  1  0.366613  0.238204  0.780374  1
  Sn  Sn20  1  0.694711  0.241500  0.065385  1
  Sn  Sn21  1  0.305289  0.741500  0.434615  1
  Sn  Sn22  1  0.633387  0.738204  0.719626  1
  Sn  Sn23  1  0.062777  0.752518  0.098712  1
  P  P24  1  0.962160  0.737391  0.910698  1
  P  P25  1  0.355847  0.763927  0.269089  1
  P  P26  1  0.679543  0.753558  0.572344  1
  P  P27  1  0.320457  0.253558  0.927656  1
  P  P28  1  0.644153  0.263927  0.230911  1
  P  P29  1  0.037840  0.237391  0.589302  1
  P  P30  1  0.962160  0.762609  0.410698  1
  P  P31  1  0.355847  0.736073  0.769089  1
  P  P32  1  0.679543  0.746442  0.072344  1
  P  P33  1  0.320457  0.246442  0.427656  1
  P  P34  1  0.644153  0.236073  0.730911  1
  P  P35  1  0.037840  0.262609  0.089302  1
  O  O36  1  0.859721  0.573609  0.915519  1
  O  O37  1  0.134708  0.077625  0.101226  1
  O  O38  1  0.456529  0.592742  0.319232  1
  O  O39  1  0.136108  0.754655  0.991415  1
  O  O40  1  0.484359  0.258362  0.422534  1
  O  O41  1  0.826113  0.244028  0.752077  1
  O  O42  1  0.816587  0.753419  0.663289  1
  O  O43  1  0.443575  0.944157  0.317435  1
  O  O44  1  0.690554  0.584407  0.523471  1
  O  O45  1  0.680713  0.935568  0.527409  1
  O  O46  1  0.343995  0.763646  0.181805  1
  O  O47  1  0.007462  0.703045  0.843193  1
  O  O48  1  0.992538  0.203045  0.656807  1
  O  O49  1  0.319287  0.435568  0.972591  1
  O  O50  1  0.656005  0.263646  0.318195  1
  O  O51  1  0.309446  0.084407  0.976529  1
  O  O52  1  0.556425  0.444157  0.182565  1
  O  O53  1  0.183413  0.253419  0.836711  1
  O  O54  1  0.173887  0.744028  0.747923  1
  O  O55  1  0.863892  0.254655  0.508585  1
  O  O56  1  0.515641  0.758362  0.077466  1
  O  O57  1  0.543471  0.092742  0.180768  1
  O  O58  1  0.865292  0.577625  0.398774  1
  O  O59  1  0.140279  0.073609  0.584481  1
  O  O60  1  0.859721  0.926391  0.415519  1
  O  O61  1  0.134708  0.422375  0.601226  1
  O  O62  1  0.456529  0.907258  0.819232  1
  O  O63  1  0.136108  0.745345  0.491415  1
  O  O64  1  0.484359  0.241638  0.922534  1
  O  O65  1  0.826113  0.255972  0.252077  1
  O  O66  1  0.816587  0.746581  0.163289  1
  O  O67  1  0.443575  0.555843  0.817435  1
  O  O68  1  0.690554  0.915593  0.023471  1
  O  O69  1  0.343995  0.736354  0.681805  1
  O  O70  1  0.680713  0.564432  0.027409  1
  O  O71  1  0.007462  0.796955  0.343193  1
  O  O72  1  0.992538  0.296955  0.156807  1
  O  O73  1  0.656005  0.236354  0.818195  1
  O  O74  1  0.319287  0.064432  0.472591  1
  O  O75  1  0.309446  0.415593  0.476529  1
  O  O76  1  0.556425  0.055843  0.682565  1
  O  O77  1  0.183413  0.246581  0.336711  1
  O  O78  1  0.173887  0.755972  0.247923  1
  O  O79  1  0.515641  0.741638  0.577466  1
  O  O80  1  0.863892  0.245345  0.008585  1
  O  O81  1  0.543471  0.407258  0.680768  1
  O  O82  1  0.865292  0.922375  0.898774  1
  O  O83  1  0.140279  0.426391  0.084481  1
