# generated using pymatgen
data_CaAl2Si3H6O13
_symmetry_space_group_name_H-M   'P 1'
_cell_length_a   10.13741547
_cell_length_b   10.13741547
_cell_length_c   9.90454786
_cell_angle_alpha   83.88378745
_cell_angle_beta   96.11621255
_cell_angle_gamma   37.83876553
_symmetry_Int_Tables_number   1
_chemical_formula_structural   CaAl2Si3H6O13
_chemical_formula_sum   'Ca2 Al4 Si6 H12 O26'
_cell_volume   589.72510231
_cell_formula_units_Z   2
loop_
 _symmetry_equiv_pos_site_id
 _symmetry_equiv_pos_as_xyz
  1  'x, y, z'
loop_
 _atom_site_type_symbol
 _atom_site_label
 _atom_site_symmetry_multiplicity
 _atom_site_fract_x
 _atom_site_fract_y
 _atom_site_fract_z
 _atom_site_occupancy
  Ca  Ca0  1  0.157845  0.628328  0.052094  1
  Ca  Ca1  1  0.371672  0.842155  0.552094  1
  Al  Al2  1  0.417391  0.515461  0.433405  1
  Al  Al3  1  0.484539  0.582609  0.933405  1
  Al  Al4  1  0.327582  0.249498  0.600052  1
  Al  Al5  1  0.750502  0.672418  0.100052  1
  Si  Si6  1  0.751533  0.006764  0.497395  1
  Si  Si7  1  0.993236  0.248467  0.997395  1
  Si  Si8  1  0.426392  0.736851  0.199230  1
  Si  Si9  1  0.263149  0.573608  0.699230  1
  Si  Si10  1  0.332725  0.002761  0.831332  1
  Si  Si11  1  0.997239  0.667275  0.331332  1
  H  H12  1  0.870192  0.188375  0.449079  1
  H  H13  1  0.811625  0.129808  0.949079  1
  H  H14  1  0.895364  0.311751  0.374609  1
  H  H15  1  0.688249  0.104636  0.874609  1
  H  H16  1  0.880837  0.434655  0.691153  1
  H  H17  1  0.565345  0.119163  0.191153  1
  H  H18  1  0.835611  0.562491  0.545294  1
  H  H19  1  0.437509  0.164389  0.045294  1
  H  H20  1  0.296354  0.084769  0.275606  1
  H  H21  1  0.915231  0.703646  0.775606  1
  H  H22  1  0.445174  0.043242  0.407698  1
  H  H23  1  0.956758  0.554826  0.907698  1
  O  O24  1  0.678548  0.222091  0.469067  1
  O  O25  1  0.777909  0.321452  0.969067  1
  O  O26  1  0.552955  0.072598  0.526717  1
  O  O27  1  0.927402  0.447045  0.026717  1
  O  O28  1  0.424722  0.673096  0.356584  1
  O  O29  1  0.326904  0.575278  0.856584  1
  O  O30  1  0.308448  0.101928  0.675890  1
  O  O31  1  0.898072  0.691552  0.175890  1
  O  O32  1  0.207566  0.593158  0.315615  1
  O  O33  1  0.406842  0.792434  0.815615  1
  O  O34  1  0.374442  0.336811  0.716224  1
  O  O35  1  0.663189  0.625558  0.216224  1
  O  O36  1  0.396493  0.645527  0.088880  1
  O  O37  1  0.354473  0.603507  0.588880  1
  O  O38  1  0.505466  0.931491  0.963819  1
  O  O39  1  0.068509  0.494534  0.463819  1
  O  O40  1  0.205856  0.016506  0.133613  1
  O  O41  1  0.983494  0.794144  0.633613  1
  O  O42  1  0.076824  0.200973  0.852869  1
  O  O43  1  0.799027  0.923176  0.352869  1
  O  O44  1  0.981222  0.169320  0.440756  1
  O  O45  1  0.830680  0.018778  0.940756  1
  O  O46  1  0.760813  0.578093  0.611148  1
  O  O47  1  0.421907  0.239187  0.111148  1
  O  O48  1  0.368076  0.021234  0.378842  1
  O  O49  1  0.978766  0.631924  0.878842  1
