# generated using pymatgen
data_Na4TiO4
_symmetry_space_group_name_H-M   'P 1'
_cell_length_a   6.18900495
_cell_length_b   6.18900495
_cell_length_c   6.79332911
_cell_angle_alpha   90.00000000
_cell_angle_beta   90.00000000
_cell_angle_gamma   90.86480463
_symmetry_Int_Tables_number   1
_chemical_formula_structural   Na4TiO4
_chemical_formula_sum   'Na8 Ti2 O8'
_cell_volume   260.18055932
_cell_formula_units_Z   2
loop_
 _symmetry_equiv_pos_site_id
 _symmetry_equiv_pos_as_xyz
  1  'x, y, z'
loop_
 _atom_site_type_symbol
 _atom_site_label
 _atom_site_symmetry_multiplicity
 _atom_site_fract_x
 _atom_site_fract_y
 _atom_site_fract_z
 _atom_site_occupancy
  Na  Na0  1  0.836400  0.163600  0.500000  1
  Na  Na1  1  0.836400  0.163600  0.000000  1
  Na  Na2  1  0.865520  0.559983  0.250000  1
  Na  Na3  1  0.440017  0.134480  0.750000  1
  Na  Na4  1  0.134480  0.440017  0.750000  1
  Na  Na5  1  0.559983  0.865520  0.250000  1
  Na  Na6  1  0.163600  0.836400  0.000000  1
  Na  Na7  1  0.163600  0.836400  0.500000  1
  Ti  Ti8  1  0.669173  0.669173  0.750000  1
  Ti  Ti9  1  0.330827  0.330827  0.250000  1
  O  O10  1  0.620151  0.264741  0.250000  1
  O  O11  1  0.735259  0.379849  0.750000  1
  O  O12  1  0.791960  0.791960  0.974182  1
  O  O13  1  0.208040  0.208040  0.474182  1
  O  O14  1  0.208040  0.208040  0.025818  1
  O  O15  1  0.791960  0.791960  0.525818  1
  O  O16  1  0.379849  0.735259  0.750000  1
  O  O17  1  0.264741  0.620151  0.250000  1
