# generated using pymatgen
data_NaMnO4
_symmetry_space_group_name_H-M   'P 1'
_cell_length_a   5.73517963
_cell_length_b   8.49504575
_cell_length_c   9.05508835
_cell_angle_alpha   90.00000000
_cell_angle_beta   127.15434218
_cell_angle_gamma   90.00000000
_symmetry_Int_Tables_number   1
_chemical_formula_structural   NaMnO4
_chemical_formula_sum   'Na4 Mn4 O16'
_cell_volume   351.61711296
_cell_formula_units_Z   4
loop_
 _symmetry_equiv_pos_site_id
 _symmetry_equiv_pos_as_xyz
  1  'x, y, z'
loop_
 _atom_site_type_symbol
 _atom_site_label
 _atom_site_symmetry_multiplicity
 _atom_site_fract_x
 _atom_site_fract_y
 _atom_site_fract_z
 _atom_site_occupancy
  Na  Na0  1  0.912956  0.532729  0.663701  1
  Na  Na1  1  0.087044  0.032729  0.836299  1
  Na  Na2  1  0.912956  0.967271  0.163701  1
  Na  Na3  1  0.087044  0.467271  0.336299  1
  Mn  Mn4  1  0.405739  0.687543  0.162072  1
  Mn  Mn5  1  0.594261  0.187543  0.337928  1
  Mn  Mn6  1  0.405739  0.812457  0.662072  1
  Mn  Mn7  1  0.594261  0.312457  0.837928  1
  O  O8  1  0.726056  0.775583  0.716382  1
  O  O9  1  0.439936  0.618870  0.341616  1
  O  O10  1  0.210833  0.847344  0.092481  1
  O  O11  1  0.755437  0.058945  0.502077  1
  O  O12  1  0.244563  0.558945  0.997923  1
  O  O13  1  0.789167  0.347344  0.407519  1
  O  O14  1  0.560064  0.118870  0.158384  1
  O  O15  1  0.726056  0.724417  0.216382  1
  O  O16  1  0.273944  0.275583  0.783618  1
  O  O17  1  0.439936  0.881130  0.841616  1
  O  O18  1  0.210833  0.652656  0.592481  1
  O  O19  1  0.755437  0.441055  0.002077  1
  O  O20  1  0.244563  0.941055  0.497923  1
  O  O21  1  0.789167  0.152656  0.907519  1
  O  O22  1  0.560064  0.381130  0.658384  1
  O  O23  1  0.273944  0.224417  0.283618  1
