# generated using pymatgen
data_SmH10S3N3O11
_symmetry_space_group_name_H-M   'P 1'
_cell_length_a   7.92462907
_cell_length_b   9.17616030
_cell_length_c   9.24946097
_cell_angle_alpha   117.47905142
_cell_angle_beta   95.12145770
_cell_angle_gamma   92.41094339
_symmetry_Int_Tables_number   1
_chemical_formula_structural   SmH10S3N3O11
_chemical_formula_sum   'Sm2 H20 S6 N6 O22'
_cell_volume   591.69006863
_cell_formula_units_Z   2
loop_
 _symmetry_equiv_pos_site_id
 _symmetry_equiv_pos_as_xyz
  1  'x, y, z'
loop_
 _atom_site_type_symbol
 _atom_site_label
 _atom_site_symmetry_multiplicity
 _atom_site_fract_x
 _atom_site_fract_y
 _atom_site_fract_z
 _atom_site_occupancy
  Sm  Sm0  1  0.217745  0.381973  0.219964  1
  Sm  Sm1  1  0.782255  0.618027  0.780036  1
  H  H2  1  0.128419  0.964685  0.326897  1
  H  H3  1  0.141373  0.246366  0.625728  1
  H  H4  1  0.200972  0.448872  0.745404  1
  H  H5  1  0.320482  0.327534  0.884979  1
  H  H6  1  0.323283  0.896608  0.323532  1
  H  H7  1  0.367216  0.788501  0.785747  1
  H  H8  1  0.270926  0.029493  0.144802  1
  H  H9  1  0.293674  0.035912  0.974955  1
  H  H10  1  0.399881  0.882072  0.672106  1
  H  H11  1  0.494859  0.339273  0.995560  1
  H  H12  1  0.505141  0.660727  0.004440  1
  H  H13  1  0.600119  0.117928  0.327894  1
  H  H14  1  0.706326  0.964088  0.025045  1
  H  H15  1  0.729074  0.970507  0.855198  1
  H  H16  1  0.632784  0.211499  0.214253  1
  H  H17  1  0.676717  0.103392  0.676468  1
  H  H18  1  0.679518  0.672466  0.115021  1
  H  H19  1  0.799028  0.551128  0.254596  1
  H  H20  1  0.858627  0.753634  0.374272  1
  H  H21  1  0.871581  0.035315  0.673103  1
  S  S22  1  0.134747  0.762117  0.619131  1
  S  S23  1  0.145100  0.721219  0.104467  1
  S  S24  1  0.399068  0.322327  0.584349  1
  S  S25  1  0.600932  0.677673  0.415651  1
  S  S26  1  0.854900  0.278781  0.895533  1
  S  S27  1  0.865253  0.237883  0.380869  1
  N  N28  1  0.241598  0.332779  0.696347  1
  N  N29  1  0.220709  0.907890  0.253397  1
  N  N30  1  0.315016  0.861855  0.740503  1
  N  N31  1  0.684984  0.138145  0.259497  1
  N  N32  1  0.779291  0.092110  0.746603  1
  N  N33  1  0.758402  0.667221  0.303653  1
  O  O34  1  0.020891  0.252139  0.959053  1
  O  O35  1  0.034937  0.729821  0.730260  1
  O  O36  1  0.063540  0.874262  0.564164  1
  O  O37  1  0.125399  0.607000  0.175470  1
  O  O38  1  0.173068  0.605262  0.483509  1
  O  O39  1  0.270597  0.673693  0.988011  1
  O  O40  1  0.370203  0.335679  0.991764  1
  O  O41  1  0.326070  0.297958  0.421866  1
  O  O42  1  0.297850  0.102806  0.095145  1
  O  O43  1  0.497273  0.484878  0.681702  1
  O  O44  1  0.489458  0.182901  0.570631  1
  O  O45  1  0.510542  0.817099  0.429369  1
  O  O46  1  0.502727  0.515122  0.318298  1
  O  O47  1  0.702150  0.897194  0.904855  1
  O  O48  1  0.673930  0.702042  0.578134  1
  O  O49  1  0.629797  0.664321  0.008236  1
  O  O50  1  0.729403  0.326307  0.011989  1
  O  O51  1  0.826932  0.394738  0.516491  1
  O  O52  1  0.874601  0.393000  0.824530  1
  O  O53  1  0.936460  0.125738  0.435836  1
  O  O54  1  0.965063  0.270179  0.269740  1
  O  O55  1  0.979109  0.747861  0.040947  1
