# generated using pymatgen
data_Li3FeF5
_symmetry_space_group_name_H-M   'P 1'
_cell_length_a   5.83336584
_cell_length_b   10.80891281
_cell_length_c   12.27078474
_cell_angle_alpha   90.00000000
_cell_angle_beta   90.00000000
_cell_angle_gamma   90.00000000
_symmetry_Int_Tables_number   1
_chemical_formula_structural   Li3FeF5
_chemical_formula_sum   'Li24 Fe8 F40'
_cell_volume   773.70172528
_cell_formula_units_Z   8
loop_
 _symmetry_equiv_pos_site_id
 _symmetry_equiv_pos_as_xyz
  1  'x, y, z'
loop_
 _atom_site_type_symbol
 _atom_site_label
 _atom_site_symmetry_multiplicity
 _atom_site_fract_x
 _atom_site_fract_y
 _atom_site_fract_z
 _atom_site_occupancy
  Li  Li0  1  0.017427  0.302349  0.333194  1
  Li  Li1  1  0.017427  0.197651  0.833194  1
  Li  Li2  1  0.124045  0.078724  0.599263  1
  Li  Li3  1  0.124045  0.421276  0.099263  1
  Li  Li4  1  0.244179  0.538315  0.313877  1
  Li  Li5  1  0.244179  0.961685  0.813877  1
  Li  Li6  1  0.255821  0.038315  0.313877  1
  Li  Li7  1  0.255821  0.461685  0.813877  1
  Li  Li8  1  0.375955  0.921276  0.099263  1
  Li  Li9  1  0.375955  0.578724  0.599263  1
  Li  Li10  1  0.482573  0.697651  0.833194  1
  Li  Li11  1  0.482573  0.802349  0.333194  1
  Li  Li12  1  0.517427  0.302349  0.166806  1
  Li  Li13  1  0.517427  0.197651  0.666806  1
  Li  Li14  1  0.624045  0.421276  0.400737  1
  Li  Li15  1  0.624045  0.078724  0.900737  1
  Li  Li16  1  0.744179  0.538315  0.186123  1
  Li  Li17  1  0.744179  0.961685  0.686123  1
  Li  Li18  1  0.755821  0.461685  0.686123  1
  Li  Li19  1  0.755821  0.038315  0.186123  1
  Li  Li20  1  0.875955  0.921276  0.400737  1
  Li  Li21  1  0.875955  0.578724  0.900737  1
  Li  Li22  1  0.982573  0.802349  0.166806  1
  Li  Li23  1  0.982573  0.697651  0.666806  1
  Fe  Fe24  1  0.178261  0.158096  0.062724  1
  Fe  Fe25  1  0.178261  0.341904  0.562724  1
  Fe  Fe26  1  0.321739  0.658096  0.062724  1
  Fe  Fe27  1  0.321739  0.841904  0.562724  1
  Fe  Fe28  1  0.678261  0.158096  0.437276  1
  Fe  Fe29  1  0.678261  0.341904  0.937276  1
  Fe  Fe30  1  0.821739  0.658096  0.437276  1
  Fe  Fe31  1  0.821739  0.841904  0.937276  1
  F  F32  1  0.004684  0.615794  0.123363  1
  F  F33  1  0.004684  0.884206  0.623363  1
  F  F34  1  0.134287  0.669958  0.510309  1
  F  F35  1  0.134287  0.830042  0.010309  1
  F  F36  1  0.091384  0.490862  0.674611  1
  F  F37  1  0.091384  0.009138  0.174611  1
  F  F38  1  0.167904  0.278422  0.196838  1
  F  F39  1  0.167904  0.221578  0.696838  1
  F  F40  1  0.288664  0.103223  0.910182  1
  F  F41  1  0.288664  0.396777  0.410182  1
  F  F42  1  0.211336  0.603223  0.910182  1
  F  F43  1  0.211336  0.896777  0.410182  1
  F  F44  1  0.332096  0.778422  0.196838  1
  F  F45  1  0.332096  0.721578  0.696838  1
  F  F46  1  0.408616  0.990862  0.674611  1
  F  F47  1  0.408616  0.509138  0.174611  1
  F  F48  1  0.365713  0.169958  0.510309  1
  F  F49  1  0.365713  0.330042  0.010309  1
  F  F50  1  0.495316  0.115794  0.123363  1
  F  F51  1  0.495316  0.384206  0.623363  1
  F  F52  1  0.504684  0.884206  0.876637  1
  F  F53  1  0.504684  0.615794  0.376637  1
  F  F54  1  0.634287  0.669958  0.989691  1
  F  F55  1  0.634287  0.830042  0.489691  1
  F  F56  1  0.591384  0.490862  0.825389  1
  F  F57  1  0.591384  0.009138  0.325389  1
  F  F58  1  0.667904  0.221578  0.803162  1
  F  F59  1  0.667904  0.278422  0.303162  1
  F  F60  1  0.788664  0.396777  0.089818  1
  F  F61  1  0.788664  0.103223  0.589818  1
  F  F62  1  0.711336  0.603223  0.589818  1
  F  F63  1  0.711336  0.896777  0.089818  1
  F  F64  1  0.832096  0.778422  0.303162  1
  F  F65  1  0.832096  0.721578  0.803162  1
  F  F66  1  0.908616  0.509138  0.325389  1
  F  F67  1  0.908616  0.990862  0.825389  1
  F  F68  1  0.865713  0.330042  0.489691  1
  F  F69  1  0.865713  0.169958  0.989691  1
  F  F70  1  0.995316  0.115794  0.376637  1
  F  F71  1  0.995316  0.384206  0.876637  1
