# generated using pymatgen
data_Li3Cr2P4HO14
_symmetry_space_group_name_H-M   'P 1'
_cell_length_a   5.19500231
_cell_length_b   5.26461284
_cell_length_c   12.47320414
_cell_angle_alpha   100.66392323
_cell_angle_beta   90.34875985
_cell_angle_gamma   117.79983850
_symmetry_Int_Tables_number   1
_chemical_formula_structural   Li3Cr2P4HO14
_chemical_formula_sum   'Li3 Cr2 P4 H1 O14'
_cell_volume   294.87346036
_cell_formula_units_Z   1
loop_
 _symmetry_equiv_pos_site_id
 _symmetry_equiv_pos_as_xyz
  1  'x, y, z'
loop_
 _atom_site_type_symbol
 _atom_site_label
 _atom_site_symmetry_multiplicity
 _atom_site_fract_x
 _atom_site_fract_y
 _atom_site_fract_z
 _atom_site_occupancy
  Li  Li0  1  0.793502  0.182029  0.003074  1
  Li  Li1  1  0.000000  0.000000  0.500000  1
  Li  Li2  1  0.206498  0.817971  0.996926  1
  Cr  Cr3  1  0.802421  0.037183  0.237015  1
  Cr  Cr4  1  0.197579  0.962817  0.762985  1
  P  P5  1  0.708448  0.415044  0.374377  1
  P  P6  1  0.467289  0.428481  0.143525  1
  P  P7  1  0.532711  0.571519  0.856475  1
  P  P8  1  0.291552  0.584956  0.625623  1
  H  H9  1  0.500000  0.500000  0.500000  1
  O  O10  1  0.864133  0.232043  0.371564  1
  O  O11  1  0.697734  0.341892  0.125153  1
  O  O12  1  0.161871  0.252018  0.092764  1
  O  O13  1  0.439449  0.341542  0.275039  1
  O  O14  1  0.555453  0.321361  0.478100  1
  O  O15  1  0.436215  0.238180  0.885596  1
  O  O16  1  0.902702  0.742638  0.350840  1
  O  O17  1  0.097298  0.257362  0.649160  1
  O  O18  1  0.563785  0.761820  0.114404  1
  O  O19  1  0.444547  0.678639  0.521900  1
  O  O20  1  0.560551  0.658458  0.724961  1
  O  O21  1  0.838129  0.747982  0.907236  1
  O  O22  1  0.302266  0.658108  0.874847  1
  O  O23  1  0.135867  0.767957  0.628436  1
