# generated using pymatgen
data_LiCuBO3
_symmetry_space_group_name_H-M   'P 1'
_cell_length_a   8.09532917
_cell_length_b   8.09532917
_cell_length_c   3.05027662
_cell_angle_alpha   90.00000000
_cell_angle_beta   90.00000000
_cell_angle_gamma   120.00000000
_symmetry_Int_Tables_number   1
_chemical_formula_structural   LiCuBO3
_chemical_formula_sum   'Li3 Cu3 B3 O9'
_cell_volume   173.11666715
_cell_formula_units_Z   3
loop_
 _symmetry_equiv_pos_site_id
 _symmetry_equiv_pos_as_xyz
  1  'x, y, z'
loop_
 _atom_site_type_symbol
 _atom_site_label
 _atom_site_symmetry_multiplicity
 _atom_site_fract_x
 _atom_site_fract_y
 _atom_site_fract_z
 _atom_site_occupancy
  Li  Li0  1  0.612878  0.648066  0.500000  1
  Li  Li1  1  0.351934  0.964812  0.500000  1
  Li  Li2  1  0.035188  0.387122  0.500000  1
  Cu  Cu3  1  0.713774  0.033713  0.000000  1
  Cu  Cu4  1  0.966287  0.680061  0.000000  1
  Cu  Cu5  1  0.319939  0.286226  0.000000  1
  B  B6  1  0.666667  0.333333  0.500000  1
  B  B7  1  0.333333  0.666667  0.000000  1
  B  B8  1  0.000000  0.000000  0.500000  1
  O  O9  1  0.444440  0.581098  0.000000  1
  O  O10  1  0.470333  0.250734  0.500000  1
  O  O11  1  0.418902  0.863342  0.000000  1
  O  O12  1  0.780401  0.529667  0.500000  1
  O  O13  1  0.749266  0.219599  0.500000  1
  O  O14  1  0.803128  0.922023  0.500000  1
  O  O15  1  0.136658  0.555560  0.000000  1
  O  O16  1  0.118895  0.196872  0.500000  1
  O  O17  1  0.077977  0.881105  0.500000  1
