# generated using pymatgen
data_Fe9Cu3O16
_symmetry_space_group_name_H-M   'P 1'
_cell_length_a   6.01963475
_cell_length_b   6.05804771
_cell_length_c   8.51824384
_cell_angle_alpha   90.41009878
_cell_angle_beta   90.81327879
_cell_angle_gamma   90.58918940
_symmetry_Int_Tables_number   1
_chemical_formula_structural   Fe9Cu3O16
_chemical_formula_sum   'Fe9 Cu3 O16'
_cell_volume   310.58079395
_cell_formula_units_Z   1
loop_
 _symmetry_equiv_pos_site_id
 _symmetry_equiv_pos_as_xyz
  1  'x, y, z'
loop_
 _atom_site_type_symbol
 _atom_site_label
 _atom_site_symmetry_multiplicity
 _atom_site_fract_x
 _atom_site_fract_y
 _atom_site_fract_z
 _atom_site_occupancy
  Fe  Fe0  1  0.490982  0.755104  0.874216  1
  Fe  Fe1  1  0.007598  0.746651  0.628001  1
  Fe  Fe2  1  0.992402  0.253349  0.371999  1
  Fe  Fe3  1  0.751194  0.746673  0.246475  1
  Fe  Fe4  1  0.509018  0.244896  0.125784  1
  Fe  Fe5  1  0.500000  0.000000  0.500000  1
  Fe  Fe6  1  0.248806  0.253327  0.753525  1
  Fe  Fe7  1  0.000000  0.000000  0.000000  1
  Fe  Fe8  1  0.500000  0.500000  0.500000  1
  Cu  Cu9  1  0.249215  0.747335  0.247404  1
  Cu  Cu10  1  0.000000  0.500000  0.000000  1
  Cu  Cu11  1  0.750785  0.252665  0.752596  1
  O  O12  1  0.734083  0.751289  0.493171  1
  O  O13  1  0.507968  0.987377  0.261379  1
  O  O14  1  0.269570  0.748908  0.497310  1
  O  O15  1  0.245188  0.238121  0.991543  1
  O  O16  1  0.008023  0.486017  0.749191  1
  O  O17  1  0.009528  0.008731  0.758537  1
  O  O18  1  0.990472  0.991269  0.241463  1
  O  O19  1  0.766159  0.244577  0.997390  1
  O  O20  1  0.730430  0.251092  0.502690  1
  O  O21  1  0.509949  0.507647  0.259674  1
  O  O22  1  0.492032  0.012623  0.738621  1
  O  O23  1  0.490051  0.492353  0.740326  1
  O  O24  1  0.265917  0.248711  0.506829  1
  O  O25  1  0.233841  0.755423  0.002610  1
  O  O26  1  0.991977  0.513983  0.250809  1
  O  O27  1  0.754812  0.761879  0.008457  1
