# generated using pymatgen
data_Li6Co5Ni3O16
_symmetry_space_group_name_H-M   'P 1'
_cell_length_a   5.69063393
_cell_length_b   5.69063393
_cell_length_c   9.18676617
_cell_angle_alpha   88.60214739
_cell_angle_beta   91.39785261
_cell_angle_gamma   120.54935035
_symmetry_Int_Tables_number   1
_chemical_formula_structural   Li6Co5Ni3O16
_chemical_formula_sum   'Li6 Co5 Ni3 O16'
_cell_volume   256.10164436
_cell_formula_units_Z   1
loop_
 _symmetry_equiv_pos_site_id
 _symmetry_equiv_pos_as_xyz
  1  'x, y, z'
loop_
 _atom_site_type_symbol
 _atom_site_label
 _atom_site_symmetry_multiplicity
 _atom_site_fract_x
 _atom_site_fract_y
 _atom_site_fract_z
 _atom_site_occupancy
  Li  Li0  1  0.829316  0.170684  0.551098  1
  Li  Li1  1  0.333916  0.170844  0.553676  1
  Li  Li2  1  0.829156  0.666084  0.553676  1
  Li  Li3  1  0.166272  0.333276  0.049544  1
  Li  Li4  1  0.666724  0.833728  0.049544  1
  Li  Li5  1  0.167119  0.832881  0.054398  1
  Co  Co6  1  0.829269  0.170731  0.285609  1
  Co  Co7  1  0.669623  0.330377  0.011575  1
  Co  Co8  1  0.170031  0.339027  0.785401  1
  Co  Co9  1  0.660973  0.829969  0.785401  1
  Co  Co10  1  0.331668  0.668332  0.513560  1
  Ni  Ni11  1  0.337366  0.167226  0.286030  1
  Ni  Ni12  1  0.832774  0.662634  0.286030  1
  Ni  Ni13  1  0.168049  0.831951  0.787461  1
  O  O14  1  0.838274  0.161726  0.903315  1
  O  O15  1  0.529960  0.033709  0.149295  1
  O  O16  1  0.966291  0.470040  0.149295  1
  O  O17  1  0.671973  0.328027  0.394107  1
  O  O18  1  0.324907  0.166421  0.910950  1
  O  O19  1  0.523708  0.476292  0.147907  1
  O  O20  1  0.156567  0.336543  0.413838  1
  O  O21  1  0.833579  0.675093  0.910950  1
  O  O22  1  0.480963  0.519037  0.658907  1
  O  O23  1  0.663457  0.843433  0.413838  1
  O  O24  1  0.039191  0.515831  0.652926  1
  O  O25  1  0.337507  0.662493  0.893006  1
  O  O26  1  0.484169  0.960809  0.652926  1
  O  O27  1  0.159377  0.840623  0.413330  1
  O  O28  1  0.993896  0.006104  0.183451  1
  O  O29  1  0.997126  0.002874  0.682988  1
