# generated using pymatgen
data_Li4SbTe2WO12
_symmetry_space_group_name_H-M   'P 1'
_cell_length_a   5.26904233
_cell_length_b   5.68942493
_cell_length_c   7.73917530
_cell_angle_alpha   95.71832174
_cell_angle_beta   90.22099199
_cell_angle_gamma   89.99980500
_symmetry_Int_Tables_number   1
_chemical_formula_structural   Li4SbTe2WO12
_chemical_formula_sum   'Li4 Sb1 Te2 W1 O12'
_cell_volume   230.84737028
_cell_formula_units_Z   1
loop_
 _symmetry_equiv_pos_site_id
 _symmetry_equiv_pos_as_xyz
  1  'x, y, z'
loop_
 _atom_site_type_symbol
 _atom_site_label
 _atom_site_symmetry_multiplicity
 _atom_site_fract_x
 _atom_site_fract_y
 _atom_site_fract_z
 _atom_site_occupancy
  Li  Li0  1  0.005034  0.578295  0.704471  1
  Li  Li1  1  0.495589  0.094007  0.209799  1
  Li  Li2  1  0.010663  0.551684  0.229407  1
  Li  Li3  1  0.491561  0.058091  0.716149  1
  Sb  Sb4  1  0.502107  0.507426  0.496468  1
  Te  Te5  1  0.004814  0.006027  0.485818  1
  Te  Te6  1  0.494393  0.536480  0.993828  1
  W  W7  1  0.997081  0.008962  0.994679  1
  O  O8  1  0.293358  0.800172  0.577769  1
  O  O9  1  0.136507  0.963507  0.249022  1
  O  O10  1  0.306553  0.124258  0.937962  1
  O  O11  1  0.204097  0.301881  0.575554  1
  O  O12  1  0.851545  0.282853  0.089097  1
  O  O13  1  0.369388  0.471307  0.256692  1
  O  O14  1  0.635805  0.507615  0.738825  1
  O  O15  1  0.155434  0.669040  0.950624  1
  O  O16  1  0.821354  0.682891  0.439125  1
  O  O17  1  0.683294  0.823635  0.075432  1
  O  O18  1  0.855837  0.989864  0.770335  1
  O  O19  1  0.685587  0.184402  0.437746  1
