# generated using pymatgen
data_Na2CuO2
_symmetry_space_group_name_H-M   'P 1'
_cell_length_a   8.76589171
_cell_length_b   5.70762968
_cell_length_c   11.49088975
_cell_angle_alpha   90.00000000
_cell_angle_beta   92.48241531
_cell_angle_gamma   90.00000000
_symmetry_Int_Tables_number   1
_chemical_formula_structural   Na2CuO2
_chemical_formula_sum   'Na16 Cu8 O16'
_cell_volume   574.37799973
_cell_formula_units_Z   8
loop_
 _symmetry_equiv_pos_site_id
 _symmetry_equiv_pos_as_xyz
  1  'x, y, z'
loop_
 _atom_site_type_symbol
 _atom_site_label
 _atom_site_symmetry_multiplicity
 _atom_site_fract_x
 _atom_site_fract_y
 _atom_site_fract_z
 _atom_site_occupancy
  Na  Na0  1  0.146205  0.530656  0.974873  1
  Na  Na1  1  0.485862  0.894299  0.926821  1
  Na  Na2  1  0.807963  0.573611  0.865948  1
  Na  Na3  1  0.435857  0.352858  0.789290  1
  Na  Na4  1  0.054287  0.649633  0.707987  1
  Na  Na5  1  0.685059  0.447420  0.627780  1
  Na  Na6  1  0.337805  0.450254  0.514444  1
  Na  Na7  1  0.009020  0.097267  0.575224  1
  Na  Na8  1  0.990980  0.597267  0.424776  1
  Na  Na9  1  0.662195  0.950254  0.485556  1
  Na  Na10  1  0.314941  0.947420  0.372220  1
  Na  Na11  1  0.945713  0.149633  0.292013  1
  Na  Na12  1  0.564143  0.852858  0.210710  1
  Na  Na13  1  0.192037  0.073611  0.134052  1
  Na  Na14  1  0.514138  0.394299  0.073179  1
  Na  Na15  1  0.853795  0.030656  0.025127  1
  Cu  Cu16  1  0.166695  0.081761  0.882143  1
  Cu  Cu17  1  0.886176  0.055137  0.785274  1
  Cu  Cu18  1  0.612766  0.967870  0.716499  1
  Cu  Cu19  1  0.334980  0.895618  0.624548  1
  Cu  Cu20  1  0.665020  0.395618  0.375452  1
  Cu  Cu21  1  0.387234  0.467870  0.283501  1
  Cu  Cu22  1  0.113824  0.555137  0.214726  1
  Cu  Cu23  1  0.833305  0.581761  0.117857  1
  O  O24  1  0.333411  0.222025  0.958688  1
  O  O25  1  0.021523  0.838273  0.887837  1
  O  O26  1  0.046218  0.283285  0.777674  1
  O  O27  1  0.699802  0.221597  0.807118  1
  O  O28  1  0.462795  0.720695  0.734212  1
  O  O29  1  0.806245  0.804536  0.672596  1
  O  O30  1  0.469664  0.154010  0.612564  1
  O  O31  1  0.168326  0.778962  0.541355  1
  O  O32  1  0.831674  0.278962  0.458645  1
  O  O33  1  0.530336  0.654010  0.387436  1
  O  O34  1  0.193755  0.304536  0.327404  1
  O  O35  1  0.537205  0.220695  0.265788  1
  O  O36  1  0.300198  0.721597  0.192882  1
  O  O37  1  0.953782  0.783285  0.222326  1
  O  O38  1  0.978477  0.338273  0.112163  1
  O  O39  1  0.666589  0.722025  0.041312  1
