# generated using pymatgen
data_Li2SbP(OF3)2
_symmetry_space_group_name_H-M   'P 1'
_cell_length_a   6.08697380
_cell_length_b   7.87126387
_cell_length_c   8.17248625
_cell_angle_alpha   88.15737708
_cell_angle_beta   85.61715443
_cell_angle_gamma   77.78729866
_symmetry_Int_Tables_number   1
_chemical_formula_structural   Li2SbP(OF3)2
_chemical_formula_sum   'Li4 Sb2 P2 O4 F12'
_cell_volume   381.52968903
_cell_formula_units_Z   2
loop_
 _symmetry_equiv_pos_site_id
 _symmetry_equiv_pos_as_xyz
  1  'x, y, z'
loop_
 _atom_site_type_symbol
 _atom_site_label
 _atom_site_symmetry_multiplicity
 _atom_site_fract_x
 _atom_site_fract_y
 _atom_site_fract_z
 _atom_site_occupancy
  Li  Li0  1  0.927243  0.385976  0.955801  1
  Li  Li1  1  0.707222  0.064148  0.418875  1
  Li  Li2  1  0.300514  0.914778  0.590080  1
  Li  Li3  1  0.102578  0.647436  0.414586  1
  Sb  Sb4  1  0.587626  0.740052  0.214247  1
  Sb  Sb5  1  0.430017  0.241211  0.768080  1
  P  P6  1  0.757101  0.812637  0.791049  1
  P  P7  1  0.223354  0.196694  0.231321  1
  O  O8  1  0.736945  0.833225  0.973072  1
  O  O9  1  0.585354  0.916999  0.686240  1
  O  O10  1  0.432622  0.075446  0.280283  1
  O  O11  1  0.172610  0.226976  0.055955  1
  F  F12  1  0.864559  0.825533  0.392436  1
  F  F13  1  0.785694  0.616342  0.747805  1
  F  F14  1  0.010647  0.142731  0.326082  1
  F  F15  1  0.764593  0.496935  0.152443  1
  F  F16  1  0.726294  0.294438  0.858860  1
  F  F17  1  0.589901  0.271720  0.546980  1
  F  F18  1  0.356449  0.725317  0.444951  1
  F  F19  1  0.324780  0.705383  0.101139  1
  F  F20  1  0.224109  0.476426  0.762791  1
  F  F21  1  0.997136  0.844410  0.727382  1
  F  F22  1  0.206019  0.379694  0.314940  1
  F  F23  1  0.200327  0.150150  0.622319  1
