# generated using pymatgen
data_Li2VCrP2(HO5)2
_symmetry_space_group_name_H-M   'P 1'
_cell_length_a   5.16801600
_cell_length_b   7.38183933
_cell_length_c   10.65397072
_cell_angle_alpha   104.48853746
_cell_angle_beta   97.04327209
_cell_angle_gamma   108.95245482
_symmetry_Int_Tables_number   1
_chemical_formula_structural   Li2VCrP2(HO5)2
_chemical_formula_sum   'Li4 V2 Cr2 P4 H4 O20'
_cell_volume   362.84253912
_cell_formula_units_Z   2
loop_
 _symmetry_equiv_pos_site_id
 _symmetry_equiv_pos_as_xyz
  1  'x, y, z'
loop_
 _atom_site_type_symbol
 _atom_site_label
 _atom_site_symmetry_multiplicity
 _atom_site_fract_x
 _atom_site_fract_y
 _atom_site_fract_z
 _atom_site_occupancy
  Li  Li0  1  0.548210  0.623316  0.800944  1
  Li  Li1  1  0.951341  0.874519  0.697986  1
  Li  Li2  1  0.048659  0.125481  0.302014  1
  Li  Li3  1  0.451790  0.376684  0.199056  1
  V  V4  1  0.000000  0.000000  0.000000  1
  V  V5  1  0.500000  0.000000  0.500000  1
  Cr  Cr6  1  0.000000  0.500000  0.000000  1
  Cr  Cr7  1  0.500000  0.500000  0.500000  1
  P  P8  1  0.497822  0.052886  0.819704  1
  P  P9  1  0.004442  0.448992  0.680270  1
  P  P10  1  0.995558  0.551008  0.319730  1
  P  P11  1  0.502178  0.947114  0.180296  1
  H  H12  1  0.330934  0.312290  0.970708  1
  H  H13  1  0.170369  0.192674  0.529761  1
  H  H14  1  0.829631  0.807326  0.470239  1
  H  H15  1  0.669066  0.687710  0.029292  1
  O  O16  1  0.815407  0.698752  0.976537  1
  O  O17  1  0.625500  0.279540  0.898205  1
  O  O18  1  0.134154  0.488577  0.828262  1
  O  O19  1  0.244609  0.946318  0.873162  1
  O  O20  1  0.717387  0.950121  0.829981  1
  O  O21  1  0.783493  0.550102  0.669533  1
  O  O22  1  0.257255  0.554663  0.625836  1
  O  O23  1  0.368597  0.015670  0.672073  1
  O  O24  1  0.876380  0.221549  0.602295  1
  O  O25  1  0.311787  0.202499  0.474475  1
  O  O26  1  0.688213  0.797501  0.525525  1
  O  O27  1  0.123620  0.778451  0.397705  1
  O  O28  1  0.631403  0.984330  0.327927  1
  O  O29  1  0.742745  0.445337  0.374164  1
  O  O30  1  0.216507  0.449898  0.330467  1
  O  O31  1  0.282613  0.049879  0.170019  1
  O  O32  1  0.755391  0.053682  0.126838  1
  O  O33  1  0.865846  0.511423  0.171738  1
  O  O34  1  0.374500  0.720460  0.101795  1
  O  O35  1  0.184593  0.301248  0.023463  1
