# generated using pymatgen
data_Ba5La2Cl16
_symmetry_space_group_name_H-M   'P 1'
_cell_length_a   9.56317258
_cell_length_b   9.56317258
_cell_length_c   19.33272002
_cell_angle_alpha   90.00000000
_cell_angle_beta   90.00000000
_cell_angle_gamma   115.46742278
_symmetry_Int_Tables_number   1
_chemical_formula_structural   Ba5La2Cl16
_chemical_formula_sum   'Ba10 La4 Cl32'
_cell_volume   1596.25727692
_cell_formula_units_Z   2
loop_
 _symmetry_equiv_pos_site_id
 _symmetry_equiv_pos_as_xyz
  1  'x, y, z'
loop_
 _atom_site_type_symbol
 _atom_site_label
 _atom_site_symmetry_multiplicity
 _atom_site_fract_x
 _atom_site_fract_y
 _atom_site_fract_z
 _atom_site_occupancy
  Ba  Ba0  1  0.000000  0.500000  0.133407  1
  Ba  Ba1  1  0.000000  0.500000  0.633407  1
  Ba  Ba2  1  0.500000  0.500000  0.223549  1
  Ba  Ba3  1  0.500000  0.500000  0.776451  1
  Ba  Ba4  1  0.000000  0.000000  0.276451  1
  Ba  Ba5  1  0.000000  0.000000  0.000000  1
  Ba  Ba6  1  0.500000  0.500000  0.500000  1
  Ba  Ba7  1  0.000000  0.000000  0.723549  1
  Ba  Ba8  1  0.500000  0.000000  0.866593  1
  Ba  Ba9  1  0.500000  0.000000  0.366593  1
  La  La10  1  0.000000  0.500000  0.882083  1
  La  La11  1  0.000000  0.500000  0.382083  1
  La  La12  1  0.500000  0.000000  0.117917  1
  La  La13  1  0.500000  0.000000  0.617917  1
  Cl  Cl14  1  0.971606  0.301078  0.774294  1
  Cl  Cl15  1  0.801078  0.471606  0.274294  1
  Cl  Cl16  1  0.827644  0.518887  0.492583  1
  Cl  Cl17  1  0.018887  0.327644  0.992583  1
  Cl  Cl18  1  0.377724  0.274154  0.349486  1
  Cl  Cl19  1  0.274154  0.377724  0.650514  1
  Cl  Cl20  1  0.774154  0.877724  0.849486  1
  Cl  Cl21  1  0.877724  0.774154  0.150514  1
  Cl  Cl22  1  0.981113  0.672356  0.992583  1
  Cl  Cl23  1  0.172356  0.481113  0.492583  1
  Cl  Cl24  1  0.028394  0.698922  0.774294  1
  Cl  Cl25  1  0.198922  0.528394  0.274294  1
  Cl  Cl26  1  0.629142  0.325883  0.114963  1
  Cl  Cl27  1  0.129142  0.825883  0.385037  1
  Cl  Cl28  1  0.325883  0.629142  0.885037  1
  Cl  Cl29  1  0.825883  0.129142  0.614963  1
  Cl  Cl30  1  0.674117  0.370858  0.885037  1
  Cl  Cl31  1  0.370858  0.674117  0.114963  1
  Cl  Cl32  1  0.870858  0.174117  0.385037  1
  Cl  Cl33  1  0.174117  0.870858  0.614963  1
  Cl  Cl34  1  0.471606  0.801078  0.725706  1
  Cl  Cl35  1  0.301078  0.971606  0.225706  1
  Cl  Cl36  1  0.518887  0.827644  0.507417  1
  Cl  Cl37  1  0.327644  0.018887  0.007417  1
  Cl  Cl38  1  0.725846  0.622276  0.650514  1
  Cl  Cl39  1  0.622276  0.725846  0.349486  1
  Cl  Cl40  1  0.122276  0.225846  0.150514  1
  Cl  Cl41  1  0.225846  0.122276  0.849486  1
  Cl  Cl42  1  0.481113  0.172356  0.507417  1
  Cl  Cl43  1  0.672356  0.981113  0.007417  1
  Cl  Cl44  1  0.698922  0.028394  0.225706  1
  Cl  Cl45  1  0.528394  0.198922  0.725706  1
