# generated using pymatgen
data_V4Si4O13
_symmetry_space_group_name_H-M   'P 1'
_cell_length_a   6.96106432
_cell_length_b   7.82975274
_cell_length_c   10.11539208
_cell_angle_alpha   67.72909796
_cell_angle_beta   79.87247577
_cell_angle_gamma   77.60808739
_symmetry_Int_Tables_number   1
_chemical_formula_structural   V4Si4O13
_chemical_formula_sum   'V8 Si8 O26'
_cell_volume   495.57798716
_cell_formula_units_Z   2
loop_
 _symmetry_equiv_pos_site_id
 _symmetry_equiv_pos_as_xyz
  1  'x, y, z'
loop_
 _atom_site_type_symbol
 _atom_site_label
 _atom_site_symmetry_multiplicity
 _atom_site_fract_x
 _atom_site_fract_y
 _atom_site_fract_z
 _atom_site_occupancy
  V  V0  1  0.080395  0.198546  0.992137  1
  V  V1  1  0.575785  0.196321  0.987454  1
  V  V2  1  0.576587  0.555790  0.625726  1
  V  V3  1  0.077260  0.551101  0.621878  1
  V  V4  1  0.922740  0.448899  0.378122  1
  V  V5  1  0.423413  0.444210  0.374274  1
  V  V6  1  0.424215  0.803679  0.012546  1
  V  V7  1  0.919605  0.801454  0.007863  1
  Si  Si8  1  0.265695  0.589339  0.825784  1
  Si  Si9  1  0.728318  0.854849  0.717385  1
  Si  Si10  1  0.378164  0.152937  0.711350  1
  Si  Si11  1  0.932498  0.156940  0.709094  1
  Si  Si12  1  0.067502  0.843060  0.290906  1
  Si  Si13  1  0.621836  0.847063  0.288650  1
  Si  Si14  1  0.271682  0.145151  0.282615  1
  Si  Si15  1  0.734305  0.410661  0.174216  1
  O  O16  1  0.371471  0.109470  0.884804  1
  O  O17  1  0.877544  0.103159  0.885290  1
  O  O18  1  0.193723  0.725106  0.921553  1
  O  O19  1  0.101968  0.448879  0.849234  1
  O  O20  1  0.494828  0.468640  0.839809  1
  O  O21  1  0.719038  0.769179  0.892560  1
  O  O22  1  0.415908  0.365647  0.603011  1
  O  O23  1  0.850457  0.374821  0.611827  1
  O  O24  1  0.285883  0.697931  0.650010  1
  O  O25  1  0.776872  0.699724  0.639859  1
  O  O26  1  0.166104  0.144910  0.677180  1
  O  O27  1  0.518604  0.985363  0.668121  1
  O  O28  1  0.886590  0.000830  0.655960  1
  O  O29  1  0.113410  0.999170  0.344040  1
  O  O30  1  0.481396  0.014637  0.331879  1
  O  O31  1  0.833896  0.855090  0.322820  1
  O  O32  1  0.223128  0.300276  0.360141  1
  O  O33  1  0.714117  0.302069  0.349990  1
  O  O34  1  0.149543  0.625179  0.388173  1
  O  O35  1  0.584092  0.634353  0.396989  1
  O  O36  1  0.280962  0.230821  0.107440  1
  O  O37  1  0.505172  0.531360  0.160191  1
  O  O38  1  0.898032  0.551121  0.150766  1
  O  O39  1  0.806277  0.274894  0.078447  1
  O  O40  1  0.122456  0.896841  0.114710  1
  O  O41  1  0.628529  0.890530  0.115196  1
