# generated using pymatgen
data_LiMnOF2
_symmetry_space_group_name_H-M   'P 1'
_cell_length_a   5.38036681
_cell_length_b   5.54916060
_cell_length_c   7.07809185
_cell_angle_alpha   90.00000000
_cell_angle_beta   90.00000000
_cell_angle_gamma   90.00000000
_symmetry_Int_Tables_number   1
_chemical_formula_structural   LiMnOF2
_chemical_formula_sum   'Li4 Mn4 O4 F8'
_cell_volume   211.32718745
_cell_formula_units_Z   4
loop_
 _symmetry_equiv_pos_site_id
 _symmetry_equiv_pos_as_xyz
  1  'x, y, z'
loop_
 _atom_site_type_symbol
 _atom_site_label
 _atom_site_symmetry_multiplicity
 _atom_site_fract_x
 _atom_site_fract_y
 _atom_site_fract_z
 _atom_site_occupancy
  Li  Li0  1  0.959984  0.948722  0.250000  1
  Li  Li1  1  0.540016  0.448722  0.750000  1
  Li  Li2  1  0.459984  0.551278  0.250000  1
  Li  Li3  1  0.040016  0.051278  0.750000  1
  Mn  Mn4  1  0.000000  0.500000  0.000000  1
  Mn  Mn5  1  0.000000  0.500000  0.500000  1
  Mn  Mn6  1  0.500000  0.000000  0.000000  1
  Mn  Mn7  1  0.500000  0.000000  0.500000  1
  O  O8  1  0.932388  0.399169  0.750000  1
  O  O9  1  0.567612  0.899169  0.250000  1
  O  O10  1  0.432388  0.100831  0.750000  1
  O  O11  1  0.067612  0.600831  0.250000  1
  F  F12  1  0.825406  0.854209  0.562152  1
  F  F13  1  0.825406  0.854209  0.937848  1
  F  F14  1  0.674594  0.354209  0.062152  1
  F  F15  1  0.674594  0.354209  0.437848  1
  F  F16  1  0.325406  0.645791  0.937848  1
  F  F17  1  0.325406  0.645791  0.562152  1
  F  F18  1  0.174594  0.145791  0.062152  1
  F  F19  1  0.174594  0.145791  0.437848  1
