# generated using pymatgen
data_CsGaH24(SO10)2
_symmetry_space_group_name_H-M   'P 1'
_cell_length_a   12.43270394
_cell_length_b   12.43270394
_cell_length_c   12.43270394
_cell_angle_alpha   90.00000000
_cell_angle_beta   90.00000000
_cell_angle_gamma   90.00000000
_symmetry_Int_Tables_number   1
_chemical_formula_structural   CsGaH24(SO10)2
_chemical_formula_sum   'Cs4 Ga4 H96 S8 O80'
_cell_volume   1921.74949560
_cell_formula_units_Z   4
loop_
 _symmetry_equiv_pos_site_id
 _symmetry_equiv_pos_as_xyz
  1  'x, y, z'
loop_
 _atom_site_type_symbol
 _atom_site_label
 _atom_site_symmetry_multiplicity
 _atom_site_fract_x
 _atom_site_fract_y
 _atom_site_fract_z
 _atom_site_occupancy
  Cs  Cs0  1  0.000000  0.000000  0.500000  1
  Cs  Cs1  1  0.000000  0.500000  0.000000  1
  Cs  Cs2  1  0.500000  0.000000  0.000000  1
  Cs  Cs3  1  0.500000  0.500000  0.500000  1
  Ga  Ga4  1  0.500000  0.500000  0.000000  1
  Ga  Ga5  1  0.500000  0.000000  0.500000  1
  Ga  Ga6  1  0.000000  0.500000  0.500000  1
  Ga  Ga7  1  0.000000  0.000000  0.000000  1
  H  H8  1  0.221619  0.509077  0.230613  1
  H  H9  1  0.778381  0.009077  0.269387  1
  H  H10  1  0.278381  0.490923  0.730613  1
  H  H11  1  0.721619  0.990923  0.769387  1
  H  H12  1  0.230613  0.221619  0.509077  1
  H  H13  1  0.269387  0.778381  0.009077  1
  H  H14  1  0.730613  0.278381  0.490923  1
  H  H15  1  0.769387  0.721619  0.990923  1
  H  H16  1  0.509077  0.230613  0.221619  1
  H  H17  1  0.009077  0.269387  0.778381  1
  H  H18  1  0.490923  0.730613  0.278381  1
  H  H19  1  0.990923  0.769387  0.721619  1
  H  H20  1  0.778381  0.490923  0.769387  1
  H  H21  1  0.221619  0.990923  0.730613  1
  H  H22  1  0.721619  0.509077  0.269387  1
  H  H23  1  0.278381  0.009077  0.230613  1
  H  H24  1  0.769387  0.778381  0.490923  1
  H  H25  1  0.730613  0.221619  0.990923  1
  H  H26  1  0.269387  0.721619  0.509077  1
  H  H27  1  0.230613  0.278381  0.009077  1
  H  H28  1  0.490923  0.769387  0.778381  1
  H  H29  1  0.990923  0.730613  0.221619  1
  H  H30  1  0.509077  0.269387  0.721619  1
  H  H31  1  0.009077  0.230613  0.278381  1
  H  H32  1  0.181277  0.627705  0.221852  1
  H  H33  1  0.818723  0.127705  0.278148  1
  H  H34  1  0.318723  0.372295  0.721852  1
  H  H35  1  0.681277  0.872295  0.778148  1
  H  H36  1  0.221852  0.181277  0.627705  1
  H  H37  1  0.278148  0.818723  0.127705  1
  H  H38  1  0.721852  0.318723  0.372295  1
  H  H39  1  0.778148  0.681277  0.872295  1
  H  H40  1  0.627705  0.221852  0.181277  1
  H  H41  1  0.127705  0.278148  0.818723  1
  H  H42  1  0.372295  0.721852  0.318723  1
  H  H43  1  0.872295  0.778148  0.681277  1
  H  H44  1  0.818723  0.372295  0.778148  1
  H  H45  1  0.181277  0.872295  0.721852  1
  H  H46  1  0.681277  0.627705  0.278148  1
  H  H47  1  0.318723  0.127705  0.221852  1
  H  H48  1  0.778148  0.818723  0.372295  1
  H  H49  1  0.721852  0.181277  0.872295  1
  H  H50  1  0.278148  0.681277  0.627705  1
  H  H51  1  0.221852  0.318723  0.127705  1
  H  H52  1  0.372295  0.778148  0.818723  1
  H  H53  1  0.872295  0.721852  0.181277  1
  H  H54  1  0.627705  0.278148  0.681277  1
  H  H55  1  0.127705  0.221852  0.318723  1
  H  H56  1  0.477611  0.706434  0.935303  1
  H  H57  1  0.522389  0.206434  0.564697  1
  H  H58  1  0.022389  0.293566  0.435303  1
  H  H59  1  0.977611  0.793566  0.064697  1
  H  H60  1  0.935303  0.477611  0.706434  1
  H  H61  1  0.564697  0.522389  0.206434  1
  H  H62  1  0.435303  0.022389  0.293566  1
  H  H63  1  0.064697  0.977611  0.793566  1
  H  H64  1  0.706434  0.935303  0.477611  1
  H  H65  1  0.206434  0.564697  0.522389  1
  H  H66  1  0.293566  0.435303  0.022389  1
  H  H67  1  0.793566  0.064697  0.977611  1
  H  H68  1  0.522389  0.293566  0.064697  1
  H  H69  1  0.477611  0.793566  0.435303  1
  H  H70  1  0.977611  0.706434  0.564697  1
  H  H71  1  0.022389  0.206434  0.935303  1
  H  H72  1  0.064697  0.522389  0.293566  1
  H  H73  1  0.435303  0.477611  0.793566  1
  H  H74  1  0.564697  0.977611  0.706434  1
  H  H75  1  0.935303  0.022389  0.206434  1
  H  H76  1  0.293566  0.064697  0.522389  1
  H  H77  1  0.793566  0.435303  0.477611  1
  H  H78  1  0.706434  0.564697  0.977611  1
  H  H79  1  0.206434  0.935303  0.022389  1
  H  H80  1  0.523850  0.702499  0.061543  1
  H  H81  1  0.476150  0.202499  0.438457  1
  H  H82  1  0.976150  0.297501  0.561543  1
  H  H83  1  0.023850  0.797501  0.938457  1
  H  H84  1  0.061543  0.523850  0.702499  1
  H  H85  1  0.438457  0.476150  0.202499  1
  H  H86  1  0.561543  0.976150  0.297501  1
  H  H87  1  0.938457  0.023850  0.797501  1
  H  H88  1  0.702499  0.061543  0.523850  1
  H  H89  1  0.202499  0.438457  0.476150  1
  H  H90  1  0.297501  0.561543  0.976150  1
  H  H91  1  0.797501  0.938457  0.023850  1
  H  H92  1  0.476150  0.297501  0.938457  1
  H  H93  1  0.523850  0.797501  0.561543  1
  H  H94  1  0.023850  0.702499  0.438457  1
  H  H95  1  0.976150  0.202499  0.061543  1
  H  H96  1  0.938457  0.476150  0.297501  1
  H  H97  1  0.561543  0.523850  0.797501  1
  H  H98  1  0.438457  0.023850  0.702499  1
  H  H99  1  0.061543  0.976150  0.202499  1
  H  H100  1  0.297501  0.938457  0.476150  1
  H  H101  1  0.797501  0.561543  0.523850  1
  H  H102  1  0.702499  0.438457  0.023850  1
  H  H103  1  0.202499  0.061543  0.976150  1
  S  S104  1  0.171980  0.828020  0.328020  1
  S  S105  1  0.828020  0.328020  0.171980  1
  S  S106  1  0.328020  0.171980  0.828020  1
  S  S107  1  0.671980  0.671980  0.671980  1
  S  S108  1  0.828020  0.171980  0.671980  1
  S  S109  1  0.171980  0.671980  0.828020  1
  S  S110  1  0.671980  0.828020  0.171980  1
  S  S111  1  0.328020  0.328020  0.328020  1
  O  O112  1  0.241780  0.758220  0.258220  1
  O  O113  1  0.758220  0.258220  0.241780  1
  O  O114  1  0.258220  0.241780  0.758220  1
  O  O115  1  0.741780  0.741780  0.741780  1
  O  O116  1  0.758220  0.241780  0.741780  1
  O  O117  1  0.241780  0.741780  0.758220  1
  O  O118  1  0.741780  0.758220  0.241780  1
  O  O119  1  0.258220  0.258220  0.258220  1
  O  O120  1  0.062152  0.780065  0.336361  1
  O  O121  1  0.937848  0.280065  0.163639  1
  O  O122  1  0.437848  0.219935  0.836361  1
  O  O123  1  0.562152  0.719935  0.663639  1
  O  O124  1  0.336361  0.062152  0.780065  1
  O  O125  1  0.163639  0.937848  0.280065  1
  O  O126  1  0.836361  0.437848  0.219935  1
  O  O127  1  0.663639  0.562152  0.719935  1
  O  O128  1  0.780065  0.336361  0.062152  1
  O  O129  1  0.280065  0.163639  0.937848  1
  O  O130  1  0.219935  0.836361  0.437848  1
  O  O131  1  0.719935  0.663639  0.562152  1
  O  O132  1  0.937848  0.219935  0.663639  1
  O  O133  1  0.062152  0.719935  0.836361  1
  O  O134  1  0.562152  0.780065  0.163639  1
  O  O135  1  0.437848  0.280065  0.336361  1
  O  O136  1  0.663639  0.937848  0.219935  1
  O  O137  1  0.836361  0.062152  0.719935  1
  O  O138  1  0.163639  0.562152  0.780065  1
  O  O139  1  0.336361  0.437848  0.280065  1
  O  O140  1  0.219935  0.663639  0.937848  1
  O  O141  1  0.719935  0.836361  0.062152  1
  O  O142  1  0.780065  0.163639  0.562152  1
  O  O143  1  0.280065  0.336361  0.437848  1
  O  O144  1  0.157571  0.552611  0.211059  1
  O  O145  1  0.842429  0.052611  0.288941  1
  O  O146  1  0.342429  0.447389  0.711059  1
  O  O147  1  0.657571  0.947389  0.788941  1
  O  O148  1  0.211059  0.157571  0.552611  1
  O  O149  1  0.288941  0.842429  0.052611  1
  O  O150  1  0.711059  0.342429  0.447389  1
  O  O151  1  0.788941  0.657571  0.947389  1
  O  O152  1  0.552611  0.211059  0.157571  1
  O  O153  1  0.052611  0.288941  0.842429  1
  O  O154  1  0.447389  0.711059  0.342429  1
  O  O155  1  0.947389  0.788941  0.657571  1
  O  O156  1  0.842429  0.447389  0.788941  1
  O  O157  1  0.157571  0.947389  0.711059  1
  O  O158  1  0.657571  0.552611  0.288941  1
  O  O159  1  0.342429  0.052611  0.211059  1
  O  O160  1  0.788941  0.842429  0.447389  1
  O  O161  1  0.711059  0.157571  0.947389  1
  O  O162  1  0.288941  0.657571  0.552611  1
  O  O163  1  0.211059  0.342429  0.052611  1
  O  O164  1  0.447389  0.788941  0.842429  1
  O  O165  1  0.947389  0.711059  0.157571  1
  O  O166  1  0.552611  0.288941  0.657571  1
  O  O167  1  0.052611  0.211059  0.342429  1
  O  O168  1  0.500553  0.658866  0.998132  1
  O  O169  1  0.499447  0.158866  0.501868  1
  O  O170  1  0.999447  0.341134  0.498132  1
  O  O171  1  0.000553  0.841134  0.001868  1
  O  O172  1  0.998132  0.500553  0.658866  1
  O  O173  1  0.501868  0.499447  0.158866  1
  O  O174  1  0.498132  0.999447  0.341134  1
  O  O175  1  0.001868  0.000553  0.841134  1
  O  O176  1  0.658866  0.998132  0.500553  1
  O  O177  1  0.158866  0.501868  0.499447  1
  O  O178  1  0.341134  0.498132  0.999447  1
  O  O179  1  0.841134  0.001868  0.000553  1
  O  O180  1  0.499447  0.341134  0.001868  1
  O  O181  1  0.500553  0.841134  0.498132  1
  O  O182  1  0.000553  0.658866  0.501868  1
  O  O183  1  0.999447  0.158866  0.998132  1
  O  O184  1  0.001868  0.499447  0.341134  1
  O  O185  1  0.498132  0.500553  0.841134  1
  O  O186  1  0.501868  0.000553  0.658866  1
  O  O187  1  0.998132  0.999447  0.158866  1
  O  O188  1  0.341134  0.001868  0.499447  1
  O  O189  1  0.841134  0.498132  0.500553  1
  O  O190  1  0.658866  0.501868  0.000553  1
  O  O191  1  0.158866  0.998132  0.999447  1
