# generated using pymatgen
data_Er2P4O13
_symmetry_space_group_name_H-M   'P 1'
_cell_length_a   8.78152567
_cell_length_b   9.61420578
_cell_length_c   13.89914706
_cell_angle_alpha   90.00000000
_cell_angle_beta   106.20902203
_cell_angle_gamma   90.00000000
_symmetry_Int_Tables_number   1
_chemical_formula_structural   Er2P4O13
_chemical_formula_sum   'Er8 P16 O52'
_cell_volume   1126.82309082
_cell_formula_units_Z   4
loop_
 _symmetry_equiv_pos_site_id
 _symmetry_equiv_pos_as_xyz
  1  'x, y, z'
loop_
 _atom_site_type_symbol
 _atom_site_label
 _atom_site_symmetry_multiplicity
 _atom_site_fract_x
 _atom_site_fract_y
 _atom_site_fract_z
 _atom_site_occupancy
  Er  Er0  1  0.972829  0.996912  0.278624  1
  Er  Er1  1  0.972829  0.503088  0.778624  1
  Er  Er2  1  0.553033  0.001272  0.262247  1
  Er  Er3  1  0.446967  0.501272  0.237753  1
  Er  Er4  1  0.553033  0.498728  0.762247  1
  Er  Er5  1  0.446967  0.998728  0.737753  1
  Er  Er6  1  0.027171  0.496912  0.221376  1
  Er  Er7  1  0.027171  0.003088  0.721376  1
  P  P8  1  0.854712  0.759966  0.062964  1
  P  P9  1  0.711818  0.270077  0.153805  1
  P  P10  1  0.783150  0.705347  0.342930  1
  P  P11  1  0.854712  0.740034  0.562964  1
  P  P12  1  0.504237  0.749917  0.060354  1
  P  P13  1  0.711818  0.229923  0.653805  1
  P  P14  1  0.783150  0.794653  0.842930  1
  P  P15  1  0.495763  0.249917  0.439646  1
  P  P16  1  0.504237  0.750083  0.560354  1
  P  P17  1  0.216850  0.205347  0.157070  1
  P  P18  1  0.288182  0.770077  0.346195  1
  P  P19  1  0.495763  0.250083  0.939646  1
  P  P20  1  0.145288  0.259966  0.437036  1
  P  P21  1  0.216850  0.294653  0.657070  1
  P  P22  1  0.288182  0.729923  0.846195  1
  P  P23  1  0.145288  0.240034  0.937036  1
  O  O24  1  0.960295  0.633716  0.087474  1
  O  O25  1  0.889221  0.878129  0.136670  1
  O  O26  1  0.861803  0.337017  0.141486  1
  O  O27  1  0.881213  0.629392  0.285373  1
  O  O28  1  0.960295  0.866284  0.587474  1
  O  O29  1  0.870434  0.676899  0.459839  1
  O  O30  1  0.672311  0.704968  0.040300  1
  O  O31  1  0.747360  0.136144  0.219631  1
  O  O32  1  0.780840  0.866326  0.327140  1
  O  O33  1  0.889221  0.621871  0.636670  1
  O  O34  1  0.607540  0.208562  0.047039  1
  O  O35  1  0.861803  0.162983  0.641486  1
  O  O36  1  0.881213  0.870608  0.785373  1
  O  O37  1  0.609711  0.372267  0.190718  1
  O  O38  1  0.529858  0.879672  0.123025  1
  O  O39  1  0.616812  0.647972  0.324198  1
  O  O40  1  0.870434  0.823101  0.959839  1
  O  O41  1  0.672311  0.795032  0.540300  1
  O  O42  1  0.747360  0.363856  0.719631  1
  O  O43  1  0.780840  0.633674  0.827140  1
  O  O44  1  0.564527  0.125498  0.400727  1
  O  O45  1  0.607540  0.291438  0.547039  1
  O  O46  1  0.435473  0.625498  0.099273  1
  O  O47  1  0.383188  0.147972  0.175802  1
  O  O48  1  0.470142  0.379672  0.376975  1
  O  O49  1  0.609711  0.127733  0.690718  1
  O  O50  1  0.390289  0.872267  0.309282  1
  O  O51  1  0.529858  0.620328  0.623025  1
  O  O52  1  0.616812  0.852028  0.824198  1
  O  O53  1  0.564527  0.374502  0.900727  1
  O  O54  1  0.392460  0.708562  0.452961  1
  O  O55  1  0.435473  0.874502  0.599273  1
  O  O56  1  0.219160  0.366326  0.172860  1
  O  O57  1  0.252640  0.636144  0.280369  1
  O  O58  1  0.327689  0.204968  0.459700  1
  O  O59  1  0.129566  0.176899  0.040161  1
  O  O60  1  0.383188  0.352028  0.675802  1
  O  O61  1  0.470142  0.120328  0.876975  1
  O  O62  1  0.390289  0.627733  0.809282  1
  O  O63  1  0.118787  0.129392  0.214627  1
  O  O64  1  0.138197  0.837017  0.358514  1
  O  O65  1  0.392460  0.791438  0.952961  1
  O  O66  1  0.110779  0.378129  0.363330  1
  O  O67  1  0.219160  0.133674  0.672860  1
  O  O68  1  0.252640  0.863856  0.780369  1
  O  O69  1  0.327689  0.295032  0.959700  1
  O  O70  1  0.129566  0.323101  0.540161  1
  O  O71  1  0.039705  0.133716  0.412526  1
  O  O72  1  0.118787  0.370608  0.714627  1
  O  O73  1  0.138197  0.662983  0.858514  1
  O  O74  1  0.110779  0.121871  0.863330  1
  O  O75  1  0.039705  0.366284  0.912526  1
