# generated using pymatgen
data_TiV4CoO12
_symmetry_space_group_name_H-M   'P 1'
_cell_length_a   6.82674840
_cell_length_b   6.82674840
_cell_length_c   5.74850503
_cell_angle_alpha   75.13572661
_cell_angle_beta   104.86427339
_cell_angle_gamma   95.60412146
_symmetry_Int_Tables_number   1
_chemical_formula_structural   TiV4CoO12
_chemical_formula_sum   'Ti1 V4 Co1 O12'
_cell_volume   250.13040147
_cell_formula_units_Z   1
loop_
 _symmetry_equiv_pos_site_id
 _symmetry_equiv_pos_as_xyz
  1  'x, y, z'
loop_
 _atom_site_type_symbol
 _atom_site_label
 _atom_site_symmetry_multiplicity
 _atom_site_fract_x
 _atom_site_fract_y
 _atom_site_fract_z
 _atom_site_occupancy
  Ti  Ti0  1  0.094960  0.094960  0.500000  1
  V  V1  1  0.388208  0.795417  0.998551  1
  V  V2  1  0.196505  0.615145  0.500907  1
  V  V3  1  0.795417  0.388208  0.001449  1
  V  V4  1  0.615145  0.196505  0.499093  1
  Co  Co5  1  0.913678  0.913678  0.000000  1
  O  O6  1  0.187459  0.965201  0.871069  1
  O  O7  1  0.617359  0.913996  0.010457  1
  O  O8  1  0.030343  0.822014  0.373947  1
  O  O9  1  0.352926  0.619878  0.808427  1
  O  O10  1  0.913996  0.617359  0.989543  1
  O  O11  1  0.373816  0.667186  0.299603  1
  O  O12  1  0.619878  0.352926  0.191573  1
  O  O13  1  0.086422  0.359486  0.518672  1
  O  O14  1  0.667186  0.373816  0.700397  1
  O  O15  1  0.965201  0.187459  0.128931  1
  O  O16  1  0.359486  0.086422  0.481328  1
  O  O17  1  0.822014  0.030343  0.626053  1
