# generated using pymatgen
data_VNi5(PO4)6
_symmetry_space_group_name_H-M   'P 1'
_cell_length_a   8.45892523
_cell_length_b   8.45892523
_cell_length_c   8.45892523
_cell_angle_alpha   61.14677566
_cell_angle_beta   61.14677566
_cell_angle_gamma   61.14677566
_symmetry_Int_Tables_number   1
_chemical_formula_structural   VNi5(PO4)6
_chemical_formula_sum   'V1 Ni5 P6 O24'
_cell_volume   439.03127187
_cell_formula_units_Z   1
loop_
 _symmetry_equiv_pos_site_id
 _symmetry_equiv_pos_as_xyz
  1  'x, y, z'
loop_
 _atom_site_type_symbol
 _atom_site_label
 _atom_site_symmetry_multiplicity
 _atom_site_fract_x
 _atom_site_fract_y
 _atom_site_fract_z
 _atom_site_occupancy
  V  V0  1  0.145465  0.145465  0.145465  1
  Ni  Ni1  1  0.998279  0.998279  0.998279  1
  Ni  Ni2  1  0.640687  0.640687  0.640687  1
  Ni  Ni3  1  0.499031  0.499031  0.499031  1
  Ni  Ni4  1  0.856820  0.856820  0.856820  1
  Ni  Ni5  1  0.358383  0.358383  0.358383  1
  P  P6  1  0.954295  0.251099  0.547142  1
  P  P7  1  0.547142  0.954295  0.251099  1
  P  P8  1  0.251099  0.547142  0.954295  1
  P  P9  1  0.750163  0.452559  0.047124  1
  P  P10  1  0.452559  0.047124  0.750163  1
  P  P11  1  0.047124  0.750163  0.452559  1
  O  O12  1  0.505174  0.106664  0.323513  1
  O  O13  1  0.323513  0.505174  0.106664  1
  O  O14  1  0.106664  0.323513  0.505174  1
  O  O15  1  0.944777  0.088532  0.740881  1
  O  O16  1  0.017289  0.174936  0.378684  1
  O  O17  1  0.757243  0.402521  0.546754  1
  O  O18  1  0.740881  0.944777  0.088532  1
  O  O19  1  0.546754  0.757243  0.402521  1
  O  O20  1  0.815643  0.609088  0.010902  1
  O  O21  1  0.402521  0.546754  0.757243  1
  O  O22  1  0.916181  0.250648  0.068538  1
  O  O23  1  0.609088  0.010902  0.815643  1
  O  O24  1  0.378684  0.017289  0.174936  1
  O  O25  1  0.088532  0.740881  0.944777  1
  O  O26  1  0.595088  0.435544  0.247325  1
  O  O27  1  0.174936  0.378684  0.017289  1
  O  O28  1  0.435544  0.247325  0.595088  1
  O  O29  1  0.250648  0.068538  0.916181  1
  O  O30  1  0.247325  0.595088  0.435544  1
  O  O31  1  0.010902  0.815643  0.609088  1
  O  O32  1  0.068538  0.916181  0.250648  1
  O  O33  1  0.890916  0.689974  0.482148  1
  O  O34  1  0.689974  0.482148  0.890916  1
  O  O35  1  0.482148  0.890916  0.689974  1
