# generated using pymatgen
data_YbV4O8
_symmetry_space_group_name_H-M   'P 1'
_cell_length_a   5.87740466
_cell_length_b   9.17125160
_cell_length_c   11.16700049
_cell_angle_alpha   90.00000000
_cell_angle_beta   104.86537893
_cell_angle_gamma   90.00000000
_symmetry_Int_Tables_number   1
_chemical_formula_structural   YbV4O8
_chemical_formula_sum   'Yb4 V16 O32'
_cell_volume   581.79053016
_cell_formula_units_Z   4
loop_
 _symmetry_equiv_pos_site_id
 _symmetry_equiv_pos_as_xyz
  1  'x, y, z'
loop_
 _atom_site_type_symbol
 _atom_site_label
 _atom_site_symmetry_multiplicity
 _atom_site_fract_x
 _atom_site_fract_y
 _atom_site_fract_z
 _atom_site_occupancy
  Yb  Yb0  1  0.795474  0.743422  0.343129  1
  Yb  Yb1  1  0.204526  0.256578  0.656871  1
  Yb  Yb2  1  0.204526  0.243422  0.156871  1
  Yb  Yb3  1  0.795474  0.756578  0.843129  1
  V  V4  1  0.816940  0.073691  0.382360  1
  V  V5  1  0.183060  0.926309  0.617640  1
  V  V6  1  0.183060  0.573691  0.117640  1
  V  V7  1  0.816940  0.426309  0.882360  1
  V  V8  1  0.572277  0.090858  0.898860  1
  V  V9  1  0.427723  0.909142  0.101140  1
  V  V10  1  0.427723  0.590858  0.601140  1
  V  V11  1  0.572277  0.409142  0.398860  1
  V  V12  1  0.315245  0.047474  0.388312  1
  V  V13  1  0.684755  0.952526  0.611688  1
  V  V14  1  0.684755  0.547474  0.111688  1
  V  V15  1  0.315245  0.452526  0.888312  1
  V  V16  1  0.078894  0.079328  0.896385  1
  V  V17  1  0.921106  0.920672  0.103615  1
  V  V18  1  0.921106  0.579328  0.603615  1
  V  V19  1  0.078894  0.420672  0.396385  1
  O  O20  1  0.526448  0.299892  0.846741  1
  O  O21  1  0.473552  0.700108  0.153259  1
  O  O22  1  0.473552  0.799892  0.653259  1
  O  O23  1  0.526448  0.200108  0.346741  1
  O  O24  1  0.371146  0.389152  0.522034  1
  O  O25  1  0.628854  0.610848  0.477966  1
  O  O26  1  0.628854  0.889152  0.977966  1
  O  O27  1  0.371146  0.110848  0.022034  1
  O  O28  1  0.744747  0.964934  0.221903  1
  O  O29  1  0.255253  0.035066  0.778097  1
  O  O30  1  0.255253  0.464934  0.278097  1
  O  O31  1  0.744747  0.535066  0.721903  1
  O  O32  1  0.410276  0.078961  0.571074  1
  O  O33  1  0.589724  0.921039  0.428926  1
  O  O34  1  0.589724  0.578961  0.928926  1
  O  O35  1  0.410276  0.421039  0.071074  1
  O  O36  1  0.068898  0.291863  0.851136  1
  O  O37  1  0.931102  0.708137  0.148864  1
  O  O38  1  0.931102  0.791863  0.648864  1
  O  O39  1  0.068898  0.208137  0.351136  1
  O  O40  1  0.898144  0.381704  0.520383  1
  O  O41  1  0.101856  0.618296  0.479617  1
  O  O42  1  0.101856  0.881704  0.979617  1
  O  O43  1  0.898144  0.118296  0.020383  1
  O  O44  1  0.222957  0.982205  0.213316  1
  O  O45  1  0.777043  0.017795  0.786684  1
  O  O46  1  0.777043  0.482205  0.286684  1
  O  O47  1  0.222957  0.517795  0.713316  1
  O  O48  1  0.908472  0.080109  0.571137  1
  O  O49  1  0.091528  0.919891  0.428863  1
  O  O50  1  0.091528  0.580109  0.928863  1
  O  O51  1  0.908472  0.419891  0.071137  1
