# generated using pymatgen
data_Li4Ti3Mn2Cr3O16
_symmetry_space_group_name_H-M   'P 1'
_cell_length_a   5.90044534
_cell_length_b   5.90044534
_cell_length_c   9.58243645
_cell_angle_alpha   88.67870192
_cell_angle_beta   91.32129808
_cell_angle_gamma   119.54541913
_symmetry_Int_Tables_number   1
_chemical_formula_structural   Li4Ti3Mn2Cr3O16
_chemical_formula_sum   'Li4 Ti3 Mn2 Cr3 O16'
_cell_volume   290.12999831
_cell_formula_units_Z   1
loop_
 _symmetry_equiv_pos_site_id
 _symmetry_equiv_pos_as_xyz
  1  'x, y, z'
loop_
 _atom_site_type_symbol
 _atom_site_label
 _atom_site_symmetry_multiplicity
 _atom_site_fract_x
 _atom_site_fract_y
 _atom_site_fract_z
 _atom_site_occupancy
  Li  Li0  1  0.331610  0.668390  0.103887  1
  Li  Li1  1  0.005200  0.994800  0.005430  1
  Li  Li2  1  0.009289  0.990711  0.504054  1
  Li  Li3  1  0.662217  0.337783  0.601227  1
  Ti  Ti4  1  0.837009  0.162991  0.291929  1
  Ti  Ti5  1  0.160779  0.341852  0.785200  1
  Ti  Ti6  1  0.658148  0.839221  0.785200  1
  Mn  Mn7  1  0.330901  0.669099  0.510134  1
  Mn  Mn8  1  0.663062  0.336938  0.020303  1
  Cr  Cr9  1  0.168454  0.831546  0.792217  1
  Cr  Cr10  1  0.341685  0.165103  0.284600  1
  Cr  Cr11  1  0.834897  0.658315  0.284600  1
  O  O12  1  0.158009  0.319992  0.395839  1
  O  O13  1  0.474036  0.525964  0.658596  1
  O  O14  1  0.340474  0.659526  0.896628  1
  O  O15  1  0.994584  0.005416  0.691503  1
  O  O16  1  0.998858  0.001142  0.188433  1
  O  O17  1  0.680008  0.841991  0.395839  1
  O  O18  1  0.030297  0.516992  0.668018  1
  O  O19  1  0.483008  0.969703  0.668018  1
  O  O20  1  0.835050  0.164950  0.899181  1
  O  O21  1  0.167871  0.832129  0.400169  1
  O  O22  1  0.524673  0.044404  0.153686  1
  O  O23  1  0.955596  0.475327  0.153686  1
  O  O24  1  0.674559  0.325441  0.394391  1
  O  O25  1  0.331463  0.173107  0.901311  1
  O  O26  1  0.520957  0.479043  0.156773  1
  O  O27  1  0.826893  0.668537  0.901311  1
