# generated using pymatgen
data_Fe4OF7
_symmetry_space_group_name_H-M   'P 1'
_cell_length_a   4.81686415
_cell_length_b   5.83132302
_cell_length_c   10.81932401
_cell_angle_alpha   82.42741698
_cell_angle_beta   89.70061987
_cell_angle_gamma   89.70267476
_symmetry_Int_Tables_number   1
_chemical_formula_structural   Fe4OF7
_chemical_formula_sum   'Fe8 O2 F14'
_cell_volume   301.24302452
_cell_formula_units_Z   2
loop_
 _symmetry_equiv_pos_site_id
 _symmetry_equiv_pos_as_xyz
  1  'x, y, z'
loop_
 _atom_site_type_symbol
 _atom_site_label
 _atom_site_symmetry_multiplicity
 _atom_site_fract_x
 _atom_site_fract_y
 _atom_site_fract_z
 _atom_site_occupancy
  Fe  Fe0  1  0.475983  0.853044  0.375022  1
  Fe  Fe1  1  0.512797  0.378004  0.866947  1
  Fe  Fe2  1  0.524017  0.146956  0.624978  1
  Fe  Fe3  1  0.487203  0.621996  0.133053  1
  Fe  Fe4  1  0.004753  0.127493  0.124531  1
  Fe  Fe5  1  0.011491  0.387216  0.370721  1
  Fe  Fe6  1  0.988509  0.612784  0.629279  1
  Fe  Fe7  1  0.995247  0.872507  0.875469  1
  O  O8  1  0.308812  0.615840  0.308428  1
  O  O9  1  0.691188  0.384160  0.691572  1
  F  F10  1  0.195095  0.338793  0.549259  1
  F  F11  1  0.206821  0.103898  0.303279  1
  F  F12  1  0.196040  0.601187  0.798264  1
  F  F13  1  0.203301  0.855290  0.048757  1
  F  F14  1  0.303752  0.350233  0.046353  1
  F  F15  1  0.299597  0.084501  0.787676  1
  F  F16  1  0.310500  0.857032  0.546841  1
  F  F17  1  0.696248  0.649767  0.953647  1
  F  F18  1  0.689500  0.142968  0.453159  1
  F  F19  1  0.700403  0.915499  0.212324  1
  F  F20  1  0.793179  0.896102  0.696721  1
  F  F21  1  0.796699  0.144710  0.951243  1
  F  F22  1  0.803960  0.398813  0.201736  1
  F  F23  1  0.804905  0.661207  0.450741  1
