# generated using pymatgen
data_Li2FeBO4
_symmetry_space_group_name_H-M   'P 1'
_cell_length_a   4.82327701
_cell_length_b   6.18018742
_cell_length_c   10.25800056
_cell_angle_alpha   90.00000000
_cell_angle_beta   90.00000000
_cell_angle_gamma   90.00000000
_symmetry_Int_Tables_number   1
_chemical_formula_structural   Li2FeBO4
_chemical_formula_sum   'Li8 Fe4 B4 O16'
_cell_volume   305.77823472
_cell_formula_units_Z   4
loop_
 _symmetry_equiv_pos_site_id
 _symmetry_equiv_pos_as_xyz
  1  'x, y, z'
loop_
 _atom_site_type_symbol
 _atom_site_label
 _atom_site_symmetry_multiplicity
 _atom_site_fract_x
 _atom_site_fract_y
 _atom_site_fract_z
 _atom_site_occupancy
  Li  Li0  1  0.758056  0.003421  0.157637  1
  Li  Li1  1  0.755964  0.234929  0.925623  1
  Li  Li2  1  0.755964  0.265071  0.425623  1
  Li  Li3  1  0.758056  0.496579  0.657637  1
  Li  Li4  1  0.258056  0.503421  0.342363  1
  Li  Li5  1  0.255964  0.734929  0.574377  1
  Li  Li6  1  0.255964  0.765071  0.074377  1
  Li  Li7  1  0.258056  0.996579  0.842363  1
  Fe  Fe8  1  0.259901  0.010547  0.338283  1
  Fe  Fe9  1  0.259901  0.489453  0.838283  1
  Fe  Fe10  1  0.759901  0.510547  0.161717  1
  Fe  Fe11  1  0.759901  0.989453  0.661717  1
  B  B12  1  0.265200  0.243811  0.589766  1
  B  B13  1  0.265200  0.256189  0.089766  1
  B  B14  1  0.765200  0.743811  0.910234  1
  B  B15  1  0.765200  0.756189  0.410234  1
  O  O16  1  0.153273  0.042553  0.655630  1
  O  O17  1  0.164689  0.055901  0.158548  1
  O  O18  1  0.172652  0.250910  0.949953  1
  O  O19  1  0.573390  0.237884  0.596989  1
  O  O20  1  0.573390  0.262116  0.096989  1
  O  O21  1  0.172652  0.249090  0.449953  1
  O  O22  1  0.164689  0.444099  0.658548  1
  O  O23  1  0.153273  0.457447  0.155630  1
  O  O24  1  0.653273  0.542553  0.844370  1
  O  O25  1  0.664689  0.555901  0.341452  1
  O  O26  1  0.672652  0.750910  0.550047  1
  O  O27  1  0.073390  0.737884  0.903011  1
  O  O28  1  0.073390  0.762116  0.403011  1
  O  O29  1  0.672652  0.749090  0.050047  1
  O  O30  1  0.664689  0.944099  0.841452  1
  O  O31  1  0.653273  0.957447  0.344370  1
