# generated using pymatgen
data_Ti3N2O3
_symmetry_space_group_name_H-M   'P 1'
_cell_length_a   5.27597202
_cell_length_b   5.27597202
_cell_length_c   9.91796485
_cell_angle_alpha   90.00000000
_cell_angle_beta   90.00000000
_cell_angle_gamma   137.24887310
_symmetry_Int_Tables_number   1
_chemical_formula_structural   Ti3N2O3
_chemical_formula_sum   'Ti6 N4 O6'
_cell_volume   187.40409785
_cell_formula_units_Z   2
loop_
 _symmetry_equiv_pos_site_id
 _symmetry_equiv_pos_as_xyz
  1  'x, y, z'
loop_
 _atom_site_type_symbol
 _atom_site_label
 _atom_site_symmetry_multiplicity
 _atom_site_fract_x
 _atom_site_fract_y
 _atom_site_fract_z
 _atom_site_occupancy
  Ti  Ti0  1  0.799357  0.200643  0.250000  1
  Ti  Ti1  1  0.856418  0.143582  0.948197  1
  Ti  Ti2  1  0.856418  0.143582  0.551803  1
  Ti  Ti3  1  0.200643  0.799357  0.750000  1
  Ti  Ti4  1  0.143582  0.856418  0.051803  1
  Ti  Ti5  1  0.143582  0.856418  0.448197  1
  N  N6  1  0.692416  0.307584  0.423425  1
  N  N7  1  0.692416  0.307584  0.076575  1
  N  N8  1  0.307584  0.692416  0.576575  1
  N  N9  1  0.307584  0.692416  0.923425  1
  O  O10  1  0.754176  0.245824  0.750000  1
  O  O11  1  0.954722  0.045278  0.118516  1
  O  O12  1  0.954722  0.045278  0.381484  1
  O  O13  1  0.045278  0.954722  0.881484  1
  O  O14  1  0.245824  0.754176  0.250000  1
  O  O15  1  0.045278  0.954722  0.618516  1
