# generated using pymatgen
data_Li8Cr3TeO12
_symmetry_space_group_name_H-M   'P 1'
_cell_length_a   5.02900139
_cell_length_b   8.58375321
_cell_length_c   5.04750014
_cell_angle_alpha   90.00000000
_cell_angle_beta   90.48239328
_cell_angle_gamma   90.00000000
_symmetry_Int_Tables_number   1
_chemical_formula_structural   Li8Cr3TeO12
_chemical_formula_sum   'Li8 Cr3 Te1 O12'
_cell_volume   217.88128374
_cell_formula_units_Z   1
loop_
 _symmetry_equiv_pos_site_id
 _symmetry_equiv_pos_as_xyz
  1  'x, y, z'
loop_
 _atom_site_type_symbol
 _atom_site_label
 _atom_site_symmetry_multiplicity
 _atom_site_fract_x
 _atom_site_fract_y
 _atom_site_fract_z
 _atom_site_occupancy
  Li  Li0  1  0.000000  0.416319  0.000000  1
  Li  Li1  1  0.000000  0.707734  0.000000  1
  Li  Li2  1  0.500000  0.744586  0.000000  1
  Li  Li3  1  0.500000  0.080593  0.000000  1
  Li  Li4  1  0.000000  0.551563  0.500000  1
  Li  Li5  1  0.000000  0.267549  0.500000  1
  Li  Li6  1  0.500000  0.923393  0.500000  1
  Li  Li7  1  0.500000  0.244220  0.500000  1
  Cr  Cr8  1  0.500000  0.405148  0.000000  1
  Cr  Cr9  1  0.500000  0.573092  0.500000  1
  Cr  Cr10  1  0.000000  0.094996  0.000000  1
  Te  Te11  1  0.000000  0.902049  0.500000  1
  O  O12  1  0.763278  0.747610  0.346644  1
  O  O13  1  0.781192  0.066873  0.332240  1
  O  O14  1  0.725577  0.415159  0.326936  1
  O  O15  1  0.284207  0.565957  0.164835  1
  O  O16  1  0.220307  0.916486  0.183581  1
  O  O17  1  0.259518  0.246119  0.148457  1
  O  O18  1  0.740482  0.246119  0.851543  1
  O  O19  1  0.779693  0.916486  0.816419  1
  O  O20  1  0.715793  0.565957  0.835165  1
  O  O21  1  0.274423  0.415159  0.673064  1
  O  O22  1  0.218808  0.066873  0.667760  1
  O  O23  1  0.236722  0.747610  0.653356  1
