# generated using pymatgen
data_Co2NiO6
_symmetry_space_group_name_H-M   'P 1'
_cell_length_a   4.88652945
_cell_length_b   4.88652945
_cell_length_c   9.57154718
_cell_angle_alpha   90.00000000
_cell_angle_beta   90.00000000
_cell_angle_gamma   120.11878314
_symmetry_Int_Tables_number   1
_chemical_formula_structural   Co2NiO6
_chemical_formula_sum   'Co4 Ni2 O12'
_cell_volume   197.69366263
_cell_formula_units_Z   2
loop_
 _symmetry_equiv_pos_site_id
 _symmetry_equiv_pos_as_xyz
  1  'x, y, z'
loop_
 _atom_site_type_symbol
 _atom_site_label
 _atom_site_symmetry_multiplicity
 _atom_site_fract_x
 _atom_site_fract_y
 _atom_site_fract_z
 _atom_site_occupancy
  Co  Co0  1  0.333325  0.666675  0.000000  1
  Co  Co1  1  0.833325  0.166675  0.500000  1
  Co  Co2  1  0.166675  0.833325  0.500000  1
  Co  Co3  1  0.666675  0.333325  0.000000  1
  Ni  Ni4  1  0.000000  0.000000  0.000000  1
  Ni  Ni5  1  0.500000  0.500000  0.500000  1
  O  O6  1  0.167595  0.167595  0.597873  1
  O  O7  1  0.332405  0.332405  0.097873  1
  O  O8  1  0.667595  0.667595  0.902127  1
  O  O9  1  0.000047  0.332039  0.902114  1
  O  O10  1  0.832405  0.832405  0.402127  1
  O  O11  1  0.167961  0.499953  0.402114  1
  O  O12  1  0.500047  0.832039  0.597886  1
  O  O13  1  0.667961  0.999953  0.097886  1
  O  O14  1  0.999953  0.667961  0.097886  1
  O  O15  1  0.332039  0.000047  0.902114  1
  O  O16  1  0.499953  0.167961  0.402114  1
  O  O17  1  0.832039  0.500047  0.597886  1
