# generated using pymatgen
data_Li3V2(O2F)2
_symmetry_space_group_name_H-M   'P 1'
_cell_length_a   5.99343905
_cell_length_b   5.99343905
_cell_length_c   14.88106640
_cell_angle_alpha   89.65543111
_cell_angle_beta   90.34456889
_cell_angle_gamma   120.28219572
_symmetry_Int_Tables_number   1
_chemical_formula_structural   Li3V2(O2F)2
_chemical_formula_sum   'Li12 V8 O16 F8'
_cell_volume   461.59855144
_cell_formula_units_Z   4
loop_
 _symmetry_equiv_pos_site_id
 _symmetry_equiv_pos_as_xyz
  1  'x, y, z'
loop_
 _atom_site_type_symbol
 _atom_site_label
 _atom_site_symmetry_multiplicity
 _atom_site_fract_x
 _atom_site_fract_y
 _atom_site_fract_z
 _atom_site_occupancy
  Li  Li0  1  0.302305  0.123595  0.169812  1
  Li  Li1  1  0.332372  0.160336  0.667194  1
  Li  Li2  1  0.496670  0.503330  0.046109  1
  Li  Li3  1  0.876405  0.697695  0.169812  1
  Li  Li4  1  0.839664  0.667628  0.667194  1
  Li  Li5  1  0.666947  0.333053  0.309521  1
  Li  Li6  1  0.837711  0.162289  0.159901  1
  Li  Li7  1  0.833461  0.166539  0.665919  1
  Li  Li8  1  0.023261  0.507096  0.037103  1
  Li  Li9  1  0.492904  0.976739  0.037103  1
  Li  Li10  1  0.167450  0.364481  0.288953  1
  Li  Li11  1  0.635519  0.832550  0.288953  1
  V  V12  1  0.495867  0.504133  0.504880  1
  V  V13  1  0.002663  0.997337  0.491115  1
  V  V14  1  0.666694  0.333306  0.836490  1
  V  V15  1  0.002173  0.502594  0.502533  1
  V  V16  1  0.170500  0.829500  0.833221  1
  V  V17  1  0.497406  0.997827  0.502533  1
  V  V18  1  0.166974  0.331698  0.830995  1
  V  V19  1  0.668302  0.833026  0.830995  1
  O  O20  1  0.342220  0.165191  0.898807  1
  O  O21  1  0.334721  0.181095  0.434702  1
  O  O22  1  0.504502  0.495498  0.760669  1
  O  O23  1  0.818905  0.665279  0.434702  1
  O  O24  1  0.834809  0.657780  0.898807  1
  O  O25  1  0.010739  0.989261  0.756431  1
  O  O26  1  0.666002  0.333998  0.577754  1
  O  O27  1  0.833636  0.166364  0.896401  1
  O  O28  1  0.832832  0.167168  0.434784  1
  O  O29  1  0.985340  0.494023  0.759170  1
  O  O30  1  0.157694  0.842306  0.572264  1
  O  O31  1  0.336550  0.663450  0.435466  1
  O  O32  1  0.323082  0.676918  0.899814  1
  O  O33  1  0.505977  0.014660  0.759170  1
  O  O34  1  0.166565  0.316867  0.572865  1
  O  O35  1  0.683133  0.833435  0.572865  1
  F  F36  1  0.505580  0.494420  0.257316  1
  F  F37  1  0.985914  0.014086  0.246553  1
  F  F38  1  0.672548  0.327452  0.076082  1
  F  F39  1  0.967261  0.484072  0.243827  1
  F  F40  1  0.166251  0.833749  0.084432  1
  F  F41  1  0.515928  0.032739  0.243827  1
  F  F42  1  0.167548  0.326295  0.088146  1
  F  F43  1  0.673705  0.832452  0.088146  1
