# generated using pymatgen
data_LiVF5
_symmetry_space_group_name_H-M   'P 1'
_cell_length_a   5.25718701
_cell_length_b   5.25718701
_cell_length_c   6.79509700
_cell_angle_alpha   72.00170828
_cell_angle_beta   107.99829172
_cell_angle_gamma   104.68191089
_symmetry_Int_Tables_number   1
_chemical_formula_structural   LiVF5
_chemical_formula_sum   'Li2 V2 F10'
_cell_volume   167.26174698
_cell_formula_units_Z   2
loop_
 _symmetry_equiv_pos_site_id
 _symmetry_equiv_pos_as_xyz
  1  'x, y, z'
loop_
 _atom_site_type_symbol
 _atom_site_label
 _atom_site_symmetry_multiplicity
 _atom_site_fract_x
 _atom_site_fract_y
 _atom_site_fract_z
 _atom_site_occupancy
  Li  Li0  1  0.000000  0.000000  0.500000  1
  Li  Li1  1  1.000000  1.000000  0.000000  1
  V  V2  1  0.554873  0.554873  0.750000  1
  V  V3  1  0.445127  0.445127  0.250000  1
  F  F4  1  0.323751  0.337158  0.559408  1
  F  F5  1  0.781681  0.299935  0.860853  1
  F  F6  1  0.841664  0.841664  0.750000  1
  F  F7  1  0.299935  0.781681  0.639147  1
  F  F8  1  0.337158  0.323751  0.940592  1
  F  F9  1  0.662842  0.676249  0.059408  1
  F  F10  1  0.700065  0.218319  0.360853  1
  F  F11  1  0.158336  0.158336  0.250000  1
  F  F12  1  0.218319  0.700065  0.139147  1
  F  F13  1  0.676249  0.662842  0.440592  1
