# generated using pymatgen
data_V3OF11
_symmetry_space_group_name_H-M   'P 1'
_cell_length_a   5.42271272
_cell_length_b   5.27472278
_cell_length_c   14.93741325
_cell_angle_alpha   90.00000000
_cell_angle_beta   100.23461929
_cell_angle_gamma   90.00000000
_symmetry_Int_Tables_number   1
_chemical_formula_structural   V3OF11
_chemical_formula_sum   'V6 O2 F22'
_cell_volume   420.46103922
_cell_formula_units_Z   2
loop_
 _symmetry_equiv_pos_site_id
 _symmetry_equiv_pos_as_xyz
  1  'x, y, z'
loop_
 _atom_site_type_symbol
 _atom_site_label
 _atom_site_symmetry_multiplicity
 _atom_site_fract_x
 _atom_site_fract_y
 _atom_site_fract_z
 _atom_site_occupancy
  V  V0  1  0.279768  0.037807  0.004055  1
  V  V1  1  0.415980  0.500772  0.333556  1
  V  V2  1  0.584020  0.000772  0.666444  1
  V  V3  1  0.720232  0.537807  0.995945  1
  V  V4  1  0.915901  0.000491  0.333735  1
  V  V5  1  0.084099  0.500491  0.666265  1
  O  O6  1  0.469858  0.726013  0.980782  1
  O  O7  1  0.530142  0.226013  0.019218  1
  F  F8  1  0.267253  0.807958  0.641245  1
  F  F9  1  0.401017  0.308053  0.691262  1
  F  F10  1  0.286112  0.911891  0.114796  1
  F  F11  1  0.453819  0.589198  0.449094  1
  F  F12  1  0.619534  0.912516  0.782354  1
  F  F13  1  0.380466  0.412516  0.217646  1
  F  F14  1  0.546181  0.089198  0.550906  1
  F  F15  1  0.713888  0.411891  0.885204  1
  F  F16  1  0.598983  0.808053  0.308738  1
  F  F17  1  0.767997  0.692831  0.642026  1
  F  F18  1  0.959614  0.766718  0.977853  1
  F  F19  1  0.732747  0.307958  0.358755  1
  F  F20  1  0.900416  0.192795  0.691327  1
  F  F21  1  0.817092  0.555952  0.115572  1
  F  F22  1  0.953149  0.910538  0.449112  1
  F  F23  1  0.125588  0.586468  0.782434  1
  F  F24  1  0.874412  0.086468  0.217566  1
  F  F25  1  0.046851  0.410538  0.550888  1
  F  F26  1  0.182908  0.055952  0.884428  1
  F  F27  1  0.099584  0.692795  0.308673  1
  F  F28  1  0.040386  0.266718  0.022147  1
  F  F29  1  0.232003  0.192831  0.357974  1
