# generated using pymatgen
data_LiMn2(BO3)2
_symmetry_space_group_name_H-M   'P 1'
_cell_length_a   5.32313127
_cell_length_b   9.04786614
_cell_length_c   10.36257117
_cell_angle_alpha   90.00000000
_cell_angle_beta   91.95852733
_cell_angle_gamma   90.00000000
_symmetry_Int_Tables_number   1
_chemical_formula_structural   LiMn2(BO3)2
_chemical_formula_sum   'Li4 Mn8 B8 O24'
_cell_volume   498.80074304
_cell_formula_units_Z   4
loop_
 _symmetry_equiv_pos_site_id
 _symmetry_equiv_pos_as_xyz
  1  'x, y, z'
loop_
 _atom_site_type_symbol
 _atom_site_label
 _atom_site_symmetry_multiplicity
 _atom_site_fract_x
 _atom_site_fract_y
 _atom_site_fract_z
 _atom_site_occupancy
  Li  Li0  1  0.133838  0.997049  0.083160  1
  Li  Li1  1  0.370118  0.518253  0.333337  1
  Li  Li2  1  0.370118  0.481747  0.833337  1
  Li  Li3  1  0.133838  0.002951  0.583160  1
  Mn  Mn4  1  0.649420  0.805388  0.125596  1
  Mn  Mn5  1  0.347598  0.852041  0.376022  1
  Mn  Mn6  1  0.857745  0.697014  0.868365  1
  Mn  Mn7  1  0.154437  0.654207  0.612299  1
  Mn  Mn8  1  0.857745  0.302986  0.368365  1
  Mn  Mn9  1  0.154437  0.345793  0.112299  1
  Mn  Mn10  1  0.649420  0.194612  0.625596  1
  Mn  Mn11  1  0.347598  0.147959  0.876022  1
  B  B12  1  0.658671  0.851632  0.629214  1
  B  B13  1  0.846198  0.648831  0.363002  1
  B  B14  1  0.320770  0.812350  0.881772  1
  B  B15  1  0.175960  0.686846  0.126596  1
  B  B16  1  0.846198  0.351169  0.863002  1
  B  B17  1  0.658671  0.148368  0.129214  1
  B  B18  1  0.175960  0.313154  0.626596  1
  B  B19  1  0.320770  0.187650  0.381772  1
  O  O20  1  0.782284  0.981479  0.617860  1
  O  O21  1  0.710258  0.771869  0.310033  1
  O  O22  1  0.568169  0.802029  0.931447  1
  O  O23  1  0.190814  0.939213  0.889631  1
  O  O24  1  0.408840  0.833513  0.584980  1
  O  O25  1  0.939250  0.698682  0.064286  1
  O  O26  1  0.789153  0.727781  0.683068  1
  O  O27  1  0.292453  0.822492  0.161949  1
  O  O28  1  0.727604  0.517696  0.372399  1
  O  O29  1  0.213588  0.680499  0.833990  1
  O  O30  1  0.095338  0.670837  0.406622  1
  O  O31  1  0.727604  0.482304  0.872399  1
  O  O32  1  0.288169  0.556682  0.148416  1
  O  O33  1  0.939250  0.301318  0.564286  1
  O  O34  1  0.789153  0.272219  0.183068  1
  O  O35  1  0.288169  0.443318  0.648416  1
  O  O36  1  0.710258  0.228131  0.810033  1
  O  O37  1  0.213588  0.319501  0.333990  1
  O  O38  1  0.095338  0.329163  0.906622  1
  O  O39  1  0.568169  0.197971  0.431447  1
  O  O40  1  0.782284  0.018521  0.117860  1
  O  O41  1  0.408840  0.166487  0.084980  1
  O  O42  1  0.292453  0.177508  0.661949  1
  O  O43  1  0.190814  0.060787  0.389631  1
