# generated using pymatgen
data_Li3FeP2HO8
_symmetry_space_group_name_H-M   'P 1'
_cell_length_a   5.11100046
_cell_length_b   5.13645080
_cell_length_c   6.21706564
_cell_angle_alpha   90.74811118
_cell_angle_beta   90.56640196
_cell_angle_gamma   114.82424156
_symmetry_Int_Tables_number   1
_chemical_formula_structural   Li3FeP2HO8
_chemical_formula_sum   'Li3 Fe1 P2 H1 O8'
_cell_volume   148.09816103
_cell_formula_units_Z   1
loop_
 _symmetry_equiv_pos_site_id
 _symmetry_equiv_pos_as_xyz
  1  'x, y, z'
loop_
 _atom_site_type_symbol
 _atom_site_label
 _atom_site_symmetry_multiplicity
 _atom_site_fract_x
 _atom_site_fract_y
 _atom_site_fract_z
 _atom_site_occupancy
  Li  Li0  1  0.635032  0.288158  0.775135  1
  Li  Li1  1  0.000000  0.000000  0.500000  1
  Li  Li2  1  0.364968  0.711842  0.224865  1
  Fe  Fe3  1  0.000000  0.000000  0.000000  1
  P  P4  1  0.638801  0.358366  0.253642  1
  P  P5  1  0.361199  0.641634  0.746358  1
  H  H6  1  0.000000  0.500000  0.500000  1
  O  O7  1  0.757928  0.243873  0.066003  1
  O  O8  1  0.766924  0.300674  0.471669  1
  O  O9  1  0.304935  0.206201  0.257946  1
  O  O10  1  0.262142  0.311487  0.761213  1
  O  O11  1  0.737858  0.688513  0.238787  1
  O  O12  1  0.695065  0.793799  0.742054  1
  O  O13  1  0.233076  0.699326  0.528331  1
  O  O14  1  0.242072  0.756127  0.933997  1
