# generated using pymatgen
data_Ti3V2Sb(PO4)6
_symmetry_space_group_name_H-M   'P 1'
_cell_length_a   8.68819769
_cell_length_b   8.68819769
_cell_length_c   8.68819769
_cell_angle_alpha   60.80288842
_cell_angle_beta   60.80288842
_cell_angle_gamma   60.80288842
_symmetry_Int_Tables_number   1
_chemical_formula_structural   Ti3V2Sb(PO4)6
_chemical_formula_sum   'Ti3 V2 Sb1 P6 O24'
_cell_volume   472.13732512
_cell_formula_units_Z   1
loop_
 _symmetry_equiv_pos_site_id
 _symmetry_equiv_pos_as_xyz
  1  'x, y, z'
loop_
 _atom_site_type_symbol
 _atom_site_label
 _atom_site_symmetry_multiplicity
 _atom_site_fract_x
 _atom_site_fract_y
 _atom_site_fract_z
 _atom_site_occupancy
  Ti  Ti0  1  0.646584  0.646584  0.646584  1
  Ti  Ti1  1  0.855291  0.855291  0.855291  1
  Ti  Ti2  1  0.354859  0.354859  0.354859  1
  V  V3  1  0.998213  0.998213  0.998213  1
  V  V4  1  0.501614  0.501614  0.501614  1
  Sb  Sb5  1  0.147309  0.147309  0.147309  1
  P  P6  1  0.947885  0.251756  0.556810  1
  P  P7  1  0.556810  0.947885  0.251756  1
  P  P8  1  0.251756  0.556810  0.947885  1
  P  P9  1  0.739813  0.462690  0.043991  1
  P  P10  1  0.462690  0.043991  0.739813  1
  P  P11  1  0.043991  0.739813  0.462690  1
  O  O12  1  0.500308  0.115933  0.309332  1
  O  O13  1  0.309332  0.500308  0.115933  1
  O  O14  1  0.115933  0.309332  0.500308  1
  O  O15  1  0.936664  0.091342  0.748119  1
  O  O16  1  0.965938  0.188866  0.411298  1
  O  O17  1  0.756317  0.413405  0.576884  1
  O  O18  1  0.748119  0.936664  0.091342  1
  O  O19  1  0.576884  0.756317  0.413405  1
  O  O20  1  0.812551  0.614973  0.001194  1
  O  O21  1  0.413405  0.576884  0.756317  1
  O  O22  1  0.890553  0.268311  0.047758  1
  O  O23  1  0.614973  0.001194  0.812551  1
  O  O24  1  0.411298  0.965938  0.188866  1
  O  O25  1  0.091342  0.748119  0.936664  1
  O  O26  1  0.582101  0.448767  0.238430  1
  O  O27  1  0.188866  0.411298  0.965938  1
  O  O28  1  0.448767  0.238430  0.582101  1
  O  O29  1  0.268311  0.047758  0.890553  1
  O  O30  1  0.238430  0.582101  0.448767  1
  O  O31  1  0.001194  0.812551  0.614973  1
  O  O32  1  0.047758  0.890553  0.268311  1
  O  O33  1  0.889684  0.663304  0.521164  1
  O  O34  1  0.663304  0.521164  0.889684  1
  O  O35  1  0.521164  0.889684  0.663304  1
