# generated using pymatgen
data_NaV2O4
_symmetry_space_group_name_H-M   'P 1'
_cell_length_a   6.22479602
_cell_length_b   6.22479602
_cell_length_c   6.22479602
_cell_angle_alpha   121.95471143
_cell_angle_beta   121.95471143
_cell_angle_gamma   86.64642310
_symmetry_Int_Tables_number   1
_chemical_formula_structural   NaV2O4
_chemical_formula_sum   'Na2 V4 O8'
_cell_volume   165.20635895
_cell_formula_units_Z   2
loop_
 _symmetry_equiv_pos_site_id
 _symmetry_equiv_pos_as_xyz
  1  'x, y, z'
loop_
 _atom_site_type_symbol
 _atom_site_label
 _atom_site_symmetry_multiplicity
 _atom_site_fract_x
 _atom_site_fract_y
 _atom_site_fract_z
 _atom_site_occupancy
  Na  Na0  1  0.000000  0.000000  0.000000  1
  Na  Na1  1  0.750000  0.250000  0.500000  1
  V  V2  1  0.875000  0.625000  0.250000  1
  V  V3  1  0.375000  0.125000  0.750000  1
  V  V4  1  0.375000  0.625000  0.750000  1
  V  V5  1  0.375000  0.625000  0.250000  1
  O  O6  1  0.138318  0.853039  0.285280  1
  O  O7  1  0.146961  0.861682  0.714720  1
  O  O8  1  0.146961  0.432241  0.285280  1
  O  O9  1  0.567759  0.853039  0.714720  1
  O  O10  1  0.182241  0.396961  0.785280  1
  O  O11  1  0.603039  0.817759  0.214720  1
  O  O12  1  0.603039  0.388318  0.785280  1
  O  O13  1  0.611682  0.396961  0.214720  1
