# generated using pymatgen
data_LiVOF2
_symmetry_space_group_name_H-M   'P 1'
_cell_length_a   5.39460242
_cell_length_b   8.95649159
_cell_length_c   9.81466174
_cell_angle_alpha   90.07650101
_cell_angle_beta   98.56395786
_cell_angle_gamma   90.01364298
_symmetry_Int_Tables_number   1
_chemical_formula_structural   LiVOF2
_chemical_formula_sum   'Li8 V8 O8 F16'
_cell_volume   468.92436641
_cell_formula_units_Z   8
loop_
 _symmetry_equiv_pos_site_id
 _symmetry_equiv_pos_as_xyz
  1  'x, y, z'
loop_
 _atom_site_type_symbol
 _atom_site_label
 _atom_site_symmetry_multiplicity
 _atom_site_fract_x
 _atom_site_fract_y
 _atom_site_fract_z
 _atom_site_occupancy
  Li  Li0  1  0.809647  0.407879  0.194942  1
  Li  Li1  1  0.186587  0.095204  0.304412  1
  Li  Li2  1  0.308294  0.590056  0.195393  1
  Li  Li3  1  0.687388  0.916489  0.303880  1
  Li  Li4  1  0.322459  0.092081  0.678802  1
  Li  Li5  1  0.671774  0.408177  0.809600  1
  Li  Li6  1  0.823844  0.915723  0.680363  1
  Li  Li7  1  0.175263  0.586911  0.821920  1
  V  V8  1  0.765600  0.736904  0.012788  1
  V  V9  1  0.752796  0.095021  0.013489  1
  V  V10  1  0.252400  0.903795  0.014788  1
  V  V11  1  0.266138  0.261257  0.012598  1
  V  V12  1  0.253086  0.762586  0.490328  1
  V  V13  1  0.259108  0.401300  0.487343  1
  V  V14  1  0.737095  0.574458  0.501154  1
  V  V15  1  0.732248  0.243700  0.491100  1
  O  O16  1  0.122867  0.085141  0.096763  1
  O  O17  1  0.623376  0.913316  0.097447  1
  O  O18  1  0.603268  0.247665  0.101817  1
  O  O19  1  0.101320  0.751582  0.103748  1
  O  O20  1  0.403681  0.250334  0.391618  1
  O  O21  1  0.378267  0.590935  0.402773  1
  O  O22  1  0.891810  0.416490  0.403218  1
  O  O23  1  0.599435  0.419522  0.607017  1
  F  F24  1  0.131241  0.413814  0.130536  1
  F  F25  1  0.633129  0.587868  0.135059  1
  F  F26  1  0.872200  0.084198  0.373603  1
  F  F27  1  0.889113  0.748667  0.398460  1
  F  F28  1  0.363808  0.912140  0.369579  1
  F  F29  1  0.649027  0.090538  0.628675  1
  F  F30  1  0.112672  0.594783  0.615724  1
  F  F31  1  0.103752  0.247290  0.609247  1
  F  F32  1  0.151122  0.906768  0.626970  1
  F  F33  1  0.611021  0.754776  0.603532  1
  F  F34  1  0.895702  0.246765  0.890600  1
  F  F35  1  0.888871  0.912252  0.883343  1
  F  F36  1  0.344989  0.408295  0.872042  1
  F  F37  1  0.394055  0.750858  0.890997  1
  F  F38  1  0.388294  0.084478  0.883538  1
  F  F39  1  0.843252  0.589987  0.870791  1
