# generated using pymatgen
data_Li3V3(PO4)4
_symmetry_space_group_name_H-M   'P 1'
_cell_length_a   8.56369707
_cell_length_b   9.11185308
_cell_length_c   9.16457450
_cell_angle_alpha   104.19335345
_cell_angle_beta   115.04001999
_cell_angle_gamma   102.13025628
_symmetry_Int_Tables_number   1
_chemical_formula_structural   Li3V3(PO4)4
_chemical_formula_sum   'Li6 V6 P8 O32'
_cell_volume   586.64703099
_cell_formula_units_Z   2
loop_
 _symmetry_equiv_pos_site_id
 _symmetry_equiv_pos_as_xyz
  1  'x, y, z'
loop_
 _atom_site_type_symbol
 _atom_site_label
 _atom_site_symmetry_multiplicity
 _atom_site_fract_x
 _atom_site_fract_y
 _atom_site_fract_z
 _atom_site_occupancy
  Li  Li0  1  0.797626  0.535105  0.990207  1
  Li  Li1  1  0.809293  0.162659  0.050778  1
  Li  Li2  1  0.590460  0.306852  0.120654  1
  Li  Li3  1  0.409540  0.693148  0.879346  1
  Li  Li4  1  0.190707  0.837341  0.949222  1
  Li  Li5  1  0.202374  0.464895  0.009793  1
  V  V6  1  0.001855  0.803523  0.502332  1
  V  V7  1  0.356973  0.813024  0.381655  1
  V  V8  1  0.288775  0.262122  0.222480  1
  V  V9  1  0.711225  0.737878  0.777520  1
  V  V10  1  0.643027  0.186976  0.618345  1
  V  V11  1  0.998145  0.196477  0.497668  1
  P  P12  1  0.563168  0.630403  0.330878  1
  P  P13  1  0.018108  0.924549  0.193813  1
  P  P14  1  0.554828  0.028314  0.228164  1
  P  P15  1  0.047964  0.470551  0.304285  1
  P  P16  1  0.952036  0.529449  0.695715  1
  P  P17  1  0.445172  0.971686  0.771836  1
  P  P18  1  0.981892  0.075451  0.806187  1
  P  P19  1  0.436832  0.369597  0.669122  1
  O  O20  1  0.833474  0.790892  0.047754  1
  O  O21  1  0.455705  0.874422  0.071141  1
  O  O22  1  0.847063  0.417212  0.159477  1
  O  O23  1  0.395027  0.665564  0.209306  1
  O  O24  1  0.735025  0.710239  0.323068  1
  O  O25  1  0.176601  0.863268  0.197171  1
  O  O26  1  0.511384  0.445090  0.261773  1
  O  O27  1  0.757664  0.111948  0.278211  1
  O  O28  1  0.159594  0.419798  0.214902  1
  O  O29  1  0.447788  0.144658  0.195695  1
  O  O30  1  0.573308  0.707402  0.510152  1
  O  O31  1  0.031094  0.961141  0.376375  1
  O  O32  1  0.132613  0.663254  0.390008  1
  O  O33  1  0.929010  0.610070  0.563838  1
  O  O34  1  0.048775  0.088889  0.169870  1
  O  O35  1  0.436160  0.997269  0.601674  1
  O  O36  1  0.563840  0.002731  0.398326  1
  O  O37  1  0.951225  0.911111  0.830130  1
  O  O38  1  0.070990  0.389930  0.436162  1
  O  O39  1  0.867387  0.336746  0.609992  1
  O  O40  1  0.968906  0.038859  0.623625  1
  O  O41  1  0.426692  0.292598  0.489848  1
  O  O42  1  0.552212  0.855342  0.804305  1
  O  O43  1  0.840406  0.580202  0.785098  1
  O  O44  1  0.242336  0.888052  0.721789  1
  O  O45  1  0.488616  0.554910  0.738227  1
  O  O46  1  0.823399  0.136732  0.802829  1
  O  O47  1  0.264975  0.289761  0.676932  1
  O  O48  1  0.604973  0.334436  0.790694  1
  O  O49  1  0.152937  0.582788  0.840523  1
  O  O50  1  0.544295  0.125578  0.928859  1
  O  O51  1  0.166526  0.209108  0.952246  1
