# generated using pymatgen
data_Ti2Mn3Cr3O16
_symmetry_space_group_name_H-M   'P 1'
_cell_length_a   5.82359718
_cell_length_b   5.82359718
_cell_length_c   9.02069537
_cell_angle_alpha   89.94809089
_cell_angle_beta   90.05190911
_cell_angle_gamma   120.15342244
_symmetry_Int_Tables_number   1
_chemical_formula_structural   Ti2Mn3Cr3O16
_chemical_formula_sum   'Ti2 Mn3 Cr3 O16'
_cell_volume   264.53282772
_cell_formula_units_Z   1
loop_
 _symmetry_equiv_pos_site_id
 _symmetry_equiv_pos_as_xyz
  1  'x, y, z'
loop_
 _atom_site_type_symbol
 _atom_site_label
 _atom_site_symmetry_multiplicity
 _atom_site_fract_x
 _atom_site_fract_y
 _atom_site_fract_z
 _atom_site_occupancy
  Ti  Ti0  1  0.668196  0.331804  0.495035  1
  Ti  Ti1  1  0.330617  0.669383  0.993895  1
  Mn  Mn2  1  0.827929  0.172071  0.212060  1
  Mn  Mn3  1  0.168198  0.341062  0.712779  1
  Mn  Mn4  1  0.658938  0.831802  0.712779  1
  Cr  Cr5  1  0.333117  0.173375  0.208759  1
  Cr  Cr6  1  0.826625  0.666883  0.208759  1
  Cr  Cr7  1  0.164534  0.835466  0.710387  1
  O  O8  1  0.334100  0.165974  0.602652  1
  O  O9  1  0.521156  0.478844  0.334248  1
  O  O10  1  0.666863  0.333137  0.101396  1
  O  O11  1  0.995034  0.004966  0.313923  1
  O  O12  1  0.994783  0.005217  0.816225  1
  O  O13  1  0.834026  0.665900  0.602652  1
  O  O14  1  0.521615  0.048159  0.334447  1
  O  O15  1  0.951841  0.478385  0.334447  1
  O  O16  1  0.166740  0.833260  0.103506  1
  O  O17  1  0.830386  0.169614  0.600200  1
  O  O18  1  0.043381  0.525165  0.833822  1
  O  O19  1  0.474835  0.956619  0.833822  1
  O  O20  1  0.335246  0.664754  0.601939  1
  O  O21  1  0.170468  0.337879  0.101522  1
  O  O22  1  0.476999  0.523001  0.835561  1
  O  O23  1  0.662121  0.829532  0.101522  1
