# generated using pymatgen
data_Li2MnF4
_symmetry_space_group_name_H-M   'P 1'
_cell_length_a   7.23947923
_cell_length_b   8.72511247
_cell_length_c   10.60377137
_cell_angle_alpha   90.00000000
_cell_angle_beta   93.25963902
_cell_angle_gamma   90.00000000
_symmetry_Int_Tables_number   1
_chemical_formula_structural   Li2MnF4
_chemical_formula_sum   'Li16 Mn8 F32'
_cell_volume   668.70644648
_cell_formula_units_Z   8
loop_
 _symmetry_equiv_pos_site_id
 _symmetry_equiv_pos_as_xyz
  1  'x, y, z'
loop_
 _atom_site_type_symbol
 _atom_site_label
 _atom_site_symmetry_multiplicity
 _atom_site_fract_x
 _atom_site_fract_y
 _atom_site_fract_z
 _atom_site_occupancy
  Li  Li0  1  0.824465  0.555673  0.357385  1
  Li  Li1  1  0.745786  0.060066  0.132012  1
  Li  Li2  1  0.824465  0.944327  0.857385  1
  Li  Li3  1  0.745786  0.439934  0.632012  1
  Li  Li4  1  0.710177  0.412635  0.110830  1
  Li  Li5  1  0.728800  0.887537  0.374767  1
  Li  Li6  1  0.710177  0.087365  0.610830  1
  Li  Li7  1  0.728800  0.612463  0.874767  1
  Li  Li8  1  0.271200  0.387537  0.125233  1
  Li  Li9  1  0.289823  0.912635  0.389170  1
  Li  Li10  1  0.271200  0.112463  0.625233  1
  Li  Li11  1  0.289823  0.587365  0.889170  1
  Li  Li12  1  0.254214  0.560066  0.367988  1
  Li  Li13  1  0.175535  0.055673  0.142615  1
  Li  Li14  1  0.254214  0.939934  0.867988  1
  Li  Li15  1  0.175535  0.444327  0.642615  1
  Mn  Mn16  1  0.995725  0.232005  0.375497  1
  Mn  Mn17  1  0.995725  0.267995  0.875497  1
  Mn  Mn18  1  0.539053  0.241847  0.365512  1
  Mn  Mn19  1  0.460947  0.741847  0.134488  1
  Mn  Mn20  1  0.539053  0.258153  0.865512  1
  Mn  Mn21  1  0.460947  0.758153  0.634488  1
  Mn  Mn22  1  0.004275  0.732005  0.124503  1
  Mn  Mn23  1  0.004275  0.767995  0.624503  1
  F  F24  1  0.959029  0.951765  0.191324  1
  F  F25  1  0.959029  0.548235  0.691324  1
  F  F26  1  0.888856  0.733867  0.442915  1
  F  F27  1  0.888856  0.766133  0.942915  1
  F  F28  1  0.753115  0.244553  0.230689  1
  F  F29  1  0.806509  0.077406  0.445313  1
  F  F30  1  0.746717  0.623205  0.186133  1
  F  F31  1  0.753115  0.255447  0.730689  1
  F  F32  1  0.806509  0.422594  0.945313  1
  F  F33  1  0.731568  0.400841  0.458391  1
  F  F34  1  0.746717  0.876795  0.686133  1
  F  F35  1  0.731568  0.099159  0.958391  1
  F  F36  1  0.583144  0.933712  0.219191  1
  F  F37  1  0.583144  0.566288  0.719191  1
  F  F38  1  0.482361  0.334405  0.040008  1
  F  F39  1  0.517639  0.834405  0.459992  1
  F  F40  1  0.482361  0.165595  0.540008  1
  F  F41  1  0.517639  0.665595  0.959992  1
  F  F42  1  0.416856  0.433712  0.280809  1
  F  F43  1  0.416856  0.066288  0.780809  1
  F  F44  1  0.268432  0.900841  0.041609  1
  F  F45  1  0.253283  0.123205  0.313867  1
  F  F46  1  0.268432  0.599159  0.541609  1
  F  F47  1  0.193491  0.577406  0.054687  1
  F  F48  1  0.246885  0.744553  0.269311  1
  F  F49  1  0.253283  0.376795  0.813867  1
  F  F50  1  0.193491  0.922594  0.554687  1
  F  F51  1  0.246885  0.755447  0.769311  1
  F  F52  1  0.111144  0.233867  0.057085  1
  F  F53  1  0.111144  0.266133  0.557085  1
  F  F54  1  0.040971  0.451765  0.308676  1
  F  F55  1  0.040971  0.048235  0.808676  1
