# generated using pymatgen
data_Fe3OF5
_symmetry_space_group_name_H-M   'P 1'
_cell_length_a   10.76071709
_cell_length_b   10.76071709
_cell_length_c   3.18054245
_cell_angle_alpha   90.00000000
_cell_angle_beta   90.00000000
_cell_angle_gamma   142.79731954
_symmetry_Int_Tables_number   1
_chemical_formula_structural   Fe3OF5
_chemical_formula_sum   'Fe6 O2 F10'
_cell_volume   222.67829975
_cell_formula_units_Z   2
loop_
 _symmetry_equiv_pos_site_id
 _symmetry_equiv_pos_as_xyz
  1  'x, y, z'
loop_
 _atom_site_type_symbol
 _atom_site_label
 _atom_site_symmetry_multiplicity
 _atom_site_fract_x
 _atom_site_fract_y
 _atom_site_fract_z
 _atom_site_occupancy
  Fe  Fe0  1  0.500000  0.500000  0.000000  1
  Fe  Fe1  1  0.000000  0.000000  0.500000  1
  Fe  Fe2  1  0.154473  0.845527  0.000000  1
  Fe  Fe3  1  0.330309  0.669691  0.500000  1
  Fe  Fe4  1  0.669691  0.330309  0.500000  1
  Fe  Fe5  1  0.845527  0.154473  0.000000  1
  O  O6  1  0.102393  0.897607  0.500000  1
  O  O7  1  0.897607  0.102393  0.500000  1
  F  F8  1  0.204992  0.204992  0.000000  1
  F  F9  1  0.462923  0.121974  0.000000  1
  F  F10  1  0.795008  0.795008  0.000000  1
  F  F11  1  0.229342  0.770658  0.500000  1
  F  F12  1  0.569786  0.430214  0.500000  1
  F  F13  1  0.878026  0.537077  0.000000  1
  F  F14  1  0.121974  0.462923  0.000000  1
  F  F15  1  0.430214  0.569786  0.500000  1
  F  F16  1  0.770658  0.229342  0.500000  1
  F  F17  1  0.537077  0.878026  0.000000  1
