# generated using pymatgen
data_Ni(SO4)2
_symmetry_space_group_name_H-M   'P 1'
_cell_length_a   9.00586992
_cell_length_b   9.00586992
_cell_length_c   9.00586992
_cell_angle_alpha   56.23226951
_cell_angle_beta   56.23226951
_cell_angle_gamma   56.23226951
_symmetry_Int_Tables_number   1
_chemical_formula_structural   Ni(SO4)2
_chemical_formula_sum   'Ni3 S6 O24'
_cell_volume   471.45489794
_cell_formula_units_Z   3
loop_
 _symmetry_equiv_pos_site_id
 _symmetry_equiv_pos_as_xyz
  1  'x, y, z'
loop_
 _atom_site_type_symbol
 _atom_site_label
 _atom_site_symmetry_multiplicity
 _atom_site_fract_x
 _atom_site_fract_y
 _atom_site_fract_z
 _atom_site_occupancy
  Ni  Ni0  1  0.643603  0.643603  0.643603  1
  Ni  Ni1  1  0.356313  0.356313  0.356313  1
  Ni  Ni2  1  0.148905  0.148905  0.148905  1
  S  S3  1  0.255295  0.535426  0.956650  1
  S  S4  1  0.956650  0.255295  0.535425  1
  S  S5  1  0.535425  0.956650  0.255295  1
  S  S6  1  0.457925  0.040511  0.750209  1
  S  S7  1  0.040511  0.750209  0.457925  1
  S  S8  1  0.750209  0.457925  0.040511  1
  O  O9  1  0.697394  0.487474  0.895367  1
  O  O10  1  0.487474  0.895367  0.697394  1
  O  O11  1  0.051291  0.665471  0.994496  1
  O  O12  1  0.895367  0.697394  0.487474  1
  O  O13  1  0.279176  0.350167  0.974181  1
  O  O14  1  0.380346  0.620423  0.764339  1
  O  O15  1  0.764339  0.380346  0.620423  1
  O  O16  1  0.994496  0.051291  0.665471  1
  O  O17  1  0.620423  0.764339  0.380346  1
  O  O18  1  0.326281  0.014804  0.951018  1
  O  O19  1  0.643219  0.028282  0.723130  1
  O  O20  1  0.028282  0.723130  0.643219  1
  O  O21  1  0.974181  0.279176  0.350167  1
  O  O22  1  0.350167  0.974181  0.279176  1
  O  O23  1  0.665471  0.994496  0.051291  1
  O  O24  1  0.377351  0.237451  0.620775  1
  O  O25  1  0.014804  0.951018  0.326281  1
  O  O26  1  0.237451  0.620775  0.377351  1
  O  O27  1  0.620775  0.377351  0.237451  1
  O  O28  1  0.723130  0.643219  0.028282  1
  O  O29  1  0.104463  0.305078  0.510826  1
  O  O30  1  0.951018  0.326281  0.014804  1
  O  O31  1  0.510826  0.104463  0.305078  1
  O  O32  1  0.305078  0.510826  0.104463  1
