# generated using pymatgen
data_LiV5O7F
_symmetry_space_group_name_H-M   'P 1'
_cell_length_a   6.01960429
_cell_length_b   6.01960429
_cell_length_c   6.01960429
_cell_angle_alpha   61.39301363
_cell_angle_beta   61.39301363
_cell_angle_gamma   61.39301363
_symmetry_Int_Tables_number   1
_chemical_formula_structural   LiV5O7F
_chemical_formula_sum   'Li1 V5 O7 F1'
_cell_volume   159.06362648
_cell_formula_units_Z   1
loop_
 _symmetry_equiv_pos_site_id
 _symmetry_equiv_pos_as_xyz
  1  'x, y, z'
loop_
 _atom_site_type_symbol
 _atom_site_label
 _atom_site_symmetry_multiplicity
 _atom_site_fract_x
 _atom_site_fract_y
 _atom_site_fract_z
 _atom_site_occupancy
  Li  Li0  1  0.241546  0.241546  0.241546  1
  V  V1  1  0.009242  0.009242  0.009242  1
  V  V2  1  0.620062  0.620062  0.620062  1
  V  V3  1  0.128841  0.632101  0.632101  1
  V  V4  1  0.632101  0.632101  0.128841  1
  V  V5  1  0.632101  0.128841  0.632101  1
  O  O6  1  0.374864  0.374864  0.843309  1
  O  O7  1  0.374864  0.843309  0.374864  1
  O  O8  1  0.843309  0.374864  0.374864  1
  O  O9  1  0.873096  0.873096  0.873096  1
  O  O10  1  0.404145  0.868347  0.868347  1
  O  O11  1  0.868347  0.868347  0.404145  1
  O  O12  1  0.868347  0.404145  0.868347  1
  F  F13  1  0.379139  0.379139  0.379139  1
