# generated using pymatgen
data_LiCoP2O7
_symmetry_space_group_name_H-M   'P 1'
_cell_length_a   5.08916230
_cell_length_b   13.47850111
_cell_length_c   9.68641749
_cell_angle_alpha   90.00000000
_cell_angle_beta   120.39538506
_cell_angle_gamma   90.00000000
_symmetry_Int_Tables_number   1
_chemical_formula_structural   LiCoP2O7
_chemical_formula_sum   'Li4 Co4 P8 O28'
_cell_volume   573.10947859
_cell_formula_units_Z   4
loop_
 _symmetry_equiv_pos_site_id
 _symmetry_equiv_pos_as_xyz
  1  'x, y, z'
loop_
 _atom_site_type_symbol
 _atom_site_label
 _atom_site_symmetry_multiplicity
 _atom_site_fract_x
 _atom_site_fract_y
 _atom_site_fract_z
 _atom_site_occupancy
  Li  Li0  1  0.047820  0.367902  0.646225  1
  Li  Li1  1  0.047820  0.132098  0.146225  1
  Li  Li2  1  0.952180  0.632098  0.353775  1
  Li  Li3  1  0.952180  0.867902  0.853775  1
  Co  Co4  1  0.034061  0.671860  0.738336  1
  Co  Co5  1  0.965939  0.328140  0.261664  1
  Co  Co6  1  0.034061  0.828140  0.238336  1
  Co  Co7  1  0.965939  0.171860  0.761664  1
  P  P8  1  0.521526  0.962794  0.222560  1
  P  P9  1  0.478474  0.462794  0.277440  1
  P  P10  1  0.478474  0.037206  0.777440  1
  P  P11  1  0.721069  0.680118  0.959480  1
  P  P12  1  0.278931  0.180118  0.540520  1
  P  P13  1  0.721069  0.819882  0.459480  1
  P  P14  1  0.278931  0.319882  0.040520  1
  P  P15  1  0.521526  0.537206  0.722560  1
  O  O16  1  0.169028  0.230724  0.642788  1
  O  O17  1  0.743044  0.113044  0.865020  1
  O  O18  1  0.937434  0.806776  0.639302  1
  O  O19  1  0.398900  0.713495  0.918537  1
  O  O20  1  0.221268  0.441143  0.317220  1
  O  O21  1  0.426085  0.068778  0.202671  1
  O  O22  1  0.426085  0.431222  0.702671  1
  O  O23  1  0.062566  0.306776  0.860698  1
  O  O24  1  0.221268  0.058857  0.817220  1
  O  O25  1  0.573915  0.568778  0.297329  1
  O  O26  1  0.169028  0.269276  0.142788  1
  O  O27  1  0.778732  0.558857  0.682780  1
  O  O28  1  0.743044  0.386956  0.365020  1
  O  O29  1  0.778732  0.941143  0.182780  1
  O  O30  1  0.312529  0.063789  0.584193  1
  O  O31  1  0.312529  0.436211  0.084193  1
  O  O32  1  0.687471  0.563789  0.915807  1
  O  O33  1  0.601100  0.286505  0.081463  1
  O  O34  1  0.573915  0.931222  0.797329  1
  O  O35  1  0.937434  0.693224  0.139302  1
  O  O36  1  0.256956  0.886956  0.134980  1
  O  O37  1  0.256956  0.613044  0.634980  1
  O  O38  1  0.687471  0.936211  0.415807  1
  O  O39  1  0.398900  0.786505  0.418537  1
  O  O40  1  0.830972  0.730724  0.857212  1
  O  O41  1  0.062566  0.193224  0.360698  1
  O  O42  1  0.601100  0.213495  0.581463  1
  O  O43  1  0.830972  0.769276  0.357212  1
