# generated using pymatgen
data_Ba6Li2Ti7(Sb3O14)3
_symmetry_space_group_name_H-M   'P 1'
_cell_length_a   9.26628179
_cell_length_b   9.26628179
_cell_length_c   11.99199607
_cell_angle_alpha   89.93722617
_cell_angle_beta   90.06277383
_cell_angle_gamma   60.13017140
_symmetry_Int_Tables_number   1
_chemical_formula_structural   Ba6Li2Ti7(Sb3O14)3
_chemical_formula_sum   'Ba6 Li2 Ti7 Sb9 O42'
_cell_volume   892.89469977
_cell_formula_units_Z   1
loop_
 _symmetry_equiv_pos_site_id
 _symmetry_equiv_pos_as_xyz
  1  'x, y, z'
loop_
 _atom_site_type_symbol
 _atom_site_label
 _atom_site_symmetry_multiplicity
 _atom_site_fract_x
 _atom_site_fract_y
 _atom_site_fract_z
 _atom_site_occupancy
  Ba  Ba0  1  0.596216  0.403784  0.245258  1
  Ba  Ba1  1  0.410399  0.589601  0.752025  1
  Ba  Ba2  1  0.404647  0.001324  0.245394  1
  Ba  Ba3  1  0.596784  0.002932  0.750468  1
  Ba  Ba4  1  0.997068  0.403216  0.750468  1
  Ba  Ba5  1  0.998676  0.595353  0.245394  1
  Li  Li6  1  0.000954  0.999046  0.228256  1
  Li  Li7  1  0.994759  0.005241  0.736431  1
  Ti  Ti8  1  0.747001  0.252999  0.915238  1
  Ti  Ti9  1  0.744180  0.255820  0.600990  1
  Ti  Ti10  1  0.257932  0.742068  0.097484  1
  Ti  Ti11  1  0.257929  0.999214  0.597920  1
  Ti  Ti12  1  0.992815  0.259830  0.091816  1
  Ti  Ti13  1  0.740170  0.007185  0.091816  1
  Ti  Ti14  1  0.000786  0.742071  0.597920  1
  Sb  Sb15  1  0.246770  0.753230  0.415558  1
  Sb  Sb16  1  0.666596  0.666478  0.999537  1
  Sb  Sb17  1  0.666866  0.666431  0.499627  1
  Sb  Sb18  1  0.244172  0.001727  0.915870  1
  Sb  Sb19  1  0.999387  0.245484  0.413619  1
  Sb  Sb20  1  0.754516  0.000613  0.413619  1
  Sb  Sb21  1  0.333522  0.333404  0.999537  1
  Sb  Sb22  1  0.333569  0.333134  0.499627  1
  Sb  Sb23  1  0.998273  0.755828  0.915870  1
  O  O24  1  0.795143  0.204857  0.072495  1
  O  O25  1  0.795571  0.204429  0.426099  1
  O  O26  1  0.791401  0.208599  0.751683  1
  O  O27  1  0.687434  0.482360  0.602133  1
  O  O28  1  0.689238  0.478364  0.899343  1
  O  O29  1  0.203501  0.796499  0.249774  1
  O  O30  1  0.829125  0.486729  0.104888  1
  O  O31  1  0.828679  0.487987  0.393836  1
  O  O32  1  0.201659  0.798341  0.580408  1
  O  O33  1  0.205934  0.794066  0.927402  1
  O  O34  1  0.483430  0.685990  0.101984  1
  O  O35  1  0.488526  0.682225  0.393581  1
  O  O36  1  0.487380  0.826940  0.892738  1
  O  O37  1  0.482925  0.830370  0.601293  1
  O  O38  1  0.201181  0.997322  0.080549  1
  O  O39  1  0.204756  0.999881  0.427196  1
  O  O40  1  0.830799  0.686837  0.601301  1
  O  O41  1  0.830378  0.679590  0.892611  1
  O  O42  1  0.200935  0.001547  0.749282  1
  O  O43  1  0.682493  0.829483  0.393382  1
  O  O44  1  0.685307  0.834881  0.097290  1
  O  O45  1  0.999633  0.198632  0.579341  1
  O  O46  1  0.003731  0.202175  0.928214  1
  O  O47  1  0.000979  0.201864  0.247402  1
  O  O48  1  0.313163  0.169201  0.601301  1
  O  O49  1  0.320410  0.169622  0.892611  1
  O  O50  1  0.798136  0.999021  0.247402  1
  O  O51  1  0.165119  0.314693  0.097290  1
  O  O52  1  0.170517  0.317507  0.393382  1
  O  O53  1  0.801368  0.000367  0.579341  1
  O  O54  1  0.797825  0.996269  0.928214  1
  O  O55  1  0.513271  0.170875  0.104888  1
  O  O56  1  0.512013  0.171321  0.393836  1
  O  O57  1  0.517640  0.312566  0.602133  1
  O  O58  1  0.521636  0.310762  0.899343  1
  O  O59  1  0.169630  0.517075  0.601293  1
  O  O60  1  0.173060  0.512620  0.892738  1
  O  O61  1  0.317775  0.511474  0.393581  1
  O  O62  1  0.314010  0.516570  0.101984  1
  O  O63  1  0.998453  0.799065  0.749282  1
  O  O64  1  0.000119  0.795244  0.427196  1
  O  O65  1  0.002678  0.798819  0.080549  1
