# generated using pymatgen
data_Ba3(YI6)2
_symmetry_space_group_name_H-M   'P 1'
_cell_length_a   14.51142638
_cell_length_b   13.84487002
_cell_length_c   20.59209182
_cell_angle_alpha   90.00000000
_cell_angle_beta   132.10278109
_cell_angle_gamma   90.00000000
_symmetry_Int_Tables_number   1
_chemical_formula_structural   Ba3(YI6)2
_chemical_formula_sum   'Ba12 Y8 I48'
_cell_volume   3069.51788236
_cell_formula_units_Z   4
loop_
 _symmetry_equiv_pos_site_id
 _symmetry_equiv_pos_as_xyz
  1  'x, y, z'
loop_
 _atom_site_type_symbol
 _atom_site_label
 _atom_site_symmetry_multiplicity
 _atom_site_fract_x
 _atom_site_fract_y
 _atom_site_fract_z
 _atom_site_occupancy
  Ba  Ba0  1  0.836113  0.782488  0.807054  1
  Ba  Ba1  1  0.724368  0.397410  0.709695  1
  Ba  Ba2  1  0.710436  0.017856  0.520139  1
  Ba  Ba3  1  0.289564  0.517856  0.979861  1
  Ba  Ba4  1  0.275632  0.897410  0.790305  1
  Ba  Ba5  1  0.163887  0.282488  0.692946  1
  Ba  Ba6  1  0.836113  0.717512  0.307054  1
  Ba  Ba7  1  0.724368  0.102590  0.209695  1
  Ba  Ba8  1  0.710436  0.482144  0.020139  1
  Ba  Ba9  1  0.289564  0.982144  0.479861  1
  Ba  Ba10  1  0.275632  0.602590  0.290305  1
  Ba  Ba11  1  0.163887  0.217512  0.192946  1
  Y  Y12  1  0.124615  0.150920  0.934036  1
  Y  Y13  1  0.336002  0.820762  0.145258  1
  Y  Y14  1  0.875385  0.650920  0.565964  1
  Y  Y15  1  0.663998  0.320762  0.354742  1
  Y  Y16  1  0.336002  0.679238  0.645258  1
  Y  Y17  1  0.124615  0.349080  0.434036  1
  Y  Y18  1  0.663998  0.179238  0.854742  1
  Y  Y19  1  0.875385  0.849080  0.065964  1
  I  I20  1  0.914729  0.253320  0.923697  1
  I  I21  1  0.592601  0.880933  0.590748  1
  I  I22  1  0.961843  0.551662  0.860351  1
  I  I23  1  0.668241  0.570602  0.545969  1
  I  I24  1  0.397229  0.834411  0.316534  1
  I  I25  1  0.432363  0.382875  0.315907  1
  I  I26  1  0.209227  0.025284  0.089839  1
  I  I27  1  0.929582  0.018750  0.796202  1
  I  I28  1  0.252776  0.312021  0.067770  1
  I  I29  1  0.414326  0.613353  0.190321  1
  I  I30  1  0.223381  0.775319  0.959755  1
  I  I31  1  0.041406  0.297010  0.798257  1
  I  I32  1  0.958594  0.797010  0.701743  1
  I  I33  1  0.776619  0.275319  0.540245  1
  I  I34  1  0.585674  0.113353  0.309679  1
  I  I35  1  0.747224  0.812021  0.432230  1
  I  I36  1  0.070418  0.518750  0.703798  1
  I  I37  1  0.790773  0.525284  0.410161  1
  I  I38  1  0.567637  0.882875  0.184093  1
  I  I39  1  0.331759  0.070602  0.954031  1
  I  I40  1  0.602771  0.334411  0.183466  1
  I  I41  1  0.038157  0.051662  0.639649  1
  I  I42  1  0.407399  0.380933  0.909252  1
  I  I43  1  0.085271  0.753320  0.576303  1
  I  I44  1  0.914729  0.246680  0.423697  1
  I  I45  1  0.592601  0.619067  0.090748  1
  I  I46  1  0.961843  0.948338  0.360351  1
  I  I47  1  0.397229  0.665589  0.816534  1
  I  I48  1  0.668241  0.929398  0.045969  1
  I  I49  1  0.432363  0.117125  0.815907  1
  I  I50  1  0.209227  0.474716  0.589839  1
  I  I51  1  0.929582  0.481250  0.296202  1
  I  I52  1  0.252776  0.187979  0.567770  1
  I  I53  1  0.414326  0.886647  0.690321  1
  I  I54  1  0.223381  0.724681  0.459755  1
  I  I55  1  0.041406  0.202990  0.298257  1
  I  I56  1  0.958594  0.702990  0.201743  1
  I  I57  1  0.776619  0.224681  0.040245  1
  I  I58  1  0.585674  0.386647  0.809679  1
  I  I59  1  0.747224  0.687979  0.932230  1
  I  I60  1  0.070418  0.981250  0.203798  1
  I  I61  1  0.790773  0.974716  0.910161  1
  I  I62  1  0.567637  0.617125  0.684093  1
  I  I63  1  0.602771  0.165589  0.683466  1
  I  I64  1  0.331759  0.429398  0.454031  1
  I  I65  1  0.038157  0.448338  0.139649  1
  I  I66  1  0.407399  0.119067  0.409252  1
  I  I67  1  0.085271  0.746680  0.076303  1
