# generated using pymatgen
data_LiBi(PO3)4
_symmetry_space_group_name_H-M   'P 1'
_cell_length_a   9.12199675
_cell_length_b   9.12199675
_cell_length_c   10.02574098
_cell_angle_alpha   56.94666220
_cell_angle_beta   123.05333780
_cell_angle_gamma   133.24915057
_symmetry_Int_Tables_number   1
_chemical_formula_structural   LiBi(PO3)4
_chemical_formula_sum   'Li2 Bi2 P8 O24'
_cell_volume   488.75068984
_cell_formula_units_Z   2
loop_
 _symmetry_equiv_pos_site_id
 _symmetry_equiv_pos_as_xyz
  1  'x, y, z'
loop_
 _atom_site_type_symbol
 _atom_site_label
 _atom_site_symmetry_multiplicity
 _atom_site_fract_x
 _atom_site_fract_y
 _atom_site_fract_z
 _atom_site_occupancy
  Li  Li0  1  0.000000  0.000000  0.500000  1
  Li  Li1  1  0.000000  0.000000  0.000000  1
  Bi  Bi2  1  0.245282  0.245282  0.250000  1
  Bi  Bi3  1  0.754718  0.754718  0.750000  1
  P  P4  1  0.310544  0.584757  0.838036  1
  P  P5  1  0.686795  0.987177  0.905584  1
  P  P6  1  0.987177  0.686795  0.594416  1
  P  P7  1  0.584757  0.310544  0.661964  1
  P  P8  1  0.415243  0.689456  0.338036  1
  P  P9  1  0.012823  0.313205  0.405584  1
  P  P10  1  0.313205  0.012823  0.094416  1
  P  P11  1  0.689456  0.415243  0.161964  1
  O  O12  1  0.756757  0.004823  0.787459  1
  O  O13  1  0.175060  0.394223  0.951866  1
  O  O14  1  0.167013  0.649470  0.661618  1
  O  O15  1  0.453605  0.779370  0.911539  1
  O  O16  1  0.563315  0.430372  0.200621  1
  O  O17  1  0.779370  0.453605  0.588461  1
  O  O18  1  0.649470  0.167013  0.838382  1
  O  O19  1  0.989979  0.836114  0.423897  1
  O  O20  1  0.394223  0.175060  0.548134  1
  O  O21  1  0.836114  0.989979  0.076103  1
  O  O22  1  0.004823  0.756757  0.712541  1
  O  O23  1  0.430372  0.563315  0.299379  1
  O  O24  1  0.569628  0.436685  0.700621  1
  O  O25  1  0.995177  0.243243  0.287459  1
  O  O26  1  0.163886  0.010021  0.923897  1
  O  O27  1  0.605777  0.824940  0.451866  1
  O  O28  1  0.010021  0.163886  0.576103  1
  O  O29  1  0.350530  0.832987  0.161618  1
  O  O30  1  0.220630  0.546395  0.411539  1
  O  O31  1  0.436685  0.569628  0.799379  1
  O  O32  1  0.546395  0.220630  0.088461  1
  O  O33  1  0.832987  0.350530  0.338382  1
  O  O34  1  0.824940  0.605777  0.048134  1
  O  O35  1  0.243243  0.995177  0.212541  1
