# generated using pymatgen
data_Li2Ni3(P2O7)2
_symmetry_space_group_name_H-M   'P 1'
_cell_length_a   5.41892837
_cell_length_b   6.86905648
_cell_length_c   7.35312481
_cell_angle_alpha   74.35496893
_cell_angle_beta   81.97509761
_cell_angle_gamma   67.97139526
_symmetry_Int_Tables_number   1
_chemical_formula_structural   Li2Ni3(P2O7)2
_chemical_formula_sum   'Li2 Ni3 P4 O14'
_cell_volume   244.09641192
_cell_formula_units_Z   1
loop_
 _symmetry_equiv_pos_site_id
 _symmetry_equiv_pos_as_xyz
  1  'x, y, z'
loop_
 _atom_site_type_symbol
 _atom_site_label
 _atom_site_symmetry_multiplicity
 _atom_site_fract_x
 _atom_site_fract_y
 _atom_site_fract_z
 _atom_site_occupancy
  Li  Li0  1  0.619776  0.018526  0.687255  1
  Li  Li1  1  0.380224  0.981474  0.312745  1
  Ni  Ni2  1  0.000000  0.000000  0.000000  1
  Ni  Ni3  1  0.189225  0.512747  0.315599  1
  Ni  Ni4  1  0.810775  0.487253  0.684401  1
  P  P5  1  0.199745  0.737638  0.652715  1
  P  P6  1  0.352735  0.313405  0.934216  1
  P  P7  1  0.647265  0.686595  0.065784  1
  P  P8  1  0.800255  0.262362  0.347285  1
  O  O9  1  0.172203  0.229807  0.853476  1
  O  O10  1  0.056128  0.648504  0.544468  1
  O  O11  1  0.324808  0.279675  0.147549  1
  O  O12  1  0.028109  0.943605  0.713429  1
  O  O13  1  0.256506  0.568450  0.857708  1
  O  O14  1  0.533588  0.262166  0.450995  1
  O  O15  1  0.353342  0.769510  0.142856  1
  O  O16  1  0.646658  0.230490  0.857144  1
  O  O17  1  0.466412  0.737834  0.549005  1
  O  O18  1  0.743494  0.431550  0.142292  1
  O  O19  1  0.971891  0.056395  0.286571  1
  O  O20  1  0.675192  0.720325  0.852451  1
  O  O21  1  0.943872  0.351496  0.455532  1
  O  O22  1  0.827797  0.770193  0.146524  1
