# generated using pymatgen
data_Na3NiBSO7
_symmetry_space_group_name_H-M   'P 1'
_cell_length_a   5.24783099
_cell_length_b   6.74605816
_cell_length_c   8.96410741
_cell_angle_alpha   90.00000000
_cell_angle_beta   91.26272446
_cell_angle_gamma   90.00000000
_symmetry_Int_Tables_number   1
_chemical_formula_structural   Na3NiBSO7
_chemical_formula_sum   'Na6 Ni2 B2 S2 O14'
_cell_volume   317.27181649
_cell_formula_units_Z   2
loop_
 _symmetry_equiv_pos_site_id
 _symmetry_equiv_pos_as_xyz
  1  'x, y, z'
loop_
 _atom_site_type_symbol
 _atom_site_label
 _atom_site_symmetry_multiplicity
 _atom_site_fract_x
 _atom_site_fract_y
 _atom_site_fract_z
 _atom_site_occupancy
  Na  Na0  1  0.248621  0.750000  0.064553  1
  Na  Na1  1  0.753955  0.007595  0.242144  1
  Na  Na2  1  0.753955  0.492405  0.242144  1
  Na  Na3  1  0.246045  0.507595  0.757856  1
  Na  Na4  1  0.246045  0.992405  0.757856  1
  Na  Na5  1  0.751379  0.250000  0.935447  1
  Ni  Ni6  1  0.229737  0.250000  0.336070  1
  Ni  Ni7  1  0.770263  0.750000  0.663930  1
  B  B8  1  0.265073  0.250000  0.066269  1
  B  B9  1  0.734927  0.750000  0.933731  1
  S  S10  1  0.290219  0.750000  0.419390  1
  S  S11  1  0.709781  0.250000  0.580610  1
  O  O12  1  0.712025  0.750000  0.084385  1
  O  O13  1  0.031715  0.250000  0.139147  1
  O  O14  1  0.474193  0.250000  0.166305  1
  O  O15  1  0.221929  0.926547  0.326844  1
  O  O16  1  0.221929  0.573453  0.326844  1
  O  O17  1  0.571978  0.750000  0.453631  1
  O  O18  1  0.849642  0.250000  0.438325  1
  O  O19  1  0.150358  0.750000  0.561675  1
  O  O20  1  0.428022  0.250000  0.546369  1
  O  O21  1  0.778071  0.426547  0.673156  1
  O  O22  1  0.778071  0.073453  0.673156  1
  O  O23  1  0.525807  0.750000  0.833695  1
  O  O24  1  0.968285  0.750000  0.860853  1
  O  O25  1  0.287975  0.250000  0.915615  1
