# generated using pymatgen
data_LiNiPO4
_symmetry_space_group_name_H-M   'P 1'
_cell_length_a   5.94327933
_cell_length_b   6.32815096
_cell_length_c   9.34644730
_cell_angle_alpha   74.00910335
_cell_angle_beta   84.67305231
_cell_angle_gamma   80.26591173
_symmetry_Int_Tables_number   1
_chemical_formula_structural   LiNiPO4
_chemical_formula_sum   'Li4 Ni4 P4 O16'
_cell_volume   332.65549003
_cell_formula_units_Z   4
loop_
 _symmetry_equiv_pos_site_id
 _symmetry_equiv_pos_as_xyz
  1  'x, y, z'
loop_
 _atom_site_type_symbol
 _atom_site_label
 _atom_site_symmetry_multiplicity
 _atom_site_fract_x
 _atom_site_fract_y
 _atom_site_fract_z
 _atom_site_occupancy
  Li  Li0  1  0.587154  0.825222  0.732409  1
  Li  Li1  1  0.437402  0.657546  0.330379  1
  Li  Li2  1  0.562598  0.342454  0.669621  1
  Li  Li3  1  0.412846  0.174778  0.267591  1
  Ni  Ni4  1  0.991247  0.921552  0.283545  1
  Ni  Ni5  1  0.806244  0.647041  0.066735  1
  Ni  Ni6  1  0.193756  0.352959  0.933265  1
  Ni  Ni7  1  0.008753  0.078448  0.716455  1
  P  P8  1  0.152432  0.716187  0.620002  1
  P  P9  1  0.285633  0.815680  0.000521  1
  P  P10  1  0.714367  0.184320  0.999479  1
  P  P11  1  0.847568  0.283813  0.379998  1
  O  O12  1  0.530536  0.739550  0.948831  1
  O  O13  1  0.294715  0.893511  0.637065  1
  O  O14  1  0.908289  0.790575  0.679701  1
  O  O15  1  0.802681  0.952743  0.104101  1
  O  O16  1  0.130839  0.649658  0.985534  1
  O  O17  1  0.163695  0.708154  0.455296  1
  O  O18  1  0.275507  0.825452  0.164236  1
  O  O19  1  0.741444  0.521363  0.289340  1
  O  O20  1  0.258556  0.478637  0.710660  1
  O  O21  1  0.724493  0.174548  0.835764  1
  O  O22  1  0.836305  0.291846  0.544704  1
  O  O23  1  0.869161  0.350342  0.014466  1
  O  O24  1  0.197319  0.047257  0.895899  1
  O  O25  1  0.091711  0.209425  0.320299  1
  O  O26  1  0.705285  0.106489  0.362935  1
  O  O27  1  0.469464  0.260450  0.051169  1
