# generated using pymatgen
data_K3GdH6(C2O5)3
_symmetry_space_group_name_H-M   'P 1'
_cell_length_a   8.64478401
_cell_length_b   9.46818945
_cell_length_c   9.80886868
_cell_angle_alpha   97.95087546
_cell_angle_beta   91.84519450
_cell_angle_gamma   96.70882405
_symmetry_Int_Tables_number   1
_chemical_formula_structural   K3GdH6(C2O5)3
_chemical_formula_sum   'K6 Gd2 H12 C12 O30'
_cell_volume   788.74287289
_cell_formula_units_Z   2
loop_
 _symmetry_equiv_pos_site_id
 _symmetry_equiv_pos_as_xyz
  1  'x, y, z'
loop_
 _atom_site_type_symbol
 _atom_site_label
 _atom_site_symmetry_multiplicity
 _atom_site_fract_x
 _atom_site_fract_y
 _atom_site_fract_z
 _atom_site_occupancy
  K  K0  1  0.711972  0.856874  0.887066  1
  K  K1  1  0.288028  0.143126  0.112934  1
  K  K2  1  0.949828  0.680803  0.612046  1
  K  K3  1  0.050172  0.319197  0.387954  1
  K  K4  1  0.650944  0.211400  0.699549  1
  K  K5  1  0.349056  0.788600  0.300451  1
  Gd  Gd6  1  0.773980  0.638864  0.216851  1
  Gd  Gd7  1  0.226020  0.361136  0.783149  1
  H  H8  1  0.740644  0.882698  0.466911  1
  H  H9  1  0.259356  0.117302  0.533089  1
  H  H10  1  0.635411  0.745519  0.493864  1
  H  H11  1  0.364589  0.254481  0.506136  1
  H  H12  1  0.612647  0.000664  0.212402  1
  H  H13  1  0.387353  0.999336  0.787598  1
  H  H14  1  0.575263  0.123675  0.324803  1
  H  H15  1  0.424737  0.876325  0.675197  1
  H  H16  1  0.856591  0.140755  0.042355  1
  H  H17  1  0.143409  0.859245  0.957645  1
  H  H18  1  0.725397  0.234049  0.017032  1
  H  H19  1  0.274603  0.765951  0.982968  1
  C  C20  1  0.526252  0.423847  0.998425  1
  C  C21  1  0.473748  0.576153  0.001575  1
  C  C22  1  0.033204  0.460142  0.056302  1
  C  C23  1  0.966796  0.539858  0.943698  1
  C  C24  1  0.932044  0.969270  0.212174  1
  C  C25  1  0.067956  0.030730  0.787826  1
  C  C26  1  0.035880  0.914845  0.322635  1
  C  C27  1  0.964120  0.085155  0.677365  1
  C  C28  1  0.678031  0.386243  0.395929  1
  C  C29  1  0.321969  0.613757  0.604071  1
  C  C30  1  0.514121  0.422841  0.349235  1
  C  C31  1  0.485879  0.577159  0.650765  1
  O  O32  1  0.649111  0.413904  0.067956  1
  O  O33  1  0.350889  0.586096  0.932044  1
  O  O34  1  0.558223  0.680731  0.073313  1
  O  O35  1  0.441777  0.319269  0.926687  1
  O  O36  1  0.983794  0.487928  0.176738  1
  O  O37  1  0.016206  0.512072  0.823262  1
  O  O38  1  0.869411  0.625588  0.979531  1
  O  O39  1  0.130589  0.374412  0.020469  1
  O  O40  1  0.811842  0.882869  0.164128  1
  O  O41  1  0.188158  0.117131  0.835872  1
  O  O42  1  0.002070  0.782710  0.338155  1
  O  O43  1  0.997930  0.217290  0.661845  1
  O  O44  1  0.791223  0.486640  0.394583  1
  O  O45  1  0.208777  0.513360  0.605417  1
  O  O46  1  0.515632  0.540598  0.301157  1
  O  O47  1  0.484368  0.459402  0.698843  1
  O  O48  1  0.972638  0.090986  0.178182  1
  O  O49  1  0.027362  0.909014  0.821818  1
  O  O50  1  0.145498  0.001858  0.383338  1
  O  O51  1  0.854502  0.998142  0.616662  1
  O  O52  1  0.691247  0.265251  0.430580  1
  O  O53  1  0.308753  0.734749  0.569420  1
  O  O54  1  0.394557  0.335875  0.362068  1
  O  O55  1  0.605443  0.664125  0.637932  1
  O  O56  1  0.677774  0.796454  0.417658  1
  O  O57  1  0.322226  0.203546  0.582342  1
  O  O58  1  0.525356  0.044402  0.254298  1
  O  O59  1  0.474644  0.955598  0.745702  1
  O  O60  1  0.777217  0.154525  0.971162  1
  O  O61  1  0.222783  0.845475  0.028838  1
