# generated using pymatgen
data_Li6Cr3Fe(PO4)6
_symmetry_space_group_name_H-M   'P 1'
_cell_length_a   8.53711141
_cell_length_b   8.57713443
_cell_length_c   8.57675290
_cell_angle_alpha   61.57418994
_cell_angle_beta   61.56032453
_cell_angle_gamma   61.54343925
_symmetry_Int_Tables_number   1
_chemical_formula_structural   Li6Cr3Fe(PO4)6
_chemical_formula_sum   'Li6 Cr3 Fe1 P6 O24'
_cell_volume   459.61730001
_cell_formula_units_Z   1
loop_
 _symmetry_equiv_pos_site_id
 _symmetry_equiv_pos_as_xyz
  1  'x, y, z'
loop_
 _atom_site_type_symbol
 _atom_site_label
 _atom_site_symmetry_multiplicity
 _atom_site_fract_x
 _atom_site_fract_y
 _atom_site_fract_z
 _atom_site_occupancy
  Li  Li0  1  0.026471  0.003491  0.995282  1
  Li  Li1  1  0.750014  0.147979  0.351148  1
  Li  Li2  1  0.472624  0.504472  0.496051  1
  Li  Li3  1  0.249987  0.850142  0.654343  1
  Li  Li4  1  0.655413  0.249887  0.846314  1
  Li  Li5  1  0.849150  0.657651  0.248161  1
  Cr  Cr6  1  0.141512  0.145433  0.138730  1
  Cr  Cr7  1  0.359174  0.361459  0.355316  1
  Cr  Cr8  1  0.643830  0.645355  0.644898  1
  Fe  Fe9  1  0.853150  0.851614  0.851761  1
  P  P10  1  0.048806  0.750847  0.448182  1
  P  P11  1  0.448929  0.049541  0.749554  1
  P  P12  1  0.750122  0.452359  0.045606  1
  P  P13  1  0.250747  0.541371  0.959757  1
  P  P14  1  0.542967  0.963207  0.251229  1
  P  P15  1  0.958064  0.250420  0.537543  1
  O  O16  1  0.130415  0.289943  0.498231  1
  O  O17  1  0.298513  0.513280  0.122276  1
  O  O18  1  0.047829  0.922264  0.265769  1
  O  O19  1  0.531399  0.122245  0.296574  1
  O  O20  1  0.238987  0.592576  0.429766  1
  O  O21  1  0.015280  0.808285  0.610695  1
  O  O22  1  0.258444  0.072265  0.906779  1
  O  O23  1  0.454118  0.231769  0.577860  1
  O  O24  1  0.593021  0.432499  0.239708  1
  O  O25  1  0.202228  0.379262  0.987616  1
  O  O26  1  0.090248  0.736460  0.932614  1
  O  O27  1  0.371024  0.002910  0.210589  1
  O  O28  1  0.610683  0.012285  0.811207  1
  O  O29  1  0.906370  0.257940  0.069395  1
  O  O30  1  0.811226  0.610715  0.012976  1
  O  O31  1  0.412867  0.564920  0.765045  1
  O  O32  1  0.563350  0.769527  0.413236  1
  O  O33  1  0.734457  0.932291  0.088726  1
  O  O34  1  0.969551  0.204724  0.378621  1
  O  O35  1  0.766731  0.414616  0.565074  1
  O  O36  1  0.479361  0.887594  0.694114  1
  O  O37  1  0.934030  0.090088  0.731537  1
  O  O38  1  0.691807  0.483134  0.886762  1
  O  O39  1  0.887101  0.692178  0.481953  1
