# generated using pymatgen
data_MnP2WO8
_symmetry_space_group_name_H-M   'P 1'
_cell_length_a   5.02477084
_cell_length_b   6.08044030
_cell_length_c   10.31267632
_cell_angle_alpha   90.00000000
_cell_angle_beta   91.76386053
_cell_angle_gamma   90.00000000
_symmetry_Int_Tables_number   1
_chemical_formula_structural   MnP2WO8
_chemical_formula_sum   'Mn2 P4 W2 O16'
_cell_volume   314.93204055
_cell_formula_units_Z   2
loop_
 _symmetry_equiv_pos_site_id
 _symmetry_equiv_pos_as_xyz
  1  'x, y, z'
loop_
 _atom_site_type_symbol
 _atom_site_label
 _atom_site_symmetry_multiplicity
 _atom_site_fract_x
 _atom_site_fract_y
 _atom_site_fract_z
 _atom_site_occupancy
  Mn  Mn0  1  0.956203  0.250000  0.275651  1
  Mn  Mn1  1  0.043797  0.750000  0.724349  1
  P  P2  1  0.425744  0.250000  0.090794  1
  P  P3  1  0.900084  0.750000  0.402550  1
  P  P4  1  0.099916  0.250000  0.597450  1
  P  P5  1  0.574256  0.750000  0.909206  1
  W  W6  1  0.459021  0.750000  0.220220  1
  W  W7  1  0.540979  0.250000  0.779780  1
  O  O8  1  0.681579  0.750000  0.049719  1
  O  O9  1  0.726317  0.250000  0.102950  1
  O  O10  1  0.296892  0.049042  0.167059  1
  O  O11  1  0.296892  0.450958  0.167059  1
  O  O12  1  0.747409  0.943708  0.326422  1
  O  O13  1  0.747409  0.556292  0.326422  1
  O  O14  1  0.196966  0.750000  0.374968  1
  O  O15  1  0.151065  0.250000  0.454367  1
  O  O16  1  0.848935  0.750000  0.545633  1
  O  O17  1  0.803034  0.250000  0.625032  1
  O  O18  1  0.252591  0.056292  0.673578  1
  O  O19  1  0.252591  0.443708  0.673578  1
  O  O20  1  0.703108  0.549042  0.832941  1
  O  O21  1  0.703108  0.950958  0.832941  1
  O  O22  1  0.273683  0.750000  0.897050  1
  O  O23  1  0.318421  0.250000  0.950281  1
