# generated using pymatgen
data_Li4Mn3Cr3O12
_symmetry_space_group_name_H-M   'P 1'
_cell_length_a   9.59510312
_cell_length_b   8.95588345
_cell_length_c   5.28578606
_cell_angle_alpha   80.22068111
_cell_angle_beta   66.89947991
_cell_angle_gamma   32.87983898
_symmetry_Int_Tables_number   1
_chemical_formula_structural   Li4Mn3Cr3O12
_chemical_formula_sum   'Li4 Mn3 Cr3 O12'
_cell_volume   214.91185660
_cell_formula_units_Z   1
loop_
 _symmetry_equiv_pos_site_id
 _symmetry_equiv_pos_as_xyz
  1  'x, y, z'
loop_
 _atom_site_type_symbol
 _atom_site_label
 _atom_site_symmetry_multiplicity
 _atom_site_fract_x
 _atom_site_fract_y
 _atom_site_fract_z
 _atom_site_occupancy
  Li  Li0  1  0.170716  0.170716  0.829284  1
  Li  Li1  1  0.829284  0.829284  0.170716  1
  Li  Li2  1  0.579627  0.579627  0.920373  1
  Li  Li3  1  0.920373  0.920373  0.579627  1
  Mn  Mn4  1  0.000000  0.000000  1.000000  1
  Mn  Mn5  1  0.335570  0.335570  0.664430  1
  Mn  Mn6  1  0.664430  0.664430  0.335570  1
  Cr  Cr7  1  0.085665  0.085665  0.414335  1
  Cr  Cr8  1  0.414335  0.414335  0.085665  1
  Cr  Cr9  1  0.750000  0.750000  0.750000  1
  O  O10  1  0.783296  0.216704  0.783296  1
  O  O11  1  0.566445  0.107644  0.869769  1
  O  O12  1  0.647436  0.177785  0.301709  1
  O  O13  1  0.869769  0.456141  0.566445  1
  O  O14  1  0.873069  0.301709  0.177785  1
  O  O15  1  0.177785  0.647436  0.873069  1
  O  O16  1  0.973017  0.526983  0.973017  1
  O  O17  1  0.107644  0.566445  0.456141  1
  O  O18  1  0.216704  0.783296  0.216704  1
  O  O19  1  0.301709  0.873069  0.647436  1
  O  O20  1  0.456141  0.869769  0.107644  1
  O  O21  1  0.526983  0.973017  0.526983  1
