# generated using pymatgen
data_SiO2
_symmetry_space_group_name_H-M   'P 1'
_cell_length_a   4.86415406
_cell_length_b   4.86415406
_cell_length_c   4.86415406
_cell_angle_alpha   121.82653379
_cell_angle_beta   107.36000108
_cell_angle_gamma   100.03653565
_symmetry_Int_Tables_number   1
_chemical_formula_structural   SiO2
_chemical_formula_sum   'Si2 O4'
_cell_volume   85.16814567
_cell_formula_units_Z   2
loop_
 _symmetry_equiv_pos_site_id
 _symmetry_equiv_pos_as_xyz
  1  'x, y, z'
loop_
 _atom_site_type_symbol
 _atom_site_label
 _atom_site_symmetry_multiplicity
 _atom_site_fract_x
 _atom_site_fract_y
 _atom_site_fract_z
 _atom_site_occupancy
  Si  Si0  1  0.000000  0.250000  0.250000  1
  Si  Si1  1  0.000000  0.750000  0.750000  1
  O  O2  1  0.014669  0.367423  0.647246  1
  O  O3  1  0.279823  0.132577  0.147246  1
  O  O4  1  0.720177  0.867423  0.852754  1
  O  O5  1  0.985331  0.632577  0.352754  1
