# generated using pymatgen
data_Li8Fe2O7
_symmetry_space_group_name_H-M   'P 1'
_cell_length_a   7.84505109
_cell_length_b   10.01925829
_cell_length_c   9.32621553
_cell_angle_alpha   90.00000000
_cell_angle_beta   108.00172918
_cell_angle_gamma   90.00000000
_symmetry_Int_Tables_number   1
_chemical_formula_structural   Li8Fe2O7
_chemical_formula_sum   'Li32 Fe8 O28'
_cell_volume   697.17027670
_cell_formula_units_Z   4
loop_
 _symmetry_equiv_pos_site_id
 _symmetry_equiv_pos_as_xyz
  1  'x, y, z'
loop_
 _atom_site_type_symbol
 _atom_site_label
 _atom_site_symmetry_multiplicity
 _atom_site_fract_x
 _atom_site_fract_y
 _atom_site_fract_z
 _atom_site_occupancy
  Li  Li0  1  0.130482  0.522037  0.434881  1
  Li  Li1  1  0.082573  0.533643  0.138510  1
  Li  Li2  1  0.105038  0.263006  0.034085  1
  Li  Li3  1  0.130482  0.977963  0.934881  1
  Li  Li4  1  0.250322  0.049989  0.202122  1
  Li  Li5  1  0.082573  0.966357  0.638510  1
  Li  Li6  1  0.281048  0.740813  0.067373  1
  Li  Li7  1  0.105038  0.236994  0.534085  1
  Li  Li8  1  0.438960  0.528529  0.347622  1
  Li  Li9  1  0.343788  0.495039  0.021414  1
  Li  Li10  1  0.250322  0.450011  0.702122  1
  Li  Li11  1  0.504130  0.767783  0.379251  1
  Li  Li12  1  0.281048  0.759187  0.567373  1
  Li  Li13  1  0.495870  0.267783  0.120749  1
  Li  Li14  1  0.438960  0.971471  0.847622  1
  Li  Li15  1  0.656212  0.995039  0.478586  1
  Li  Li16  1  0.343788  0.004961  0.521414  1
  Li  Li17  1  0.561040  0.028529  0.152378  1
  Li  Li18  1  0.504130  0.732217  0.879251  1
  Li  Li19  1  0.718952  0.240813  0.432627  1
  Li  Li20  1  0.495870  0.232217  0.620749  1
  Li  Li21  1  0.749678  0.549989  0.297878  1
  Li  Li22  1  0.656212  0.504961  0.978586  1
  Li  Li23  1  0.561040  0.471471  0.652378  1
  Li  Li24  1  0.894962  0.763006  0.465915  1
  Li  Li25  1  0.718952  0.259187  0.932627  1
  Li  Li26  1  0.917427  0.033643  0.361490  1
  Li  Li27  1  0.749678  0.950011  0.797878  1
  Li  Li28  1  0.869518  0.022037  0.065119  1
  Li  Li29  1  0.894962  0.736994  0.965915  1
  Li  Li30  1  0.917427  0.466357  0.861490  1
  Li  Li31  1  0.869518  0.477963  0.565119  1
  Fe  Fe32  1  0.100244  0.794915  0.277801  1
  Fe  Fe33  1  0.100244  0.705085  0.777801  1
  Fe  Fe34  1  0.318345  0.280670  0.351750  1
  Fe  Fe35  1  0.318345  0.219330  0.851750  1
  Fe  Fe36  1  0.681655  0.780670  0.148250  1
  Fe  Fe37  1  0.681655  0.719330  0.648250  1
  Fe  Fe38  1  0.899756  0.294915  0.222199  1
  Fe  Fe39  1  0.899756  0.205085  0.722199  1
  O  O40  1  0.100104  0.890828  0.452271  1
  O  O41  1  0.102887  0.172903  0.281405  1
  O  O42  1  0.108292  0.892178  0.109481  1
  O  O43  1  0.100104  0.609172  0.952271  1
  O  O44  1  0.276669  0.664404  0.329894  1
  O  O45  1  0.102887  0.327097  0.781405  1
  O  O46  1  0.108292  0.607822  0.609481  1
  O  O47  1  0.335483  0.388075  0.192620  1
  O  O48  1  0.276669  0.835596  0.829894  1
  O  O49  1  0.482907  0.139663  0.414344  1
  O  O50  1  0.325555  0.113136  0.024018  1
  O  O51  1  0.335483  0.111925  0.692620  1
  O  O52  1  0.482907  0.360337  0.914344  1
  O  O53  1  0.674445  0.613136  0.475982  1
  O  O54  1  0.325555  0.386864  0.524018  1
  O  O55  1  0.517093  0.639663  0.085656  1
  O  O56  1  0.664517  0.888075  0.307380  1
  O  O57  1  0.674445  0.886864  0.975982  1
  O  O58  1  0.517093  0.860337  0.585656  1
  O  O59  1  0.723331  0.164404  0.170106  1
  O  O60  1  0.664517  0.611925  0.807380  1
  O  O61  1  0.891708  0.392178  0.390519  1
  O  O62  1  0.897113  0.672903  0.218595  1
  O  O63  1  0.723331  0.335596  0.670106  1
  O  O64  1  0.899896  0.390828  0.047729  1
  O  O65  1  0.891708  0.107822  0.890519  1
  O  O66  1  0.897113  0.827097  0.718595  1
  O  O67  1  0.899896  0.109172  0.547729  1
