# generated using pymatgen
data_Li4Mn3Fe(BO3)4
_symmetry_space_group_name_H-M   'P 1'
_cell_length_a   5.24788884
_cell_length_b   5.25102502
_cell_length_c   20.87713517
_cell_angle_alpha   90.77322304
_cell_angle_beta   90.88309845
_cell_angle_gamma   119.84359556
_symmetry_Int_Tables_number   1
_chemical_formula_structural   Li4Mn3Fe(BO3)4
_chemical_formula_sum   'Li8 Mn6 Fe2 B8 O24'
_cell_volume   498.80593905
_cell_formula_units_Z   2
loop_
 _symmetry_equiv_pos_site_id
 _symmetry_equiv_pos_as_xyz
  1  'x, y, z'
loop_
 _atom_site_type_symbol
 _atom_site_label
 _atom_site_symmetry_multiplicity
 _atom_site_fract_x
 _atom_site_fract_y
 _atom_site_fract_z
 _atom_site_occupancy
  Li  Li0  1  0.678737  0.651640  0.333792  1
  Li  Li1  1  0.652765  0.678729  0.083556  1
  Li  Li2  1  0.678659  0.650801  0.833806  1
  Li  Li3  1  0.651669  0.677651  0.583940  1
  Li  Li4  1  0.347713  0.334912  0.208792  1
  Li  Li5  1  0.337754  0.346117  0.458235  1
  Li  Li6  1  0.348812  0.337815  0.708458  1
  Li  Li7  1  0.337868  0.347608  0.958916  1
  Mn  Mn8  1  0.668647  0.003600  0.442594  1
  Mn  Mn9  1  0.670455  0.003131  0.941885  1
  Mn  Mn10  1  0.320481  0.000323  0.067652  1
  Mn  Mn11  1  0.001856  0.325619  0.315742  1
  Mn  Mn12  1  0.003110  0.323452  0.816299  1
  Mn  Mn13  1  0.006435  0.674314  0.690802  1
  Fe  Fe14  1  0.317571  0.004722  0.566313  1
  Fe  Fe15  1  0.000200  0.675654  0.191481  1
  B  B16  1  0.996622  0.340419  0.063778  1
  B  B17  1  0.996840  0.338346  0.563119  1
  B  B18  1  0.669721  0.005977  0.188248  1
  B  B19  1  0.666690  0.006145  0.686897  1
  B  B20  1  0.340747  0.997987  0.312123  1
  B  B21  1  0.341719  0.997523  0.812780  1
  B  B22  1  0.003320  0.665421  0.438551  1
  B  B23  1  0.004437  0.665585  0.938008  1
  O  O24  1  0.931851  0.255224  0.206920  1
  O  O25  1  0.930032  0.249237  0.708160  1
  O  O26  1  0.745578  0.069966  0.048617  1
  O  O27  1  0.966533  0.577860  0.084170  1
  O  O28  1  0.741385  0.070743  0.549713  1
  O  O29  1  0.978613  0.584761  0.581607  1
  O  O30  1  0.417634  0.025432  0.174231  1
  O  O31  1  0.730607  0.642702  0.430965  1
  O  O32  1  0.423015  0.038214  0.671577  1
  O  O33  1  0.731104  0.641592  0.930794  1
  O  O34  1  0.653099  0.734267  0.182165  1
  O  O35  1  0.643095  0.732887  0.680053  1
  O  O36  1  0.368896  0.272560  0.305361  1
  O  O37  1  0.370795  0.272169  0.805455  1
  O  O38  1  0.271401  0.369189  0.056499  1
  O  O39  1  0.578416  0.968174  0.332923  1
  O  O40  1  0.269853  0.358295  0.556229  1
  O  O41  1  0.579204  0.966967  0.833374  1
  O  O42  1  0.035685  0.422182  0.423187  1
  O  O43  1  0.037287  0.422395  0.922818  1
  O  O44  1  0.246125  0.928784  0.459552  1
  O  O45  1  0.247167  0.929651  0.959069  1
  O  O46  1  0.070367  0.747478  0.296840  1
  O  O47  1  0.070628  0.746979  0.797754  1
