# generated using pymatgen
data_Li6V5O12
_symmetry_space_group_name_H-M   'P 1'
_cell_length_a   5.04650998
_cell_length_b   5.05675812
_cell_length_c   9.54114811
_cell_angle_alpha   93.33915448
_cell_angle_beta   93.68366145
_cell_angle_gamma   116.14266484
_symmetry_Int_Tables_number   1
_chemical_formula_structural   Li6V5O12
_chemical_formula_sum   'Li6 V5 O12'
_cell_volume   217.10022949
_cell_formula_units_Z   1
loop_
 _symmetry_equiv_pos_site_id
 _symmetry_equiv_pos_as_xyz
  1  'x, y, z'
loop_
 _atom_site_type_symbol
 _atom_site_label
 _atom_site_symmetry_multiplicity
 _atom_site_fract_x
 _atom_site_fract_y
 _atom_site_fract_z
 _atom_site_occupancy
  Li  Li0  1  0.753642  0.239459  0.249734  1
  Li  Li1  1  0.839101  0.653509  0.494508  1
  Li  Li2  1  0.688371  0.868604  0.009596  1
  Li  Li3  1  0.347535  0.160542  0.005278  1
  Li  Li4  1  0.128297  0.311755  0.490687  1
  Li  Li5  1  0.078900  0.921267  0.249996  1
  V  V6  1  0.927090  0.074601  0.747219  1
  V  V7  1  0.572201  0.430765  0.750558  1
  V  V8  1  0.425300  0.577161  0.242738  1
  V  V9  1  0.487638  0.996388  0.491374  1
  V  V10  1  0.011438  0.516714  0.999809  1
  O  O11  1  0.820132  0.323181  0.618678  1
  O  O12  1  0.684097  0.173249  0.877255  1
  O  O13  1  0.928302  0.781595  0.872197  1
  O  O14  1  0.703049  0.546288  0.136665  1
  O  O15  1  0.748224  0.926298  0.370889  1
  O  O16  1  0.453142  0.270406  0.380262  1
  O  O17  1  0.582361  0.751776  0.631563  1
  O  O18  1  0.210637  0.070245  0.628513  1
  O  O19  1  0.264810  0.409340  0.867324  1
  O  O20  1  0.356764  0.840131  0.120116  1
  O  O21  1  0.074274  0.253420  0.133388  1
  O  O22  1  0.175591  0.642437  0.381662  1
