# generated using pymatgen
data_Li3Co13O5F19
_symmetry_space_group_name_H-M   'P 1'
_cell_length_a   6.12616423
_cell_length_b   6.15756488
_cell_length_c   12.24860409
_cell_angle_alpha   91.15064006
_cell_angle_beta   91.14042520
_cell_angle_gamma   91.13516771
_symmetry_Int_Tables_number   1
_chemical_formula_structural   Li3Co13O5F19
_chemical_formula_sum   'Li3 Co13 O5 F19'
_cell_volume   461.76586302
_cell_formula_units_Z   1
loop_
 _symmetry_equiv_pos_site_id
 _symmetry_equiv_pos_as_xyz
  1  'x, y, z'
loop_
 _atom_site_type_symbol
 _atom_site_label
 _atom_site_symmetry_multiplicity
 _atom_site_fract_x
 _atom_site_fract_y
 _atom_site_fract_z
 _atom_site_occupancy
  Li  Li0  1  0.507535  0.490748  0.254172  1
  Li  Li1  1  0.504408  0.490999  0.752816  1
  Li  Li2  1  0.009920  0.986093  0.498986  1
  Co  Co3  1  0.255272  0.941853  0.712515  1
  Co  Co4  1  0.263114  0.939354  0.219577  1
  Co  Co5  1  0.060815  0.598572  0.369024  1
  Co  Co6  1  0.070567  0.580980  0.870664  1
  Co  Co7  1  0.546009  0.755066  0.535528  1
  Co  Co8  1  0.544983  0.754461  0.038565  1
  Co  Co9  1  0.025837  0.010382  0.987922  1
  Co  Co10  1  0.404402  0.223340  0.475289  1
  Co  Co11  1  0.398417  0.242826  0.976200  1
  Co  Co12  1  0.942004  0.423019  0.111665  1
  Co  Co13  1  0.928676  0.422929  0.620088  1
  Co  Co14  1  0.780475  0.055084  0.297457  1
  Co  Co15  1  0.770006  0.052628  0.791209  1
  O  O16  1  0.051292  0.900033  0.333185  1
  O  O17  1  0.043309  0.888641  0.831248  1
  O  O18  1  0.319370  0.963413  0.557275  1
  O  O19  1  0.318783  0.964528  0.060706  1
  O  O20  1  0.090617  0.337626  0.973073  1
  F  F21  1  0.193338  0.561682  0.201201  1
  F  F22  1  0.192818  0.556446  0.700186  1
  F  F23  1  0.587050  0.810303  0.221599  1
  F  F24  1  0.586588  0.806774  0.716214  1
  F  F25  1  0.084074  0.329921  0.473431  1
  F  F26  1  0.407734  0.577898  0.404592  1
  F  F27  1  0.429781  0.587022  0.902634  1
  F  F28  1  0.587909  0.429266  0.092780  1
  F  F29  1  0.580148  0.421362  0.588681  1
  F  F30  1  0.878109  0.712056  0.029805  1
  F  F31  1  0.882767  0.688274  0.525491  1
  F  F32  1  0.428914  0.187510  0.798060  1
  F  F33  1  0.439110  0.190290  0.303394  1
  F  F34  1  0.823930  0.406800  0.288148  1
  F  F35  1  0.814706  0.404091  0.782738  1
  F  F36  1  0.694362  0.044720  0.456343  1
  F  F37  1  0.683703  0.054488  0.951758  1
  F  F38  1  0.935398  0.104330  0.647470  1
  F  F39  1  0.933752  0.104191  0.148309  1
