# generated using pymatgen
data_Li(FeO2)3
_symmetry_space_group_name_H-M   'P 1'
_cell_length_a   5.14085528
_cell_length_b   5.14085528
_cell_length_c   10.56338302
_cell_angle_alpha   75.85487584
_cell_angle_beta   104.14512416
_cell_angle_gamma   119.91525683
_symmetry_Int_Tables_number   1
_chemical_formula_structural   Li(FeO2)3
_chemical_formula_sum   'Li2 Fe6 O12'
_cell_volume   232.13481433
_cell_formula_units_Z   2
loop_
 _symmetry_equiv_pos_site_id
 _symmetry_equiv_pos_as_xyz
  1  'x, y, z'
loop_
 _atom_site_type_symbol
 _atom_site_label
 _atom_site_symmetry_multiplicity
 _atom_site_fract_x
 _atom_site_fract_y
 _atom_site_fract_z
 _atom_site_occupancy
  Li  Li0  1  0.920898  0.246283  0.753256  1
  Li  Li1  1  0.753717  0.079102  0.253256  1
  Fe  Fe2  1  0.170655  0.998305  0.506667  1
  Fe  Fe3  1  0.337649  0.500295  0.006612  1
  Fe  Fe4  1  0.830197  0.340141  0.490795  1
  Fe  Fe5  1  0.001695  0.829345  0.006667  1
  Fe  Fe6  1  0.499705  0.662351  0.506612  1
  Fe  Fe7  1  0.659859  0.169803  0.990795  1
  O  O8  1  0.952539  0.511718  0.897992  1
  O  O9  1  0.800158  0.698037  0.399819  1
  O  O10  1  0.561255  0.300253  0.599890  1
  O  O11  1  0.003581  0.132982  0.102077  1
  O  O12  1  0.640762  0.890062  0.897933  1
  O  O13  1  0.488282  0.047461  0.397992  1
  O  O14  1  0.172478  0.605476  0.600354  1
  O  O15  1  0.699747  0.438745  0.099890  1
  O  O16  1  0.301963  0.199842  0.899819  1
  O  O17  1  0.109938  0.359238  0.397933  1
  O  O18  1  0.867018  0.996419  0.602077  1
  O  O19  1  0.394524  0.827522  0.100354  1
