# generated using pymatgen
data_WOF3
_symmetry_space_group_name_H-M   'P 1'
_cell_length_a   9.29098281
_cell_length_b   9.29098281
_cell_length_c   3.85962265
_cell_angle_alpha   90.00000000
_cell_angle_beta   90.00000000
_cell_angle_gamma   90.00000000
_symmetry_Int_Tables_number   1
_chemical_formula_structural   WOF3
_chemical_formula_sum   'W4 O4 F12'
_cell_volume   333.17174213
_cell_formula_units_Z   4
loop_
 _symmetry_equiv_pos_site_id
 _symmetry_equiv_pos_as_xyz
  1  'x, y, z'
loop_
 _atom_site_type_symbol
 _atom_site_label
 _atom_site_symmetry_multiplicity
 _atom_site_fract_x
 _atom_site_fract_y
 _atom_site_fract_z
 _atom_site_occupancy
  W  W0  1  0.632122  0.132122  0.258623  1
  W  W1  1  0.867878  0.632122  0.741377  1
  W  W2  1  0.132122  0.367878  0.741377  1
  W  W3  1  0.367878  0.867878  0.258623  1
  O  O4  1  0.627239  0.127239  0.758557  1
  O  O5  1  0.872761  0.627239  0.241443  1
  O  O6  1  0.127239  0.372761  0.241443  1
  O  O7  1  0.372761  0.872761  0.758557  1
  F  F8  1  0.592659  0.907341  0.257899  1
  F  F9  1  0.608910  0.334006  0.258789  1
  F  F10  1  0.665994  0.608910  0.741211  1
  F  F11  1  0.834006  0.108910  0.258789  1
  F  F12  1  0.891090  0.834006  0.741211  1
  F  F13  1  0.907341  0.407341  0.742101  1
  F  F14  1  0.092659  0.592659  0.742101  1
  F  F15  1  0.108910  0.165994  0.741211  1
  F  F16  1  0.165994  0.891090  0.258789  1
  F  F17  1  0.334006  0.391090  0.741211  1
  F  F18  1  0.391090  0.665994  0.258789  1
  F  F19  1  0.407341  0.092659  0.257899  1
