# generated using pymatgen
data_LiMnSiO4
_symmetry_space_group_name_H-M   'P 1'
_cell_length_a   5.93038008
_cell_length_b   7.36472012
_cell_length_c   15.64036141
_cell_angle_alpha   90.00000000
_cell_angle_beta   90.00000000
_cell_angle_gamma   90.00000000
_symmetry_Int_Tables_number   1
_chemical_formula_structural   LiMnSiO4
_chemical_formula_sum   'Li8 Mn8 Si8 O32'
_cell_volume   683.10200449
_cell_formula_units_Z   8
loop_
 _symmetry_equiv_pos_site_id
 _symmetry_equiv_pos_as_xyz
  1  'x, y, z'
loop_
 _atom_site_type_symbol
 _atom_site_label
 _atom_site_symmetry_multiplicity
 _atom_site_fract_x
 _atom_site_fract_y
 _atom_site_fract_z
 _atom_site_occupancy
  Li  Li0  1  0.090422  0.263305  0.265083  1
  Li  Li1  1  0.590422  0.263305  0.234917  1
  Li  Li2  1  0.590422  0.236695  0.734917  1
  Li  Li3  1  0.090422  0.236695  0.765083  1
  Li  Li4  1  0.409578  0.763305  0.265083  1
  Li  Li5  1  0.909578  0.763305  0.234917  1
  Li  Li6  1  0.409578  0.736695  0.765083  1
  Li  Li7  1  0.909578  0.736695  0.734917  1
  Mn  Mn8  1  0.389423  0.170022  0.534037  1
  Mn  Mn9  1  0.889423  0.170022  0.965963  1
  Mn  Mn10  1  0.389423  0.329978  0.034037  1
  Mn  Mn11  1  0.889423  0.329978  0.465963  1
  Mn  Mn12  1  0.110577  0.670022  0.534037  1
  Mn  Mn13  1  0.610577  0.670022  0.965963  1
  Mn  Mn14  1  0.110577  0.829978  0.034037  1
  Mn  Mn15  1  0.610577  0.829978  0.465963  1
  Si  Si16  1  0.906632  0.033243  0.613861  1
  Si  Si17  1  0.406632  0.033243  0.886139  1
  Si  Si18  1  0.906632  0.466757  0.113861  1
  Si  Si19  1  0.406632  0.466757  0.386139  1
  Si  Si20  1  0.593368  0.533243  0.613861  1
  Si  Si21  1  0.093368  0.533243  0.886139  1
  Si  Si22  1  0.593368  0.966757  0.113861  1
  Si  Si23  1  0.093368  0.966757  0.386139  1
  O  O24  1  0.830694  0.986995  0.054797  1
  O  O25  1  0.330694  0.986995  0.445203  1
  O  O26  1  0.357909  0.109272  0.792638  1
  O  O27  1  0.857909  0.109272  0.707362  1
  O  O28  1  0.467284  0.165966  0.122418  1
  O  O29  1  0.967284  0.165966  0.377582  1
  O  O30  1  0.064911  0.174846  0.555968  1
  O  O31  1  0.564911  0.174846  0.944032  1
  O  O32  1  0.064911  0.325154  0.055968  1
  O  O33  1  0.564911  0.325154  0.444032  1
  O  O34  1  0.467284  0.334034  0.622418  1
  O  O35  1  0.967284  0.334034  0.877582  1
  O  O36  1  0.857909  0.390728  0.207362  1
  O  O37  1  0.357909  0.390728  0.292638  1
  O  O38  1  0.830694  0.513005  0.554797  1
  O  O39  1  0.330694  0.513005  0.945203  1
  O  O40  1  0.169306  0.486995  0.445203  1
  O  O41  1  0.669306  0.486995  0.054797  1
  O  O42  1  0.642091  0.609272  0.707362  1
  O  O43  1  0.142091  0.609272  0.792638  1
  O  O44  1  0.032716  0.665966  0.122418  1
  O  O45  1  0.532716  0.665966  0.377582  1
  O  O46  1  0.435089  0.674846  0.555968  1
  O  O47  1  0.935089  0.674846  0.944032  1
  O  O48  1  0.435089  0.825154  0.055968  1
  O  O49  1  0.935089  0.825154  0.444032  1
  O  O50  1  0.032716  0.834034  0.622418  1
  O  O51  1  0.532716  0.834034  0.877582  1
  O  O52  1  0.642091  0.890728  0.207362  1
  O  O53  1  0.142091  0.890728  0.292638  1
  O  O54  1  0.669306  0.013005  0.554797  1
  O  O55  1  0.169306  0.013005  0.945203  1
