# generated using pymatgen
data_NaLiMnP2O7
_symmetry_space_group_name_H-M   'P 1'
_cell_length_a   6.63529810
_cell_length_b   6.69850617
_cell_length_c   7.04612098
_cell_angle_alpha   67.02535510
_cell_angle_beta   85.59766363
_cell_angle_gamma   83.49355196
_symmetry_Int_Tables_number   1
_chemical_formula_structural   NaLiMnP2O7
_chemical_formula_sum   'Na2 Li2 Mn2 P4 O14'
_cell_volume   286.29583428
_cell_formula_units_Z   2
loop_
 _symmetry_equiv_pos_site_id
 _symmetry_equiv_pos_as_xyz
  1  'x, y, z'
loop_
 _atom_site_type_symbol
 _atom_site_label
 _atom_site_symmetry_multiplicity
 _atom_site_fract_x
 _atom_site_fract_y
 _atom_site_fract_z
 _atom_site_occupancy
  Na  Na0  1  0.860924  0.269272  0.149449  1
  Na  Na1  1  0.156555  0.666292  0.886654  1
  Li  Li2  1  0.646067  0.658040  0.035795  1
  Li  Li3  1  0.110046  0.000972  0.485262  1
  Mn  Mn4  1  0.661221  0.130381  0.750758  1
  Mn  Mn5  1  0.354967  0.909589  0.208133  1
  P  P6  1  0.854602  0.776927  0.255004  1
  P  P7  1  0.602845  0.660173  0.656279  1
  P  P8  1  0.383466  0.352258  0.344662  1
  P  P9  1  0.153286  0.219538  0.754045  1
  O  O10  1  0.917509  0.613940  0.155838  1
  O  O11  1  0.001130  0.085919  0.705471  1
  O  O12  1  0.768575  0.638158  0.481660  1
  O  O13  1  0.688068  0.802212  0.752063  1
  O  O14  1  0.677923  0.938875  0.131354  1
  O  O15  1  0.600720  0.425447  0.815489  1
  O  O16  1  0.596248  0.258289  0.424325  1
  O  O17  1  0.400587  0.761298  0.551384  1
  O  O18  1  0.388254  0.585644  0.177794  1
  O  O19  1  0.335481  0.059680  0.866423  1
  O  O20  1  0.275171  0.203915  0.274151  1
  O  O21  1  0.242462  0.382059  0.531682  1
  O  O22  1  0.022512  0.903746  0.280970  1
  O  O23  1  0.058090  0.364900  0.858381  1
