# generated using pymatgen
data_Li2AlVO4
_symmetry_space_group_name_H-M   'P 1'
_cell_length_a   4.96139987
_cell_length_b   5.55948278
_cell_length_c   8.17283935
_cell_angle_alpha   90.00000000
_cell_angle_beta   127.47564025
_cell_angle_gamma   90.00000000
_symmetry_Int_Tables_number   1
_chemical_formula_structural   Li2AlVO4
_chemical_formula_sum   'Li4 Al2 V2 O8'
_cell_volume   178.90392011
_cell_formula_units_Z   2
loop_
 _symmetry_equiv_pos_site_id
 _symmetry_equiv_pos_as_xyz
  1  'x, y, z'
loop_
 _atom_site_type_symbol
 _atom_site_label
 _atom_site_symmetry_multiplicity
 _atom_site_fract_x
 _atom_site_fract_y
 _atom_site_fract_z
 _atom_site_occupancy
  Li  Li0  1  0.492808  0.175343  0.998909  1
  Li  Li1  1  0.238415  0.658205  0.745761  1
  Li  Li2  1  0.492808  0.824657  0.498909  1
  Li  Li3  1  0.238415  0.341795  0.245761  1
  Al  Al4  1  0.749418  0.331525  0.747134  1
  Al  Al5  1  0.749418  0.668475  0.247134  1
  V  V6  1  0.983861  0.835214  0.991473  1
  V  V7  1  0.983861  0.164786  0.491473  1
  O  O8  1  0.873291  0.172889  0.973620  1
  O  O9  1  0.655786  0.638141  0.755225  1
  O  O10  1  0.101614  0.318001  0.739031  1
  O  O11  1  0.407808  0.182528  0.518849  1
  O  O12  1  0.873291  0.827111  0.473620  1
  O  O13  1  0.655786  0.361859  0.255225  1
  O  O14  1  0.101614  0.681999  0.239031  1
  O  O15  1  0.407808  0.817472  0.018849  1
