# generated using pymatgen
data_Co2HgO4
_symmetry_space_group_name_H-M   'P 1'
_cell_length_a   4.90378704
_cell_length_b   5.69076440
_cell_length_c   11.56496449
_cell_angle_alpha   90.00000000
_cell_angle_beta   90.00000000
_cell_angle_gamma   90.00000000
_symmetry_Int_Tables_number   1
_chemical_formula_structural   Co2HgO4
_chemical_formula_sum   'Co8 Hg4 O16'
_cell_volume   322.73533072
_cell_formula_units_Z   4
loop_
 _symmetry_equiv_pos_site_id
 _symmetry_equiv_pos_as_xyz
  1  'x, y, z'
loop_
 _atom_site_type_symbol
 _atom_site_label
 _atom_site_symmetry_multiplicity
 _atom_site_fract_x
 _atom_site_fract_y
 _atom_site_fract_z
 _atom_site_occupancy
  Co  Co0  1  0.503861  0.000000  0.755528  1
  Co  Co1  1  0.496139  0.500000  0.744472  1
  Co  Co2  1  0.503861  0.000000  0.244472  1
  Co  Co3  1  0.496139  0.500000  0.255528  1
  Co  Co4  1  0.000000  0.750000  0.750000  1
  Co  Co5  1  0.000000  0.750000  0.250000  1
  Co  Co6  1  0.000000  0.250000  0.750000  1
  Co  Co7  1  0.000000  0.250000  0.250000  1
  Hg  Hg8  1  0.567914  0.500000  0.000000  1
  Hg  Hg9  1  0.887436  0.500000  0.500000  1
  Hg  Hg10  1  0.112564  0.000000  0.000000  1
  Hg  Hg11  1  0.432086  0.000000  0.500000  1
  O  O12  1  0.667014  0.749360  0.661772  1
  O  O13  1  0.667014  0.749360  0.338228  1
  O  O14  1  0.667014  0.250640  0.338228  1
  O  O15  1  0.667014  0.250640  0.661772  1
  O  O16  1  0.847902  0.000000  0.836079  1
  O  O17  1  0.847902  0.000000  0.163921  1
  O  O18  1  0.821931  0.500000  0.833121  1
  O  O19  1  0.821931  0.500000  0.166879  1
  O  O20  1  0.178069  0.000000  0.333121  1
  O  O21  1  0.178069  0.000000  0.666879  1
  O  O22  1  0.152098  0.500000  0.336079  1
  O  O23  1  0.152098  0.500000  0.663921  1
  O  O24  1  0.332986  0.750640  0.838228  1
  O  O25  1  0.332986  0.750640  0.161772  1
  O  O26  1  0.332986  0.249360  0.838228  1
  O  O27  1  0.332986  0.249360  0.161772  1
