# generated using pymatgen
data_LiVSiO4
_symmetry_space_group_name_H-M   'P 1'
_cell_length_a   5.89647680
_cell_length_b   6.56103343
_cell_length_c   9.52252526
_cell_angle_alpha   75.75055080
_cell_angle_beta   86.30469846
_cell_angle_gamma   79.14651462
_symmetry_Int_Tables_number   1
_chemical_formula_structural   LiVSiO4
_chemical_formula_sum   'Li4 V4 Si4 O16'
_cell_volume   350.61276652
_cell_formula_units_Z   4
loop_
 _symmetry_equiv_pos_site_id
 _symmetry_equiv_pos_as_xyz
  1  'x, y, z'
loop_
 _atom_site_type_symbol
 _atom_site_label
 _atom_site_symmetry_multiplicity
 _atom_site_fract_x
 _atom_site_fract_y
 _atom_site_fract_z
 _atom_site_occupancy
  Li  Li0  1  0.585297  0.841929  0.742345  1
  Li  Li1  1  0.440906  0.664236  0.327786  1
  Li  Li2  1  0.559094  0.335764  0.672214  1
  Li  Li3  1  0.414703  0.158071  0.257655  1
  V  V4  1  0.988704  0.929914  0.292051  1
  V  V5  1  0.811336  0.643068  0.074088  1
  V  V6  1  0.188664  0.356932  0.925912  1
  V  V7  1  0.011296  0.070086  0.707949  1
  Si  Si8  1  0.149247  0.711212  0.617945  1
  Si  Si9  1  0.283224  0.825325  0.001189  1
  Si  Si10  1  0.716776  0.174675  0.998811  1
  Si  Si11  1  0.850753  0.288788  0.382055  1
  O  O12  1  0.546765  0.732019  0.951710  1
  O  O13  1  0.300870  0.883819  0.646608  1
  O  O14  1  0.894455  0.822844  0.674060  1
  O  O15  1  0.808710  0.942480  0.113138  1
  O  O16  1  0.115198  0.655207  0.980829  1
  O  O17  1  0.160236  0.702773  0.447084  1
  O  O18  1  0.277335  0.839403  0.168838  1
  O  O19  1  0.758824  0.533979  0.283294  1
  O  O20  1  0.241176  0.466021  0.716706  1
  O  O21  1  0.722665  0.160597  0.831162  1
  O  O22  1  0.839764  0.297227  0.552916  1
  O  O23  1  0.884802  0.344793  0.019171  1
  O  O24  1  0.191290  0.057520  0.886862  1
  O  O25  1  0.105545  0.177156  0.325940  1
  O  O26  1  0.699130  0.116181  0.353392  1
  O  O27  1  0.453235  0.267981  0.048290  1
