# generated using pymatgen
data_Li4CuNi3O8
_symmetry_space_group_name_H-M   'P 1'
_cell_length_a   5.88722748
_cell_length_b   5.88722748
_cell_length_c   5.65972290
_cell_angle_alpha   61.82943646
_cell_angle_beta   118.17056354
_cell_angle_gamma   123.89067353
_symmetry_Int_Tables_number   1
_chemical_formula_structural   Li4CuNi3O8
_chemical_formula_sum   'Li4 Cu1 Ni3 O8'
_cell_volume   137.57640066
_cell_formula_units_Z   1
loop_
 _symmetry_equiv_pos_site_id
 _symmetry_equiv_pos_as_xyz
  1  'x, y, z'
loop_
 _atom_site_type_symbol
 _atom_site_label
 _atom_site_symmetry_multiplicity
 _atom_site_fract_x
 _atom_site_fract_y
 _atom_site_fract_z
 _atom_site_occupancy
  Li  Li0  1  0.500000  0.500000  0.500000  1
  Li  Li1  1  0.500000  0.000000  0.000000  1
  Li  Li2  1  0.000000  0.000000  0.500000  1
  Li  Li3  1  0.000000  0.500000  0.000000  1
  Cu  Cu4  1  0.000000  0.000000  0.000000  1
  Ni  Ni5  1  0.500000  0.500000  0.000000  1
  Ni  Ni6  1  0.500000  0.000000  0.500000  1
  Ni  Ni7  1  0.000000  0.500000  0.500000  1
  O  O8  1  0.240210  0.250974  0.770895  1
  O  O9  1  0.269588  0.730412  0.296462  1
  O  O10  1  0.749026  0.759790  0.770895  1
  O  O11  1  0.748566  0.251434  0.267430  1
  O  O12  1  0.251434  0.748566  0.732570  1
  O  O13  1  0.250974  0.240210  0.229105  1
  O  O14  1  0.730412  0.269588  0.703538  1
  O  O15  1  0.759790  0.749026  0.229105  1
