# generated using pymatgen
data_Li7Fe4NiO12
_symmetry_space_group_name_H-M   'P 1'
_cell_length_a   4.98027892
_cell_length_b   5.64738774
_cell_length_c   7.55951596
_cell_angle_alpha   79.74203999
_cell_angle_beta   89.86961599
_cell_angle_gamma   89.80326609
_symmetry_Int_Tables_number   1
_chemical_formula_structural   Li7Fe4NiO12
_chemical_formula_sum   'Li7 Fe4 Ni1 O12'
_cell_volume   209.21567708
_cell_formula_units_Z   1
loop_
 _symmetry_equiv_pos_site_id
 _symmetry_equiv_pos_as_xyz
  1  'x, y, z'
loop_
 _atom_site_type_symbol
 _atom_site_label
 _atom_site_symmetry_multiplicity
 _atom_site_fract_x
 _atom_site_fract_y
 _atom_site_fract_z
 _atom_site_occupancy
  Li  Li0  1  0.500101  0.881680  0.693678  1
  Li  Li1  1  0.499464  0.885840  0.188613  1
  Li  Li2  1  0.995255  0.699596  0.851430  1
  Li  Li3  1  0.002438  0.687084  0.337947  1
  Li  Li4  1  0.999068  0.383245  0.188194  1
  Li  Li5  1  0.497287  0.185662  0.850274  1
  Li  Li6  1  0.505504  0.188635  0.343090  1
  Fe  Fe7  1  0.004739  0.026017  0.511517  1
  Fe  Fe8  1  0.495308  0.537099  0.019393  1
  Fe  Fe9  1  0.500683  0.539745  0.511201  1
  Fe  Fe10  1  0.998937  0.032194  0.024334  1
  Ni  Ni11  1  0.000756  0.379921  0.690654  1
  O  O12  1  0.672153  0.849686  0.946438  1
  O  O13  1  0.327328  0.858197  0.447257  1
  O  O14  1  0.832268  0.701009  0.591969  1
  O  O15  1  0.176188  0.718415  0.089035  1
  O  O16  1  0.345397  0.532515  0.766567  1
  O  O17  1  0.639473  0.534988  0.265715  1
  O  O18  1  0.822757  0.355789  0.937770  1
  O  O19  1  0.175683  0.357726  0.449909  1
  O  O20  1  0.684931  0.213071  0.592268  1
  O  O21  1  0.325160  0.223332  0.091572  1
  O  O22  1  0.142082  0.045415  0.770386  1
  O  O23  1  0.859984  0.034305  0.267094  1
