# generated using pymatgen
data_Cs2H6CO6
_symmetry_space_group_name_H-M   'P 1'
_cell_length_a   6.65296747
_cell_length_b   6.81865879
_cell_length_c   8.95288144
_cell_angle_alpha   90.00000000
_cell_angle_beta   90.64211242
_cell_angle_gamma   90.00000000
_symmetry_Int_Tables_number   1
_chemical_formula_structural   Cs2H6CO6
_chemical_formula_sum   'Cs4 H12 C2 O12'
_cell_volume   406.11582992
_cell_formula_units_Z   2
loop_
 _symmetry_equiv_pos_site_id
 _symmetry_equiv_pos_as_xyz
  1  'x, y, z'
loop_
 _atom_site_type_symbol
 _atom_site_label
 _atom_site_symmetry_multiplicity
 _atom_site_fract_x
 _atom_site_fract_y
 _atom_site_fract_z
 _atom_site_occupancy
  Cs  Cs0  1  0.754582  0.153687  0.425675  1
  Cs  Cs1  1  0.754582  0.846313  0.925675  1
  Cs  Cs2  1  0.245418  0.153687  0.074325  1
  Cs  Cs3  1  0.245418  0.846313  0.574325  1
  H  H4  1  0.880637  0.723429  0.254379  1
  H  H5  1  0.880637  0.276571  0.754379  1
  H  H6  1  0.722908  0.396031  0.143742  1
  H  H7  1  0.722908  0.603969  0.643742  1
  H  H8  1  0.729441  0.657696  0.471475  1
  H  H9  1  0.729441  0.342304  0.971475  1
  H  H10  1  0.270559  0.657696  0.028525  1
  H  H11  1  0.270559  0.342304  0.528525  1
  H  H12  1  0.277092  0.396031  0.356258  1
  H  H13  1  0.277092  0.603969  0.856258  1
  H  H14  1  0.119363  0.723429  0.245621  1
  H  H15  1  0.119363  0.276571  0.745621  1
  C  C16  1  0.500000  0.670995  0.250000  1
  C  C17  1  0.500000  0.329005  0.750000  1
  O  O18  1  0.000000  0.812005  0.250000  1
  O  O19  1  0.000000  0.187995  0.750000  1
  O  O20  1  0.760373  0.289787  0.072683  1
  O  O21  1  0.760373  0.710213  0.572683  1
  O  O22  1  0.666599  0.572095  0.278018  1
  O  O23  1  0.666599  0.427905  0.778018  1
  O  O24  1  0.500000  0.858901  0.250000  1
  O  O25  1  0.500000  0.141099  0.750000  1
  O  O26  1  0.333401  0.572095  0.221982  1
  O  O27  1  0.333401  0.427905  0.721982  1
  O  O28  1  0.239627  0.289787  0.427317  1
  O  O29  1  0.239627  0.710213  0.927317  1
