# generated using pymatgen
data_Li2VO2F
_symmetry_space_group_name_H-M   'P 1'
_cell_length_a   3.02831736
_cell_length_b   8.02035900
_cell_length_c   10.34477397
_cell_angle_alpha   110.22266065
_cell_angle_beta   90.11574988
_cell_angle_gamma   100.81702672
_symmetry_Int_Tables_number   1
_chemical_formula_structural   Li2VO2F
_chemical_formula_sum   'Li8 V4 O8 F4'
_cell_volume   230.96759303
_cell_formula_units_Z   4
loop_
 _symmetry_equiv_pos_site_id
 _symmetry_equiv_pos_as_xyz
  1  'x, y, z'
loop_
 _atom_site_type_symbol
 _atom_site_label
 _atom_site_symmetry_multiplicity
 _atom_site_fract_x
 _atom_site_fract_y
 _atom_site_fract_z
 _atom_site_occupancy
  Li  Li0  1  0.940665  0.876097  0.293846  1
  Li  Li1  1  0.919993  0.841466  0.788984  1
  Li  Li2  1  0.577458  0.154360  0.956373  1
  Li  Li3  1  0.571640  0.144128  0.441133  1
  Li  Li4  1  0.077971  0.154031  0.701169  1
  Li  Li5  1  0.419486  0.841297  0.537966  1
  Li  Li6  1  0.439623  0.882747  0.055934  1
  Li  Li7  1  0.066698  0.131710  0.224005  1
  V  V8  1  0.747695  0.496123  0.866916  1
  V  V9  1  0.745438  0.495358  0.376578  1
  V  V10  1  0.242351  0.500455  0.624478  1
  V  V11  1  0.257832  0.485884  0.130919  1
  O  O12  1  0.674357  0.346441  0.164261  1
  O  O13  1  0.656126  0.346755  0.669165  1
  O  O14  1  0.830006  0.653202  0.583598  1
  O  O15  1  0.190560  0.360007  0.922860  1
  O  O16  1  0.311536  0.652375  0.832681  1
  O  O17  1  0.177816  0.351251  0.422688  1
  O  O18  1  0.313622  0.640400  0.329212  1
  O  O19  1  0.499570  0.995369  0.248747  1
  F  F20  1  0.841281  0.650135  0.082302  1
  F  F21  1  0.503606  0.003963  0.750803  1
  F  F22  1  0.995744  0.995767  0.508151  1
  F  F23  1  0.999010  0.000680  0.987227  1
