# generated using pymatgen
data_Li8Fe2O9
_symmetry_space_group_name_H-M   'P 1'
_cell_length_a   5.74139298
_cell_length_b   8.63304671
_cell_length_c   14.82838213
_cell_angle_alpha   87.12611089
_cell_angle_beta   100.86184548
_cell_angle_gamma   109.09543459
_symmetry_Int_Tables_number   1
_chemical_formula_structural   Li8Fe2O9
_chemical_formula_sum   'Li32 Fe8 O36'
_cell_volume   682.04159909
_cell_formula_units_Z   4
loop_
 _symmetry_equiv_pos_site_id
 _symmetry_equiv_pos_as_xyz
  1  'x, y, z'
loop_
 _atom_site_type_symbol
 _atom_site_label
 _atom_site_symmetry_multiplicity
 _atom_site_fract_x
 _atom_site_fract_y
 _atom_site_fract_z
 _atom_site_occupancy
  Li  Li0  1  0.893857  0.122054  0.963443  1
  Li  Li1  1  0.169437  0.624615  0.950555  1
  Li  Li2  1  0.669021  0.627416  0.953208  1
  Li  Li3  1  0.438998  0.125491  0.958693  1
  Li  Li4  1  0.258540  0.407409  0.848263  1
  Li  Li5  1  0.977599  0.851201  0.848320  1
  Li  Li6  1  0.595404  0.627967  0.760060  1
  Li  Li7  1  0.053534  0.627270  0.758641  1
  Li  Li8  1  0.789184  0.121243  0.740557  1
  Li  Li9  1  0.329980  0.120662  0.740367  1
  Li  Li10  1  0.124582  0.342314  0.655150  1
  Li  Li11  1  0.402256  0.897748  0.649016  1
  Li  Li12  1  0.485537  0.628556  0.542370  1
  Li  Li13  1  0.717996  0.124921  0.548218  1
  Li  Li14  1  0.932911  0.623840  0.534659  1
  Li  Li15  1  0.790149  0.878018  0.451643  1
  Li  Li16  1  0.209851  0.121982  0.548357  1
  Li  Li17  1  0.067089  0.376160  0.465341  1
  Li  Li18  1  0.282004  0.875079  0.451782  1
  Li  Li19  1  0.514463  0.371444  0.457630  1
  Li  Li20  1  0.597744  0.102252  0.350984  1
  Li  Li21  1  0.875418  0.657686  0.344850  1
  Li  Li22  1  0.670020  0.879338  0.259633  1
  Li  Li23  1  0.210816  0.878757  0.259443  1
  Li  Li24  1  0.946466  0.372730  0.241359  1
  Li  Li25  1  0.404596  0.372033  0.239940  1
  Li  Li26  1  0.022401  0.148799  0.151680  1
  Li  Li27  1  0.741460  0.592591  0.151737  1
  Li  Li28  1  0.561002  0.874509  0.041307  1
  Li  Li29  1  0.330979  0.372584  0.046792  1
  Li  Li30  1  0.830563  0.375385  0.049445  1
  Li  Li31  1  0.106143  0.877946  0.036557  1
  Fe  Fe32  1  0.492805  0.877526  0.848482  1
  Fe  Fe33  1  0.743020  0.371031  0.854174  1
  Fe  Fe34  1  0.891689  0.871447  0.649243  1
  Fe  Fe35  1  0.641224  0.378040  0.647201  1
  Fe  Fe36  1  0.358776  0.621960  0.352799  1
  Fe  Fe37  1  0.108311  0.128553  0.350757  1
  Fe  Fe38  1  0.256980  0.628969  0.145826  1
  Fe  Fe39  1  0.507195  0.122474  0.151518  1
  O  O40  1  0.775250  0.882761  0.940735  1
  O  O41  1  0.295577  0.883777  0.933967  1
  O  O42  1  0.018020  0.358786  0.936452  1
  O  O43  1  0.541734  0.366438  0.938197  1
  O  O44  1  0.378186  0.650162  0.844578  1
  O  O45  1  0.858462  0.596481  0.857918  1
  O  O46  1  0.610299  0.121322  0.846210  1
  O  O47  1  0.692527  0.875457  0.750728  1
  O  O48  1  0.192231  0.873809  0.747985  1
  O  O49  1  0.918481  0.374049  0.749010  1
  O  O50  1  0.467225  0.374718  0.751317  1
  O  O51  1  0.007073  0.098578  0.654989  1
  O  O52  1  0.770448  0.628602  0.653623  1
  O  O53  1  0.526473  0.152412  0.641909  1
  O  O54  1  0.609404  0.869405  0.562294  1
  O  O55  1  0.361082  0.389504  0.567424  1
  O  O56  1  0.078360  0.863350  0.559969  1
  O  O57  1  0.837491  0.385055  0.559839  1
  O  O58  1  0.162509  0.614945  0.440161  1
  O  O59  1  0.921640  0.136650  0.440031  1
  O  O60  1  0.638918  0.610496  0.432576  1
  O  O61  1  0.390596  0.130595  0.437706  1
  O  O62  1  0.473527  0.847588  0.358091  1
  O  O63  1  0.229552  0.371398  0.346377  1
  O  O64  1  0.992927  0.901422  0.345011  1
  O  O65  1  0.532775  0.625282  0.248683  1
  O  O66  1  0.081519  0.625951  0.250990  1
  O  O67  1  0.807769  0.126191  0.252015  1
  O  O68  1  0.307473  0.124543  0.249272  1
  O  O69  1  0.389701  0.878678  0.153790  1
  O  O70  1  0.141538  0.403519  0.142082  1
  O  O71  1  0.621814  0.349838  0.155422  1
  O  O72  1  0.458266  0.633562  0.061803  1
  O  O73  1  0.981980  0.641214  0.063548  1
  O  O74  1  0.704423  0.116223  0.066033  1
  O  O75  1  0.224750  0.117239  0.059265  1
