# generated using pymatgen
data_Li3Co2(PO4)3
_symmetry_space_group_name_H-M   'P 1'
_cell_length_a   8.71296231
_cell_length_b   8.71419220
_cell_length_c   14.77152617
_cell_angle_alpha   90.00000000
_cell_angle_beta   125.21333350
_cell_angle_gamma   90.00000000
_symmetry_Int_Tables_number   1
_chemical_formula_structural   Li3Co2(PO4)3
_chemical_formula_sum   'Li12 Co8 P12 O48'
_cell_volume   916.31775087
_cell_formula_units_Z   4
loop_
 _symmetry_equiv_pos_site_id
 _symmetry_equiv_pos_as_xyz
  1  'x, y, z'
loop_
 _atom_site_type_symbol
 _atom_site_label
 _atom_site_symmetry_multiplicity
 _atom_site_fract_x
 _atom_site_fract_y
 _atom_site_fract_z
 _atom_site_occupancy
  Li  Li0  1  0.348989  0.937565  0.290205  1
  Li  Li1  1  0.030543  0.224877  0.820741  1
  Li  Li2  1  0.387240  0.268414  0.182081  1
  Li  Li3  1  0.612760  0.768414  0.317919  1
  Li  Li4  1  0.969457  0.724877  0.679259  1
  Li  Li5  1  0.651011  0.437565  0.209795  1
  Li  Li6  1  0.348989  0.562435  0.790205  1
  Li  Li7  1  0.030543  0.275123  0.320741  1
  Li  Li8  1  0.387240  0.231586  0.682081  1
  Li  Li9  1  0.612760  0.731586  0.817919  1
  Li  Li10  1  0.969457  0.775123  0.179259  1
  Li  Li11  1  0.651011  0.062435  0.709795  1
  Co  Co12  1  0.635968  0.457897  0.396838  1
  Co  Co13  1  0.364032  0.957897  0.103162  1
  Co  Co14  1  0.135684  0.540214  0.891216  1
  Co  Co15  1  0.864316  0.040214  0.608784  1
  Co  Co16  1  0.135684  0.959786  0.391216  1
  Co  Co17  1  0.864316  0.459786  0.108784  1
  Co  Co18  1  0.635968  0.042103  0.896838  1
  Co  Co19  1  0.364032  0.542103  0.603162  1
  P  P20  1  0.543248  0.754735  0.500244  1
  P  P21  1  0.254897  0.608308  0.149165  1
  P  P22  1  0.959552  0.893061  0.852238  1
  P  P23  1  0.040448  0.393061  0.647762  1
  P  P24  1  0.745103  0.108308  0.350835  1
  P  P25  1  0.456752  0.254735  0.999756  1
  P  P26  1  0.543248  0.745265  0.000244  1
  P  P27  1  0.254897  0.891692  0.649165  1
  P  P28  1  0.959552  0.606939  0.352238  1
  P  P29  1  0.040448  0.106939  0.147762  1
  P  P30  1  0.745103  0.391692  0.850835  1
  P  P31  1  0.456752  0.245265  0.499756  1
  O  O32  1  0.616494  0.129325  0.570878  1
  O  O33  1  0.479501  0.334491  0.418378  1
  O  O34  1  0.217581  0.108558  0.147056  1
  O  O35  1  0.900551  0.407520  0.832162  1
  O  O36  1  0.547378  0.652555  0.415400  1
  O  O37  1  0.173257  0.581694  0.025546  1
  O  O38  1  0.334967  0.774601  0.184347  1
  O  O39  1  0.916368  0.019405  0.764804  1
  O  O40  1  0.738490  0.833705  0.570701  1
  O  O41  1  0.987255  0.736001  0.816771  1
  O  O42  1  0.135688  0.943921  0.963884  1
  O  O43  1  0.416754  0.489188  0.216114  1
  O  O44  1  0.583246  0.989188  0.283886  1
  O  O45  1  0.864312  0.443921  0.536116  1
  O  O46  1  0.012745  0.236001  0.683229  1
  O  O47  1  0.261510  0.333705  0.929299  1
  O  O48  1  0.083632  0.519405  0.735196  1
  O  O49  1  0.665033  0.274601  0.315653  1
  O  O50  1  0.826743  0.081694  0.474454  1
  O  O51  1  0.452622  0.152555  0.084600  1
  O  O52  1  0.782419  0.608558  0.352944  1
  O  O53  1  0.099449  0.907520  0.667838  1
  O  O54  1  0.520499  0.834491  0.081622  1
  O  O55  1  0.383506  0.629325  0.929122  1
  O  O56  1  0.616494  0.370675  0.070878  1
  O  O57  1  0.479501  0.165509  0.918378  1
  O  O58  1  0.900551  0.092480  0.332162  1
  O  O59  1  0.217581  0.391442  0.647056  1
  O  O60  1  0.547378  0.847445  0.915400  1
  O  O61  1  0.173257  0.918306  0.525546  1
  O  O62  1  0.334967  0.725399  0.684347  1
  O  O63  1  0.916368  0.480595  0.264804  1
  O  O64  1  0.738490  0.666295  0.070701  1
  O  O65  1  0.987255  0.763999  0.316771  1
  O  O66  1  0.135688  0.556079  0.463884  1
  O  O67  1  0.416754  0.010812  0.716114  1
  O  O68  1  0.583246  0.510812  0.783886  1
  O  O69  1  0.864312  0.056079  0.036116  1
  O  O70  1  0.012745  0.263999  0.183229  1
  O  O71  1  0.261510  0.166295  0.429299  1
  O  O72  1  0.083632  0.980595  0.235196  1
  O  O73  1  0.665033  0.225399  0.815653  1
  O  O74  1  0.826743  0.418306  0.974454  1
  O  O75  1  0.452622  0.347445  0.584600  1
  O  O76  1  0.099449  0.592480  0.167838  1
  O  O77  1  0.782419  0.891442  0.852944  1
  O  O78  1  0.520499  0.665509  0.581622  1
  O  O79  1  0.383506  0.870675  0.429122  1
