# generated using pymatgen
data_Li3Mn2SnO6
_symmetry_space_group_name_H-M   'P 1'
_cell_length_a   6.97953041
_cell_length_b   6.97953041
_cell_length_c   6.08266105
_cell_angle_alpha   78.68081025
_cell_angle_beta   101.31918975
_cell_angle_gamma   154.56152130
_symmetry_Int_Tables_number   1
_chemical_formula_structural   Li3Mn2SnO6
_chemical_formula_sum   'Li3 Mn2 Sn1 O6'
_cell_volume   124.67429895
_cell_formula_units_Z   1
loop_
 _symmetry_equiv_pos_site_id
 _symmetry_equiv_pos_as_xyz
  1  'x, y, z'
loop_
 _atom_site_type_symbol
 _atom_site_label
 _atom_site_symmetry_multiplicity
 _atom_site_fract_x
 _atom_site_fract_y
 _atom_site_fract_z
 _atom_site_occupancy
  Li  Li0  1  0.500000  0.500000  0.500000  1
  Li  Li1  1  0.169343  0.830657  0.827100  1
  Li  Li2  1  0.830657  0.169343  0.172900  1
  Mn  Mn3  1  0.169559  0.830441  0.344460  1
  Mn  Mn4  1  0.830441  0.169559  0.655540  1
  Sn  Sn5  1  0.500000  0.500000  0.000000  1
  O  O6  1  0.657404  0.342596  0.094317  1
  O  O7  1  0.334528  0.665472  0.431685  1
  O  O8  1  0.342596  0.657404  0.905683  1
  O  O9  1  0.004611  0.995389  0.766621  1
  O  O10  1  0.995389  0.004611  0.233379  1
  O  O11  1  0.665472  0.334528  0.568315  1
