# generated using pymatgen
data_Li9Cr4(BO3)8
_symmetry_space_group_name_H-M   'P 1'
_cell_length_a   6.01728708
_cell_length_b   8.94602698
_cell_length_c   9.47189374
_cell_angle_alpha   113.69107462
_cell_angle_beta   90.11323271
_cell_angle_gamma   90.12868076
_symmetry_Int_Tables_number   1
_chemical_formula_structural   Li9Cr4(BO3)8
_chemical_formula_sum   'Li9 Cr4 B8 O24'
_cell_volume   466.90623734
_cell_formula_units_Z   1
loop_
 _symmetry_equiv_pos_site_id
 _symmetry_equiv_pos_as_xyz
  1  'x, y, z'
loop_
 _atom_site_type_symbol
 _atom_site_label
 _atom_site_symmetry_multiplicity
 _atom_site_fract_x
 _atom_site_fract_y
 _atom_site_fract_z
 _atom_site_occupancy
  Li  Li0  1  0.290511  0.130096  0.929580  1
  Li  Li1  1  0.068087  0.291287  0.823429  1
  Li  Li2  1  0.252243  0.145979  0.416444  1
  Li  Li3  1  0.725182  0.379067  0.498583  1
  Li  Li4  1  0.251597  0.614446  0.988368  1
  Li  Li5  1  0.743835  0.381399  0.016011  1
  Li  Li6  1  0.241954  0.609794  0.487444  1
  Li  Li7  1  0.586867  0.724784  0.661597  1
  Li  Li8  1  0.911920  0.726186  0.158530  1
  Cr  Cr9  1  0.534617  0.227659  0.719091  1
  Cr  Cr10  1  0.038380  0.764149  0.779656  1
  Cr  Cr11  1  0.457713  0.768000  0.279988  1
  Cr  Cr12  1  0.969400  0.229347  0.218510  1
  B  B13  1  0.720418  0.049554  0.924426  1
  B  B14  1  0.782688  0.052919  0.422148  1
  B  B15  1  0.347642  0.455909  0.691665  1
  B  B16  1  0.841995  0.538774  0.806286  1
  B  B17  1  0.155772  0.453985  0.188017  1
  B  B18  1  0.653562  0.541855  0.307354  1
  B  B19  1  0.222162  0.948898  0.583411  1
  B  B20  1  0.277593  0.948465  0.080332  1
  O  O21  1  0.602731  0.171238  0.899988  1
  O  O22  1  0.257698  0.103006  0.703531  1
  O  O23  1  0.723185  0.089709  0.576572  1
  O  O24  1  0.902086  0.174348  0.400635  1
  O  O25  1  0.227019  0.096551  0.197298  1
  O  O26  1  0.784549  0.391720  0.812896  1
  O  O27  1  0.336388  0.421429  0.823914  1
  O  O28  1  0.779746  0.087980  0.078015  1
  O  O29  1  0.437913  0.322363  0.569218  1
  O  O30  1  0.726620  0.398687  0.304823  1
  O  O31  1  0.955741  0.657968  0.927514  1
  O  O32  1  0.157352  0.420926  0.318222  1
  O  O33  1  0.816248  0.572381  0.676784  1
  O  O34  1  0.071134  0.321166  0.057711  1
  O  O35  1  0.294725  0.601047  0.688121  1
  O  O36  1  0.537634  0.661615  0.426858  1
  O  O37  1  0.236054  0.924462  0.930828  1
  O  O38  1  0.671177  0.586105  0.180353  1
  O  O39  1  0.206103  0.603138  0.187975  1
  O  O40  1  0.768461  0.901865  0.814082  1
  O  O41  1  0.125890  0.823908  0.604867  1
  O  O42  1  0.297464  0.934089  0.437044  1
  O  O43  1  0.731244  0.903668  0.312035  1
  O  O44  1  0.365580  0.825920  0.117223  1
