# generated using pymatgen
data_V6O5F19
_symmetry_space_group_name_H-M   'P 1'
_cell_length_a   5.30199263
_cell_length_b   5.47974092
_cell_length_c   14.91029021
_cell_angle_alpha   79.58779056
_cell_angle_beta   89.74223646
_cell_angle_gamma   88.71264700
_symmetry_Int_Tables_number   1
_chemical_formula_structural   V6O5F19
_chemical_formula_sum   'V6 O5 F19'
_cell_volume   425.95575845
_cell_formula_units_Z   1
loop_
 _symmetry_equiv_pos_site_id
 _symmetry_equiv_pos_as_xyz
  1  'x, y, z'
loop_
 _atom_site_type_symbol
 _atom_site_label
 _atom_site_symmetry_multiplicity
 _atom_site_fract_x
 _atom_site_fract_y
 _atom_site_fract_z
 _atom_site_occupancy
  V  V0  1  0.030576  0.042544  0.996377  1
  V  V1  1  0.459113  0.804042  0.329523  1
  V  V2  1  0.992812  0.681514  0.667458  1
  V  V3  1  0.540229  0.530374  0.003466  1
  V  V4  1  0.968692  0.291239  0.337096  1
  V  V5  1  0.477841  0.209069  0.663949  1
  O  O6  1  0.222136  0.638842  0.311004  1
  O  O7  1  0.300107  0.464091  0.644504  1
  O  O8  1  0.202749  0.286796  0.977891  1
  O  O9  1  0.777409  0.695870  0.021758  1
  O  O10  1  0.798190  0.045795  0.356042  1
  F  F11  1  0.200802  0.984142  0.640167  1
  F  F12  1  0.287616  0.796598  0.974295  1
  F  F13  1  0.698983  0.854511  0.690114  1
  F  F14  1  0.072664  0.933631  0.114931  1
  F  F15  1  0.433919  0.804776  0.448212  1
  F  F16  1  0.093160  0.623847  0.782340  1
  F  F17  1  0.595518  0.884994  0.219523  1
  F  F18  1  0.924837  0.693239  0.550811  1
  F  F19  1  0.568004  0.525355  0.885209  1
  F  F20  1  0.711616  0.535249  0.358865  1
  F  F21  1  0.786255  0.359897  0.693052  1
  F  F22  1  0.406348  0.448128  0.113891  1
  F  F23  1  0.095889  0.297171  0.446682  1
  F  F24  1  0.419384  0.102103  0.780973  1
  F  F25  1  0.927946  0.397392  0.218394  1
  F  F26  1  0.598567  0.199066  0.553807  1
  F  F27  1  0.907793  0.036557  0.886207  1
  F  F28  1  0.286052  0.129337  0.308290  1
  F  F29  1  0.714796  0.203827  0.025164  1
