# generated using pymatgen
data_LiCoPO4
_symmetry_space_group_name_H-M   'P 1'
_cell_length_a   5.05600626
_cell_length_b   10.07740367
_cell_length_c   13.61631139
_cell_angle_alpha   90.00000000
_cell_angle_beta   90.00000000
_cell_angle_gamma   90.00000000
_symmetry_Int_Tables_number   1
_chemical_formula_structural   LiCoPO4
_chemical_formula_sum   'Li8 Co8 P8 O32'
_cell_volume   693.77034656
_cell_formula_units_Z   8
loop_
 _symmetry_equiv_pos_site_id
 _symmetry_equiv_pos_as_xyz
  1  'x, y, z'
loop_
 _atom_site_type_symbol
 _atom_site_label
 _atom_site_symmetry_multiplicity
 _atom_site_fract_x
 _atom_site_fract_y
 _atom_site_fract_z
 _atom_site_occupancy
  Li  Li0  1  0.927859  0.031037  0.498972  1
  Li  Li1  1  0.553341  0.220322  0.248735  1
  Li  Li2  1  0.553341  0.279678  0.748735  1
  Li  Li3  1  0.927859  0.468963  0.998972  1
  Li  Li4  1  0.072141  0.531037  0.498972  1
  Li  Li5  1  0.446659  0.720322  0.248735  1
  Li  Li6  1  0.446659  0.779678  0.748735  1
  Li  Li7  1  0.072141  0.968963  0.998972  1
  Co  Co8  1  0.060502  0.036170  0.248333  1
  Co  Co9  1  0.555495  0.216876  0.998730  1
  Co  Co10  1  0.555495  0.283124  0.498730  1
  Co  Co11  1  0.060502  0.463830  0.748333  1
  Co  Co12  1  0.939498  0.536170  0.248333  1
  Co  Co13  1  0.444505  0.716876  0.998730  1
  Co  Co14  1  0.444505  0.783124  0.498730  1
  Co  Co15  1  0.939498  0.963830  0.748333  1
  P  P16  1  0.434922  0.030614  0.623698  1
  P  P17  1  0.052953  0.215357  0.872344  1
  P  P18  1  0.052953  0.284643  0.372344  1
  P  P19  1  0.434922  0.469386  0.123698  1
  P  P20  1  0.565078  0.530614  0.623698  1
  P  P21  1  0.947047  0.715357  0.872344  1
  P  P22  1  0.947047  0.784643  0.372344  1
  P  P23  1  0.565078  0.969386  0.123698  1
  O  O24  1  0.867074  0.998769  0.123809  1
  O  O25  1  0.557687  0.968235  0.529539  1
  O  O26  1  0.444218  0.033165  0.217484  1
  O  O27  1  0.997034  0.063851  0.871369  1
  O  O28  1  0.492095  0.181839  0.622707  1
  O  O29  1  0.922105  0.225319  0.466125  1
  O  O30  1  0.936368  0.279373  0.778025  1
  O  O31  1  0.354800  0.245182  0.874529  1
  O  O32  1  0.354800  0.254818  0.374529  1
  O  O33  1  0.936368  0.220627  0.278025  1
  O  O34  1  0.922105  0.274681  0.966125  1
  O  O35  1  0.492095  0.318161  0.122707  1
  O  O36  1  0.997034  0.436149  0.371369  1
  O  O37  1  0.444218  0.466835  0.717484  1
  O  O38  1  0.557687  0.531765  0.029539  1
  O  O39  1  0.867074  0.501231  0.623809  1
  O  O40  1  0.132926  0.498769  0.123809  1
  O  O41  1  0.442313  0.468235  0.529539  1
  O  O42  1  0.555782  0.533165  0.217484  1
  O  O43  1  0.002966  0.563851  0.871369  1
  O  O44  1  0.507905  0.681839  0.622707  1
  O  O45  1  0.077895  0.725319  0.466125  1
  O  O46  1  0.063632  0.779373  0.778025  1
  O  O47  1  0.645200  0.745182  0.874529  1
  O  O48  1  0.645200  0.754818  0.374529  1
  O  O49  1  0.063632  0.720627  0.278025  1
  O  O50  1  0.077895  0.774681  0.966125  1
  O  O51  1  0.507905  0.818161  0.122707  1
  O  O52  1  0.002966  0.936149  0.371369  1
  O  O53  1  0.555782  0.966835  0.717484  1
  O  O54  1  0.442313  0.031765  0.029539  1
  O  O55  1  0.132926  0.001231  0.623809  1
