# generated using pymatgen
data_Mn3O5F
_symmetry_space_group_name_H-M   'P 1'
_cell_length_a   4.54725193
_cell_length_b   3.00706501
_cell_length_c   13.64675991
_cell_angle_alpha   90.00000000
_cell_angle_beta   92.15341478
_cell_angle_gamma   90.00000000
_symmetry_Int_Tables_number   1
_chemical_formula_structural   Mn3O5F
_chemical_formula_sum   'Mn6 O10 F2'
_cell_volume   186.47240685
_cell_formula_units_Z   2
loop_
 _symmetry_equiv_pos_site_id
 _symmetry_equiv_pos_as_xyz
  1  'x, y, z'
loop_
 _atom_site_type_symbol
 _atom_site_label
 _atom_site_symmetry_multiplicity
 _atom_site_fract_x
 _atom_site_fract_y
 _atom_site_fract_z
 _atom_site_occupancy
  Mn  Mn0  1  0.000000  0.000000  0.000000  1
  Mn  Mn1  1  0.020524  0.000000  0.660319  1
  Mn  Mn2  1  0.979476  0.000000  0.339681  1
  Mn  Mn3  1  0.480465  0.500000  0.840133  1
  Mn  Mn4  1  0.500000  0.500000  0.500000  1
  Mn  Mn5  1  0.519535  0.500000  0.159867  1
  O  O6  1  0.800063  0.500000  0.399674  1
  O  O7  1  0.809619  0.500000  0.063853  1
  O  O8  1  0.694685  0.000000  0.897196  1
  O  O9  1  0.695718  0.000000  0.231217  1
  O  O10  1  0.694070  0.000000  0.565999  1
  O  O11  1  0.304282  0.000000  0.768783  1
  O  O12  1  0.305930  0.000000  0.434001  1
  O  O13  1  0.305315  0.000000  0.102804  1
  O  O14  1  0.190381  0.500000  0.936147  1
  O  O15  1  0.199937  0.500000  0.600326  1
  F  F16  1  0.801582  0.500000  0.732723  1
  F  F17  1  0.198418  0.500000  0.267277  1
