# generated using pymatgen
data_Tl3(SbO3)8
_symmetry_space_group_name_H-M   'P 1'
_cell_length_a   7.37677692
_cell_length_b   7.38493398
_cell_length_c   12.74496792
_cell_angle_alpha   73.61000944
_cell_angle_beta   73.67048094
_cell_angle_gamma   60.44313028
_symmetry_Int_Tables_number   1
_chemical_formula_structural   Tl3(SbO3)8
_chemical_formula_sum   'Tl3 Sb8 O24'
_cell_volume   570.96639352
_cell_formula_units_Z   1
loop_
 _symmetry_equiv_pos_site_id
 _symmetry_equiv_pos_as_xyz
  1  'x, y, z'
loop_
 _atom_site_type_symbol
 _atom_site_label
 _atom_site_symmetry_multiplicity
 _atom_site_fract_x
 _atom_site_fract_y
 _atom_site_fract_z
 _atom_site_occupancy
  Tl  Tl0  1  0.973045  0.379839  0.675132  1
  Tl  Tl1  1  0.235122  0.105271  0.170215  1
  Tl  Tl2  1  0.605397  0.733964  0.170733  1
  Sb  Sb3  1  0.004048  0.504542  0.987479  1
  Sb  Sb4  1  0.998406  0.000403  0.999371  1
  Sb  Sb5  1  0.500666  0.498473  0.999318  1
  Sb  Sb6  1  0.252449  0.749920  0.749062  1
  Sb  Sb7  1  0.002930  0.997132  0.500098  1
  Sb  Sb8  1  0.500031  0.501138  0.500317  1
  Sb  Sb9  1  0.500563  0.996623  0.500306  1
  Sb  Sb10  1  0.736636  0.236049  0.253833  1
  O  O11  1  0.701927  0.619894  0.978060  1
  O  O12  1  0.713272  0.213448  0.968877  1
  O  O13  1  0.485913  0.586712  0.838491  1
  O  O14  1  0.789469  0.889942  0.533433  1
  O  O15  1  0.087696  0.983973  0.838750  1
  O  O16  1  0.407693  0.917259  0.661761  1
  O  O17  1  0.088819  0.588542  0.830572  1
  O  O18  1  0.017292  0.917911  0.661073  1
  O  O19  1  0.414264  0.516259  0.660946  1
  O  O20  1  0.119052  0.202818  0.977343  1
  O  O21  1  0.609949  0.712111  0.462685  1
  O  O22  1  0.788178  0.285914  0.534488  1
  O  O23  1  0.217338  0.715183  0.460753  1
  O  O24  1  0.392892  0.287150  0.532945  1
  O  O25  1  0.983485  0.094013  0.336402  1
  O  O26  1  0.892802  0.779830  0.041324  1
  O  O27  1  0.595067  0.481818  0.336618  1
  O  O28  1  0.909221  0.408508  0.160519  1
  O  O29  1  0.579141  0.079286  0.336428  1
  O  O30  1  0.932070  0.015261  0.161669  1
  O  O31  1  0.515383  0.431620  0.161745  1
  O  O32  1  0.212370  0.109799  0.464482  1
  O  O33  1  0.283673  0.783583  0.035162  1
  O  O34  1  0.279884  0.392796  0.041179  1
