# generated using pymatgen
data_Na2CoCSO7
_symmetry_space_group_name_H-M   'P 1'
_cell_length_a   5.30252308
_cell_length_b   6.72854293
_cell_length_c   8.98631775
_cell_angle_alpha   90.00000000
_cell_angle_beta   91.10603842
_cell_angle_gamma   90.00000000
_symmetry_Int_Tables_number   1
_chemical_formula_structural   Na2CoCSO7
_chemical_formula_sum   'Na4 Co2 C2 S2 O14'
_cell_volume   320.55639312
_cell_formula_units_Z   2
loop_
 _symmetry_equiv_pos_site_id
 _symmetry_equiv_pos_as_xyz
  1  'x, y, z'
loop_
 _atom_site_type_symbol
 _atom_site_label
 _atom_site_symmetry_multiplicity
 _atom_site_fract_x
 _atom_site_fract_y
 _atom_site_fract_z
 _atom_site_occupancy
  Na  Na0  1  0.769335  0.494223  0.220588  1
  Na  Na1  1  0.769335  0.005777  0.220588  1
  Na  Na2  1  0.230665  0.505777  0.779412  1
  Na  Na3  1  0.230665  0.994223  0.779412  1
  Co  Co4  1  0.234288  0.250000  0.350940  1
  Co  Co5  1  0.765712  0.750000  0.649060  1
  C  C6  1  0.272120  0.250000  0.075842  1
  C  C7  1  0.727880  0.750000  0.924158  1
  S  S8  1  0.289414  0.750000  0.422048  1
  S  S9  1  0.710586  0.250000  0.577952  1
  O  O10  1  0.712930  0.750000  0.063771  1
  O  O11  1  0.056022  0.250000  0.145761  1
  O  O12  1  0.470181  0.250000  0.166898  1
  O  O13  1  0.211497  0.929112  0.336258  1
  O  O14  1  0.211497  0.570888  0.336258  1
  O  O15  1  0.829510  0.250000  0.428398  1
  O  O16  1  0.573230  0.750000  0.442349  1
  O  O17  1  0.426770  0.250000  0.557651  1
  O  O18  1  0.170490  0.750000  0.571602  1
  O  O19  1  0.788503  0.429112  0.663742  1
  O  O20  1  0.788503  0.070888  0.663742  1
  O  O21  1  0.529819  0.750000  0.833102  1
  O  O22  1  0.943978  0.750000  0.854239  1
  O  O23  1  0.287070  0.250000  0.936229  1
