# generated using pymatgen
data_Li7Mn8(BO3)8
_symmetry_space_group_name_H-M   'P 1'
_cell_length_a   5.24330677
_cell_length_b   9.12870354
_cell_length_c   11.54530055
_cell_angle_alpha   111.10166224
_cell_angle_beta   102.32754645
_cell_angle_gamma   89.29851270
_symmetry_Int_Tables_number   1
_chemical_formula_structural   Li7Mn8(BO3)8
_chemical_formula_sum   'Li7 Mn8 B8 O24'
_cell_volume   502.40001636
_cell_formula_units_Z   1
loop_
 _symmetry_equiv_pos_site_id
 _symmetry_equiv_pos_as_xyz
  1  'x, y, z'
loop_
 _atom_site_type_symbol
 _atom_site_label
 _atom_site_symmetry_multiplicity
 _atom_site_fract_x
 _atom_site_fract_y
 _atom_site_fract_z
 _atom_site_occupancy
  Li  Li0  1  0.968206  0.966707  0.090584  1
  Li  Li1  1  0.725418  0.755737  0.331859  1
  Li  Li2  1  0.477262  0.458938  0.067549  1
  Li  Li3  1  0.701984  0.712262  0.583145  1
  Li  Li4  1  0.238978  0.264168  0.347913  1
  Li  Li5  1  0.199026  0.211090  0.586664  1
  Li  Li6  1  0.020807  0.992967  0.837768  1
  Mn  Mn7  1  0.750064  0.434336  0.367249  1
  Mn  Mn8  1  0.724109  0.060738  0.622168  1
  Mn  Mn9  1  0.469629  0.146044  0.115454  1
  Mn  Mn10  1  0.527696  0.837105  0.868047  1
  Mn  Mn11  1  0.259215  0.939342  0.373016  1
  Mn  Mn12  1  0.000718  0.646331  0.124976  1
  Mn  Mn13  1  0.228465  0.553488  0.627695  1
  Mn  Mn14  1  0.013751  0.350923  0.863008  1
  B  B15  1  0.968576  0.318130  0.129303  1
  B  B16  1  0.761636  0.106579  0.373735  1
  B  B17  1  0.483160  0.813740  0.126978  1
  B  B18  1  0.720033  0.386236  0.613893  1
  B  B19  1  0.523993  0.180913  0.873781  1
  B  B20  1  0.260801  0.605093  0.368614  1
  B  B21  1  0.231181  0.888025  0.626293  1
  B  B22  1  0.048670  0.699197  0.890821  1
  O  O23  1  0.976932  0.886523  0.641595  1
  O  O24  1  0.721606  0.348326  0.156324  1
  O  O25  1  0.896080  0.288975  0.657148  1
  O  O26  1  0.591998  0.916810  0.085164  1
  O  O27  1  0.611428  0.686084  0.141003  1
  O  O28  1  0.820434  0.502334  0.579357  1
  O  O29  1  0.962145  0.593840  0.941954  1
  O  O30  1  0.931462  0.838557  0.903867  1
  O  O31  1  0.664990  0.986863  0.405782  1
  O  O32  1  0.591908  0.204079  0.330675  1
  O  O33  1  0.761047  0.150951  0.833634  1
  O  O34  1  0.527051  0.632652  0.388787  1
  O  O35  1  0.458248  0.364771  0.604185  1
  O  O36  1  0.235614  0.842461  0.159622  1
  O  O37  1  0.402657  0.781945  0.656975  1
  O  O38  1  0.318867  0.996011  0.579938  1
  O  O39  1  0.093086  0.422301  0.090616  1
  O  O40  1  0.090854  0.188436  0.141514  1
  O  O41  1  0.410495  0.319624  0.887056  1
  O  O42  1  0.405385  0.066225  0.904982  1
  O  O43  1  0.154357  0.492047  0.400980  1
  O  O44  1  0.090102  0.701099  0.316514  1
  O  O45  1  0.250903  0.657066  0.830318  1
  O  O46  1  0.028604  0.128178  0.388468  1
