# generated using pymatgen
data_KMn6O12
_symmetry_space_group_name_H-M   'P 1'
_cell_length_a   8.34087964
_cell_length_b   8.34087964
_cell_length_c   8.34087964
_cell_angle_alpha   106.39079369
_cell_angle_beta   106.39079369
_cell_angle_gamma   115.82509444
_symmetry_Int_Tables_number   1
_chemical_formula_structural   KMn6O12
_chemical_formula_sum   'K2 Mn12 O24'
_cell_volume   442.53276466
_cell_formula_units_Z   2
loop_
 _symmetry_equiv_pos_site_id
 _symmetry_equiv_pos_as_xyz
  1  'x, y, z'
loop_
 _atom_site_type_symbol
 _atom_site_label
 _atom_site_symmetry_multiplicity
 _atom_site_fract_x
 _atom_site_fract_y
 _atom_site_fract_z
 _atom_site_occupancy
  K  K0  1  0.289577  0.289577  0.000000  1
  K  K1  1  0.710423  0.710423  0.000000  1
  Mn  Mn2  1  0.666376  0.849326  0.515702  1
  Mn  Mn3  1  0.484664  0.999159  0.816677  1
  Mn  Mn4  1  0.817518  0.332013  0.816677  1
  Mn  Mn5  1  0.515336  0.000841  0.183323  1
  Mn  Mn6  1  0.667987  0.484664  0.485505  1
  Mn  Mn7  1  0.333624  0.150674  0.484298  1
  Mn  Mn8  1  0.332013  0.515336  0.514495  1
  Mn  Mn9  1  0.999159  0.182482  0.514495  1
  Mn  Mn10  1  0.150674  0.666376  0.817050  1
  Mn  Mn11  1  0.182482  0.667987  0.183323  1
  Mn  Mn12  1  0.849326  0.333624  0.182950  1
  Mn  Mn13  1  0.000841  0.817518  0.485505  1
  O  O14  1  0.665131  0.042583  0.707714  1
  O  O15  1  0.322516  0.963037  0.951241  1
  O  O16  1  0.654631  0.297244  0.951875  1
  O  O17  1  0.709391  0.999427  0.375080  1
  O  O18  1  0.624347  0.334311  0.624920  1
  O  O19  1  0.290609  0.000573  0.624920  1
  O  O20  1  0.677484  0.036963  0.048759  1
  O  O21  1  0.334869  0.957417  0.292286  1
  O  O22  1  0.665689  0.290609  0.290036  1
  O  O23  1  0.297244  0.345369  0.642613  1
  O  O24  1  0.963037  0.011796  0.640520  1
  O  O25  1  0.628725  0.677484  0.640520  1
  O  O26  1  0.036963  0.988204  0.359480  1
  O  O27  1  0.702756  0.654631  0.357387  1
  O  O28  1  0.371275  0.322517  0.359480  1
  O  O29  1  0.000573  0.375653  0.709964  1
  O  O30  1  0.334311  0.709391  0.709964  1
  O  O31  1  0.988204  0.628725  0.951241  1
  O  O32  1  0.375653  0.665689  0.375080  1
  O  O33  1  0.042583  0.334869  0.377452  1
  O  O34  1  0.957417  0.665131  0.622548  1
  O  O35  1  0.011796  0.371275  0.048759  1
  O  O36  1  0.345369  0.702756  0.048125  1
  O  O37  1  0.999427  0.624347  0.290036  1
