# generated using pymatgen
data_Li3VPCO7
_symmetry_space_group_name_H-M   'P 1'
_cell_length_a   9.69253616
_cell_length_b   6.53496390
_cell_length_c   9.73718230
_cell_angle_alpha   90.00000000
_cell_angle_beta   117.66381002
_cell_angle_gamma   90.00000000
_symmetry_Int_Tables_number   1
_chemical_formula_structural   Li3VPCO7
_chemical_formula_sum   'Li12 V4 P4 C4 O28'
_cell_volume   546.25348755
_cell_formula_units_Z   4
loop_
 _symmetry_equiv_pos_site_id
 _symmetry_equiv_pos_as_xyz
  1  'x, y, z'
loop_
 _atom_site_type_symbol
 _atom_site_label
 _atom_site_symmetry_multiplicity
 _atom_site_fract_x
 _atom_site_fract_y
 _atom_site_fract_z
 _atom_site_occupancy
  Li  Li0  1  0.437213  0.248056  0.110326  1
  Li  Li1  1  0.937213  0.251944  0.110326  1
  Li  Li2  1  0.271868  0.478656  0.296824  1
  Li  Li3  1  0.771868  0.021344  0.296824  1
  Li  Li4  1  0.071857  0.734754  0.371069  1
  Li  Li5  1  0.571857  0.765246  0.371069  1
  Li  Li6  1  0.428143  0.234754  0.628931  1
  Li  Li7  1  0.928143  0.265246  0.628931  1
  Li  Li8  1  0.228132  0.978656  0.703176  1
  Li  Li9  1  0.728132  0.521344  0.703176  1
  Li  Li10  1  0.062787  0.748056  0.889674  1
  Li  Li11  1  0.562787  0.751944  0.889674  1
  V  V12  1  0.235518  0.981205  0.247728  1
  V  V13  1  0.735518  0.518795  0.247728  1
  V  V14  1  0.264482  0.481205  0.752272  1
  V  V15  1  0.764482  0.018795  0.752272  1
  P  P16  1  0.063208  0.257740  0.408553  1
  P  P17  1  0.563208  0.242260  0.408553  1
  P  P18  1  0.436792  0.757740  0.591447  1
  P  P19  1  0.936792  0.742260  0.591447  1
  C  C20  1  0.394063  0.739126  0.053653  1
  C  C21  1  0.894063  0.760874  0.053653  1
  C  C22  1  0.105937  0.239126  0.946347  1
  C  C23  1  0.605937  0.260874  0.946347  1
  O  O24  1  0.036000  0.788671  0.076383  1
  O  O25  1  0.536000  0.711329  0.076383  1
  O  O26  1  0.219822  0.230587  0.089080  1
  O  O27  1  0.363359  0.773429  0.166282  1
  O  O28  1  0.719822  0.269413  0.089080  1
  O  O29  1  0.863359  0.726571  0.166282  1
  O  O30  1  0.060786  0.058090  0.319934  1
  O  O31  1  0.081118  0.433593  0.312730  1
  O  O32  1  0.581118  0.066407  0.312730  1
  O  O33  1  0.560786  0.441910  0.319934  1
  O  O34  1  0.305877  0.746370  0.421159  1
  O  O35  1  0.402632  0.220827  0.409271  1
  O  O36  1  0.805877  0.753630  0.421159  1
  O  O37  1  0.902632  0.279173  0.409271  1
  O  O38  1  0.097368  0.720827  0.590729  1
  O  O39  1  0.194123  0.246370  0.578841  1
  O  O40  1  0.597368  0.779173  0.590729  1
  O  O41  1  0.694123  0.253630  0.578841  1
  O  O42  1  0.418882  0.933593  0.687270  1
  O  O43  1  0.439214  0.558089  0.680066  1
  O  O44  1  0.939214  0.941910  0.680066  1
  O  O45  1  0.918882  0.566407  0.687270  1
  O  O46  1  0.136641  0.273429  0.833718  1
  O  O47  1  0.280178  0.730587  0.910920  1
  O  O48  1  0.636641  0.226571  0.833718  1
  O  O49  1  0.780178  0.769413  0.910920  1
  O  O50  1  0.464000  0.288671  0.923617  1
  O  O51  1  0.964000  0.211329  0.923617  1
