# generated using pymatgen
data_LiFe2(BO3)2
_symmetry_space_group_name_H-M   'P 1'
_cell_length_a   5.23741848
_cell_length_b   9.09770600
_cell_length_c   11.35785275
_cell_angle_alpha   112.55979827
_cell_angle_beta   103.18002304
_cell_angle_gamma   89.33797461
_symmetry_Int_Tables_number   1
_chemical_formula_structural   LiFe2(BO3)2
_chemical_formula_sum   'Li4 Fe8 B8 O24'
_cell_volume   484.87038225
_cell_formula_units_Z   4
loop_
 _symmetry_equiv_pos_site_id
 _symmetry_equiv_pos_as_xyz
  1  'x, y, z'
loop_
 _atom_site_type_symbol
 _atom_site_label
 _atom_site_symmetry_multiplicity
 _atom_site_fract_x
 _atom_site_fract_y
 _atom_site_fract_z
 _atom_site_occupancy
  Li  Li0  1  0.281976  0.276831  0.903176  1
  Li  Li1  1  0.266698  0.247918  0.161552  1
  Li  Li2  1  0.532249  0.538651  0.416866  1
  Li  Li3  1  0.976144  0.995244  0.646889  1
  Fe  Fe4  1  0.028541  0.336271  0.381886  1
  Fe  Fe5  1  0.257689  0.929095  0.878921  1
  Fe  Fe6  1  0.464499  0.167145  0.626706  1
  Fe  Fe7  1  0.249409  0.573277  0.132630  1
  Fe  Fe8  1  0.770012  0.445051  0.881951  1
  Fe  Fe9  1  0.517692  0.862362  0.376934  1
  Fe  Fe10  1  0.991907  0.642859  0.633334  1
  Fe  Fe11  1  0.734096  0.057198  0.123170  1
  B  B12  1  0.020797  0.688015  0.385900  1
  B  B13  1  0.270119  0.596084  0.873797  1
  B  B14  1  0.482921  0.815289  0.621906  1
  B  B15  1  0.232370  0.905761  0.134201  1
  B  B16  1  0.530194  0.184492  0.368467  1
  B  B17  1  0.763389  0.113430  0.880480  1
  B  B18  1  0.968104  0.317274  0.637562  1
  B  B19  1  0.737543  0.383519  0.119014  1
  O  O20  1  0.016050  0.098626  0.862637  1
  O  O21  1  0.116308  0.697127  0.825710  1
  O  O22  1  0.152644  0.495760  0.918405  1
  O  O23  1  0.096497  0.186065  0.637420  1
  O  O24  1  0.055669  0.419118  0.586139  1
  O  O25  1  0.240862  0.826720  0.658391  1
  O  O26  1  0.268484  0.676680  0.353057  1
  O  O27  1  0.529863  0.596582  0.880128  1
  O  O28  1  0.611678  0.227710  0.848345  1
  O  O29  1  0.443885  0.085648  0.421578  1
  O  O30  1  0.397336  0.314537  0.362255  1
  O  O31  1  0.647294  0.018758  0.928391  1
  O  O32  1  0.349927  0.008508  0.090812  1
  O  O33  1  0.627457  0.685521  0.614997  1
  O  O34  1  0.573963  0.932877  0.587016  1
  O  O35  1  0.384931  0.805533  0.182912  1
  O  O36  1  0.471433  0.383947  0.115938  1
  O  O37  1  0.745419  0.351547  0.686744  1
  O  O38  1  0.752031  0.150810  0.318859  1
  O  O39  1  0.934342  0.572285  0.425058  1
  O  O40  1  0.870193  0.810591  0.383435  1
  O  O41  1  0.859405  0.483784  0.078683  1
  O  O42  1  0.891999  0.276032  0.160229  1
  O  O43  1  0.971650  0.905136  0.126007  1
