# generated using pymatgen
data_Li2(VS2)3
_symmetry_space_group_name_H-M   'P 1'
_cell_length_a   5.59603569
_cell_length_b   5.59603569
_cell_length_c   14.89587780
_cell_angle_alpha   90.00000000
_cell_angle_beta   90.00000000
_cell_angle_gamma   120.00000000
_symmetry_Int_Tables_number   1
_chemical_formula_structural   Li2(VS2)3
_chemical_formula_sum   'Li4 V6 S12'
_cell_volume   403.97797124
_cell_formula_units_Z   2
loop_
 _symmetry_equiv_pos_site_id
 _symmetry_equiv_pos_as_xyz
  1  'x, y, z'
loop_
 _atom_site_type_symbol
 _atom_site_label
 _atom_site_symmetry_multiplicity
 _atom_site_fract_x
 _atom_site_fract_y
 _atom_site_fract_z
 _atom_site_occupancy
  Li  Li0  1  0.333333  0.666667  0.000000  1
  Li  Li1  1  0.333333  0.666667  0.500000  1
  Li  Li2  1  0.666667  0.333333  0.500000  1
  Li  Li3  1  0.666667  0.333333  0.000000  1
  V  V4  1  0.000000  0.674741  0.750000  1
  V  V5  1  0.000000  0.325259  0.250000  1
  V  V6  1  0.325259  0.325259  0.750000  1
  V  V7  1  0.325259  0.000000  0.250000  1
  V  V8  1  0.674741  0.674741  0.250000  1
  V  V9  1  0.674741  0.000000  0.750000  1
  S  S10  1  0.333333  0.666667  0.845959  1
  S  S11  1  0.333333  0.666667  0.345959  1
  S  S12  1  0.000000  0.000000  0.849823  1
  S  S13  1  0.000000  0.000000  0.150177  1
  S  S14  1  0.000000  0.000000  0.349823  1
  S  S15  1  0.333333  0.666667  0.154041  1
  S  S16  1  0.000000  0.000000  0.650177  1
  S  S17  1  0.333333  0.666667  0.654041  1
  S  S18  1  0.666667  0.333333  0.845959  1
  S  S19  1  0.666667  0.333333  0.345959  1
  S  S20  1  0.666667  0.333333  0.654041  1
  S  S21  1  0.666667  0.333333  0.154041  1
