# generated using pymatgen
data_Li2FeBO4
_symmetry_space_group_name_H-M   'P 1'
_cell_length_a   5.06606932
_cell_length_b   5.06606932
_cell_length_c   6.17738852
_cell_angle_alpha   89.20542080
_cell_angle_beta   90.79457920
_cell_angle_gamma   87.73182650
_symmetry_Int_Tables_number   1
_chemical_formula_structural   Li2FeBO4
_chemical_formula_sum   'Li4 Fe2 B2 O8'
_cell_volume   158.38709930
_cell_formula_units_Z   2
loop_
 _symmetry_equiv_pos_site_id
 _symmetry_equiv_pos_as_xyz
  1  'x, y, z'
loop_
 _atom_site_type_symbol
 _atom_site_label
 _atom_site_symmetry_multiplicity
 _atom_site_fract_x
 _atom_site_fract_y
 _atom_site_fract_z
 _atom_site_occupancy
  Li  Li0  1  0.673904  0.326096  0.287003  1
  Li  Li1  1  0.822204  0.822204  0.500000  1
  Li  Li2  1  0.177796  0.177796  0.500000  1
  Li  Li3  1  0.326096  0.673904  0.712997  1
  Fe  Fe4  1  0.804432  0.804432  0.000000  1
  Fe  Fe5  1  0.195568  0.195568  0.000000  1
  B  B6  1  0.682614  0.317386  0.744218  1
  B  B7  1  0.317386  0.682614  0.255782  1
  O  O8  1  0.804333  0.195667  0.968211  1
  O  O9  1  0.800898  0.199102  0.564875  1
  O  O10  1  0.387887  0.280227  0.756638  1
  O  O11  1  0.719773  0.612113  0.756638  1
  O  O12  1  0.612113  0.719773  0.243362  1
  O  O13  1  0.280227  0.387887  0.243362  1
  O  O14  1  0.199102  0.800898  0.435125  1
  O  O15  1  0.195667  0.804333  0.031789  1
