# generated using pymatgen
data_Li4Fe5(NiO6)2
_symmetry_space_group_name_H-M   'P 1'
_cell_length_a   5.17242000
_cell_length_b   8.87294043
_cell_length_c   9.76634947
_cell_angle_alpha   90.00000000
_cell_angle_beta   99.21343773
_cell_angle_gamma   90.00000000
_symmetry_Int_Tables_number   1
_chemical_formula_structural   Li4Fe5(NiO6)2
_chemical_formula_sum   'Li8 Fe10 Ni4 O24'
_cell_volume   442.43981980
_cell_formula_units_Z   2
loop_
 _symmetry_equiv_pos_site_id
 _symmetry_equiv_pos_as_xyz
  1  'x, y, z'
loop_
 _atom_site_type_symbol
 _atom_site_label
 _atom_site_symmetry_multiplicity
 _atom_site_fract_x
 _atom_site_fract_y
 _atom_site_fract_z
 _atom_site_occupancy
  Li  Li0  1  0.008228  0.906305  0.254671  1
  Li  Li1  1  0.487134  0.915887  0.743236  1
  Li  Li2  1  0.759566  0.583713  0.497024  1
  Li  Li3  1  0.501775  0.589668  0.744613  1
  Li  Li4  1  0.991772  0.406305  0.745329  1
  Li  Li5  1  0.512866  0.415887  0.256764  1
  Li  Li6  1  0.240434  0.083713  0.502976  1
  Li  Li7  1  0.498225  0.089668  0.255387  1
  Fe  Fe8  1  0.254572  0.918414  0.997673  1
  Fe  Fe9  1  0.747479  0.921872  0.503259  1
  Fe  Fe10  1  0.991993  0.751451  0.744019  1
  Fe  Fe11  1  0.241075  0.580242  0.003789  1
  Fe  Fe12  1  0.511535  0.742860  0.259871  1
  Fe  Fe13  1  0.252521  0.421872  0.496741  1
  Fe  Fe14  1  0.745428  0.418414  0.002327  1
  Fe  Fe15  1  0.008007  0.251451  0.255981  1
  Fe  Fe16  1  0.488465  0.242860  0.740129  1
  Fe  Fe17  1  0.758925  0.080242  0.996211  1
  Ni  Ni18  1  0.245278  0.748516  0.496205  1
  Ni  Ni19  1  0.753843  0.746857  0.006475  1
  Ni  Ni20  1  0.246157  0.246857  0.993525  1
  Ni  Ni21  1  0.754722  0.248516  0.503795  1
  O  O22  1  0.121879  0.896470  0.612189  1
  O  O23  1  0.889639  0.908339  0.886521  1
  O  O24  1  0.148673  0.753952  0.119814  1
  O  O25  1  0.853753  0.767487  0.376473  1
  O  O26  1  0.612764  0.915771  0.120212  1
  O  O27  1  0.377240  0.900564  0.382165  1
  O  O28  1  0.643585  0.761724  0.631894  1
  O  O29  1  0.136950  0.596095  0.615935  1
  O  O30  1  0.884815  0.583579  0.879920  1
  O  O31  1  0.355481  0.748154  0.877170  1
  O  O32  1  0.598377  0.581925  0.119235  1
  O  O33  1  0.110361  0.408339  0.113479  1
  O  O34  1  0.383940  0.595316  0.390451  1
  O  O35  1  0.878121  0.396470  0.387811  1
  O  O36  1  0.146247  0.267487  0.623527  1
  O  O37  1  0.622760  0.400564  0.617835  1
  O  O38  1  0.387236  0.415771  0.879788  1
  O  O39  1  0.851327  0.253952  0.880186  1
  O  O40  1  0.644519  0.248154  0.122830  1
  O  O41  1  0.115185  0.083579  0.120080  1
  O  O42  1  0.863050  0.096095  0.384065  1
  O  O43  1  0.356415  0.261724  0.368106  1
  O  O44  1  0.616060  0.095316  0.609549  1
  O  O45  1  0.401623  0.081925  0.880765  1
