# generated using pymatgen
data_LiVCrO4
_symmetry_space_group_name_H-M   'P 1'
_cell_length_a   5.95567713
_cell_length_b   5.95567713
_cell_length_c   5.95567713
_cell_angle_alpha   120.41989522
_cell_angle_beta   119.39758599
_cell_angle_gamma   90.16041251
_symmetry_Int_Tables_number   1
_chemical_formula_structural   LiVCrO4
_chemical_formula_sum   'Li2 V2 Cr2 O8'
_cell_volume   149.56575948
_cell_formula_units_Z   2
loop_
 _symmetry_equiv_pos_site_id
 _symmetry_equiv_pos_as_xyz
  1  'x, y, z'
loop_
 _atom_site_type_symbol
 _atom_site_label
 _atom_site_symmetry_multiplicity
 _atom_site_fract_x
 _atom_site_fract_y
 _atom_site_fract_z
 _atom_site_occupancy
  Li  Li0  1  0.872413  0.122413  0.250000  1
  Li  Li1  1  0.127587  0.877587  0.750000  1
  V  V2  1  0.500000  0.000000  0.500000  1
  V  V3  1  0.500000  0.500000  0.000000  1
  Cr  Cr4  1  0.500000  0.500000  0.500000  1
  Cr  Cr5  1  0.000000  0.500000  0.000000  1
  O  O6  1  0.733488  0.257268  0.523779  1
  O  O7  1  0.291266  0.258095  0.533171  1
  O  O8  1  0.724924  0.258095  0.966829  1
  O  O9  1  0.733488  0.709709  0.976221  1
  O  O10  1  0.266512  0.290291  0.023779  1
  O  O11  1  0.708734  0.741905  0.466829  1
  O  O12  1  0.275076  0.741905  0.033171  1
  O  O13  1  0.266512  0.742732  0.476221  1
