# generated using pymatgen
data_LiFe2(BO3)2
_symmetry_space_group_name_H-M   'P 1'
_cell_length_a   5.25805048
_cell_length_b   5.27766265
_cell_length_c   20.12262996
_cell_angle_alpha   91.11036590
_cell_angle_beta   90.64206253
_cell_angle_gamma   118.74385591
_symmetry_Int_Tables_number   1
_chemical_formula_structural   LiFe2(BO3)2
_chemical_formula_sum   'Li4 Fe8 B8 O24'
_cell_volume   489.37332555
_cell_formula_units_Z   4
loop_
 _symmetry_equiv_pos_site_id
 _symmetry_equiv_pos_as_xyz
  1  'x, y, z'
loop_
 _atom_site_type_symbol
 _atom_site_label
 _atom_site_symmetry_multiplicity
 _atom_site_fract_x
 _atom_site_fract_y
 _atom_site_fract_z
 _atom_site_occupancy
  Li  Li0  1  0.646718  0.669628  0.077121  1
  Li  Li1  1  0.665310  0.642235  0.826802  1
  Li  Li2  1  0.350182  0.345395  0.210580  1
  Li  Li3  1  0.347511  0.351895  0.455560  1
  Fe  Fe4  1  0.015201  0.675629  0.191844  1
  Fe  Fe5  1  0.007934  0.674934  0.689314  1
  Fe  Fe6  1  0.314736  0.006184  0.063166  1
  Fe  Fe7  1  0.320891  0.986405  0.564590  1
  Fe  Fe8  1  0.676318  0.990360  0.438104  1
  Fe  Fe9  1  0.678571  0.024244  0.938155  1
  Fe  Fe10  1  0.979759  0.331894  0.320689  1
  Fe  Fe11  1  0.008996  0.316991  0.811731  1
  B  B12  1  0.997277  0.342060  0.066375  1
  B  B13  1  0.991539  0.331681  0.564323  1
  B  B14  1  0.668746  0.007136  0.186943  1
  B  B15  1  0.664451  0.006802  0.688712  1
  B  B16  1  0.341639  0.005296  0.309993  1
  B  B17  1  0.338607  0.993578  0.815039  1
  B  B18  1  0.000076  0.657414  0.441434  1
  B  B19  1  0.013464  0.674331  0.936866  1
  O  O20  1  0.910631  0.266963  0.203948  1
  O  O21  1  0.879462  0.276898  0.710540  1
  O  O22  1  0.747831  0.092602  0.043075  1
  O  O23  1  0.972770  0.586925  0.086804  1
  O  O24  1  0.720064  0.114888  0.545016  1
  O  O25  1  0.018989  0.595990  0.587802  1
  O  O26  1  0.404798  0.001332  0.170872  1
  O  O27  1  0.738306  0.649848  0.440770  1
  O  O28  1  0.397374  0.980177  0.667047  1
  O  O29  1  0.789628  0.733525  0.928652  1
  O  O30  1  0.686265  0.753846  0.180977  1
  O  O31  1  0.711962  0.776733  0.691039  1
  O  O32  1  0.305665  0.240100  0.301724  1
  O  O33  1  0.349035  0.254972  0.816849  1
  O  O34  1  0.260132  0.349770  0.070376  1
  O  O35  1  0.586010  0.013797  0.336661  1
  O  O36  1  0.230177  0.294099  0.557915  1
  O  O37  1  0.581919  0.969474  0.836704  1
  O  O38  1  0.029012  0.415181  0.422928  1
  O  O39  1  0.975304  0.404611  0.918507  1
  O  O40  1  0.253149  0.907550  0.463998  1
  O  O41  1  0.280541  0.881433  0.962608  1
  O  O42  1  0.118671  0.731414  0.284849  1
  O  O43  1  0.091528  0.740924  0.792244  1
