# generated using pymatgen
data_Mn6O5F7
_symmetry_space_group_name_H-M   'P 1'
_cell_length_a   5.72129703
_cell_length_b   5.72129703
_cell_length_c   7.17494312
_cell_angle_alpha   74.32460426
_cell_angle_beta   105.67539574
_cell_angle_gamma   104.54897464
_symmetry_Int_Tables_number   1
_chemical_formula_structural   Mn6O5F7
_chemical_formula_sum   'Mn6 O5 F7'
_cell_volume   213.65335158
_cell_formula_units_Z   1
loop_
 _symmetry_equiv_pos_site_id
 _symmetry_equiv_pos_as_xyz
  1  'x, y, z'
loop_
 _atom_site_type_symbol
 _atom_site_label
 _atom_site_symmetry_multiplicity
 _atom_site_fract_x
 _atom_site_fract_y
 _atom_site_fract_z
 _atom_site_occupancy
  Mn  Mn0  1  0.332223  0.332223  0.000000  1
  Mn  Mn1  1  0.669391  0.004123  0.845359  1
  Mn  Mn2  1  0.312582  0.312582  0.500000  1
  Mn  Mn3  1  0.695654  0.993646  0.330327  1
  Mn  Mn4  1  0.993646  0.695654  0.669673  1
  Mn  Mn5  1  0.004123  0.669391  0.154641  1
  O  O6  1  0.432918  0.220483  0.801263  1
  O  O7  1  0.782118  0.895401  0.131941  1
  O  O8  1  0.895401  0.782118  0.868059  1
  O  O9  1  0.220483  0.432918  0.198737  1
  O  O10  1  0.019863  0.019863  0.500000  1
  F  F11  1  0.974458  0.333664  0.819034  1
  F  F12  1  0.614654  0.614654  0.500000  1
  F  F13  1  0.084424  0.579676  0.460746  1
  F  F14  1  0.579676  0.084424  0.539254  1
  F  F15  1  0.363475  0.691247  0.830844  1
  F  F16  1  0.691247  0.363475  0.169156  1
  F  F17  1  0.333664  0.974458  0.180966  1
