# generated using pymatgen
data_Ti2(PO4)3
_symmetry_space_group_name_H-M   'P 1'
_cell_length_a   8.67705750
_cell_length_b   8.67705750
_cell_length_c   8.67705750
_cell_angle_alpha   60.27150835
_cell_angle_beta   60.27150835
_cell_angle_gamma   60.27150835
_symmetry_Int_Tables_number   1
_chemical_formula_structural   Ti2(PO4)3
_chemical_formula_sum   'Ti4 P6 O24'
_cell_volume   464.79673198
_cell_formula_units_Z   2
loop_
 _symmetry_equiv_pos_site_id
 _symmetry_equiv_pos_as_xyz
  1  'x, y, z'
loop_
 _atom_site_type_symbol
 _atom_site_label
 _atom_site_symmetry_multiplicity
 _atom_site_fract_x
 _atom_site_fract_y
 _atom_site_fract_z
 _atom_site_occupancy
  Ti  Ti0  1  0.636293  0.636293  0.636293  1
  Ti  Ti1  1  0.363707  0.363707  0.363707  1
  Ti  Ti2  1  0.136293  0.136293  0.136293  1
  Ti  Ti3  1  0.863707  0.863707  0.863707  1
  P  P4  1  0.533230  0.966770  0.250000  1
  P  P5  1  0.750000  0.466770  0.033230  1
  P  P6  1  0.033230  0.750000  0.466770  1
  P  P7  1  0.966770  0.250000  0.533230  1
  P  P8  1  0.250000  0.533230  0.966770  1
  P  P9  1  0.466770  0.033230  0.750000  1
  O  O10  1  0.718086  0.942489  0.082890  1
  O  O11  1  0.057511  0.917110  0.281914  1
  O  O12  1  0.203707  0.366833  0.001748  1
  O  O13  1  0.296293  0.498252  0.133167  1
  O  O14  1  0.557511  0.781914  0.417110  1
  O  O15  1  0.582890  0.442489  0.218086  1
  O  O16  1  0.917110  0.281914  0.057511  1
  O  O17  1  0.633167  0.998252  0.796293  1
  O  O18  1  0.866833  0.703707  0.501748  1
  O  O19  1  0.501748  0.866833  0.703707  1
  O  O20  1  0.998252  0.796293  0.633167  1
  O  O21  1  0.218086  0.582890  0.442489  1
  O  O22  1  0.781914  0.417110  0.557511  1
  O  O23  1  0.001748  0.203707  0.366833  1
  O  O24  1  0.498252  0.133167  0.296293  1
  O  O25  1  0.366833  0.001748  0.203707  1
  O  O26  1  0.133167  0.296293  0.498252  1
  O  O27  1  0.082890  0.718086  0.942489  1
  O  O28  1  0.417110  0.557511  0.781914  1
  O  O29  1  0.442489  0.218086  0.582890  1
  O  O30  1  0.703707  0.501748  0.866833  1
  O  O31  1  0.796293  0.633167  0.998252  1
  O  O32  1  0.942489  0.082890  0.718086  1
  O  O33  1  0.281914  0.057511  0.917110  1
