# generated using pymatgen
data_Li3Fe4(BO3)4
_symmetry_space_group_name_H-M   'P 1'
_cell_length_a   5.26669266
_cell_length_b   9.00577152
_cell_length_c   10.27240695
_cell_angle_alpha   90.00000000
_cell_angle_beta   91.81741188
_cell_angle_gamma   90.00000000
_symmetry_Int_Tables_number   1
_chemical_formula_structural   Li3Fe4(BO3)4
_chemical_formula_sum   'Li6 Fe8 B8 O24'
_cell_volume   486.98165001
_cell_formula_units_Z   2
loop_
 _symmetry_equiv_pos_site_id
 _symmetry_equiv_pos_as_xyz
  1  'x, y, z'
loop_
 _atom_site_type_symbol
 _atom_site_label
 _atom_site_symmetry_multiplicity
 _atom_site_fract_x
 _atom_site_fract_y
 _atom_site_fract_z
 _atom_site_occupancy
  Li  Li0  1  0.656717  0.988461  0.163047  1
  Li  Li1  1  0.336675  0.994651  0.916773  1
  Li  Li2  1  0.850661  0.504498  0.420663  1
  Li  Li3  1  0.850661  0.495502  0.920663  1
  Li  Li4  1  0.656717  0.011539  0.663047  1
  Li  Li5  1  0.336675  0.005349  0.416773  1
  Fe  Fe6  1  0.837716  0.836750  0.886611  1
  Fe  Fe7  1  0.152228  0.820990  0.638453  1
  Fe  Fe8  1  0.664605  0.651807  0.131842  1
  Fe  Fe9  1  0.336470  0.668077  0.372559  1
  Fe  Fe10  1  0.664605  0.348193  0.631842  1
  Fe  Fe11  1  0.837716  0.163250  0.386611  1
  Fe  Fe12  1  0.336470  0.331923  0.872559  1
  Fe  Fe13  1  0.152228  0.179010  0.138453  1
  B  B14  1  0.830768  0.828520  0.372349  1
  B  B15  1  0.667631  0.678124  0.618349  1
  B  B16  1  0.168190  0.839903  0.131114  1
  B  B17  1  0.343199  0.662013  0.881657  1
  B  B18  1  0.667631  0.321876  0.118349  1
  B  B19  1  0.343199  0.337987  0.381657  1
  B  B20  1  0.830768  0.171480  0.872349  1
  B  B21  1  0.168190  0.160097  0.631114  1
  O  O22  1  0.690521  0.957926  0.364584  1
  O  O23  1  0.907883  0.834489  0.099760  1
  O  O24  1  0.304574  0.968412  0.110516  1
  O  O25  1  0.778262  0.807701  0.670704  1
  O  O26  1  0.712282  0.691688  0.346571  1
  O  O27  1  0.223884  0.796772  0.849666  1
  O  O28  1  0.088226  0.830932  0.405645  1
  O  O29  1  0.599151  0.660687  0.918814  1
  O  O30  1  0.801368  0.549359  0.614224  1
  O  O31  1  0.421022  0.689153  0.564922  1
  O  O32  1  0.296354  0.714905  0.181077  1
  O  O33  1  0.801368  0.450641  0.114224  1
  O  O34  1  0.206926  0.530860  0.876426  1
  O  O35  1  0.712282  0.308312  0.846571  1
  O  O36  1  0.599151  0.339313  0.418814  1
  O  O37  1  0.206926  0.469140  0.376426  1
  O  O38  1  0.421022  0.310847  0.064922  1
  O  O39  1  0.907883  0.165511  0.599760  1
  O  O40  1  0.778262  0.192299  0.170704  1
  O  O41  1  0.296354  0.285095  0.681077  1
  O  O42  1  0.223884  0.203228  0.349666  1
  O  O43  1  0.690521  0.042074  0.864584  1
  O  O44  1  0.088226  0.169068  0.905645  1
  O  O45  1  0.304574  0.031588  0.610516  1
