# generated using pymatgen
data_Li4V2(SiO4)3
_symmetry_space_group_name_H-M   'P 1'
_cell_length_a   8.46871071
_cell_length_b   8.46871071
_cell_length_c   8.46871071
_cell_angle_alpha   63.62721066
_cell_angle_beta   63.62721066
_cell_angle_gamma   63.62721066
_symmetry_Int_Tables_number   1
_chemical_formula_structural   Li4V2(SiO4)3
_chemical_formula_sum   'Li8 V4 Si6 O24'
_cell_volume   463.88684876
_cell_formula_units_Z   2
loop_
 _symmetry_equiv_pos_site_id
 _symmetry_equiv_pos_as_xyz
  1  'x, y, z'
loop_
 _atom_site_type_symbol
 _atom_site_label
 _atom_site_symmetry_multiplicity
 _atom_site_fract_x
 _atom_site_fract_y
 _atom_site_fract_z
 _atom_site_occupancy
  Li  Li0  1  0.750000  0.164100  0.335900  1
  Li  Li1  1  0.664100  0.250000  0.835900  1
  Li  Li2  1  0.500000  0.500000  0.500000  1
  Li  Li3  1  0.164100  0.335900  0.750000  1
  Li  Li4  1  0.835900  0.664100  0.250000  1
  Li  Li5  1  0.335900  0.750000  0.164100  1
  Li  Li6  1  0.000000  0.000000  1.000000  1
  Li  Li7  1  0.250000  0.835900  0.664100  1
  V  V8  1  0.139268  0.139268  0.139268  1
  V  V9  1  0.639268  0.639268  0.639268  1
  V  V10  1  0.360732  0.360732  0.360732  1
  V  V11  1  0.860732  0.860732  0.860732  1
  Si  Si12  1  0.750000  0.460078  0.039922  1
  Si  Si13  1  0.460078  0.039922  0.750000  1
  Si  Si14  1  0.960078  0.250000  0.539922  1
  Si  Si15  1  0.039922  0.750000  0.460078  1
  Si  Si16  1  0.539922  0.960078  0.250000  1
  Si  Si17  1  0.250000  0.539922  0.960078  1
  O  O18  1  0.632416  0.009368  0.810306  1
  O  O19  1  0.509368  0.132416  0.310306  1
  O  O20  1  0.588312  0.440776  0.243034  1
  O  O21  1  0.911688  0.256966  0.059224  1
  O  O22  1  0.810306  0.632416  0.009368  1
  O  O23  1  0.689694  0.490632  0.867584  1
  O  O24  1  0.256966  0.059224  0.911688  1
  O  O25  1  0.940776  0.088312  0.743034  1
  O  O26  1  0.756966  0.411688  0.559224  1
  O  O27  1  0.132416  0.310306  0.509368  1
  O  O28  1  0.990632  0.189694  0.367584  1
  O  O29  1  0.440776  0.243034  0.588312  1
  O  O30  1  0.559224  0.756966  0.411688  1
  O  O31  1  0.009368  0.810306  0.632416  1
  O  O32  1  0.867584  0.689694  0.490632  1
  O  O33  1  0.243034  0.588312  0.440776  1
  O  O34  1  0.059224  0.911688  0.256966  1
  O  O35  1  0.743034  0.940776  0.088312  1
  O  O36  1  0.310306  0.509368  0.132416  1
  O  O37  1  0.189694  0.367584  0.990632  1
  O  O38  1  0.088312  0.743034  0.940776  1
  O  O39  1  0.411688  0.559224  0.756966  1
  O  O40  1  0.490632  0.867584  0.689694  1
  O  O41  1  0.367584  0.990632  0.189694  1
