# generated using pymatgen
data_Ba4Hf3O10
_symmetry_space_group_name_H-M   'P 1'
_cell_length_a   15.50927060
_cell_length_b   15.50927060
_cell_length_c   5.93499656
_cell_angle_alpha   90.00000000
_cell_angle_beta   90.00000000
_cell_angle_gamma   157.86458292
_symmetry_Int_Tables_number   1
_chemical_formula_structural   Ba4Hf3O10
_chemical_formula_sum   'Ba8 Hf6 O20'
_cell_volume   537.91116967
_cell_formula_units_Z   2
loop_
 _symmetry_equiv_pos_site_id
 _symmetry_equiv_pos_as_xyz
  1  'x, y, z'
loop_
 _atom_site_type_symbol
 _atom_site_label
 _atom_site_symmetry_multiplicity
 _atom_site_fract_x
 _atom_site_fract_y
 _atom_site_fract_z
 _atom_site_occupancy
  Ba  Ba0  1  0.931212  0.068788  0.000000  1
  Ba  Ba1  1  0.203679  0.796321  0.000000  1
  Ba  Ba2  1  0.796321  0.203679  0.000000  1
  Ba  Ba3  1  0.068788  0.931212  1.000000  1
  Ba  Ba4  1  0.703679  0.296321  0.500000  1
  Ba  Ba5  1  0.431212  0.568788  0.500000  1
  Ba  Ba6  1  0.296321  0.703679  0.500000  1
  Ba  Ba7  1  0.568788  0.431212  0.500000  1
  Hf  Hf8  1  0.500000  0.500000  0.000000  1
  Hf  Hf9  1  0.360915  0.639085  0.000000  1
  Hf  Hf10  1  0.639085  0.360915  1.000000  1
  Hf  Hf11  1  0.139085  0.860915  0.500000  1
  Hf  Hf12  1  0.000000  0.000000  0.500000  1
  Hf  Hf13  1  0.860915  0.139085  0.500000  1
  O  O14  1  0.430921  0.569079  0.000000  1
  O  O15  1  0.292374  0.707626  0.000000  1
  O  O16  1  0.707626  0.292374  1.000000  1
  O  O17  1  0.569079  0.430921  0.000000  1
  O  O18  1  0.770323  0.770323  0.770436  1
  O  O19  1  0.377614  0.100836  0.760825  1
  O  O20  1  0.100836  0.377614  0.760825  1
  O  O21  1  0.600836  0.877614  0.739175  1
  O  O22  1  0.877614  0.600836  0.739175  1
  O  O23  1  0.270323  0.270323  0.729564  1
  O  O24  1  0.930921  0.069079  0.500000  1
  O  O25  1  0.207626  0.792374  0.500000  1
  O  O26  1  0.792374  0.207626  0.500000  1
  O  O27  1  0.069079  0.930921  0.500000  1
  O  O28  1  0.729677  0.729677  0.270436  1
  O  O29  1  0.122386  0.399164  0.260825  1
  O  O30  1  0.399164  0.122386  0.260825  1
  O  O31  1  0.622386  0.899164  0.239175  1
  O  O32  1  0.899164  0.622386  0.239175  1
  O  O33  1  0.229677  0.229677  0.229564  1
