# generated using pymatgen
data_Li2VFe(P2O7)2
_symmetry_space_group_name_H-M   'P 1'
_cell_length_a   7.03942437
_cell_length_b   8.24282397
_cell_length_c   9.75935442
_cell_angle_alpha   90.00000000
_cell_angle_beta   108.89316673
_cell_angle_gamma   90.00000000
_symmetry_Int_Tables_number   1
_chemical_formula_structural   Li2VFe(P2O7)2
_chemical_formula_sum   'Li4 V2 Fe2 P8 O28'
_cell_volume   535.77483872
_cell_formula_units_Z   2
loop_
 _symmetry_equiv_pos_site_id
 _symmetry_equiv_pos_as_xyz
  1  'x, y, z'
loop_
 _atom_site_type_symbol
 _atom_site_label
 _atom_site_symmetry_multiplicity
 _atom_site_fract_x
 _atom_site_fract_y
 _atom_site_fract_z
 _atom_site_occupancy
  Li  Li0  1  0.676796  0.863622  0.337730  1
  Li  Li1  1  0.323204  0.363622  0.662270  1
  Li  Li2  1  0.676830  0.863044  0.838042  1
  Li  Li3  1  0.323170  0.363044  0.161958  1
  V  V4  1  0.728475  0.499333  0.358179  1
  V  V5  1  0.271525  0.999333  0.641821  1
  Fe  Fe6  1  0.731765  0.499088  0.858193  1
  Fe  Fe7  1  0.268235  0.999088  0.141807  1
  P  P8  1  0.521776  0.179582  0.449807  1
  P  P9  1  0.085691  0.784029  0.355471  1
  P  P10  1  0.914309  0.284029  0.644529  1
  P  P11  1  0.478224  0.679582  0.550193  1
  P  P12  1  0.521381  0.181093  0.950169  1
  P  P13  1  0.085058  0.783555  0.855943  1
  P  P14  1  0.914942  0.283555  0.144057  1
  P  P15  1  0.478619  0.681093  0.049831  1
  O  O16  1  0.852291  0.323067  0.275718  1
  O  O17  1  0.884548  0.695773  0.315062  1
  O  O18  1  0.482584  0.036813  0.344148  1
  O  O19  1  0.505487  0.344030  0.373548  1
  O  O20  1  0.605603  0.678248  0.448441  1
  O  O21  1  0.917650  0.434095  0.551547  1
  O  O22  1  0.753647  0.152796  0.547648  1
  O  O23  1  0.246353  0.652796  0.452352  1
  O  O24  1  0.082350  0.934095  0.448453  1
  O  O25  1  0.394397  0.178248  0.551559  1
  O  O26  1  0.494513  0.844030  0.626452  1
  O  O27  1  0.517416  0.536813  0.655852  1
  O  O28  1  0.852847  0.324479  0.775963  1
  O  O29  1  0.883519  0.694163  0.814912  1
  O  O30  1  0.115452  0.195773  0.684938  1
  O  O31  1  0.147709  0.823067  0.724282  1
  O  O32  1  0.482336  0.037984  0.843431  1
  O  O33  1  0.507161  0.345461  0.873249  1
  O  O34  1  0.605521  0.679089  0.948779  1
  O  O35  1  0.917606  0.433414  0.051497  1
  O  O36  1  0.753786  0.152825  0.047369  1
  O  O37  1  0.246214  0.652825  0.952631  1
  O  O38  1  0.082394  0.933414  0.948503  1
  O  O39  1  0.394479  0.179089  0.051221  1
  O  O40  1  0.492839  0.845461  0.126751  1
  O  O41  1  0.517664  0.537984  0.156569  1
  O  O42  1  0.116481  0.194163  0.185088  1
  O  O43  1  0.147153  0.824479  0.224037  1
