# generated using pymatgen
data_Pr(ReO4)2
_symmetry_space_group_name_H-M   'P 1'
_cell_length_a   6.27257270
_cell_length_b   6.27257270
_cell_length_c   6.44950572
_cell_angle_alpha   90.00000000
_cell_angle_beta   90.00000000
_cell_angle_gamma   120.00000000
_symmetry_Int_Tables_number   1
_chemical_formula_structural   Pr(ReO4)2
_chemical_formula_sum   'Pr1 Re2 O8'
_cell_volume   219.75991107
_cell_formula_units_Z   1
loop_
 _symmetry_equiv_pos_site_id
 _symmetry_equiv_pos_as_xyz
  1  'x, y, z'
loop_
 _atom_site_type_symbol
 _atom_site_label
 _atom_site_symmetry_multiplicity
 _atom_site_fract_x
 _atom_site_fract_y
 _atom_site_fract_z
 _atom_site_occupancy
  Pr  Pr0  1  0.000000  0.000000  0.500000  1
  Re  Re1  1  0.333333  0.666667  0.803822  1
  Re  Re2  1  0.666667  0.333333  0.196178  1
  O  O3  1  0.219256  0.857794  0.708908  1
  O  O4  1  0.142206  0.361462  0.708908  1
  O  O5  1  0.333333  0.666667  0.072866  1
  O  O6  1  0.361462  0.219256  0.291092  1
  O  O7  1  0.638538  0.780744  0.708908  1
  O  O8  1  0.666667  0.333333  0.927134  1
  O  O9  1  0.857794  0.638538  0.291092  1
  O  O10  1  0.780744  0.142206  0.291092  1
