# generated using pymatgen
data_V3OF11
_symmetry_space_group_name_H-M   'P 1'
_cell_length_a   5.27370984
_cell_length_b   5.45718898
_cell_length_c   14.75331053
_cell_angle_alpha   100.31944389
_cell_angle_beta   90.02307625
_cell_angle_gamma   90.07698647
_symmetry_Int_Tables_number   1
_chemical_formula_structural   V3OF11
_chemical_formula_sum   'V6 O2 F22'
_cell_volume   417.72625251
_cell_formula_units_Z   2
loop_
 _symmetry_equiv_pos_site_id
 _symmetry_equiv_pos_as_xyz
  1  'x, y, z'
loop_
 _atom_site_type_symbol
 _atom_site_label
 _atom_site_symmetry_multiplicity
 _atom_site_fract_x
 _atom_site_fract_y
 _atom_site_fract_z
 _atom_site_occupancy
  V  V0  1  0.999583  0.000256  0.000396  1
  V  V1  1  0.491441  0.845076  0.666127  1
  V  V2  1  0.994475  0.664812  0.332228  1
  V  V3  1  0.499862  0.500048  0.000242  1
  V  V4  1  0.975189  0.374196  0.670039  1
  V  V5  1  0.489231  0.166609  0.339508  1
  O  O6  1  0.795004  0.625380  0.689265  1
  O  O7  1  0.421724  0.212183  0.448081  1
  F  F8  1  0.792348  0.969687  0.357692  1
  F  F9  1  0.698198  0.809861  0.024518  1
  F  F10  1  0.296066  0.864274  0.307518  1
  F  F11  1  0.914438  0.957998  0.882725  1
  F  F12  1  0.587936  0.784018  0.549255  1
  F  F13  1  0.918364  0.622596  0.214594  1
  F  F14  1  0.423735  0.871317  0.784499  1
  F  F15  1  0.088591  0.706267  0.448848  1
  F  F16  1  0.412924  0.542150  0.117579  1
  F  F17  1  0.701824  0.469819  0.357760  1
  F  F18  1  0.802006  0.310646  0.024833  1
  F  F19  1  0.198317  0.689643  0.975065  1
  F  F20  1  0.286143  0.530798  0.642622  1
  F  F21  1  0.207588  0.360089  0.306969  1
  F  F22  1  0.586072  0.457518  0.882692  1
  F  F23  1  0.927885  0.272987  0.550089  1
  F  F24  1  0.592103  0.125041  0.217990  1
  F  F25  1  0.093218  0.365143  0.781741  1
  F  F26  1  0.087062  0.040573  0.117601  1
  F  F27  1  0.709869  0.143069  0.691304  1
  F  F28  1  0.301401  0.189852  0.975332  1
  F  F29  1  0.207406  0.028089  0.642889  1
