# generated using pymatgen
data_Li4FeCo9O20
_symmetry_space_group_name_H-M   'P 1'
_cell_length_a   4.90562614
_cell_length_b   7.51605288
_cell_length_c   10.03872511
_cell_angle_alpha   80.81027439
_cell_angle_beta   85.33695147
_cell_angle_gamma   71.03581747
_symmetry_Int_Tables_number   1
_chemical_formula_structural   Li4FeCo9O20
_chemical_formula_sum   'Li4 Fe1 Co9 O20'
_cell_volume   345.38272502
_cell_formula_units_Z   1
loop_
 _symmetry_equiv_pos_site_id
 _symmetry_equiv_pos_as_xyz
  1  'x, y, z'
loop_
 _atom_site_type_symbol
 _atom_site_label
 _atom_site_symmetry_multiplicity
 _atom_site_fract_x
 _atom_site_fract_y
 _atom_site_fract_z
 _atom_site_occupancy
  Li  Li0  1  0.303131  0.920514  0.497348  1
  Li  Li1  1  0.501978  0.482302  0.500933  1
  Li  Li2  1  0.795066  0.419703  0.999878  1
  Li  Li3  1  0.015279  0.983299  0.003142  1
  Fe  Fe4  1  0.945759  0.843816  0.747228  1
  Co  Co5  1  0.650860  0.949761  0.249836  1
  Co  Co6  1  0.548096  0.647999  0.751830  1
  Co  Co7  1  0.251391  0.749941  0.248375  1
  Co  Co8  1  0.851024  0.551278  0.251446  1
  Co  Co9  1  0.149895  0.447233  0.750163  1
  Co  Co10  1  0.749737  0.250879  0.748823  1
  Co  Co11  1  0.449461  0.349891  0.248516  1
  Co  Co12  1  0.348780  0.051648  0.751494  1
  Co  Co13  1  0.049278  0.150380  0.251864  1
  O  O14  1  0.985188  0.928916  0.348329  1
  O  O15  1  0.596036  0.870804  0.646750  1
  O  O16  1  0.287459  0.835796  0.852541  1
  O  O17  1  0.315221  0.971367  0.151929  1
  O  O18  1  0.928318  0.772469  0.151950  1
  O  O19  1  0.867631  0.618004  0.852601  1
  O  O20  1  0.568118  0.731596  0.351035  1
  O  O21  1  0.243009  0.661527  0.644778  1
  O  O22  1  0.815116  0.469801  0.652414  1
  O  O23  1  0.527240  0.565529  0.152356  1
  O  O24  1  0.483354  0.427794  0.847810  1
  O  O25  1  0.188297  0.529481  0.346886  1
  O  O26  1  0.768962  0.333118  0.347832  1
  O  O27  1  0.424471  0.270123  0.652653  1
  O  O28  1  0.068996  0.229689  0.851451  1
  O  O29  1  0.117899  0.368803  0.153497  1
  O  O30  1  0.671747  0.039106  0.849488  1
  O  O31  1  0.731166  0.170675  0.149428  1
  O  O32  1  0.373652  0.130109  0.346909  1
  O  O33  1  0.036352  0.077448  0.648767  1
