# generated using pymatgen
data_Li2VF4
_symmetry_space_group_name_H-M   'P 1'
_cell_length_a   3.13141494
_cell_length_b   5.03246065
_cell_length_c   10.02302444
_cell_angle_alpha   90.00000000
_cell_angle_beta   90.00000000
_cell_angle_gamma   90.00000000
_symmetry_Int_Tables_number   1
_chemical_formula_structural   Li2VF4
_chemical_formula_sum   'Li4 V2 F8'
_cell_volume   157.95006019
_cell_formula_units_Z   2
loop_
 _symmetry_equiv_pos_site_id
 _symmetry_equiv_pos_as_xyz
  1  'x, y, z'
loop_
 _atom_site_type_symbol
 _atom_site_label
 _atom_site_symmetry_multiplicity
 _atom_site_fract_x
 _atom_site_fract_y
 _atom_site_fract_z
 _atom_site_occupancy
  Li  Li0  1  0.500000  0.023827  0.708477  1
  Li  Li1  1  0.500000  0.476173  0.208477  1
  Li  Li2  1  0.500000  0.523827  0.791523  1
  Li  Li3  1  0.500000  0.976173  0.291523  1
  V  V4  1  0.000000  0.500000  0.500000  1
  V  V5  1  0.000000  0.000000  0.000000  1
  F  F6  1  0.000000  0.254914  0.167200  1
  F  F7  1  0.000000  0.754914  0.332800  1
  F  F8  1  0.500000  0.205305  0.900056  1
  F  F9  1  0.500000  0.705305  0.599944  1
  F  F10  1  0.500000  0.294695  0.400056  1
  F  F11  1  0.500000  0.794695  0.099944  1
  F  F12  1  0.000000  0.245086  0.667200  1
  F  F13  1  0.000000  0.745086  0.832800  1
