# generated using pymatgen
data_Li2AlNiO4
_symmetry_space_group_name_H-M   'P 1'
_cell_length_a   5.09823390
_cell_length_b   10.72899887
_cell_length_c   8.14622114
_cell_angle_alpha   90.00000000
_cell_angle_beta   128.55069813
_cell_angle_gamma   90.00000000
_symmetry_Int_Tables_number   1
_chemical_formula_structural   Li2AlNiO4
_chemical_formula_sum   'Li8 Al4 Ni4 O16'
_cell_volume   348.47655875
_cell_formula_units_Z   4
loop_
 _symmetry_equiv_pos_site_id
 _symmetry_equiv_pos_as_xyz
  1  'x, y, z'
loop_
 _atom_site_type_symbol
 _atom_site_label
 _atom_site_symmetry_multiplicity
 _atom_site_fract_x
 _atom_site_fract_y
 _atom_site_fract_z
 _atom_site_occupancy
  Li  Li0  1  0.800044  0.834122  0.488927  1
  Li  Li1  1  0.555456  0.080153  0.258081  1
  Li  Li2  1  0.444544  0.580153  0.241919  1
  Li  Li3  1  0.199956  0.334122  0.011073  1
  Li  Li4  1  0.800044  0.665878  0.988927  1
  Li  Li5  1  0.555456  0.419847  0.758081  1
  Li  Li6  1  0.444544  0.919847  0.741919  1
  Li  Li7  1  0.199956  0.165878  0.511073  1
  Al  Al8  1  0.943924  0.412438  0.259771  1
  Al  Al9  1  0.056076  0.912438  0.240229  1
  Al  Al10  1  0.943924  0.087562  0.759771  1
  Al  Al11  1  0.056076  0.587562  0.740229  1
  Ni  Ni12  1  0.310450  0.666777  0.492299  1
  Ni  Ni13  1  0.689550  0.166777  0.007701  1
  Ni  Ni14  1  0.310450  0.833223  0.992299  1
  Ni  Ni15  1  0.689550  0.333223  0.507701  1
  O  O16  1  0.298613  0.335786  0.483309  1
  O  O17  1  0.179339  0.831533  0.470471  1
  O  O18  1  0.962268  0.070300  0.250103  1
  O  O19  1  0.606495  0.407698  0.272091  1
  O  O20  1  0.393505  0.907698  0.227909  1
  O  O21  1  0.037732  0.570300  0.249897  1
  O  O22  1  0.820661  0.331533  0.029529  1
  O  O23  1  0.701387  0.835786  0.016691  1
  O  O24  1  0.298613  0.164214  0.983309  1
  O  O25  1  0.179339  0.668467  0.970471  1
  O  O26  1  0.962268  0.429700  0.750103  1
  O  O27  1  0.606495  0.092302  0.772091  1
  O  O28  1  0.393505  0.592302  0.727909  1
  O  O29  1  0.037732  0.929700  0.749897  1
  O  O30  1  0.820661  0.168467  0.529529  1
  O  O31  1  0.701387  0.664214  0.516691  1
