# generated using pymatgen
data_Li4Co5Ni3O16
_symmetry_space_group_name_H-M   'P 1'
_cell_length_a   5.62381943
_cell_length_b   5.62381943
_cell_length_c   9.09708670
_cell_angle_alpha   89.83570474
_cell_angle_beta   90.16429526
_cell_angle_gamma   119.94556955
_symmetry_Int_Tables_number   1
_chemical_formula_structural   Li4Co5Ni3O16
_chemical_formula_sum   'Li4 Co5 Ni3 O16'
_cell_volume   249.30515505
_cell_formula_units_Z   1
loop_
 _symmetry_equiv_pos_site_id
 _symmetry_equiv_pos_as_xyz
  1  'x, y, z'
loop_
 _atom_site_type_symbol
 _atom_site_label
 _atom_site_symmetry_multiplicity
 _atom_site_fract_x
 _atom_site_fract_y
 _atom_site_fract_z
 _atom_site_occupancy
  Li  Li0  1  0.331230  0.668770  0.895846  1
  Li  Li1  1  0.998587  0.001413  0.998071  1
  Li  Li2  1  0.996063  0.003937  0.495885  1
  Li  Li3  1  0.662868  0.337132  0.395619  1
  Co  Co4  1  0.658519  0.830413  0.214709  1
  Co  Co5  1  0.334159  0.665841  0.485058  1
  Co  Co6  1  0.169587  0.341481  0.214709  1
  Co  Co7  1  0.828590  0.171410  0.714436  1
  Co  Co8  1  0.666757  0.333243  0.983576  1
  Ni  Ni9  1  0.168836  0.831164  0.214065  1
  Ni  Ni10  1  0.829970  0.663517  0.714335  1
  Ni  Ni11  1  0.336483  0.170030  0.714335  1
  O  O12  1  0.673756  0.837755  0.598370  1
  O  O13  1  0.476812  0.523188  0.338479  1
  O  O14  1  0.329729  0.670271  0.109665  1
  O  O15  1  0.001149  0.998851  0.306230  1
  O  O16  1  0.000673  0.999327  0.806944  1
  O  O17  1  0.162245  0.326244  0.598370  1
  O  O18  1  0.478228  0.961211  0.340679  1
  O  O19  1  0.038789  0.521772  0.340679  1
  O  O20  1  0.833660  0.166340  0.103493  1
  O  O21  1  0.160882  0.839118  0.598621  1
  O  O22  1  0.958918  0.483387  0.839956  1
  O  O23  1  0.516613  0.041082  0.839956  1
  O  O24  1  0.663092  0.336908  0.612097  1
  O  O25  1  0.837743  0.675782  0.097579  1
  O  O26  1  0.519808  0.480192  0.839961  1
  O  O27  1  0.324218  0.162257  0.097579  1
