# generated using pymatgen
data_Li14Co2S9
_symmetry_space_group_name_H-M   'P 1'
_cell_length_a   6.98559615
_cell_length_b   6.98559615
_cell_length_c   9.80189222
_cell_angle_alpha   90.00000000
_cell_angle_beta   90.00000000
_cell_angle_gamma   120.00000000
_symmetry_Int_Tables_number   1
_chemical_formula_structural   Li14Co2S9
_chemical_formula_sum   'Li14 Co2 S9'
_cell_volume   414.23567964
_cell_formula_units_Z   1
loop_
 _symmetry_equiv_pos_site_id
 _symmetry_equiv_pos_as_xyz
  1  'x, y, z'
loop_
 _atom_site_type_symbol
 _atom_site_label
 _atom_site_symmetry_multiplicity
 _atom_site_fract_x
 _atom_site_fract_y
 _atom_site_fract_z
 _atom_site_occupancy
  Li  Li0  1  0.018996  0.672383  0.909956  1
  Li  Li1  1  0.324331  0.958207  0.591512  1
  Li  Li2  1  0.041793  0.366124  0.591512  1
  Li  Li3  1  0.000000  0.000000  0.250309  1
  Li  Li4  1  0.000000  0.000000  0.749691  1
  Li  Li5  1  0.327617  0.346613  0.909956  1
  Li  Li6  1  0.653387  0.981004  0.909956  1
  Li  Li7  1  0.366124  0.324331  0.408488  1
  Li  Li8  1  0.633876  0.675669  0.591512  1
  Li  Li9  1  0.346613  0.018996  0.090044  1
  Li  Li10  1  0.672383  0.653387  0.090044  1
  Li  Li11  1  0.958207  0.633876  0.408488  1
  Li  Li12  1  0.675669  0.041793  0.408488  1
  Li  Li13  1  0.981004  0.327617  0.090044  1
  Co  Co14  1  0.333333  0.666667  0.255798  1
  Co  Co15  1  0.666667  0.333333  0.744202  1
  S  S16  1  0.308409  0.963469  0.337588  1
  S  S17  1  0.036531  0.344940  0.337588  1
  S  S18  1  0.333333  0.666667  0.020899  1
  S  S19  1  0.000000  0.000000  0.000000  1
  S  S20  1  0.344940  0.308409  0.662412  1
  S  S21  1  0.655060  0.691591  0.337588  1
  S  S22  1  0.666667  0.333333  0.979101  1
  S  S23  1  0.963469  0.655060  0.662412  1
  S  S24  1  0.691591  0.036531  0.662412  1
