# generated using pymatgen
data_La3Ce4O12
_symmetry_space_group_name_H-M   'P 1'
_cell_length_a   14.42890201
_cell_length_b   14.42890201
_cell_length_c   5.63139828
_cell_angle_alpha   79.19507112
_cell_angle_beta   100.80492888
_cell_angle_gamma   164.64984872
_symmetry_Int_Tables_number   1
_chemical_formula_structural   La3Ce4O12
_chemical_formula_sum   'La3 Ce4 O12'
_cell_volume   304.75631608
_cell_formula_units_Z   1
loop_
 _symmetry_equiv_pos_site_id
 _symmetry_equiv_pos_as_xyz
  1  'x, y, z'
loop_
 _atom_site_type_symbol
 _atom_site_label
 _atom_site_symmetry_multiplicity
 _atom_site_fract_x
 _atom_site_fract_y
 _atom_site_fract_z
 _atom_site_occupancy
  La  La0  1  0.000000  0.000000  0.000000  1
  La  La1  1  0.427051  0.572949  0.473913  1
  La  La2  1  0.572949  0.427051  0.526087  1
  Ce  Ce3  1  0.151696  0.848304  0.164302  1
  Ce  Ce4  1  0.285888  0.714112  0.285516  1
  Ce  Ce5  1  0.848304  0.151696  0.835698  1
  Ce  Ce6  1  0.714112  0.285888  0.714484  1
  O  O7  1  0.635917  0.364083  0.892516  1
  O  O8  1  0.513207  0.486793  0.761807  1
  O  O9  1  0.350204  0.649796  0.603235  1
  O  O10  1  0.216480  0.783520  0.471500  1
  O  O11  1  0.649796  0.350204  0.396765  1
  O  O12  1  0.074687  0.925313  0.292160  1
  O  O13  1  0.925313  0.074687  0.707840  1
  O  O14  1  0.486793  0.513207  0.238193  1
  O  O15  1  0.783520  0.216480  0.528500  1
  O  O16  1  0.213993  0.786007  0.969069  1
  O  O17  1  0.786007  0.213993  0.030931  1
  O  O18  1  0.364083  0.635917  0.107484  1
