# generated using pymatgen
data_Li6MnNiP2(CO7)2
_symmetry_space_group_name_H-M   'P 1'
_cell_length_a   4.97920906
_cell_length_b   6.49319657
_cell_length_c   8.43783196
_cell_angle_alpha   90.00000000
_cell_angle_beta   94.50734034
_cell_angle_gamma   90.00000000
_symmetry_Int_Tables_number   1
_chemical_formula_structural   Li6MnNiP2(CO7)2
_chemical_formula_sum   'Li6 Mn1 Ni1 P2 C2 O14'
_cell_volume   271.95969727
_cell_formula_units_Z   1
loop_
 _symmetry_equiv_pos_site_id
 _symmetry_equiv_pos_as_xyz
  1  'x, y, z'
loop_
 _atom_site_type_symbol
 _atom_site_label
 _atom_site_symmetry_multiplicity
 _atom_site_fract_x
 _atom_site_fract_y
 _atom_site_fract_z
 _atom_site_occupancy
  Li  Li0  1  0.760236  0.500000  0.906447  1
  Li  Li1  1  0.245718  0.273335  0.725583  1
  Li  Li2  1  0.245718  0.726665  0.725583  1
  Li  Li3  1  0.753601  0.775017  0.275190  1
  Li  Li4  1  0.753601  0.224983  0.275190  1
  Li  Li5  1  0.236489  0.000000  0.095630  1
  Mn  Mn6  1  0.222752  0.500000  0.341605  1
  Ni  Ni7  1  0.792790  0.000000  0.667696  1
  P  P8  1  0.719882  0.500000  0.589998  1
  P  P9  1  0.277347  0.000000  0.414893  1
  C  C10  1  0.704405  0.000000  0.960538  1
  C  C11  1  0.296754  0.500000  0.032454  1
  O  O12  1  0.952007  0.000000  0.923799  1
  O  O13  1  0.356674  0.500000  0.885522  1
  O  O14  1  0.515199  0.000000  0.844853  1
  O  O15  1  0.828699  0.313016  0.690273  1
  O  O16  1  0.828699  0.686984  0.690273  1
  O  O17  1  0.169083  0.000000  0.581172  1
  O  O18  1  0.405181  0.500000  0.576745  1
  O  O19  1  0.592061  0.000000  0.437120  1
  O  O20  1  0.810019  0.500000  0.418402  1
  O  O21  1  0.174571  0.184432  0.309664  1
  O  O22  1  0.174571  0.815568  0.309664  1
  O  O23  1  0.491475  0.500000  0.145042  1
  O  O24  1  0.642377  0.000000  0.107191  1
  O  O25  1  0.050091  0.500000  0.069468  1
