# generated using pymatgen
data_Li4Ti3Co3(WO8)2
_symmetry_space_group_name_H-M   'P 1'
_cell_length_a   5.97770626
_cell_length_b   5.97770626
_cell_length_c   9.82758323
_cell_angle_alpha   89.18614264
_cell_angle_beta   90.81385736
_cell_angle_gamma   119.84887482
_symmetry_Int_Tables_number   1
_chemical_formula_structural   Li4Ti3Co3(WO8)2
_chemical_formula_sum   'Li4 Ti3 Co3 W2 O16'
_cell_volume   304.54210114
_cell_formula_units_Z   1
loop_
 _symmetry_equiv_pos_site_id
 _symmetry_equiv_pos_as_xyz
  1  'x, y, z'
loop_
 _atom_site_type_symbol
 _atom_site_label
 _atom_site_symmetry_multiplicity
 _atom_site_fract_x
 _atom_site_fract_y
 _atom_site_fract_z
 _atom_site_occupancy
  Li  Li0  1  0.335331  0.664669  0.095109  1
  Li  Li1  1  0.005586  0.994414  0.016644  1
  Li  Li2  1  0.995482  0.004518  0.508397  1
  Li  Li3  1  0.665668  0.334332  0.592715  1
  Ti  Ti4  1  0.159699  0.341036  0.784358  1
  Ti  Ti5  1  0.658964  0.840301  0.784358  1
  Ti  Ti6  1  0.819970  0.180030  0.267434  1
  Co  Co7  1  0.178344  0.821656  0.789062  1
  Co  Co8  1  0.344246  0.177920  0.288379  1
  Co  Co9  1  0.822080  0.655754  0.288379  1
  W  W10  1  0.329349  0.670651  0.509667  1
  W  W11  1  0.654715  0.345285  0.010418  1
  O  O12  1  0.171654  0.354557  0.413785  1
  O  O13  1  0.477800  0.522200  0.659953  1
  O  O14  1  0.352093  0.647907  0.894249  1
  O  O15  1  0.996065  0.003935  0.697604  1
  O  O16  1  0.992536  0.007464  0.206649  1
  O  O17  1  0.645443  0.828346  0.413785  1
  O  O18  1  0.040386  0.507948  0.649983  1
  O  O19  1  0.492052  0.959614  0.649983  1
  O  O20  1  0.829667  0.170333  0.893258  1
  O  O21  1  0.168741  0.831259  0.420454  1
  O  O22  1  0.532955  0.036656  0.147539  1
  O  O23  1  0.963344  0.467045  0.147539  1
  O  O24  1  0.680693  0.319307  0.391734  1
  O  O25  1  0.331217  0.168732  0.910262  1
  O  O26  1  0.516338  0.483662  0.149558  1
  O  O27  1  0.831268  0.668783  0.910262  1
