# generated using pymatgen
data_Hf2N2O
_symmetry_space_group_name_H-M   'P 1'
_cell_length_a   5.40878101
_cell_length_b   6.45938291
_cell_length_c   6.98163629
_cell_angle_alpha   76.71876512
_cell_angle_beta   89.68563397
_cell_angle_gamma   89.91292158
_symmetry_Int_Tables_number   1
_chemical_formula_structural   Hf2N2O
_chemical_formula_sum   'Hf8 N8 O4'
_cell_volume   237.39270384
_cell_formula_units_Z   4
loop_
 _symmetry_equiv_pos_site_id
 _symmetry_equiv_pos_as_xyz
  1  'x, y, z'
loop_
 _atom_site_type_symbol
 _atom_site_label
 _atom_site_symmetry_multiplicity
 _atom_site_fract_x
 _atom_site_fract_y
 _atom_site_fract_z
 _atom_site_occupancy
  Hf  Hf0  1  0.711270  0.869721  0.153129  1
  Hf  Hf1  1  0.700900  0.371617  0.152623  1
  Hf  Hf2  1  0.197096  0.321973  0.349222  1
  Hf  Hf3  1  0.213677  0.821753  0.342081  1
  Hf  Hf4  1  0.776746  0.503328  0.615235  1
  Hf  Hf5  1  0.759905  0.008932  0.601158  1
  Hf  Hf6  1  0.310179  0.692389  0.869029  1
  Hf  Hf7  1  0.274815  0.183987  0.896743  1
  N  N8  1  0.427985  0.615116  0.180256  1
  N  N9  1  0.422272  0.109822  0.195484  1
  N  N10  1  0.926265  0.580791  0.313565  1
  N  N11  1  0.924745  0.082699  0.304827  1
  N  N12  1  0.526596  0.773036  0.524634  1
  N  N13  1  0.043490  0.244122  0.638186  1
  N  N14  1  0.550214  0.952073  0.866009  1
  N  N15  1  0.543104  0.431828  0.866719  1
  O  O16  1  0.553983  0.290368  0.492408  1
  O  O17  1  0.027704  0.751696  0.642007  1
  O  O18  1  0.061202  0.899643  0.003984  1
  O  O19  1  0.047851  0.418874  0.992700  1
