# generated using pymatgen
data_NaHoO2
_symmetry_space_group_name_H-M   'P 1'
_cell_length_a   6.10620172
_cell_length_b   6.10620172
_cell_length_c   6.10620172
_cell_angle_alpha   135.64761463
_cell_angle_beta   135.64761463
_cell_angle_gamma   64.52560151
_symmetry_Int_Tables_number   1
_chemical_formula_structural   NaHoO2
_chemical_formula_sum   'Na2 Ho2 O4'
_cell_volume   109.71741667
_cell_formula_units_Z   2
loop_
 _symmetry_equiv_pos_site_id
 _symmetry_equiv_pos_as_xyz
  1  'x, y, z'
loop_
 _atom_site_type_symbol
 _atom_site_label
 _atom_site_symmetry_multiplicity
 _atom_site_fract_x
 _atom_site_fract_y
 _atom_site_fract_z
 _atom_site_occupancy
  Na  Na0  1  0.750000  0.250000  0.500000  1
  Na  Na1  1  0.000000  0.000000  0.000000  1
  Ho  Ho2  1  0.250000  0.750000  0.500000  1
  Ho  Ho3  1  0.500000  0.500000  0.000000  1
  O  O4  1  0.721496  0.721496  0.000000  1
  O  O5  1  0.028504  0.528504  0.500000  1
  O  O6  1  0.471496  0.971496  0.500000  1
  O  O7  1  0.278504  0.278504  0.000000  1
