# generated using pymatgen
data_MgPH16NO10
_symmetry_space_group_name_H-M   'P 1'
_cell_length_a   6.09364476
_cell_length_b   7.05598738
_cell_length_c   11.28695465
_cell_angle_alpha   90.00000000
_cell_angle_beta   90.00000000
_cell_angle_gamma   90.00000000
_symmetry_Int_Tables_number   1
_chemical_formula_structural   MgPH16NO10
_chemical_formula_sum   'Mg2 P2 H32 N2 O20'
_cell_volume   485.30158318
_cell_formula_units_Z   2
loop_
 _symmetry_equiv_pos_site_id
 _symmetry_equiv_pos_as_xyz
  1  'x, y, z'
loop_
 _atom_site_type_symbol
 _atom_site_label
 _atom_site_symmetry_multiplicity
 _atom_site_fract_x
 _atom_site_fract_y
 _atom_site_fract_z
 _atom_site_occupancy
  Mg  Mg0  1  0.624711  0.500000  0.128290  1
  Mg  Mg1  1  0.375289  0.000000  0.628290  1
  P  P2  1  0.011374  0.500000  0.499720  1
  P  P3  1  0.988626  0.000000  0.999720  1
  H  H4  1  0.285041  0.500000  0.303606  1
  H  H5  1  0.714959  0.000000  0.803606  1
  H  H6  1  0.175930  0.500000  0.173821  1
  H  H7  1  0.824070  0.000000  0.673821  1
  H  H8  1  0.995527  0.616559  0.000868  1
  H  H9  1  0.995527  0.383441  0.000868  1
  H  H10  1  0.004473  0.883441  0.500868  1
  H  H11  1  0.004473  0.116559  0.500868  1
  H  H12  1  0.797284  0.697327  0.322098  1
  H  H13  1  0.797284  0.302673  0.322098  1
  H  H14  1  0.202716  0.802673  0.822098  1
  H  H15  1  0.202716  0.197327  0.822098  1
  H  H16  1  0.830146  0.816296  0.201412  1
  H  H17  1  0.830146  0.183704  0.201412  1
  H  H18  1  0.169854  0.683704  0.701412  1
  H  H19  1  0.169854  0.316296  0.701412  1
  H  H20  1  0.359394  0.745904  0.999969  1
  H  H21  1  0.359394  0.254096  0.999969  1
  H  H22  1  0.640606  0.754096  0.499969  1
  H  H23  1  0.640606  0.245904  0.499969  1
  H  H24  1  0.605319  0.820963  0.988811  1
  H  H25  1  0.605319  0.179037  0.988811  1
  H  H26  1  0.394681  0.679037  0.488811  1
  H  H27  1  0.394681  0.320963  0.488811  1
  H  H28  1  0.781735  0.500000  0.715952  1
  H  H29  1  0.218265  0.000000  0.215952  1
  H  H30  1  0.663244  0.500000  0.856385  1
  H  H31  1  0.336756  0.000000  0.356385  1
  H  H32  1  0.539431  0.619189  0.748438  1
  H  H33  1  0.539431  0.380811  0.748438  1
  H  H34  1  0.460569  0.880811  0.248438  1
  H  H35  1  0.460569  0.119189  0.248438  1
  N  N36  1  0.634041  0.500000  0.766053  1
  N  N37  1  0.365959  0.000000  0.266053  1
  O  O38  1  0.023714  0.500000  0.637932  1
  O  O39  1  0.976286  0.000000  0.137932  1
  O  O40  1  0.248908  0.500000  0.448300  1
  O  O41  1  0.751092  0.000000  0.948300  1
  O  O42  1  0.889559  0.681297  0.456013  1
  O  O43  1  0.889559  0.318703  0.456013  1
  O  O44  1  0.110441  0.818703  0.956013  1
  O  O45  1  0.110441  0.181297  0.956013  1
  O  O46  1  0.316951  0.500000  0.215776  1
  O  O47  1  0.683049  0.000000  0.715776  1
  O  O48  1  0.934067  0.500000  0.040187  1
  O  O49  1  0.065933  0.000000  0.540187  1
  O  O50  1  0.737569  0.715826  0.239442  1
  O  O51  1  0.737569  0.284174  0.239442  1
  O  O52  1  0.262431  0.784174  0.739442  1
  O  O53  1  0.262431  0.215826  0.739442  1
  O  O54  1  0.515565  0.706183  0.011188  1
  O  O55  1  0.515565  0.293817  0.011188  1
  O  O56  1  0.484435  0.793817  0.511188  1
  O  O57  1  0.484435  0.206183  0.511188  1
