# generated using pymatgen
data_Fe3O5F
_symmetry_space_group_name_H-M   'P 1'
_cell_length_a   4.64545617
_cell_length_b   5.55344901
_cell_length_c   7.58329801
_cell_angle_alpha   85.52941408
_cell_angle_beta   88.84993918
_cell_angle_gamma   87.40314451
_symmetry_Int_Tables_number   1
_chemical_formula_structural   Fe3O5F
_chemical_formula_sum   'Fe6 O10 F2'
_cell_volume   194.81383508
_cell_formula_units_Z   2
loop_
 _symmetry_equiv_pos_site_id
 _symmetry_equiv_pos_as_xyz
  1  'x, y, z'
loop_
 _atom_site_type_symbol
 _atom_site_label
 _atom_site_symmetry_multiplicity
 _atom_site_fract_x
 _atom_site_fract_y
 _atom_site_fract_z
 _atom_site_occupancy
  Fe  Fe0  1  0.520817  0.678719  0.341647  1
  Fe  Fe1  1  0.479183  0.321281  0.658353  1
  Fe  Fe2  1  0.500000  0.000000  0.000000  1
  Fe  Fe3  1  0.988033  0.154115  0.332543  1
  Fe  Fe4  1  0.000000  0.500000  0.000000  1
  Fe  Fe5  1  0.011967  0.845885  0.667457  1
  O  O6  1  0.816420  0.210365  0.103562  1
  O  O7  1  0.810030  0.867340  0.444515  1
  O  O8  1  0.691176  0.038584  0.768905  1
  O  O9  1  0.694014  0.371780  0.434235  1
  O  O10  1  0.696293  0.702915  0.103665  1
  O  O11  1  0.308824  0.961416  0.231095  1
  O  O12  1  0.303707  0.297085  0.896335  1
  O  O13  1  0.305986  0.628220  0.565765  1
  O  O14  1  0.183580  0.789635  0.896438  1
  O  O15  1  0.189970  0.132660  0.555485  1
  F  F16  1  0.796934  0.534637  0.764239  1
  F  F17  1  0.203066  0.465363  0.235761  1
