# generated using pymatgen
data_LiCoSiO4
_symmetry_space_group_name_H-M   'P 1'
_cell_length_a   4.77092603
_cell_length_b   5.79618306
_cell_length_c   10.15644328
_cell_angle_alpha   90.00000000
_cell_angle_beta   90.00000000
_cell_angle_gamma   90.00000000
_symmetry_Int_Tables_number   1
_chemical_formula_structural   LiCoSiO4
_chemical_formula_sum   'Li4 Co4 Si4 O16'
_cell_volume   280.85775790
_cell_formula_units_Z   4
loop_
 _symmetry_equiv_pos_site_id
 _symmetry_equiv_pos_as_xyz
  1  'x, y, z'
loop_
 _atom_site_type_symbol
 _atom_site_label
 _atom_site_symmetry_multiplicity
 _atom_site_fract_x
 _atom_site_fract_y
 _atom_site_fract_z
 _atom_site_occupancy
  Li  Li0  1  0.500000  0.000000  0.000000  1
  Li  Li1  1  0.000000  0.000000  0.500000  1
  Li  Li2  1  0.000000  0.500000  0.500000  1
  Li  Li3  1  0.500000  0.500000  0.000000  1
  Co  Co4  1  0.517256  0.750000  0.275762  1
  Co  Co5  1  0.982744  0.750000  0.775762  1
  Co  Co6  1  0.017256  0.250000  0.224238  1
  Co  Co7  1  0.482744  0.250000  0.724238  1
  Si  Si8  1  0.556144  0.250000  0.406627  1
  Si  Si9  1  0.943856  0.250000  0.906627  1
  Si  Si10  1  0.056144  0.750000  0.093373  1
  Si  Si11  1  0.443856  0.750000  0.593373  1
  O  O12  1  0.688860  0.250000  0.554998  1
  O  O13  1  0.712026  0.031747  0.327727  1
  O  O14  1  0.712026  0.468253  0.327727  1
  O  O15  1  0.715858  0.750000  0.100981  1
  O  O16  1  0.784142  0.750000  0.600981  1
  O  O17  1  0.787974  0.468253  0.827727  1
  O  O18  1  0.787974  0.031747  0.827727  1
  O  O19  1  0.811140  0.250000  0.054998  1
  O  O20  1  0.188860  0.750000  0.945002  1
  O  O21  1  0.212026  0.531747  0.172273  1
  O  O22  1  0.212026  0.968253  0.172273  1
  O  O23  1  0.215858  0.250000  0.399019  1
  O  O24  1  0.284142  0.250000  0.899019  1
  O  O25  1  0.287974  0.968253  0.672273  1
  O  O26  1  0.287974  0.531747  0.672273  1
  O  O27  1  0.311140  0.750000  0.445002  1
