# generated using pymatgen
data_Li2AgF3
_symmetry_space_group_name_H-M   'P 1'
_cell_length_a   5.44858952
_cell_length_b   5.49929210
_cell_length_c   9.21750503
_cell_angle_alpha   90.00000000
_cell_angle_beta   90.00000000
_cell_angle_gamma   90.00000000
_symmetry_Int_Tables_number   1
_chemical_formula_structural   Li2AgF3
_chemical_formula_sum   'Li8 Ag4 F12'
_cell_volume   276.18765475
_cell_formula_units_Z   4
loop_
 _symmetry_equiv_pos_site_id
 _symmetry_equiv_pos_as_xyz
  1  'x, y, z'
loop_
 _atom_site_type_symbol
 _atom_site_label
 _atom_site_symmetry_multiplicity
 _atom_site_fract_x
 _atom_site_fract_y
 _atom_site_fract_z
 _atom_site_occupancy
  Li  Li0  1  0.962881  0.002864  0.837315  1
  Li  Li1  1  0.962881  0.497136  0.837315  1
  Li  Li2  1  0.462881  0.502864  0.662685  1
  Li  Li3  1  0.462881  0.997136  0.662685  1
  Li  Li4  1  0.537119  0.002864  0.337315  1
  Li  Li5  1  0.537119  0.497136  0.337315  1
  Li  Li6  1  0.037119  0.502864  0.162685  1
  Li  Li7  1  0.037119  0.997136  0.162685  1
  Ag  Ag8  1  0.458546  0.250000  0.989450  1
  Ag  Ag9  1  0.958546  0.750000  0.510550  1
  Ag  Ag10  1  0.041454  0.250000  0.489450  1
  Ag  Ag11  1  0.541454  0.750000  0.010550  1
  F  F12  1  0.992622  0.750000  0.996991  1
  F  F13  1  0.664354  0.250000  0.786250  1
  F  F14  1  0.664377  0.750000  0.778402  1
  F  F15  1  0.164377  0.250000  0.721598  1
  F  F16  1  0.164354  0.750000  0.713750  1
  F  F17  1  0.492622  0.250000  0.503009  1
  F  F18  1  0.507378  0.750000  0.496991  1
  F  F19  1  0.835646  0.250000  0.286250  1
  F  F20  1  0.835623  0.750000  0.278402  1
  F  F21  1  0.335623  0.250000  0.221598  1
  F  F22  1  0.335646  0.750000  0.213750  1
  F  F23  1  0.007378  0.250000  0.003009  1
