# generated using pymatgen
data_LiNbPO5
_symmetry_space_group_name_H-M   'P 1'
_cell_length_a   6.68805882
_cell_length_b   7.49876792
_cell_length_c   7.62284222
_cell_angle_alpha   90.00000000
_cell_angle_beta   90.00000000
_cell_angle_gamma   90.00000000
_symmetry_Int_Tables_number   1
_chemical_formula_structural   LiNbPO5
_chemical_formula_sum   'Li4 Nb4 P4 O20'
_cell_volume   382.30231465
_cell_formula_units_Z   4
loop_
 _symmetry_equiv_pos_site_id
 _symmetry_equiv_pos_as_xyz
  1  'x, y, z'
loop_
 _atom_site_type_symbol
 _atom_site_label
 _atom_site_symmetry_multiplicity
 _atom_site_fract_x
 _atom_site_fract_y
 _atom_site_fract_z
 _atom_site_occupancy
  Li  Li0  1  0.000000  0.000000  0.000000  1
  Li  Li1  1  0.500000  0.000000  0.000000  1
  Li  Li2  1  0.000000  0.500000  0.500000  1
  Li  Li3  1  0.500000  0.500000  0.500000  1
  Nb  Nb4  1  0.250000  0.721417  0.161482  1
  Nb  Nb5  1  0.750000  0.221417  0.338518  1
  Nb  Nb6  1  0.250000  0.778583  0.661482  1
  Nb  Nb7  1  0.750000  0.278583  0.838518  1
  P  P8  1  0.750000  0.632973  0.127781  1
  P  P9  1  0.250000  0.132973  0.372219  1
  P  P10  1  0.750000  0.867027  0.627781  1
  P  P11  1  0.250000  0.367027  0.872219  1
  O  O12  1  0.250000  0.480217  0.041479  1
  O  O13  1  0.750000  0.162516  0.096676  1
  O  O14  1  0.563888  0.755821  0.129622  1
  O  O15  1  0.936112  0.755821  0.129622  1
  O  O16  1  0.250000  0.008968  0.209061  1
  O  O17  1  0.750000  0.508968  0.290939  1
  O  O18  1  0.063888  0.255821  0.370378  1
  O  O19  1  0.436112  0.255821  0.370378  1
  O  O20  1  0.250000  0.662516  0.403324  1
  O  O21  1  0.750000  0.980217  0.458521  1
  O  O22  1  0.250000  0.019783  0.541479  1
  O  O23  1  0.750000  0.337484  0.596676  1
  O  O24  1  0.563888  0.744179  0.629622  1
  O  O25  1  0.936112  0.744179  0.629622  1
  O  O26  1  0.250000  0.491032  0.709061  1
  O  O27  1  0.750000  0.991032  0.790939  1
  O  O28  1  0.063888  0.244179  0.870378  1
  O  O29  1  0.436112  0.244179  0.870378  1
  O  O30  1  0.250000  0.837484  0.903324  1
  O  O31  1  0.750000  0.519783  0.958521  1
