# generated using pymatgen
data_Co6OF11
_symmetry_space_group_name_H-M   'P 1'
_cell_length_a   4.75071137
_cell_length_b   5.70569494
_cell_length_c   7.89689553
_cell_angle_alpha   86.74248819
_cell_angle_beta   89.60356643
_cell_angle_gamma   89.52908992
_symmetry_Int_Tables_number   1
_chemical_formula_structural   Co6OF11
_chemical_formula_sum   'Co6 O1 F11'
_cell_volume   213.69657439
_cell_formula_units_Z   1
loop_
 _symmetry_equiv_pos_site_id
 _symmetry_equiv_pos_as_xyz
  1  'x, y, z'
loop_
 _atom_site_type_symbol
 _atom_site_label
 _atom_site_symmetry_multiplicity
 _atom_site_fract_x
 _atom_site_fract_y
 _atom_site_fract_z
 _atom_site_occupancy
  Co  Co0  1  0.519237  0.488091  0.993789  1
  Co  Co1  1  0.504496  0.828932  0.664361  1
  Co  Co2  1  0.497093  0.168367  0.334955  1
  Co  Co3  1  0.004511  0.665089  0.329729  1
  Co  Co4  1  0.987990  0.327030  0.685119  1
  Co  Co5  1  0.990096  0.018939  0.990851  1
  O  O6  1  0.791996  0.303870  0.903169  1
  F  F7  1  0.805420  0.627951  0.566499  1
  F  F8  1  0.803427  0.968147  0.229687  1
  F  F9  1  0.691511  0.468929  0.235677  1
  F  F10  1  0.699781  0.799253  0.897042  1
  F  F11  1  0.702265  0.127979  0.565133  1
  F  F12  1  0.303692  0.867091  0.432944  1
  F  F13  1  0.301646  0.534420  0.766926  1
  F  F14  1  0.298407  0.204081  0.102902  1
  F  F15  1  0.206102  0.029799  0.764601  1
  F  F16  1  0.201020  0.705728  0.093935  1
  F  F17  1  0.191310  0.366308  0.442682  1
