# generated using pymatgen
data_LiVP2O7
_symmetry_space_group_name_H-M   'P 1'
_cell_length_a   5.32314596
_cell_length_b   5.32314596
_cell_length_c   9.05160162
_cell_angle_alpha   82.39669204
_cell_angle_beta   97.60330796
_cell_angle_gamma   75.59665838
_symmetry_Int_Tables_number   1
_chemical_formula_structural   LiVP2O7
_chemical_formula_sum   'Li2 V2 P4 O14'
_cell_volume   242.56522388
_cell_formula_units_Z   2
loop_
 _symmetry_equiv_pos_site_id
 _symmetry_equiv_pos_as_xyz
  1  'x, y, z'
loop_
 _atom_site_type_symbol
 _atom_site_label
 _atom_site_symmetry_multiplicity
 _atom_site_fract_x
 _atom_site_fract_y
 _atom_site_fract_z
 _atom_site_occupancy
  Li  Li0  1  0.297234  0.312724  0.502629  1
  Li  Li1  1  0.687276  0.702766  0.002629  1
  V  V2  1  0.320315  0.320442  0.997489  1
  V  V3  1  0.679558  0.679685  0.497489  1
  P  P4  1  0.781178  0.215250  0.296745  1
  P  P5  1  0.784750  0.218822  0.796745  1
  P  P6  1  0.228698  0.786800  0.202024  1
  P  P7  1  0.213200  0.771302  0.702024  1
  O  O8  1  0.645229  0.047528  0.392847  1
  O  O9  1  0.898073  0.395866  0.388383  1
  O  O10  1  0.611785  0.368872  0.145950  1
  O  O11  1  0.952472  0.354771  0.892847  1
  O  O12  1  0.604134  0.101927  0.888383  1
  O  O13  1  0.631128  0.388215  0.645950  1
  O  O14  1  0.016466  0.020534  0.246789  1
  O  O15  1  0.979466  0.983534  0.746789  1
  O  O16  1  0.375376  0.626239  0.356630  1
  O  O17  1  0.388401  0.935085  0.112495  1
  O  O18  1  0.090411  0.623822  0.108018  1
  O  O19  1  0.373761  0.624624  0.856630  1
  O  O20  1  0.064915  0.611599  0.612495  1
  O  O21  1  0.376178  0.909589  0.608018  1
