# generated using pymatgen
data_Na3Li3Fe2P2(CO7)2
_symmetry_space_group_name_H-M   'P 1'
_cell_length_a   6.63083644
_cell_length_b   8.75212659
_cell_length_c   10.20111273
_cell_angle_alpha   91.59660692
_cell_angle_beta   90.47454834
_cell_angle_gamma   90.60722971
_symmetry_Int_Tables_number   1
_chemical_formula_structural   Na3Li3Fe2P2(CO7)2
_chemical_formula_sum   'Na6 Li6 Fe4 P4 C4 O28'
_cell_volume   591.72569828
_cell_formula_units_Z   2
loop_
 _symmetry_equiv_pos_site_id
 _symmetry_equiv_pos_as_xyz
  1  'x, y, z'
loop_
 _atom_site_type_symbol
 _atom_site_label
 _atom_site_symmetry_multiplicity
 _atom_site_fract_x
 _atom_site_fract_y
 _atom_site_fract_z
 _atom_site_occupancy
  Na  Na0  1  0.252108  0.915746  0.878694  1
  Na  Na1  1  0.241715  0.915861  0.378735  1
  Na  Na2  1  0.995032  0.744878  0.624916  1
  Na  Na3  1  0.502197  0.743378  0.127555  1
  Na  Na4  1  0.501525  0.254971  0.874732  1
  Na  Na5  1  0.500796  0.256128  0.376046  1
  Li  Li6  1  0.471417  0.718834  0.610675  1
  Li  Li7  1  0.027194  0.720387  0.109398  1
  Li  Li8  1  0.979373  0.274708  0.884038  1
  Li  Li9  1  0.978191  0.276128  0.387628  1
  Li  Li10  1  0.756822  0.097246  0.625938  1
  Li  Li11  1  0.779911  0.092429  0.127002  1
  Fe  Fe12  1  0.751403  0.646296  0.889684  1
  Fe  Fe13  1  0.747101  0.646188  0.389296  1
  Fe  Fe14  1  0.242472  0.348892  0.609966  1
  Fe  Fe15  1  0.246280  0.348697  0.108081  1
  P  P16  1  0.249173  0.583456  0.852708  1
  P  P17  1  0.237581  0.583863  0.353277  1
  P  P18  1  0.746005  0.409264  0.647709  1
  P  P19  1  0.758986  0.410937  0.147063  1
  C  C20  1  0.758960  0.956976  0.864873  1
  C  C21  1  0.761233  0.957630  0.365261  1
  C  C22  1  0.257814  0.050707  0.635202  1
  C  C23  1  0.238616  0.050417  0.135495  1
  O  O24  1  0.282017  0.904567  0.641844  1
  O  O25  1  0.221107  0.903107  0.141393  1
  O  O26  1  0.747639  0.925563  0.988536  1
  O  O27  1  0.758820  0.924824  0.488778  1
  O  O28  1  0.750543  0.845882  0.776402  1
  O  O29  1  0.745632  0.847510  0.276212  1
  O  O30  1  0.067559  0.685374  0.894520  1
  O  O31  1  0.439613  0.670791  0.905114  1
  O  O32  1  0.058046  0.682839  0.401106  1
  O  O33  1  0.430892  0.674378  0.400167  1
  O  O34  1  0.259974  0.568609  0.699220  1
  O  O35  1  0.724146  0.569697  0.588180  1
  O  O36  1  0.232696  0.570082  0.199897  1
  O  O37  1  0.772506  0.572037  0.087445  1
  O  O38  1  0.229772  0.421778  0.908533  1
  O  O39  1  0.776055  0.428340  0.799210  1
  O  O40  1  0.231515  0.422198  0.410238  1
  O  O41  1  0.778128  0.428256  0.299591  1
  O  O42  1  0.558054  0.305632  0.617523  1
  O  O43  1  0.925029  0.316546  0.588312  1
  O  O44  1  0.559370  0.324813  0.110905  1
  O  O45  1  0.928983  0.304355  0.093214  1
  O  O46  1  0.238656  0.136290  0.740646  1
  O  O47  1  0.242973  0.136478  0.241238  1
  O  O48  1  0.250240  0.116517  0.522025  1
  O  O49  1  0.252193  0.115851  0.022409  1
  O  O50  1  0.777725  0.096339  0.826183  1
  O  O51  1  0.778215  0.097330  0.327186  1
