# generated using pymatgen
data_Li3Fe2P2(CO7)2
_symmetry_space_group_name_H-M   'P 1'
_cell_length_a   8.25697741
_cell_length_b   8.27055909
_cell_length_c   8.38793870
_cell_angle_alpha   93.52605111
_cell_angle_beta   93.60099545
_cell_angle_gamma   102.98570727
_symmetry_Int_Tables_number   1
_chemical_formula_structural   Li3Fe2P2(CO7)2
_chemical_formula_sum   'Li6 Fe4 P4 C4 O28'
_cell_volume   555.37337856
_cell_formula_units_Z   2
loop_
 _symmetry_equiv_pos_site_id
 _symmetry_equiv_pos_as_xyz
  1  'x, y, z'
loop_
 _atom_site_type_symbol
 _atom_site_label
 _atom_site_symmetry_multiplicity
 _atom_site_fract_x
 _atom_site_fract_y
 _atom_site_fract_z
 _atom_site_occupancy
  Li  Li0  1  0.509908  0.264386  0.890323  1
  Li  Li1  1  0.008086  0.755228  0.901105  1
  Li  Li2  1  0.864919  0.396717  0.719881  1
  Li  Li3  1  0.353737  0.400590  0.287986  1
  Li  Li4  1  0.487034  0.740734  0.103703  1
  Li  Li5  1  0.988669  0.236673  0.107932  1
  Fe  Fe6  1  0.279688  0.527940  0.677015  1
  Fe  Fe7  1  0.776160  0.020161  0.659418  1
  Fe  Fe8  1  0.221249  0.968981  0.335806  1
  Fe  Fe9  1  0.731932  0.477530  0.325047  1
  P  P10  1  0.487685  0.242524  0.574108  1
  P  P11  1  0.994254  0.739864  0.580839  1
  P  P12  1  0.013805  0.260504  0.422001  1
  P  P13  1  0.505455  0.759363  0.419111  1
  C  C14  1  0.225128  0.464952  0.963185  1
  C  C15  1  0.721799  0.980420  0.953286  1
  C  C16  1  0.275952  0.030622  0.051898  1
  C  C17  1  0.776757  0.518751  0.035780  1
  O  O18  1  0.349778  0.585323  0.932928  1
  O  O19  1  0.845166  0.102487  0.927002  1
  O  O20  1  0.322044  0.072170  0.917700  1
  O  O21  1  0.125476  0.397621  0.837536  1
  O  O22  1  0.821380  0.542846  0.895253  1
  O  O23  1  0.639525  0.897415  0.824258  1
  O  O24  1  0.423050  0.360363  0.693430  1
  O  O25  1  0.632754  0.197143  0.677848  1
  O  O26  1  0.121188  0.682533  0.695803  1
  O  O27  1  0.933808  0.870934  0.688074  1
  O  O28  1  0.347427  0.086422  0.524285  1
  O  O29  1  0.937834  0.203776  0.579271  1
  O  O30  1  0.433621  0.690296  0.571556  1
  O  O31  1  0.849562  0.584612  0.528068  1
  O  O32  1  0.173219  0.401526  0.468741  1
  O  O33  1  0.545969  0.328104  0.422156  1
  O  O34  1  0.064125  0.806216  0.426951  1
  O  O35  1  0.659135  0.904385  0.468752  1
  O  O36  1  0.061812  0.121504  0.315754  1
  O  O37  1  0.379783  0.820657  0.305916  1
  O  O38  1  0.886529  0.320228  0.308443  1
  O  O39  1  0.553131  0.622364  0.305516  1
  O  O40  1  0.353629  0.119439  0.181175  1
  O  O41  1  0.201674  0.412455  0.100886  1
  O  O42  1  0.854730  0.614694  0.158819  1
  O  O43  1  0.678217  0.937656  0.088058  1
  O  O44  1  0.654334  0.398082  0.069861  1
  O  O45  1  0.156896  0.904803  0.077531  1
