# generated using pymatgen
data_TbBi5O9
_symmetry_space_group_name_H-M   'P 1'
_cell_length_a   3.88842059
_cell_length_b   6.88524249
_cell_length_c   9.57357512
_cell_angle_alpha   84.09288108
_cell_angle_beta   78.44042534
_cell_angle_gamma   88.62346668
_symmetry_Int_Tables_number   1
_chemical_formula_structural   TbBi5O9
_chemical_formula_sum   'Tb1 Bi5 O9'
_cell_volume   249.77693891
_cell_formula_units_Z   1
loop_
 _symmetry_equiv_pos_site_id
 _symmetry_equiv_pos_as_xyz
  1  'x, y, z'
loop_
 _atom_site_type_symbol
 _atom_site_label
 _atom_site_symmetry_multiplicity
 _atom_site_fract_x
 _atom_site_fract_y
 _atom_site_fract_z
 _atom_site_occupancy
  Tb  Tb0  1  0.020707  0.988477  0.021762  1
  Bi  Bi1  1  0.151689  0.408224  0.659690  1
  Bi  Bi2  1  0.528535  0.457315  0.997292  1
  Bi  Bi3  1  0.332229  0.112869  0.350894  1
  Bi  Bi4  1  0.858894  0.609707  0.321931  1
  Bi  Bi5  1  0.660163  0.871140  0.661147  1
  O  O6  1  0.849915  0.210850  0.523401  1
  O  O7  1  0.188104  0.745362  0.567343  1
  O  O8  1  0.365939  0.445478  0.290385  1
  O  O9  1  0.474617  0.146579  0.107855  1
  O  O10  1  0.059225  0.303599  0.896220  1
  O  O11  1  0.591041  0.909343  0.887225  1
  O  O12  1  0.638652  0.543892  0.739775  1
  O  O13  1  0.929224  0.936196  0.275966  1
  O  O14  1  0.955310  0.645184  0.091424  1
