# generated using pymatgen
data_LiVGeO5
_symmetry_space_group_name_H-M   'P 1'
_cell_length_a   6.53080492
_cell_length_b   6.53080492
_cell_length_c   4.64482702
_cell_angle_alpha   90.00000000
_cell_angle_beta   90.00000000
_cell_angle_gamma   91.14793561
_symmetry_Int_Tables_number   1
_chemical_formula_structural   LiVGeO5
_chemical_formula_sum   'Li2 V2 Ge2 O10'
_cell_volume   198.06867491
_cell_formula_units_Z   2
loop_
 _symmetry_equiv_pos_site_id
 _symmetry_equiv_pos_as_xyz
  1  'x, y, z'
loop_
 _atom_site_type_symbol
 _atom_site_label
 _atom_site_symmetry_multiplicity
 _atom_site_fract_x
 _atom_site_fract_y
 _atom_site_fract_z
 _atom_site_occupancy
  Li  Li0  1  0.500000  1.000000  0.000000  1
  Li  Li1  1  0.000000  0.500000  0.000000  1
  V  V2  1  0.750000  0.250000  0.614546  1
  V  V3  1  0.250000  0.750000  0.385454  1
  Ge  Ge4  1  0.250000  0.250000  0.500000  1
  Ge  Ge5  1  0.750000  0.750000  0.500000  1
  O  O6  1  0.257218  0.031478  0.273958  1
  O  O7  1  0.750000  0.250000  0.263353  1
  O  O8  1  0.468522  0.242782  0.726042  1
  O  O9  1  0.031478  0.257218  0.726042  1
  O  O10  1  0.242782  0.468522  0.273958  1
  O  O11  1  0.757218  0.531478  0.726042  1
  O  O12  1  0.968522  0.742782  0.273958  1
  O  O13  1  0.531478  0.757218  0.273958  1
  O  O14  1  0.250000  0.750000  0.736647  1
  O  O15  1  0.742782  0.968522  0.726042  1
