# generated using pymatgen
data_K5NaP3(HO4)3
_symmetry_space_group_name_H-M   'P 1'
_cell_length_a   5.92890573
_cell_length_b   10.08055317
_cell_length_c   22.77759775
_cell_angle_alpha   90.00000000
_cell_angle_beta   90.00000000
_cell_angle_gamma   90.00000000
_symmetry_Int_Tables_number   1
_chemical_formula_structural   K5NaP3(HO4)3
_chemical_formula_sum   'K20 Na4 P12 H12 O48'
_cell_volume   1361.34070006
_cell_formula_units_Z   4
loop_
 _symmetry_equiv_pos_site_id
 _symmetry_equiv_pos_as_xyz
  1  'x, y, z'
loop_
 _atom_site_type_symbol
 _atom_site_label
 _atom_site_symmetry_multiplicity
 _atom_site_fract_x
 _atom_site_fract_y
 _atom_site_fract_z
 _atom_site_occupancy
  K  K0  1  0.250794  0.401680  0.451244  1
  K  K1  1  0.750794  0.598320  0.548756  1
  K  K2  1  0.750794  0.901680  0.048756  1
  K  K3  1  0.250794  0.098320  0.951244  1
  K  K4  1  0.257492  0.378131  0.093718  1
  K  K5  1  0.757492  0.621869  0.906282  1
  K  K6  1  0.757492  0.878131  0.406282  1
  K  K7  1  0.257492  0.121869  0.593718  1
  K  K8  1  0.257661  0.650074  0.333011  1
  K  K9  1  0.757661  0.349926  0.666989  1
  K  K10  1  0.757661  0.150074  0.166989  1
  K  K11  1  0.257661  0.849926  0.833011  1
  K  K12  1  0.216888  0.733559  0.158584  1
  K  K13  1  0.716888  0.266441  0.841416  1
  K  K14  1  0.716888  0.233559  0.341416  1
  K  K15  1  0.216888  0.766441  0.658584  1
  K  K16  1  0.197641  0.002211  0.281514  1
  K  K17  1  0.697641  0.997789  0.718486  1
  K  K18  1  0.697641  0.502211  0.218486  1
  K  K19  1  0.197641  0.497789  0.781514  1
  Na  Na20  1  0.244684  0.746983  0.485754  1
  Na  Na21  1  0.744684  0.253017  0.514246  1
  Na  Na22  1  0.744684  0.246983  0.014246  1
  Na  Na23  1  0.244684  0.753017  0.985754  1
  P  P24  1  0.252885  0.050063  0.087405  1
  P  P25  1  0.752885  0.949937  0.912595  1
  P  P26  1  0.752885  0.550063  0.412595  1
  P  P27  1  0.252885  0.449937  0.587405  1
  P  P28  1  0.253750  0.071300  0.425427  1
  P  P29  1  0.753750  0.928700  0.574573  1
  P  P30  1  0.753750  0.571300  0.074573  1
  P  P31  1  0.253750  0.428700  0.925427  1
  P  P32  1  0.199198  0.355532  0.240308  1
  P  P33  1  0.699198  0.644468  0.759692  1
  P  P34  1  0.699198  0.855532  0.259692  1
  P  P35  1  0.199198  0.144468  0.740308  1
  H  H36  1  0.295458  0.133175  0.177039  1
  H  H37  1  0.795458  0.866825  0.822961  1
  H  H38  1  0.795458  0.633175  0.322961  1
  H  H39  1  0.295458  0.366825  0.677039  1
  H  H40  1  0.023540  0.012780  0.499038  1
  H  H41  1  0.523540  0.987220  0.500962  1
  H  H42  1  0.523540  0.512780  0.000962  1
  H  H43  1  0.023540  0.487220  0.999038  1
  H  H44  1  0.247018  0.300539  0.333087  1
  H  H45  1  0.747018  0.699461  0.666913  1
  H  H46  1  0.747018  0.800539  0.166913  1
  H  H47  1  0.247018  0.199461  0.833087  1
  O  O48  1  0.260701  0.042162  0.159162  1
  O  O49  1  0.760701  0.957838  0.840838  1
  O  O50  1  0.760701  0.542162  0.340838  1
  O  O51  1  0.260701  0.457838  0.659162  1
  O  O52  1  0.246737  0.905589  0.066368  1
  O  O53  1  0.746737  0.094411  0.933632  1
  O  O54  1  0.746737  0.405589  0.433632  1
  O  O55  1  0.246737  0.594411  0.566368  1
  O  O56  1  0.466884  0.124759  0.067769  1
  O  O57  1  0.966884  0.875241  0.932231  1
  O  O58  1  0.966884  0.624759  0.432231  1
  O  O59  1  0.466884  0.375241  0.567769  1
  O  O60  1  0.037380  0.127535  0.070710  1
  O  O61  1  0.537380  0.872465  0.929290  1
  O  O62  1  0.537380  0.627535  0.429290  1
  O  O63  1  0.037380  0.372465  0.570710  1
  O  O64  1  0.049646  0.094878  0.472690  1
  O  O65  1  0.549646  0.905122  0.527310  1
  O  O66  1  0.549646  0.594878  0.027310  1
  O  O67  1  0.049646  0.405122  0.972690  1
  O  O68  1  0.242541  0.925802  0.406117  1
  O  O69  1  0.742541  0.074198  0.593883  1
  O  O70  1  0.742541  0.425802  0.093883  1
  O  O71  1  0.242541  0.574198  0.906117  1
  O  O72  1  0.203127  0.172683  0.376926  1
  O  O73  1  0.703127  0.827317  0.623074  1
  O  O74  1  0.703127  0.672683  0.123074  1
  O  O75  1  0.203127  0.327317  0.876926  1
  O  O76  1  0.478964  0.102790  0.457535  1
  O  O77  1  0.978964  0.897210  0.542465  1
  O  O78  1  0.978964  0.602790  0.042465  1
  O  O79  1  0.478964  0.397210  0.957535  1
  O  O80  1  0.288148  0.379121  0.308114  1
  O  O81  1  0.788148  0.620879  0.691886  1
  O  O82  1  0.788148  0.879121  0.191886  1
  O  O83  1  0.288148  0.120879  0.808114  1
  O  O84  1  0.198293  0.494099  0.213029  1
  O  O85  1  0.698293  0.505901  0.786971  1
  O  O86  1  0.698293  0.994099  0.286971  1
  O  O87  1  0.198293  0.005901  0.713029  1
  O  O88  1  0.375329  0.263911  0.210168  1
  O  O89  1  0.875329  0.736089  0.789832  1
  O  O90  1  0.875329  0.763911  0.289832  1
  O  O91  1  0.375329  0.236089  0.710168  1
  O  O92  1  0.969640  0.288025  0.244833  1
  O  O93  1  0.469640  0.711975  0.755167  1
  O  O94  1  0.469640  0.788025  0.255167  1
  O  O95  1  0.969640  0.211975  0.744833  1
