# generated using pymatgen
data_ZrO2
_symmetry_space_group_name_H-M   'P 1'
_cell_length_a   5.48193031
_cell_length_b   5.48193031
_cell_length_c   5.80707765
_cell_angle_alpha   72.71573712
_cell_angle_beta   107.28426288
_cell_angle_gamma   69.28838858
_symmetry_Int_Tables_number   1
_chemical_formula_structural   ZrO2
_chemical_formula_sum   'Zr3 O6'
_cell_volume   139.16472407
_cell_formula_units_Z   3
loop_
 _symmetry_equiv_pos_site_id
 _symmetry_equiv_pos_as_xyz
  1  'x, y, z'
loop_
 _atom_site_type_symbol
 _atom_site_label
 _atom_site_symmetry_multiplicity
 _atom_site_fract_x
 _atom_site_fract_y
 _atom_site_fract_z
 _atom_site_occupancy
  Zr  Zr0  1  0.316402  0.316402  0.000000  1
  Zr  Zr1  1  0.683598  0.683598  0.000000  1
  Zr  Zr2  1  0.500000  0.500000  0.500000  1
  O  O3  1  0.671706  0.328294  0.268086  1
  O  O4  1  0.538209  0.124339  0.789877  1
  O  O5  1  0.124339  0.538209  0.210123  1
  O  O6  1  0.461791  0.875661  0.210123  1
  O  O7  1  0.875661  0.461791  0.789877  1
  O  O8  1  0.328294  0.671706  0.731914  1
