# generated using pymatgen
data_Li4Cr3Co3(TeO8)2
_symmetry_space_group_name_H-M   'P 1'
_cell_length_a   5.94751843
_cell_length_b   5.94751843
_cell_length_c   9.68325377
_cell_angle_alpha   89.60904016
_cell_angle_beta   90.39095984
_cell_angle_gamma   120.07042958
_symmetry_Int_Tables_number   1
_chemical_formula_structural   Li4Cr3Co3(TeO8)2
_chemical_formula_sum   'Li4 Cr3 Co3 Te2 O16'
_cell_volume   296.41584357
_cell_formula_units_Z   1
loop_
 _symmetry_equiv_pos_site_id
 _symmetry_equiv_pos_as_xyz
  1  'x, y, z'
loop_
 _atom_site_type_symbol
 _atom_site_label
 _atom_site_symmetry_multiplicity
 _atom_site_fract_x
 _atom_site_fract_y
 _atom_site_fract_z
 _atom_site_occupancy
  Li  Li0  1  0.333147  0.666853  0.089291  1
  Li  Li1  1  0.005671  0.994329  0.016941  1
  Li  Li2  1  0.002526  0.997474  0.507227  1
  Li  Li3  1  0.663163  0.336837  0.590327  1
  Cr  Cr4  1  0.170533  0.338532  0.786894  1
  Cr  Cr5  1  0.661468  0.829467  0.786894  1
  Cr  Cr6  1  0.826822  0.173178  0.286895  1
  Co  Co7  1  0.172780  0.827220  0.785679  1
  Co  Co8  1  0.343094  0.174013  0.286381  1
  Co  Co9  1  0.825987  0.656906  0.286381  1
  Te  Te10  1  0.327638  0.672362  0.514848  1
  Te  Te11  1  0.668816  0.331184  0.015001  1
  O  O12  1  0.160958  0.344836  0.415386  1
  O  O13  1  0.478113  0.521887  0.655568  1
  O  O14  1  0.331906  0.668094  0.887032  1
  O  O15  1  0.004437  0.995563  0.696164  1
  O  O16  1  0.997246  0.002754  0.200777  1
  O  O17  1  0.655164  0.839042  0.415386  1
  O  O18  1  0.038206  0.527198  0.662510  1
  O  O19  1  0.472802  0.961794  0.662510  1
  O  O20  1  0.835570  0.164430  0.904620  1
  O  O21  1  0.168345  0.831655  0.415987  1
  O  O22  1  0.528509  0.033718  0.145448  1
  O  O23  1  0.966282  0.471491  0.145448  1
  O  O24  1  0.666981  0.333019  0.392072  1
  O  O25  1  0.333793  0.156443  0.902815  1
  O  O26  1  0.519500  0.480500  0.134874  1
  O  O27  1  0.843557  0.666207  0.902815  1
