# generated using pymatgen
data_LiMn10O20
_symmetry_space_group_name_H-M   'P 1'
_cell_length_a   10.14599006
_cell_length_b   10.14599006
_cell_length_c   10.14599006
_cell_angle_alpha   99.57878956
_cell_angle_beta   99.57878956
_cell_angle_gamma   131.85075212
_symmetry_Int_Tables_number   1
_chemical_formula_structural   LiMn10O20
_chemical_formula_sum   'Li2 Mn20 O40'
_cell_volume   710.31434029
_cell_formula_units_Z   2
loop_
 _symmetry_equiv_pos_site_id
 _symmetry_equiv_pos_as_xyz
  1  'x, y, z'
loop_
 _atom_site_type_symbol
 _atom_site_label
 _atom_site_symmetry_multiplicity
 _atom_site_fract_x
 _atom_site_fract_y
 _atom_site_fract_z
 _atom_site_occupancy
  Li  Li0  1  0.000000  0.000000  0.000000  1
  Li  Li1  1  0.250000  0.750000  0.500000  1
  Mn  Mn2  1  0.523939  0.573342  0.849880  1
  Mn  Mn3  1  0.325929  0.974404  0.051344  1
  Mn  Mn4  1  0.426658  0.276538  0.950597  1
  Mn  Mn5  1  0.125000  0.875000  0.750000  1
  Mn  Mn6  1  0.725415  0.674071  0.648474  1
  Mn  Mn7  1  0.923059  0.274585  0.948656  1
  Mn  Mn8  1  0.325941  0.476061  0.049403  1
  Mn  Mn9  1  0.524585  0.075929  0.851526  1
  Mn  Mn10  1  0.025596  0.076941  0.351526  1
  Mn  Mn11  1  0.823342  0.473462  0.549403  1
  Mn  Mn12  1  0.625000  0.875000  0.750000  1
  Mn  Mn13  1  0.726061  0.176658  0.650120  1
  Mn  Mn14  1  0.924071  0.775596  0.448656  1
  Mn  Mn15  1  0.723462  0.674059  0.150120  1
  Mn  Mn16  1  0.326941  0.475415  0.551344  1
  Mn  Mn17  1  0.526538  0.075941  0.349880  1
  Mn  Mn18  1  0.924059  0.273939  0.450597  1
  Mn  Mn19  1  0.125000  0.875000  0.250000  1
  Mn  Mn20  1  0.125000  0.375000  0.250000  1
  Mn  Mn21  1  0.224404  0.673059  0.148474  1
  O  O22  1  0.566114  0.697806  0.043692  1
  O  O23  1  0.302194  0.345886  0.868308  1
  O  O24  1  0.654114  0.522423  0.956308  1
  O  O25  1  0.752200  0.805228  0.834502  1
  O  O26  1  0.547700  0.203878  0.032384  1
  O  O27  1  0.194772  0.029274  0.946972  1
  O  O28  1  0.484684  0.452300  0.656178  1
  O  O29  1  0.284767  0.853420  0.856779  1
  O  O30  1  0.372665  0.116575  0.769390  1
  O  O31  1  0.572013  0.715233  0.568653  1
  O  O32  1  0.171493  0.515316  0.967616  1
  O  O33  1  0.965233  0.896580  0.643221  1
  O  O34  1  0.765316  0.297700  0.843822  1
  O  O35  1  0.877335  0.633425  0.730610  1
  O  O36  1  0.677987  0.034767  0.931347  1
  O  O37  1  0.702300  0.546122  0.467616  1
  O  O38  1  0.497800  0.944772  0.665498  1
  O  O39  1  0.253360  0.322013  0.356779  1
  O  O40  1  0.853275  0.122665  0.756091  1
  O  O41  1  0.055228  0.720726  0.553028  1
  O  O42  1  0.796122  0.828507  0.343822  1
  O  O43  1  0.396725  0.627335  0.743909  1
  O  O44  1  0.947806  0.404114  0.631692  1
  O  O45  1  0.595886  0.227577  0.543692  1
  O  O46  1  0.146580  0.003360  0.431347  1
  O  O47  1  0.772423  0.316114  0.368308  1
  O  O48  1  0.683886  0.052194  0.456308  1
  O  O49  1  0.970726  0.917698  0.165498  1
  O  O50  1  0.883425  0.652816  0.256091  1
  O  O51  1  0.167698  0.502200  0.446972  1
  O  O52  1  0.279274  0.832302  0.334502  1
  O  O53  1  0.078507  0.234684  0.532384  1
  O  O54  1  0.366575  0.097184  0.243909  1
  O  O55  1  0.477577  0.433886  0.131692  1
  O  O56  1  0.902816  0.146725  0.269390  1
  O  O57  1  0.453878  0.921493  0.156178  1
  O  O58  1  0.103420  0.746640  0.068653  1
  O  O59  1  0.996640  0.427987  0.143221  1
  O  O60  1  0.347184  0.603275  0.230610  1
  O  O61  1  0.082302  0.247800  0.053028  1
