# generated using pymatgen
data_Li8Mn(O2F)2
_symmetry_space_group_name_H-M   'P 1'
_cell_length_a   5.68516952
_cell_length_b   5.68516952
_cell_length_c   10.88214026
_cell_angle_alpha   90.00000000
_cell_angle_beta   90.00000000
_cell_angle_gamma   119.47845028
_symmetry_Int_Tables_number   1
_chemical_formula_structural   Li8Mn(O2F)2
_chemical_formula_sum   'Li16 Mn2 O8 F4'
_cell_volume   306.18950979
_cell_formula_units_Z   2
loop_
 _symmetry_equiv_pos_site_id
 _symmetry_equiv_pos_as_xyz
  1  'x, y, z'
loop_
 _atom_site_type_symbol
 _atom_site_label
 _atom_site_symmetry_multiplicity
 _atom_site_fract_x
 _atom_site_fract_y
 _atom_site_fract_z
 _atom_site_occupancy
  Li  Li0  1  0.813248  0.813248  0.226066  1
  Li  Li1  1  0.907891  0.907891  0.872432  1
  Li  Li2  1  0.092109  0.092109  0.372432  1
  Li  Li3  1  0.186752  0.186752  0.726066  1
  Li  Li4  1  0.845174  0.168444  0.597239  1
  Li  Li5  1  0.831556  0.154826  0.097239  1
  Li  Li6  1  0.193675  0.497835  0.236521  1
  Li  Li7  1  0.115050  0.492465  0.861193  1
  Li  Li8  1  0.884950  0.507535  0.361193  1
  Li  Li9  1  0.502165  0.806325  0.736521  1
  Li  Li10  1  0.806325  0.502165  0.736521  1
  Li  Li11  1  0.507535  0.884950  0.361193  1
  Li  Li12  1  0.154826  0.831556  0.097239  1
  Li  Li13  1  0.168444  0.845174  0.597239  1
  Li  Li14  1  0.492465  0.115050  0.861193  1
  Li  Li15  1  0.497835  0.193675  0.236521  1
  Mn  Mn16  1  0.525867  0.525867  0.999746  1
  Mn  Mn17  1  0.474133  0.474133  0.499746  1
  O  O18  1  0.849740  0.849740  0.049023  1
  O  O19  1  0.150260  0.150260  0.549023  1
  O  O20  1  0.826424  0.165734  0.781496  1
  O  O21  1  0.484344  0.484344  0.815105  1
  O  O22  1  0.834266  0.173576  0.281496  1
  O  O23  1  0.515656  0.515656  0.315105  1
  O  O24  1  0.173576  0.834266  0.281496  1
  O  O25  1  0.165734  0.826424  0.781496  1
  F  F26  1  0.148139  0.496042  0.049504  1
  F  F27  1  0.503958  0.851861  0.549504  1
  F  F28  1  0.851861  0.503958  0.549504  1
  F  F29  1  0.496042  0.148139  0.049504  1
