# generated using pymatgen
data_Li2VP2O7
_symmetry_space_group_name_H-M   'P 1'
_cell_length_a   5.29747499
_cell_length_b   5.29747499
_cell_length_c   12.09836798
_cell_angle_alpha   81.25662609
_cell_angle_beta   98.74337391
_cell_angle_gamma   122.50943908
_symmetry_Int_Tables_number   1
_chemical_formula_structural   Li2VP2O7
_chemical_formula_sum   'Li4 V2 P4 O14'
_cell_volume   281.98170438
_cell_formula_units_Z   2
loop_
 _symmetry_equiv_pos_site_id
 _symmetry_equiv_pos_as_xyz
  1  'x, y, z'
loop_
 _atom_site_type_symbol
 _atom_site_label
 _atom_site_symmetry_multiplicity
 _atom_site_fract_x
 _atom_site_fract_y
 _atom_site_fract_z
 _atom_site_occupancy
  Li  Li0  1  0.356962  0.064023  0.120920  1
  Li  Li1  1  0.064024  0.356962  0.379080  1
  Li  Li2  1  0.935976  0.643038  0.620920  1
  Li  Li3  1  0.643038  0.935976  0.879080  1
  V  V4  1  0.000000  0.500000  0.000000  1
  V  V5  1  0.500000  0.000000  0.500000  1
  P  P6  1  0.345035  0.255029  0.870605  1
  P  P7  1  0.255029  0.345035  0.629395  1
  P  P8  1  0.744971  0.654965  0.370605  1
  P  P9  1  0.654965  0.744971  0.129395  1
  O  O10  1  0.684146  0.492307  0.101409  1
  O  O11  1  0.349878  0.667985  0.646087  1
  O  O12  1  0.973256  0.197101  0.548586  1
  O  O13  1  0.144681  0.144681  0.750000  1
  O  O14  1  0.492307  0.684146  0.398591  1
  O  O15  1  0.197101  0.973256  0.951414  1
  O  O16  1  0.667985  0.349878  0.853913  1
  O  O17  1  0.332015  0.650122  0.146087  1
  O  O18  1  0.802899  0.026744  0.048586  1
  O  O19  1  0.507693  0.315854  0.601409  1
  O  O20  1  0.855319  0.855319  0.250000  1
  O  O21  1  0.026744  0.802899  0.451414  1
  O  O22  1  0.650122  0.332015  0.353913  1
  O  O23  1  0.315854  0.507693  0.898590  1
