# generated using pymatgen
data_Na2Ca9NdY5HoF41
_symmetry_space_group_name_H-M   'P 1'
_cell_length_a   9.77673470
_cell_length_b   10.41954871
_cell_length_c   10.43554084
_cell_angle_alpha   110.49812017
_cell_angle_beta   107.74388430
_cell_angle_gamma   108.19189786
_symmetry_Int_Tables_number   1
_chemical_formula_structural   Na2Ca9NdY5HoF41
_chemical_formula_sum   'Na2 Ca9 Nd1 Y5 Ho1 F41'
_cell_volume   837.31755021
_cell_formula_units_Z   1
loop_
 _symmetry_equiv_pos_site_id
 _symmetry_equiv_pos_as_xyz
  1  'x, y, z'
loop_
 _atom_site_type_symbol
 _atom_site_label
 _atom_site_symmetry_multiplicity
 _atom_site_fract_x
 _atom_site_fract_y
 _atom_site_fract_z
 _atom_site_occupancy
  Na  Na0  1  0.386391  0.632361  0.040289  1
  Na  Na1  1  0.952099  0.160229  0.269130  1
  Ca  Ca2  1  0.072251  0.515688  0.212761  1
  Ca  Ca3  1  0.134981  0.211764  0.673979  1
  Ca  Ca4  1  0.231363  0.571979  0.629144  1
  Ca  Ca5  1  0.343927  0.942715  0.590909  1
  Ca  Ca6  1  0.439425  0.306703  0.525409  1
  Ca  Ca7  1  0.564119  0.694087  0.497221  1
  Ca  Ca8  1  0.610338  0.365573  0.939308  1
  Ca  Ca9  1  0.773316  0.421716  0.367866  1
  Ca  Ca10  1  0.927930  0.485644  0.796117  1
  Nd  Nd11  1  0.865932  0.800236  0.287386  1
  Y  Y12  1  0.013310  0.833277  0.717886  1
  Y  Y13  1  0.681154  0.722428  0.883018  1
  Y  Y14  1  0.188413  0.876132  0.168620  1
  Y  Y15  1  0.802337  0.099737  0.837196  1
  Y  Y16  1  0.332760  0.278096  0.109687  1
  Ho  Ho17  1  0.655564  0.053119  0.417158  1
  F  F18  1  0.020513  0.442118  0.383498  1
  F  F19  1  0.198799  0.307233  0.520884  1
  F  F20  1  0.129746  0.780081  0.323500  1
  F  F21  1  0.139660  0.452487  0.764774  1
  F  F22  1  0.317274  0.686460  0.472892  1
  F  F23  1  0.087626  0.941575  0.558219  1
  F  F24  1  0.466523  0.555088  0.615203  1
  F  F25  1  0.336572  0.362776  0.942124  1
  F  F26  1  0.232871  0.815351  0.701678  1
  F  F27  1  0.405135  0.047892  0.426443  1
  F  F28  1  0.149016  0.624367  0.063241  1
  F  F29  1  0.444037  0.689520  0.867829  1
  F  F30  1  0.289785  0.474052  0.203722  1
  F  F31  1  0.204796  0.077958  0.878072  1
  F  F32  1  0.378970  0.208892  0.686283  1
  F  F33  1  0.624607  0.863548  0.770715  1
  F  F34  1  0.576489  0.116209  0.828059  1
  F  F35  1  0.433752  0.897140  0.191277  1
  F  F36  1  0.296073  0.119211  0.201748  1
  F  F37  1  0.626987  0.796882  0.327395  1
  F  F38  1  0.761034  0.899592  0.121831  1
  F  F39  1  0.654824  0.471430  0.781377  1
  F  F40  1  0.560162  0.295748  0.115661  1
  F  F41  1  0.942401  0.245413  0.090586  1
  F  F42  1  0.852582  0.369676  0.934120  1
  F  F43  1  0.588299  0.957132  0.567629  1
  F  F44  1  0.730243  0.175447  0.298730  1
  F  F45  1  0.626776  0.607858  0.046644  1
  F  F46  1  0.519401  0.425387  0.367190  1
  F  F47  1  0.892191  0.054690  0.438770  1
  F  F48  1  0.881842  0.969692  0.674605  1
  F  F49  1  0.683113  0.300826  0.531430  1
  F  F50  1  0.836386  0.534371  0.206002  1
  F  F51  1  0.906597  0.716427  0.045040  1
  F  F52  1  0.866842  0.212436  0.688925  1
  F  F53  1  0.945747  0.989018  0.941008  1
  F  F54  1  0.813545  0.684759  0.454476  1
  F  F55  1  0.077921  0.999338  0.290185  1
  F  F56  1  0.966842  0.571916  0.623057  1
  F  F57  1  0.773869  0.691253  0.701260  1
  F  F58  1  0.094348  0.784569  0.914434  1
