# generated using pymatgen
data_Cu4H10SO12
_symmetry_space_group_name_H-M   'P 1'
_cell_length_a   7.63050134
_cell_length_b   6.02120942
_cell_length_c   11.58719267
_cell_angle_alpha   90.00000000
_cell_angle_beta   90.82868699
_cell_angle_gamma   90.00000000
_symmetry_Int_Tables_number   1
_chemical_formula_structural   Cu4H10SO12
_chemical_formula_sum   'Cu8 H20 S2 O24'
_cell_volume   532.31610710
_cell_formula_units_Z   2
loop_
 _symmetry_equiv_pos_site_id
 _symmetry_equiv_pos_as_xyz
  1  'x, y, z'
loop_
 _atom_site_type_symbol
 _atom_site_label
 _atom_site_symmetry_multiplicity
 _atom_site_fract_x
 _atom_site_fract_y
 _atom_site_fract_z
 _atom_site_occupancy
  Cu  Cu0  1  0.987831  0.999328  0.004806  1
  Cu  Cu1  1  0.987831  0.000672  0.504806  1
  Cu  Cu2  1  0.989229  0.497977  0.005946  1
  Cu  Cu3  1  0.989229  0.502023  0.505946  1
  Cu  Cu4  1  0.985484  0.248263  0.756391  1
  Cu  Cu5  1  0.985484  0.751737  0.256391  1
  Cu  Cu6  1  0.988860  0.734656  0.751606  1
  Cu  Cu7  1  0.988860  0.265344  0.251606  1
  H  H8  1  0.250623  0.755993  0.528375  1
  H  H9  1  0.250623  0.244007  0.028375  1
  H  H10  1  0.231188  0.376966  0.627065  1
  H  H11  1  0.231188  0.623034  0.127065  1
  H  H12  1  0.733837  0.269321  0.465906  1
  H  H13  1  0.733837  0.730679  0.965906  1
  H  H14  1  0.222266  0.004883  0.854168  1
  H  H15  1  0.222266  0.995117  0.354168  1
  H  H16  1  0.754320  0.002551  0.667079  1
  H  H17  1  0.754320  0.997449  0.167079  1
  H  H18  1  0.235106  0.504456  0.841259  1
  H  H19  1  0.235106  0.495544  0.341259  1
  H  H20  1  0.652339  0.391510  0.872689  1
  H  H21  1  0.652339  0.608490  0.372689  1
  H  H22  1  0.642128  0.152806  0.922844  1
  H  H23  1  0.642128  0.847194  0.422844  1
  H  H24  1  0.481401  0.734959  0.781470  1
  H  H25  1  0.481401  0.265041  0.281470  1
  H  H26  1  0.515233  0.516447  0.714451  1
  H  H27  1  0.515233  0.483553  0.214451  1
  S  S28  1  0.451554  0.164733  0.581576  1
  S  S29  1  0.451554  0.835267  0.081576  1
  O  O30  1  0.504054  0.031974  0.681816  1
  O  O31  1  0.504054  0.968026  0.181816  1
  O  O32  1  0.243838  0.223211  0.598675  1
  O  O33  1  0.243838  0.776789  0.098675  1
  O  O34  1  0.537177  0.382241  0.575059  1
  O  O35  1  0.537177  0.617759  0.075059  1
  O  O36  1  0.451692  0.960714  0.972750  1
  O  O37  1  0.451692  0.039286  0.472750  1
  O  O38  1  0.133831  0.748869  0.561547  1
  O  O39  1  0.133831  0.251131  0.061547  1
  O  O40  1  0.909234  0.514761  0.161373  1
  O  O41  1  0.909234  0.485239  0.661373  1
  O  O42  1  0.855460  0.253613  0.441697  1
  O  O43  1  0.855460  0.746387  0.941697  1
  O  O44  1  0.094270  0.997885  0.845667  1
  O  O45  1  0.094270  0.002115  0.345667  1
  O  O46  1  0.883688  0.005907  0.164069  1
  O  O47  1  0.883688  0.994093  0.664069  1
  O  O48  1  0.105589  0.506145  0.348159  1
  O  O49  1  0.105589  0.493855  0.848159  1
  O  O50  1  0.726412  0.265356  0.897372  1
  O  O51  1  0.726412  0.734644  0.397372  1
  O  O52  1  0.475155  0.573268  0.789884  1
  O  O53  1  0.475155  0.426732  0.289884  1
