# generated using pymatgen
data_LiVOF4
_symmetry_space_group_name_H-M   'P 1'
_cell_length_a   5.40186868
_cell_length_b   5.69684981
_cell_length_c   7.03443408
_cell_angle_alpha   104.48111966
_cell_angle_beta   96.25876275
_cell_angle_gamma   112.17030525
_symmetry_Int_Tables_number   1
_chemical_formula_structural   LiVOF4
_chemical_formula_sum   'Li2 V2 O2 F8'
_cell_volume   189.04219470
_cell_formula_units_Z   2
loop_
 _symmetry_equiv_pos_site_id
 _symmetry_equiv_pos_as_xyz
  1  'x, y, z'
loop_
 _atom_site_type_symbol
 _atom_site_label
 _atom_site_symmetry_multiplicity
 _atom_site_fract_x
 _atom_site_fract_y
 _atom_site_fract_z
 _atom_site_occupancy
  Li  Li0  1  0.667562  0.310831  0.747282  1
  Li  Li1  1  0.332438  0.689169  0.252718  1
  V  V2  1  0.000000  0.000000  0.000000  1
  V  V3  1  0.000000  0.000000  0.500000  1
  O  O4  1  0.916624  0.018128  0.246747  1
  O  O5  1  0.083376  0.981872  0.753253  1
  F  F6  1  0.766105  0.151221  0.940815  1
  F  F7  1  0.036693  0.690342  0.388215  1
  F  F8  1  0.716508  0.663232  0.891326  1
  F  F9  1  0.368984  0.189730  0.516913  1
  F  F10  1  0.631016  0.810270  0.483087  1
  F  F11  1  0.283492  0.336768  0.108674  1
  F  F12  1  0.963307  0.309658  0.611785  1
  F  F13  1  0.233895  0.848779  0.059185  1
