# generated using pymatgen
data_BaLa2O4
_symmetry_space_group_name_H-M   'P 1'
_cell_length_a   6.41292251
_cell_length_b   6.41292251
_cell_length_c   23.54910871
_cell_angle_alpha   89.36634153
_cell_angle_beta   90.63365847
_cell_angle_gamma   118.85721072
_symmetry_Int_Tables_number   1
_chemical_formula_structural   BaLa2O4
_chemical_formula_sum   'Ba6 La12 O24'
_cell_volume   848.14102306
_cell_formula_units_Z   6
loop_
 _symmetry_equiv_pos_site_id
 _symmetry_equiv_pos_as_xyz
  1  'x, y, z'
loop_
 _atom_site_type_symbol
 _atom_site_label
 _atom_site_symmetry_multiplicity
 _atom_site_fract_x
 _atom_site_fract_y
 _atom_site_fract_z
 _atom_site_occupancy
  Ba  Ba0  1  0.772647  0.447954  0.150651  1
  Ba  Ba1  1  0.552046  0.227353  0.650651  1
  Ba  Ba2  1  0.110165  0.110165  0.250000  1
  Ba  Ba3  1  0.889835  0.889835  0.750000  1
  Ba  Ba4  1  0.227353  0.552046  0.849349  1
  Ba  Ba5  1  0.447954  0.772647  0.349349  1
  La  La6  1  0.781901  0.442871  0.305901  1
  La  La7  1  0.557129  0.218099  0.805901  1
  La  La8  1  0.772527  0.445836  0.449580  1
  La  La9  1  0.554164  0.227473  0.949580  1
  La  La10  1  0.116564  0.108709  0.426451  1
  La  La11  1  0.891291  0.883436  0.926451  1
  La  La12  1  0.883436  0.891291  0.573549  1
  La  La13  1  0.108709  0.116564  0.073549  1
  La  La14  1  0.445836  0.772527  0.050420  1
  La  La15  1  0.227473  0.554164  0.550420  1
  La  La16  1  0.442871  0.781901  0.194099  1
  La  La17  1  0.218099  0.557129  0.694099  1
  O  O18  1  0.921097  0.210689  0.503188  1
  O  O19  1  0.789311  0.078903  0.003188  1
  O  O20  1  0.037017  0.380080  0.375508  1
  O  O21  1  0.619920  0.962983  0.875508  1
  O  O22  1  0.898626  0.303023  0.752858  1
  O  O23  1  0.696977  0.101374  0.252858  1
  O  O24  1  0.471092  0.197031  0.378921  1
  O  O25  1  0.802969  0.528908  0.878921  1
  O  O26  1  0.232386  0.149060  0.875846  1
  O  O27  1  0.850940  0.767614  0.375846  1
  O  O28  1  0.510827  0.510827  0.250000  1
  O  O29  1  0.500000  0.500000  0.000000  1
  O  O30  1  0.500000  0.500000  0.500000  1
  O  O31  1  0.489173  0.489173  0.750000  1
  O  O32  1  0.149060  0.232386  0.624154  1
  O  O33  1  0.767614  0.850940  0.124154  1
  O  O34  1  0.197031  0.471092  0.121079  1
  O  O35  1  0.528908  0.802969  0.621079  1
  O  O36  1  0.101374  0.696977  0.247142  1
  O  O37  1  0.303023  0.898626  0.747142  1
  O  O38  1  0.380080  0.037017  0.124492  1
  O  O39  1  0.962983  0.619920  0.624492  1
  O  O40  1  0.078903  0.789311  0.496812  1
  O  O41  1  0.210689  0.921097  0.996812  1
