# generated using pymatgen
data_Li2VCr(P2O7)2
_symmetry_space_group_name_H-M   'P 1'
_cell_length_a   7.01622488
_cell_length_b   9.54376055
_cell_length_c   12.75185779
_cell_angle_alpha   99.52068354
_cell_angle_beta   104.20500258
_cell_angle_gamma   99.37664028
_symmetry_Int_Tables_number   1
_chemical_formula_structural   Li2VCr(P2O7)2
_chemical_formula_sum   'Li6 V3 Cr3 P12 O42'
_cell_volume   797.65972675
_cell_formula_units_Z   3
loop_
 _symmetry_equiv_pos_site_id
 _symmetry_equiv_pos_as_xyz
  1  'x, y, z'
loop_
 _atom_site_type_symbol
 _atom_site_label
 _atom_site_symmetry_multiplicity
 _atom_site_fract_x
 _atom_site_fract_y
 _atom_site_fract_z
 _atom_site_occupancy
  Li  Li0  1  0.676563  0.483732  0.846464  1
  Li  Li1  1  0.323226  0.032547  0.895563  1
  Li  Li2  1  0.323466  0.698752  0.561883  1
  Li  Li3  1  0.676944  0.816734  0.179768  1
  Li  Li4  1  0.676383  0.150430  0.513342  1
  Li  Li5  1  0.323416  0.365904  0.228996  1
  V  V6  1  0.271032  0.261695  0.760901  1
  V  V7  1  0.270746  0.595084  0.094517  1
  V  V8  1  0.728800  0.072308  0.071857  1
  Cr  Cr9  1  0.727528  0.737992  0.737554  1
  Cr  Cr10  1  0.271935  0.928288  0.428582  1
  Cr  Cr11  1  0.727885  0.405257  0.404982  1
  P  P12  1  0.478821  0.746349  0.926377  1
  P  P13  1  0.084660  0.549195  0.831637  1
  P  P14  1  0.479111  0.413615  0.593280  1
  P  P15  1  0.914247  0.072213  0.856990  1
  P  P16  1  0.914583  0.739851  0.523873  1
  P  P17  1  0.085939  0.881378  0.166399  1
  P  P18  1  0.085645  0.215016  0.498063  1
  P  P19  1  0.522906  0.012601  0.693122  1
  P  P20  1  0.522952  0.680233  0.360469  1
  P  P21  1  0.477080  0.079872  0.260707  1
  P  P22  1  0.913976  0.406947  0.191601  1
  P  P23  1  0.521936  0.346772  0.026718  1
  O  O24  1  0.517569  0.913083  0.950223  1
  O  O25  1  0.079660  0.509726  0.943013  1
  O  O26  1  0.246320  0.700710  0.852419  1
  O  O27  1  0.915837  0.909871  0.844780  1
  O  O28  1  0.606661  0.680007  0.858436  1
  O  O29  1  0.509236  0.851444  0.697918  1
  O  O30  1  0.482326  0.370974  0.908071  1
  O  O31  1  0.146901  0.434622  0.756881  1
  O  O32  1  0.115497  0.158826  0.855421  1
  O  O33  1  0.116246  0.827035  0.520775  1
  O  O34  1  0.883178  0.581980  0.774485  1
  O  O35  1  0.854716  0.802137  0.625599  1
  O  O36  1  0.851207  0.134716  0.957868  1
  O  O37  1  0.518152  0.580217  0.616664  1
  O  O38  1  0.495136  0.354695  0.698848  1
  O  O39  1  0.393527  0.747381  0.426915  1
  O  O40  1  0.394252  0.080526  0.760220  1
  O  O41  1  0.080466  0.176316  0.609758  1
  O  O42  1  0.084147  0.843480  0.278311  1
  O  O43  1  0.246716  0.367549  0.519291  1
  O  O44  1  0.753566  0.096942  0.748831  1
  O  O45  1  0.754226  0.764031  0.415686  1
  O  O46  1  0.917386  0.577564  0.511603  1
  O  O47  1  0.606992  0.346903  0.525330  1
  O  O48  1  0.509483  0.518839  0.364867  1
  O  O49  1  0.483033  0.703654  0.241654  1
  O  O50  1  0.481595  0.036525  0.574582  1
  O  O51  1  0.148958  0.767706  0.091051  1
  O  O52  1  0.145948  0.099869  0.423160  1
  O  O53  1  0.115083  0.492489  0.188700  1
  O  O54  1  0.883901  0.248449  0.441267  1
  O  O55  1  0.884388  0.912056  0.109011  1
  O  O56  1  0.852621  0.468768  0.292707  1
  O  O57  1  0.518288  0.246357  0.284157  1
  O  O58  1  0.494274  0.687809  0.032014  1
  O  O59  1  0.490402  0.019909  0.366285  1
  O  O60  1  0.394090  0.415529  0.093989  1
  O  O61  1  0.246404  0.033970  0.185846  1
  O  O62  1  0.753444  0.430069  0.082633  1
  O  O63  1  0.917960  0.244408  0.179337  1
  O  O64  1  0.605646  0.013032  0.193013  1
  O  O65  1  0.504777  0.185901  0.030314  1
