# generated using pymatgen
data_Li5Mn6(BO3)6
_symmetry_space_group_name_H-M   'P 1'
_cell_length_a   5.29968122
_cell_length_b   7.93205852
_cell_length_c   9.60229627
_cell_angle_alpha   103.77190992
_cell_angle_beta   104.50270385
_cell_angle_gamma   87.40080014
_symmetry_Int_Tables_number   1
_chemical_formula_structural   Li5Mn6(BO3)6
_chemical_formula_sum   'Li5 Mn6 B6 O18'
_cell_volume   379.51468309
_cell_formula_units_Z   1
loop_
 _symmetry_equiv_pos_site_id
 _symmetry_equiv_pos_as_xyz
  1  'x, y, z'
loop_
 _atom_site_type_symbol
 _atom_site_label
 _atom_site_symmetry_multiplicity
 _atom_site_fract_x
 _atom_site_fract_y
 _atom_site_fract_z
 _atom_site_occupancy
  Li  Li0  1  0.472089  0.234787  0.083655  1
  Li  Li1  1  0.875720  0.082114  0.574112  1
  Li  Li2  1  0.192343  0.431997  0.246560  1
  Li  Li3  1  0.805327  0.570896  0.752201  1
  Li  Li4  1  0.523091  0.763123  0.914173  1
  Mn  Mn5  1  0.770957  0.363949  0.386733  1
  Mn  Mn6  1  0.432676  0.034433  0.711734  1
  Mn  Mn7  1  0.893828  0.296648  0.940379  1
  Mn  Mn8  1  0.099975  0.706729  0.059293  1
  Mn  Mn9  1  0.560699  0.957779  0.286511  1
  Mn  Mn10  1  0.222647  0.631953  0.606198  1
  B  B11  1  0.015333  0.087977  0.173399  1
  B  B12  1  0.651467  0.581139  0.158614  1
  B  B13  1  0.319073  0.251169  0.492995  1
  B  B14  1  0.684926  0.749641  0.515142  1
  B  B15  1  0.346945  0.418284  0.839949  1
  B  B16  1  0.981484  0.913822  0.823141  1
  O  O17  1  0.770108  0.124425  0.203333  1
  O  O18  1  0.126369  0.195006  0.109202  1
  O  O19  1  0.849007  0.053881  0.773301  1
  O  O20  1  0.894663  0.538926  0.130285  1
  O  O21  1  0.561044  0.199545  0.462591  1
  O  O22  1  0.533505  0.479014  0.222557  1
  O  O23  1  0.203792  0.170430  0.571541  1
  O  O24  1  0.519636  0.723165  0.111774  1
  O  O25  1  0.191365  0.390949  0.438451  1
  O  O26  1  0.815357  0.602723  0.556895  1
  O  O27  1  0.478239  0.275489  0.887390  1
  O  O28  1  0.792659  0.846138  0.444826  1
  O  O29  1  0.465088  0.520647  0.776329  1
  O  O30  1  0.455192  0.795098  0.558212  1
  O  O31  1  0.104053  0.462648  0.869242  1
  O  O32  1  0.155617  0.948014  0.212420  1
  O  O33  1  0.864196  0.813174  0.888636  1
  O  O34  1  0.227183  0.873718  0.797309  1
