# generated using pymatgen
data_Li2Cu7F16
_symmetry_space_group_name_H-M   'P 1'
_cell_length_a   6.37901083
_cell_length_b   6.38934489
_cell_length_c   8.88916236
_cell_angle_alpha   90.44026913
_cell_angle_beta   110.17465183
_cell_angle_gamma   119.41727484
_symmetry_Int_Tables_number   1
_chemical_formula_structural   Li2Cu7F16
_chemical_formula_sum   'Li2 Cu7 F16'
_cell_volume   289.19514851
_cell_formula_units_Z   1
loop_
 _symmetry_equiv_pos_site_id
 _symmetry_equiv_pos_as_xyz
  1  'x, y, z'
loop_
 _atom_site_type_symbol
 _atom_site_label
 _atom_site_symmetry_multiplicity
 _atom_site_fract_x
 _atom_site_fract_y
 _atom_site_fract_z
 _atom_site_occupancy
  Li  Li0  1  0.302152  0.639460  0.989723  1
  Li  Li1  1  0.697848  0.360540  0.010277  1
  Cu  Cu2  1  0.752679  0.236300  0.657740  1
  Cu  Cu3  1  0.419732  0.523456  0.660556  1
  Cu  Cu4  1  0.870905  0.104501  0.342790  1
  Cu  Cu5  1  0.000000  0.000000  0.000000  1
  Cu  Cu6  1  0.129095  0.895499  0.657210  1
  Cu  Cu7  1  0.580268  0.476544  0.339444  1
  Cu  Cu8  1  0.247321  0.763700  0.342260  1
  F  F9  1  0.171035  0.588427  0.750339  1
  F  F10  1  0.553626  0.177282  0.419000  1
  F  F11  1  0.658697  0.658467  0.887744  1
  F  F12  1  0.891176  0.246240  0.887626  1
  F  F13  1  0.244486  0.380188  0.419954  1
  F  F14  1  0.956927  0.136800  0.581561  1
  F  F15  1  0.792550  0.008641  0.115570  1
  F  F16  1  0.461896  0.231579  0.705642  1
  F  F17  1  0.538104  0.768421  0.294358  1
  F  F18  1  0.207450  0.991359  0.884430  1
  F  F19  1  0.043073  0.863200  0.418439  1
  F  F20  1  0.755514  0.619812  0.580046  1
  F  F21  1  0.108824  0.753760  0.112374  1
  F  F22  1  0.341303  0.341533  0.112256  1
  F  F23  1  0.446374  0.822718  0.581000  1
  F  F24  1  0.828965  0.411573  0.249661  1
