# generated using pymatgen
data_Al2CoO4
_symmetry_space_group_name_H-M   'P 1'
_cell_length_a   5.78186149
_cell_length_b   5.78186149
_cell_length_c   28.37465997
_cell_angle_alpha   90.00000000
_cell_angle_beta   90.00000000
_cell_angle_gamma   120.00000000
_symmetry_Int_Tables_number   1
_chemical_formula_structural   Al2CoO4
_chemical_formula_sum   'Al24 Co12 O48'
_cell_volume   821.47937572
_cell_formula_units_Z   12
loop_
 _symmetry_equiv_pos_site_id
 _symmetry_equiv_pos_as_xyz
  1  'x, y, z'
loop_
 _atom_site_type_symbol
 _atom_site_label
 _atom_site_symmetry_multiplicity
 _atom_site_fract_x
 _atom_site_fract_y
 _atom_site_fract_z
 _atom_site_occupancy
  Al  Al0  1  0.333333  0.666667  0.044145  1
  Al  Al1  1  0.836828  0.673655  0.104152  1
  Al  Al2  1  0.326345  0.163172  0.104152  1
  Al  Al3  1  0.666667  0.333333  0.209153  1
  Al  Al4  1  0.836828  0.163172  0.104152  1
  Al  Al5  1  0.168417  0.336834  0.270890  1
  Al  Al6  1  0.663166  0.831583  0.270890  1
  Al  Al7  1  0.168417  0.831583  0.270890  1
  Al  Al8  1  0.500226  0.000452  0.437497  1
  Al  Al9  1  0.333333  0.666667  0.354571  1
  Al  Al10  1  0.999548  0.499774  0.437497  1
  Al  Al11  1  0.500226  0.499774  0.437497  1
  Al  Al12  1  0.833369  0.666739  0.604341  1
  Al  Al13  1  0.666667  0.333333  0.520936  1
  Al  Al14  1  0.333261  0.166631  0.604341  1
  Al  Al15  1  0.833369  0.166631  0.604341  1
  Al  Al16  1  0.166619  0.333239  0.771236  1
  Al  Al17  1  0.000000  0.000000  0.687786  1
  Al  Al18  1  0.666761  0.833381  0.771236  1
  Al  Al19  1  0.166619  0.833381  0.771236  1
  Al  Al20  1  0.502063  0.004126  0.937146  1
  Al  Al21  1  0.995874  0.497937  0.937146  1
  Al  Al22  1  0.333333  0.666667  0.854351  1
  Al  Al23  1  0.502063  0.497937  0.937146  1
  Co  Co24  1  0.000000  0.000000  0.998250  1
  Co  Co25  1  0.666667  0.333333  0.019340  1
  Co  Co26  1  0.333333  0.666667  0.165500  1
  Co  Co27  1  0.000000  0.000000  0.187086  1
  Co  Co28  1  0.000000  0.000000  0.500177  1
  Co  Co29  1  0.666667  0.333333  0.333206  1
  Co  Co30  1  0.000000  0.000000  0.373978  1
  Co  Co31  1  0.333333  0.666667  0.541602  1
  Co  Co32  1  0.333333  0.666667  0.667069  1
  Co  Co33  1  0.666667  0.333333  0.708585  1
  Co  Co34  1  0.000000  0.000000  0.876736  1
  Co  Co35  1  0.666667  0.333333  0.832757  1
  O  O36  1  0.505601  0.494399  0.067145  1
  O  O37  1  0.666667  0.333333  0.143186  1
  O  O38  1  0.988797  0.494399  0.067145  1
  O  O39  1  0.505601  0.011203  0.067145  1
  O  O40  1  0.153132  0.306263  0.140064  1
  O  O41  1  0.834251  0.165749  0.233845  1
  O  O42  1  0.000000  0.000000  0.302718  1
  O  O43  1  0.693737  0.846868  0.140064  1
  O  O44  1  0.000000  0.000000  0.068207  1
  O  O45  1  0.331498  0.165749  0.233845  1
  O  O46  1  0.834251  0.668502  0.233845  1
  O  O47  1  0.153132  0.846868  0.140064  1
  O  O48  1  0.185347  0.814653  0.398050  1
  O  O49  1  0.479717  0.959435  0.310729  1
  O  O50  1  0.333333  0.666667  0.471576  1
  O  O51  1  0.040565  0.520283  0.310729  1
  O  O52  1  0.333333  0.666667  0.236128  1
  O  O53  1  0.629306  0.814653  0.398050  1
  O  O54  1  0.185347  0.370694  0.398050  1
  O  O55  1  0.479717  0.520283  0.310729  1
  O  O56  1  0.814054  0.628107  0.476588  1
  O  O57  1  0.519298  0.480702  0.564811  1
  O  O58  1  0.371893  0.185946  0.476588  1
  O  O59  1  0.666667  0.333333  0.402878  1
  O  O60  1  0.666667  0.333333  0.638596  1
  O  O61  1  0.961403  0.480702  0.564811  1
  O  O62  1  0.814054  0.185946  0.476588  1
  O  O63  1  0.519298  0.038597  0.564811  1
  O  O64  1  0.147407  0.294814  0.643428  1
  O  O65  1  0.852764  0.147236  0.731763  1
  O  O66  1  0.000000  0.000000  0.569746  1
  O  O67  1  0.000000  0.000000  0.806034  1
  O  O68  1  0.705186  0.852593  0.643428  1
  O  O69  1  0.294472  0.147236  0.731763  1
  O  O70  1  0.147407  0.852593  0.643428  1
  O  O71  1  0.852764  0.705528  0.731763  1
  O  O72  1  0.188470  0.811530  0.898757  1
  O  O73  1  0.480442  0.960885  0.810064  1
  O  O74  1  0.333333  0.666667  0.736484  1
  O  O75  1  0.333333  0.666667  0.979079  1
  O  O76  1  0.039115  0.519558  0.810064  1
  O  O77  1  0.623059  0.811530  0.898757  1
  O  O78  1  0.480442  0.519558  0.810064  1
  O  O79  1  0.188470  0.376941  0.898757  1
  O  O80  1  0.820435  0.640870  0.972356  1
  O  O81  1  0.359130  0.179565  0.972356  1
  O  O82  1  0.666667  0.333333  0.901555  1
  O  O83  1  0.820435  0.179565  0.972356  1
