# generated using pymatgen
data_NaLi5Mn2P2(CO7)2
_symmetry_space_group_name_H-M   'P 1'
_cell_length_a   6.69722266
_cell_length_b   8.63143737
_cell_length_c   10.00968412
_cell_angle_alpha   87.52061659
_cell_angle_beta   89.92033646
_cell_angle_gamma   89.15983360
_symmetry_Int_Tables_number   1
_chemical_formula_structural   NaLi5Mn2P2(CO7)2
_chemical_formula_sum   'Na2 Li10 Mn4 P4 C4 O28'
_cell_volume   578.02239097
_cell_formula_units_Z   2
loop_
 _symmetry_equiv_pos_site_id
 _symmetry_equiv_pos_as_xyz
  1  'x, y, z'
loop_
 _atom_site_type_symbol
 _atom_site_label
 _atom_site_symmetry_multiplicity
 _atom_site_fract_x
 _atom_site_fract_y
 _atom_site_fract_z
 _atom_site_occupancy
  Na  Na0  1  0.498073  0.752623  0.374557  1
  Na  Na1  1  0.501927  0.247377  0.625443  1
  Li  Li2  1  0.764961  0.911618  0.126137  1
  Li  Li3  1  0.769274  0.913369  0.629015  1
  Li  Li4  1  0.970939  0.728483  0.385779  1
  Li  Li5  1  0.970332  0.730222  0.883099  1
  Li  Li6  1  0.526981  0.734391  0.881757  1
  Li  Li7  1  0.473019  0.265609  0.118243  1
  Li  Li8  1  0.029668  0.269778  0.116901  1
  Li  Li9  1  0.029061  0.271517  0.614221  1
  Li  Li10  1  0.230726  0.086631  0.370985  1
  Li  Li11  1  0.235039  0.088382  0.873863  1
  Mn  Mn12  1  0.246822  0.650195  0.109412  1
  Mn  Mn13  1  0.245839  0.645089  0.614318  1
  Mn  Mn14  1  0.754161  0.354911  0.385682  1
  Mn  Mn15  1  0.753178  0.349805  0.890588  1
  P  P16  1  0.752909  0.591951  0.141784  1
  P  P17  1  0.753846  0.592498  0.645763  1
  P  P18  1  0.246154  0.407502  0.354237  1
  P  P19  1  0.247091  0.408049  0.858216  1
  C  C20  1  0.248292  0.962651  0.135116  1
  C  C21  1  0.239705  0.956808  0.639912  1
  C  C22  1  0.760295  0.043192  0.360088  1
  C  C23  1  0.751708  0.037349  0.864884  1
  O  O24  1  0.778384  0.899648  0.326477  1
  O  O25  1  0.747520  0.891946  0.834011  1
  O  O26  1  0.246853  0.922078  0.012687  1
  O  O27  1  0.250301  0.921366  0.515328  1
  O  O28  1  0.244422  0.856902  0.232172  1
  O  O29  1  0.246970  0.848510  0.734402  1
  O  O30  1  0.930500  0.687487  0.083093  1
  O  O31  1  0.564647  0.688527  0.096996  1
  O  O32  1  0.927262  0.697818  0.593766  1
  O  O33  1  0.560864  0.679202  0.599696  1
  O  O34  1  0.768720  0.581979  0.297521  1
  O  O35  1  0.228988  0.574477  0.405941  1
  O  O36  1  0.758542  0.579354  0.802537  1
  O  O37  1  0.251988  0.577356  0.905196  1
  O  O38  1  0.748012  0.422644  0.094804  1
  O  O39  1  0.241458  0.420646  0.197463  1
  O  O40  1  0.771012  0.425523  0.594059  1
  O  O41  1  0.231280  0.418021  0.702479  1
  O  O42  1  0.439136  0.320798  0.400304  1
  O  O43  1  0.072738  0.302182  0.406234  1
  O  O44  1  0.435353  0.311473  0.903004  1
  O  O45  1  0.069500  0.312513  0.916907  1
  O  O46  1  0.753030  0.151490  0.265598  1
  O  O47  1  0.755578  0.143098  0.767828  1
  O  O48  1  0.749699  0.078634  0.484672  1
  O  O49  1  0.753147  0.077922  0.987313  1
  O  O50  1  0.252480  0.108054  0.165989  1
  O  O51  1  0.221616  0.100352  0.673523  1
