# generated using pymatgen
data_Li2MnPO4F
_symmetry_space_group_name_H-M   'P 1'
_cell_length_a   7.40265890
_cell_length_b   7.68079202
_cell_length_c   7.99345247
_cell_angle_alpha   89.76531832
_cell_angle_beta   91.67690703
_cell_angle_gamma   117.29163345
_symmetry_Int_Tables_number   1
_chemical_formula_structural   Li2MnPO4F
_chemical_formula_sum   'Li8 Mn4 P4 O16 F4'
_cell_volume   403.70641490
_cell_formula_units_Z   4
loop_
 _symmetry_equiv_pos_site_id
 _symmetry_equiv_pos_as_xyz
  1  'x, y, z'
loop_
 _atom_site_type_symbol
 _atom_site_label
 _atom_site_symmetry_multiplicity
 _atom_site_fract_x
 _atom_site_fract_y
 _atom_site_fract_z
 _atom_site_occupancy
  Li  Li0  1  0.718796  0.166295  0.848247  1
  Li  Li1  1  0.675614  0.584005  0.942008  1
  Li  Li2  1  0.064296  0.837774  0.670047  1
  Li  Li3  1  0.387989  0.174790  0.820379  1
  Li  Li4  1  0.583610  0.855985  0.174795  1
  Li  Li5  1  0.249744  0.496050  0.253894  1
  Li  Li6  1  0.825702  0.404807  0.553265  1
  Li  Li7  1  0.914772  0.138559  0.325307  1
  Mn  Mn8  1  0.481606  0.984028  0.492755  1
  Mn  Mn9  1  0.506963  0.507492  0.508320  1
  Mn  Mn10  1  0.018554  0.516755  0.996881  1
  Mn  Mn11  1  0.015827  0.007546  0.009580  1
  P  P12  1  0.476252  0.767943  0.855637  1
  P  P13  1  0.027861  0.230763  0.643238  1
  P  P14  1  0.981880  0.760229  0.348749  1
  P  P15  1  0.519235  0.236503  0.150612  1
  O  O16  1  0.685300  0.921432  0.938788  1
  O  O17  1  0.342402  0.666170  0.007771  1
  O  O18  1  0.513108  0.615157  0.757257  1
  O  O19  1  0.115466  0.119457  0.754664  1
  O  O20  1  0.389186  0.880632  0.745296  1
  O  O21  1  0.976823  0.368648  0.756189  1
  O  O22  1  0.169528  0.346771  0.500864  1
  O  O23  1  0.819318  0.089202  0.558109  1
  O  O24  1  0.176562  0.916134  0.439169  1
  O  O25  1  0.837426  0.648037  0.495315  1
  O  O26  1  0.023444  0.613974  0.245004  1
  O  O27  1  0.616530  0.131472  0.262352  1
  O  O28  1  0.880724  0.863321  0.237765  1
  O  O29  1  0.486461  0.390553  0.249076  1
  O  O30  1  0.666139  0.337784  0.998827  1
  O  O31  1  0.322176  0.084143  0.059329  1
  F  F32  1  0.946824  0.729260  0.881018  1
  F  F33  1  0.457963  0.725047  0.372240  1
  F  F34  1  0.555788  0.268756  0.628058  1
  F  F35  1  0.038616  0.272105  0.125810  1
