# generated using pymatgen
data_NbO2F
_symmetry_space_group_name_H-M   'P 1'
_cell_length_a   5.56281994
_cell_length_b   5.67911847
_cell_length_c   13.83828910
_cell_angle_alpha   92.79826698
_cell_angle_beta   89.18523529
_cell_angle_gamma   118.47533923
_symmetry_Int_Tables_number   1
_chemical_formula_structural   NbO2F
_chemical_formula_sum   'Nb6 O12 F6'
_cell_volume   383.81064387
_cell_formula_units_Z   6
loop_
 _symmetry_equiv_pos_site_id
 _symmetry_equiv_pos_as_xyz
  1  'x, y, z'
loop_
 _atom_site_type_symbol
 _atom_site_label
 _atom_site_symmetry_multiplicity
 _atom_site_fract_x
 _atom_site_fract_y
 _atom_site_fract_z
 _atom_site_occupancy
  Nb  Nb0  1  0.322528  0.661164  0.583305  1
  Nb  Nb1  1  0.971858  0.983531  0.750454  1
  Nb  Nb2  1  0.621788  0.292942  0.917645  1
  Nb  Nb3  1  0.677472  0.338836  0.416695  1
  Nb  Nb4  1  0.378212  0.707058  0.082355  1
  Nb  Nb5  1  0.028142  0.016469  0.249546  1
  O  O6  1  0.668129  0.833967  0.666156  1
  O  O7  1  0.666474  0.833991  0.168753  1
  O  O8  1  0.000000  0.500000  0.500000  1
  O  O9  1  0.172480  0.836116  0.666143  1
  O  O10  1  0.827520  0.163884  0.333857  1
  O  O11  1  0.845688  0.176242  0.832919  1
  O  O12  1  0.154312  0.823758  0.167081  1
  O  O13  1  0.500000  0.500000  0.000000  1
  O  O14  1  0.500000  0.500000  0.500000  1
  O  O15  1  0.331871  0.166033  0.333844  1
  O  O16  1  0.333526  0.166009  0.831247  1
  O  O17  1  0.500000  0.000000  0.000000  1
  F  F18  1  0.000000  0.500000  0.000000  1
  F  F19  1  0.832829  0.667372  0.333789  1
  F  F20  1  0.835987  0.667782  0.833881  1
  F  F21  1  0.500000  0.000000  0.500000  1
  F  F22  1  0.164013  0.332218  0.166119  1
  F  F23  1  0.167171  0.332628  0.666211  1
