# generated using pymatgen
data_Li2CuF4
_symmetry_space_group_name_H-M   'P 1'
_cell_length_a   8.86276794
_cell_length_b   8.86276794
_cell_length_c   8.86276794
_cell_angle_alpha   107.01273884
_cell_angle_beta   107.01273884
_cell_angle_gamma   107.01273884
_symmetry_Int_Tables_number   1
_chemical_formula_structural   Li2CuF4
_chemical_formula_sum   'Li12 Cu6 F24'
_cell_volume   579.56587941
_cell_formula_units_Z   6
loop_
 _symmetry_equiv_pos_site_id
 _symmetry_equiv_pos_as_xyz
  1  'x, y, z'
loop_
 _atom_site_type_symbol
 _atom_site_label
 _atom_site_symmetry_multiplicity
 _atom_site_fract_x
 _atom_site_fract_y
 _atom_site_fract_z
 _atom_site_occupancy
  Li  Li0  1  0.894485  0.725752  0.126975  1
  Li  Li1  1  0.274248  0.873025  0.105515  1
  Li  Li2  1  0.436619  0.610515  0.202829  1
  Li  Li3  1  0.873025  0.105515  0.274248  1
  Li  Li4  1  0.797171  0.563381  0.389485  1
  Li  Li5  1  0.610515  0.202829  0.436619  1
  Li  Li6  1  0.389485  0.797171  0.563381  1
  Li  Li7  1  0.202829  0.436619  0.610515  1
  Li  Li8  1  0.126975  0.894485  0.725752  1
  Li  Li9  1  0.563381  0.389485  0.797171  1
  Li  Li10  1  0.725752  0.126975  0.894485  1
  Li  Li11  1  0.105515  0.274248  0.873025  1
  Cu  Cu12  1  0.464241  0.227247  0.063517  1
  Cu  Cu13  1  0.772753  0.936483  0.535759  1
  Cu  Cu14  1  0.063517  0.464241  0.227247  1
  Cu  Cu15  1  0.936483  0.535759  0.772753  1
  Cu  Cu16  1  0.227247  0.063517  0.464241  1
  Cu  Cu17  1  0.535759  0.772753  0.936483  1
  F  F18  1  0.992297  0.958669  0.289144  1
  F  F19  1  0.415226  0.753130  0.084156  1
  F  F20  1  0.041331  0.710856  0.007703  1
  F  F21  1  0.915844  0.584774  0.246870  1
  F  F22  1  0.338238  0.372947  0.043021  1
  F  F23  1  0.710856  0.007703  0.041331  1
  F  F24  1  0.667452  0.700342  0.366987  1
  F  F25  1  0.633013  0.332548  0.299658  1
  F  F26  1  0.299658  0.633013  0.332548  1
  F  F27  1  0.956979  0.661762  0.627053  1
  F  F28  1  0.753130  0.084156  0.415226  1
  F  F29  1  0.627053  0.956979  0.661762  1
  F  F30  1  0.372947  0.043021  0.338238  1
  F  F31  1  0.246870  0.915844  0.584774  1
  F  F32  1  0.043021  0.338238  0.372947  1
  F  F33  1  0.700342  0.366987  0.667452  1
  F  F34  1  0.366987  0.667452  0.700342  1
  F  F35  1  0.332548  0.299658  0.633013  1
  F  F36  1  0.289144  0.992297  0.958669  1
  F  F37  1  0.661762  0.627053  0.956979  1
  F  F38  1  0.084156  0.415226  0.753130  1
  F  F39  1  0.958669  0.289144  0.992297  1
  F  F40  1  0.584774  0.246870  0.915844  1
  F  F41  1  0.007703  0.041331  0.710856  1
