# generated using pymatgen
data_Li3(NiO2)5
_symmetry_space_group_name_H-M   'P 1'
_cell_length_a   5.00743140
_cell_length_b   5.03632364
_cell_length_c   7.43422112
_cell_angle_alpha   70.88095886
_cell_angle_beta   70.85285128
_cell_angle_gamma   79.91634739
_symmetry_Int_Tables_number   1
_chemical_formula_structural   Li3(NiO2)5
_chemical_formula_sum   'Li3 Ni5 O10'
_cell_volume   166.86129119
_cell_formula_units_Z   1
loop_
 _symmetry_equiv_pos_site_id
 _symmetry_equiv_pos_as_xyz
  1  'x, y, z'
loop_
 _atom_site_type_symbol
 _atom_site_label
 _atom_site_symmetry_multiplicity
 _atom_site_fract_x
 _atom_site_fract_y
 _atom_site_fract_z
 _atom_site_occupancy
  Li  Li0  1  0.499765  0.778874  0.416939  1
  Li  Li1  1  0.000000  0.500000  0.500000  1
  Li  Li2  1  0.500235  0.221126  0.583061  1
  Ni  Ni3  1  0.001289  0.891871  0.699673  1
  Ni  Ni4  1  0.500000  0.000000  0.000000  1
  Ni  Ni5  1  0.013908  0.699049  0.098422  1
  Ni  Ni6  1  0.986092  0.300951  0.901578  1
  Ni  Ni7  1  0.998711  0.108129  0.300327  1
  O  O8  1  0.222269  0.944394  0.854431  1
  O  O9  1  0.782562  0.884544  0.539133  1
  O  O10  1  0.775256  0.684691  0.948284  1
  O  O11  1  0.239205  0.790920  0.233265  1
  O  O12  1  0.202634  0.553199  0.666316  1
  O  O13  1  0.797366  0.446801  0.333684  1
  O  O14  1  0.760795  0.209080  0.766735  1
  O  O15  1  0.224744  0.315309  0.051716  1
  O  O16  1  0.217438  0.115456  0.460867  1
  O  O17  1  0.777731  0.055606  0.145569  1
