# generated using pymatgen
data_HC5N3(OF4)2
_symmetry_space_group_name_H-M   'P 1'
_cell_length_a   10.43171620
_cell_length_b   6.83530272
_cell_length_c   14.07339029
_cell_angle_alpha   90.00000000
_cell_angle_beta   104.54925075
_cell_angle_gamma   90.00000000
_symmetry_Int_Tables_number   1
_chemical_formula_structural   HC5N3(OF4)2
_chemical_formula_sum   'H4 C20 N12 O8 F32'
_cell_volume   971.30835101
_cell_formula_units_Z   4
loop_
 _symmetry_equiv_pos_site_id
 _symmetry_equiv_pos_as_xyz
  1  'x, y, z'
loop_
 _atom_site_type_symbol
 _atom_site_label
 _atom_site_symmetry_multiplicity
 _atom_site_fract_x
 _atom_site_fract_y
 _atom_site_fract_z
 _atom_site_occupancy
  H  H0  1  0.998884  0.382916  0.081847  1
  H  H1  1  0.001116  0.882916  0.418153  1
  H  H2  1  0.001116  0.617084  0.918153  1
  H  H3  1  0.998884  0.117084  0.581847  1
  C  C4  1  0.705399  0.555993  0.179789  1
  C  C5  1  0.294601  0.055993  0.320211  1
  C  C6  1  0.294601  0.444007  0.820211  1
  C  C7  1  0.705399  0.944007  0.679789  1
  C  C8  1  0.901190  0.333005  0.190188  1
  C  C9  1  0.098810  0.833005  0.309812  1
  C  C10  1  0.098810  0.666995  0.809812  1
  C  C11  1  0.901190  0.166995  0.690188  1
  C  C12  1  0.848194  0.580419  0.059710  1
  C  C13  1  0.151806  0.080419  0.440290  1
  C  C14  1  0.151806  0.419581  0.940290  1
  C  C15  1  0.848194  0.919581  0.559710  1
  C  C16  1  0.671574  0.817181  0.051715  1
  C  C17  1  0.328426  0.317181  0.448285  1
  C  C18  1  0.328426  0.182819  0.948285  1
  C  C19  1  0.671574  0.682819  0.551715  1
  C  C20  1  0.768991  0.299506  0.309042  1
  C  C21  1  0.231009  0.799506  0.190958  1
  C  C22  1  0.231009  0.700494  0.690958  1
  C  C23  1  0.768991  0.200494  0.809042  1
  N  N24  1  0.744314  0.645923  0.098570  1
  N  N25  1  0.255686  0.145923  0.401430  1
  N  N26  1  0.255686  0.354077  0.901430  1
  N  N27  1  0.744314  0.854077  0.598570  1
  N  N28  1  0.788686  0.393593  0.220802  1
  N  N29  1  0.211314  0.893593  0.279198  1
  N  N30  1  0.211314  0.606407  0.779198  1
  N  N31  1  0.788686  0.106407  0.720802  1
  N  N32  1  0.916507  0.421617  0.105880  1
  N  N33  1  0.083493  0.921617  0.394120  1
  N  N34  1  0.083493  0.578383  0.894120  1
  N  N35  1  0.916507  0.078383  0.605880  1
  O  O36  1  0.874581  0.661528  0.989030  1
  O  O37  1  0.125419  0.161528  0.510970  1
  O  O38  1  0.125419  0.338472  0.010970  1
  O  O39  1  0.874581  0.838472  0.489030  1
  O  O40  1  0.976775  0.207884  0.233653  1
  O  O41  1  0.023225  0.707884  0.266347  1
  O  O42  1  0.023225  0.792116  0.766347  1
  O  O43  1  0.976775  0.292116  0.733653  1
  F  F44  1  0.706086  0.692194  0.251649  1
  F  F45  1  0.293914  0.192194  0.248351  1
  F  F46  1  0.293914  0.307806  0.748351  1
  F  F47  1  0.706086  0.807806  0.751649  1
  F  F48  1  0.575528  0.493622  0.148065  1
  F  F49  1  0.424472  0.993622  0.351935  1
  F  F50  1  0.424472  0.506378  0.851935  1
  F  F51  1  0.575528  0.006378  0.648065  1
  F  F52  1  0.655051  0.359297  0.328254  1
  F  F53  1  0.344949  0.859297  0.171746  1
  F  F54  1  0.344949  0.640703  0.671746  1
  F  F55  1  0.655051  0.140703  0.828254  1
  F  F56  1  0.762229  0.102921  0.297808  1
  F  F57  1  0.237771  0.602921  0.202192  1
  F  F58  1  0.237771  0.897079  0.702192  1
  F  F59  1  0.762229  0.397079  0.797808  1
  F  F60  1  0.869582  0.341310  0.388327  1
  F  F61  1  0.130418  0.841310  0.111673  1
  F  F62  1  0.130418  0.658690  0.611673  1
  F  F63  1  0.869582  0.158690  0.888327  1
  F  F64  1  0.752293  0.975247  0.060008  1
  F  F65  1  0.247707  0.475247  0.439992  1
  F  F66  1  0.247707  0.024753  0.939992  1
  F  F67  1  0.752293  0.524753  0.560008  1
  F  F68  1  0.573172  0.862366  0.094248  1
  F  F69  1  0.426828  0.362366  0.405752  1
  F  F70  1  0.426828  0.137634  0.905752  1
  F  F71  1  0.573172  0.637634  0.594248  1
  F  F72  1  0.616230  0.784791  0.955575  1
  F  F73  1  0.383770  0.284791  0.544425  1
  F  F74  1  0.383770  0.215209  0.044425  1
  F  F75  1  0.616230  0.715209  0.455575  1
