# generated using pymatgen
data_Li3Fe4(BO3)4
_symmetry_space_group_name_H-M   'P 1'
_cell_length_a   5.21698238
_cell_length_b   9.12637395
_cell_length_c   11.43367725
_cell_angle_alpha   112.08747817
_cell_angle_beta   102.76534676
_cell_angle_gamma   89.79590786
_symmetry_Int_Tables_number   1
_chemical_formula_structural   Li3Fe4(BO3)4
_chemical_formula_sum   'Li6 Fe8 B8 O24'
_cell_volume   490.05368651
_cell_formula_units_Z   2
loop_
 _symmetry_equiv_pos_site_id
 _symmetry_equiv_pos_as_xyz
  1  'x, y, z'
loop_
 _atom_site_type_symbol
 _atom_site_label
 _atom_site_symmetry_multiplicity
 _atom_site_fract_x
 _atom_site_fract_y
 _atom_site_fract_z
 _atom_site_occupancy
  Li  Li0  1  0.029039  0.046347  0.424430  1
  Li  Li1  1  0.292606  0.283512  0.909404  1
  Li  Li2  1  0.485996  0.500107  0.659253  1
  Li  Li3  1  0.267017  0.250000  0.168476  1
  Li  Li4  1  0.789243  0.781269  0.908894  1
  Li  Li5  1  0.767854  0.746167  0.162183  1
  Fe  Fe6  1  0.015742  0.364146  0.384587  1
  Fe  Fe7  1  0.267825  0.934707  0.874385  1
  Fe  Fe8  1  0.484722  0.150214  0.633808  1
  Fe  Fe9  1  0.248892  0.564752  0.130034  1
  Fe  Fe10  1  0.765981  0.436605  0.879608  1
  Fe  Fe11  1  0.520975  0.850303  0.387847  1
  Fe  Fe12  1  0.967249  0.657936  0.621814  1
  Fe  Fe13  1  0.738022  0.073299  0.137558  1
  B  B14  1  0.020484  0.692422  0.374636  1
  B  B15  1  0.274418  0.607560  0.879061  1
  B  B16  1  0.474679  0.812320  0.634130  1
  B  B17  1  0.232710  0.891777  0.121669  1
  B  B18  1  0.518688  0.172270  0.371153  1
  B  B19  1  0.771196  0.101712  0.880939  1
  B  B20  1  0.983404  0.320471  0.628335  1
  B  B21  1  0.731682  0.394870  0.123973  1
  O  O22  1  0.036857  0.101861  0.883724  1
  O  O23  1  0.120365  0.726114  0.857293  1
  O  O24  1  0.168835  0.497780  0.916716  1
  O  O25  1  0.102459  0.182392  0.615092  1
  O  O26  1  0.098365  0.437165  0.598781  1
  O  O27  1  0.253051  0.847816  0.686460  1
  O  O28  1  0.257217  0.678019  0.335779  1
  O  O29  1  0.528834  0.604860  0.863634  1
  O  O30  1  0.618688  0.211067  0.847717  1
  O  O31  1  0.422018  0.062842  0.415895  1
  O  O32  1  0.363214  0.282762  0.350948  1
  O  O33  1  0.652832  0.989356  0.913724  1
  O  O34  1  0.341496  0.001445  0.081351  1
  O  O35  1  0.604466  0.684874  0.639377  1
  O  O36  1  0.552659  0.909571  0.576585  1
  O  O37  1  0.403328  0.797765  0.169902  1
  O  O38  1  0.460641  0.376471  0.108906  1
  O  O39  1  0.744479  0.342828  0.667279  1
  O  O40  1  0.768960  0.155961  0.344772  1
  O  O41  1  0.933137  0.589279  0.420347  1
  O  O42  1  0.873241  0.816616  0.362307  1
  O  O43  1  0.838220  0.514767  0.095927  1
  O  O44  1  0.894336  0.291924  0.162613  1
  O  O45  1  0.966484  0.878736  0.111739  1
