# generated using pymatgen
data_Na2MnO3
_symmetry_space_group_name_H-M   'P 1'
_cell_length_a   5.29070395
_cell_length_b   5.29070395
_cell_length_c   5.69912630
_cell_angle_alpha   80.80972171
_cell_angle_beta   99.19027829
_cell_angle_gamma   59.97297168
_symmetry_Int_Tables_number   1
_chemical_formula_structural   Na2MnO3
_chemical_formula_sum   'Na4 Mn2 O6'
_cell_volume   130.87518092
_cell_formula_units_Z   2
loop_
 _symmetry_equiv_pos_site_id
 _symmetry_equiv_pos_as_xyz
  1  'x, y, z'
loop_
 _atom_site_type_symbol
 _atom_site_label
 _atom_site_symmetry_multiplicity
 _atom_site_fract_x
 _atom_site_fract_y
 _atom_site_fract_z
 _atom_site_occupancy
  Na  Na0  1  0.500000  0.500000  0.500000  1
  Na  Na1  1  0.844210  0.844210  0.500000  1
  Na  Na2  1  0.155790  0.155790  0.500000  1
  Na  Na3  1  0.000000  0.000000  0.000000  1
  Mn  Mn4  1  0.669741  0.669741  0.000000  1
  Mn  Mn5  1  0.330259  0.330259  0.000000  1
  O  O6  1  0.558946  0.070719  0.800180  1
  O  O7  1  0.441054  0.929281  0.199820  1
  O  O8  1  0.691921  0.308079  0.200949  1
  O  O9  1  0.929281  0.441054  0.800180  1
  O  O10  1  0.070719  0.558946  0.199820  1
  O  O11  1  0.308079  0.691921  0.799051  1
