# generated using pymatgen
data_Fe5O3F7
_symmetry_space_group_name_H-M   'P 1'
_cell_length_a   4.82185287
_cell_length_b   15.62487235
_cell_length_c   4.82237302
_cell_angle_alpha   90.00000000
_cell_angle_beta   91.49508877
_cell_angle_gamma   90.00000000
_symmetry_Int_Tables_number   1
_chemical_formula_structural   Fe5O3F7
_chemical_formula_sum   'Fe10 O6 F14'
_cell_volume   363.19792573
_cell_formula_units_Z   2
loop_
 _symmetry_equiv_pos_site_id
 _symmetry_equiv_pos_as_xyz
  1  'x, y, z'
loop_
 _atom_site_type_symbol
 _atom_site_label
 _atom_site_symmetry_multiplicity
 _atom_site_fract_x
 _atom_site_fract_y
 _atom_site_fract_z
 _atom_site_occupancy
  Fe  Fe0  1  0.020909  0.398466  0.019943  1
  Fe  Fe1  1  0.020909  0.601534  0.019943  1
  Fe  Fe2  1  0.959446  0.807188  0.980298  1
  Fe  Fe3  1  0.979115  0.000000  0.028788  1
  Fe  Fe4  1  0.959446  0.192812  0.980298  1
  Fe  Fe5  1  0.476922  0.500000  0.476482  1
  Fe  Fe6  1  0.525749  0.894815  0.491933  1
  Fe  Fe7  1  0.496674  0.699434  0.504445  1
  Fe  Fe8  1  0.525749  0.105185  0.491933  1
  Fe  Fe9  1  0.496674  0.300566  0.504445  1
  O  O10  1  0.816218  0.900263  0.182661  1
  O  O11  1  0.816218  0.099737  0.182661  1
  O  O12  1  0.688894  0.791007  0.690250  1
  O  O13  1  0.688894  0.208993  0.690250  1
  O  O14  1  0.322640  0.397794  0.324478  1
  O  O15  1  0.322640  0.602206  0.324478  1
  F  F16  1  0.803820  0.500000  0.213280  1
  F  F17  1  0.798384  0.703727  0.198369  1
  F  F18  1  0.798384  0.296273  0.198369  1
  F  F19  1  0.701834  0.402336  0.703019  1
  F  F20  1  0.701834  0.597664  0.703019  1
  F  F21  1  0.712871  0.000000  0.703513  1
  F  F22  1  0.286171  0.791949  0.284188  1
  F  F23  1  0.309651  0.000000  0.304286  1
  F  F24  1  0.286171  0.208051  0.284188  1
  F  F25  1  0.214051  0.500000  0.803827  1
  F  F26  1  0.190757  0.901864  0.803771  1
  F  F27  1  0.194108  0.705178  0.801558  1
  F  F28  1  0.194108  0.294822  0.801558  1
  F  F29  1  0.190757  0.098136  0.803771  1
