# generated using pymatgen
data_LiSn2P5O16
_symmetry_space_group_name_H-M   'P 1'
_cell_length_a   7.36983633
_cell_length_b   10.34726731
_cell_length_c   10.66318250
_cell_angle_alpha   90.00000000
_cell_angle_beta   109.94108473
_cell_angle_gamma   90.00000000
_symmetry_Int_Tables_number   1
_chemical_formula_structural   LiSn2P5O16
_chemical_formula_sum   'Li2 Sn4 P10 O32'
_cell_volume   764.39607591
_cell_formula_units_Z   2
loop_
 _symmetry_equiv_pos_site_id
 _symmetry_equiv_pos_as_xyz
  1  'x, y, z'
loop_
 _atom_site_type_symbol
 _atom_site_label
 _atom_site_symmetry_multiplicity
 _atom_site_fract_x
 _atom_site_fract_y
 _atom_site_fract_z
 _atom_site_occupancy
  Li  Li0  1  0.038201  0.809241  0.807496  1
  Li  Li1  1  0.038201  0.190759  0.307496  1
  Sn  Sn2  1  0.646844  0.127661  0.500408  1
  Sn  Sn3  1  0.082565  0.370285  0.865337  1
  Sn  Sn4  1  0.082565  0.629715  0.365337  1
  Sn  Sn5  1  0.646844  0.872339  0.000408  1
  P  P6  1  0.380420  0.857945  0.370466  1
  P  P7  1  0.492505  0.467545  0.502370  1
  P  P8  1  0.440291  0.288326  0.120860  1
  P  P9  1  0.762796  0.871350  0.336615  1
  P  P10  1  0.900683  0.412959  0.534477  1
  P  P11  1  0.900683  0.587041  0.034477  1
  P  P12  1  0.380420  0.142055  0.870466  1
  P  P13  1  0.492505  0.532455  0.002370  1
  P  P14  1  0.440291  0.711674  0.620860  1
  P  P15  1  0.762796  0.128650  0.836615  1
  O  O16  1  0.219278  0.299503  0.062395  1
  O  O17  1  0.527394  0.846356  0.292051  1
  O  O18  1  0.788189  0.059456  0.717814  1
  O  O19  1  0.527005  0.228850  0.254525  1
  O  O20  1  0.688826  0.477411  0.468828  1
  O  O21  1  0.533835  0.430162  0.125163  1
  O  O22  1  0.460905  0.665378  0.043285  1
  O  O23  1  0.504973  0.213187  0.009843  1
  O  O24  1  0.015038  0.527667  0.953002  1
  O  O25  1  0.826027  0.949837  0.464707  1
  O  O26  1  0.898757  0.267816  0.513906  1
  O  O27  1  0.969119  0.458154  0.681572  1
  O  O28  1  0.788189  0.940544  0.217814  1
  O  O29  1  0.839708  0.729844  0.354619  1
  O  O30  1  0.205605  0.224322  0.792886  1
  O  O31  1  0.015038  0.472333  0.453002  1
  O  O32  1  0.898757  0.732184  0.013906  1
  O  O33  1  0.339525  0.470449  0.882166  1
  O  O34  1  0.969119  0.541846  0.181572  1
  O  O35  1  0.219278  0.700497  0.562395  1
  O  O36  1  0.331283  0.005737  0.893285  1
  O  O37  1  0.205605  0.775678  0.292886  1
  O  O38  1  0.527394  0.153644  0.792051  1
  O  O39  1  0.339525  0.529551  0.382166  1
  O  O40  1  0.527005  0.771150  0.754525  1
  O  O41  1  0.688826  0.522589  0.968828  1
  O  O42  1  0.331283  0.994263  0.393285  1
  O  O43  1  0.533835  0.569838  0.625163  1
  O  O44  1  0.460905  0.334622  0.543285  1
  O  O45  1  0.504973  0.786813  0.509843  1
  O  O46  1  0.826027  0.050163  0.964707  1
  O  O47  1  0.839708  0.270156  0.854619  1
