# generated using pymatgen
data_LiCoSiO4
_symmetry_space_group_name_H-M   'P 1'
_cell_length_a   8.68545366
_cell_length_b   8.68545366
_cell_length_c   8.08451703
_cell_angle_alpha   90.00000000
_cell_angle_beta   90.00000000
_cell_angle_gamma   120.00000000
_symmetry_Int_Tables_number   1
_chemical_formula_structural   LiCoSiO4
_chemical_formula_sum   'Li6 Co6 Si6 O24'
_cell_volume   528.16513199
_cell_formula_units_Z   6
loop_
 _symmetry_equiv_pos_site_id
 _symmetry_equiv_pos_as_xyz
  1  'x, y, z'
loop_
 _atom_site_type_symbol
 _atom_site_label
 _atom_site_symmetry_multiplicity
 _atom_site_fract_x
 _atom_site_fract_y
 _atom_site_fract_z
 _atom_site_occupancy
  Li  Li0  1  0.333333  0.666667  0.260805  1
  Li  Li1  1  0.333333  0.666667  0.745892  1
  Li  Li2  1  0.000000  0.000000  0.093606  1
  Li  Li3  1  0.000000  0.000000  0.593606  1
  Li  Li4  1  0.666667  0.333333  0.760805  1
  Li  Li5  1  0.666667  0.333333  0.245892  1
  Co  Co6  1  0.035461  0.691521  0.403606  1
  Co  Co7  1  0.308479  0.343940  0.403606  1
  Co  Co8  1  0.656060  0.964539  0.403606  1
  Co  Co9  1  0.343940  0.035461  0.903606  1
  Co  Co10  1  0.691521  0.656060  0.903606  1
  Co  Co11  1  0.964539  0.308479  0.903606  1
  Si  Si12  1  0.047012  0.689137  0.017791  1
  Si  Si13  1  0.310863  0.357875  0.017791  1
  Si  Si14  1  0.642125  0.952988  0.017791  1
  Si  Si15  1  0.357875  0.047012  0.517791  1
  Si  Si16  1  0.689137  0.642125  0.517791  1
  Si  Si17  1  0.952988  0.310863  0.517791  1
  O  O18  1  0.140264  0.912584  0.508486  1
  O  O19  1  0.149111  0.735459  0.197987  1
  O  O20  1  0.080570  0.525132  0.496208  1
  O  O21  1  0.205559  0.786198  0.877474  1
  O  O22  1  0.213802  0.419361  0.877474  1
  O  O23  1  0.444562  0.919430  0.496208  1
  O  O24  1  0.087416  0.227681  0.508486  1
  O  O25  1  0.264541  0.413652  0.197987  1
  O  O26  1  0.586348  0.850889  0.197987  1
  O  O27  1  0.474868  0.555438  0.496208  1
  O  O28  1  0.227681  0.140264  0.008486  1
  O  O29  1  0.580639  0.794441  0.877474  1
  O  O30  1  0.419361  0.205559  0.377474  1
  O  O31  1  0.772319  0.859736  0.508486  1
  O  O32  1  0.525132  0.444562  0.996208  1
  O  O33  1  0.413652  0.149111  0.697987  1
  O  O34  1  0.735459  0.586348  0.697987  1
  O  O35  1  0.912584  0.772319  0.008486  1
  O  O36  1  0.555438  0.080570  0.996208  1
  O  O37  1  0.786198  0.580639  0.377474  1
  O  O38  1  0.794441  0.213802  0.377474  1
  O  O39  1  0.919430  0.474868  0.996208  1
  O  O40  1  0.850889  0.264541  0.697987  1
  O  O41  1  0.859736  0.087416  0.008486  1
