# generated using pymatgen
data_Li24Ti11CrO36
_symmetry_space_group_name_H-M   'P 1'
_cell_length_a   5.10492350
_cell_length_b   10.68642757
_cell_length_c   13.20071408
_cell_angle_alpha   112.21904837
_cell_angle_beta   97.15736512
_cell_angle_gamma   94.73528867
_symmetry_Int_Tables_number   1
_chemical_formula_structural   Li24Ti11CrO36
_chemical_formula_sum   'Li24 Ti11 Cr1 O36'
_cell_volume   654.85025543
_cell_formula_units_Z   1
loop_
 _symmetry_equiv_pos_site_id
 _symmetry_equiv_pos_as_xyz
  1  'x, y, z'
loop_
 _atom_site_type_symbol
 _atom_site_label
 _atom_site_symmetry_multiplicity
 _atom_site_fract_x
 _atom_site_fract_y
 _atom_site_fract_z
 _atom_site_occupancy
  Li  Li0  1  0.784213  0.058427  0.058867  1
  Li  Li1  1  0.665086  0.333321  0.082963  1
  Li  Li2  1  0.884988  0.274769  0.274731  1
  Li  Li3  1  0.333040  0.166420  0.165765  1
  Li  Li4  1  0.556337  0.607506  0.107681  1
  Li  Li5  1  0.000029  0.000013  0.250021  1
  Li  Li6  1  0.000966  0.499139  0.999833  1
  Li  Li7  1  0.777872  0.059288  0.558826  1
  Li  Li8  1  0.446983  0.391918  0.392127  1
  Li  Li9  1  0.666715  0.333377  0.583423  1
  Li  Li10  1  0.666751  0.833223  0.333271  1
  Li  Li11  1  0.110998  0.725891  0.225419  1
  Li  Li12  1  0.890306  0.273876  0.775089  1
  Li  Li13  1  0.333705  0.166578  0.666205  1
  Li  Li14  1  0.333231  0.666270  0.416392  1
  Li  Li15  1  0.552398  0.608184  0.607574  1
  Li  Li16  1  0.000009  0.499946  0.499962  1
  Li  Li17  1  0.222060  0.940787  0.441215  1
  Li  Li18  1  0.440750  0.392832  0.892695  1
  Li  Li19  1  0.667224  0.833033  0.833289  1
  Li  Li20  1  0.114267  0.725199  0.725783  1
  Li  Li21  1  0.333308  0.666765  0.916707  1
  Li  Li22  1  0.999768  0.001003  0.751253  1
  Li  Li23  1  0.216705  0.942797  0.941070  1
  Ti  Ti24  1  0.889351  0.778045  0.028105  1
  Ti  Ti25  1  0.555728  0.111439  0.361338  1
  Ti  Ti26  1  0.780431  0.553816  0.305256  1
  Ti  Ti27  1  0.226475  0.446459  0.192753  1
  Ti  Ti28  1  0.444006  0.888259  0.138063  1
  Ti  Ti29  1  0.110545  0.221600  0.471567  1
  Ti  Ti30  1  0.889807  0.778286  0.528516  1
  Ti  Ti31  1  0.554842  0.109331  0.863165  1
  Ti  Ti32  1  0.777247  0.554731  0.805080  1
  Ti  Ti33  1  0.222583  0.444880  0.694859  1
  Ti  Ti34  1  0.444878  0.889237  0.638392  1
  Cr  Cr35  1  0.106363  0.223277  0.972420  1
  O  O36  1  0.424499  0.141681  0.002763  1
  O  O37  1  0.642982  0.076883  0.211371  1
  O  O38  1  0.904384  0.527205  0.163958  1
  O  O39  1  0.313472  0.411571  0.045577  1
  O  O40  1  0.880787  0.043454  0.406492  1
  O  O41  1  0.023972  0.254268  0.117966  1
  O  O42  1  0.547468  0.376338  0.239766  1
  O  O43  1  0.785527  0.289915  0.426797  1
  O  O44  1  0.762031  0.805638  0.168941  1
  O  O45  1  0.237740  0.194199  0.330865  1
  O  O46  1  0.214413  0.710194  0.073179  1
  O  O47  1  0.451673  0.622788  0.259557  1
  O  O48  1  0.428483  0.139007  0.502189  1
  O  O49  1  0.976129  0.743137  0.378041  1
  O  O50  1  0.119033  0.956556  0.093451  1
  O  O51  1  0.690310  0.589984  0.455218  1
  O  O52  1  0.093766  0.471318  0.334651  1
  O  O53  1  0.640381  0.077599  0.712028  1
  O  O54  1  0.357196  0.923263  0.288481  1
  O  O55  1  0.904798  0.527466  0.664378  1
  O  O56  1  0.309537  0.410026  0.544781  1
  O  O57  1  0.877030  0.042491  0.905955  1
  O  O58  1  0.023950  0.256451  0.621908  1
  O  O59  1  0.571235  0.861182  0.497824  1
  O  O60  1  0.547440  0.376635  0.740217  1
  O  O61  1  0.796166  0.290140  0.928602  1
  O  O62  1  0.761744  0.805908  0.668941  1
  O  O63  1  0.236754  0.195087  0.833716  1
  O  O64  1  0.214381  0.710256  0.573311  1
  O  O65  1  0.452265  0.623155  0.760053  1
  O  O66  1  0.976077  0.743250  0.878103  1
  O  O67  1  0.118930  0.956653  0.593584  1
  O  O68  1  0.690560  0.589838  0.955194  1
  O  O69  1  0.095337  0.472379  0.835599  1
  O  O70  1  0.357927  0.923068  0.789075  1
  O  O71  1  0.571661  0.861099  0.997791  1
