# generated using pymatgen
data_LaH9(SO6)2
_symmetry_space_group_name_H-M   'P 1'
_cell_length_a   11.29125257
_cell_length_b   6.96125861
_cell_length_c   13.63898350
_cell_angle_alpha   90.00000000
_cell_angle_beta   110.77595242
_cell_angle_gamma   90.00000000
_symmetry_Int_Tables_number   1
_chemical_formula_structural   LaH9(SO6)2
_chemical_formula_sum   'La4 H36 S8 O48'
_cell_volume   1002.33229476
_cell_formula_units_Z   4
loop_
 _symmetry_equiv_pos_site_id
 _symmetry_equiv_pos_as_xyz
  1  'x, y, z'
loop_
 _atom_site_type_symbol
 _atom_site_label
 _atom_site_symmetry_multiplicity
 _atom_site_fract_x
 _atom_site_fract_y
 _atom_site_fract_z
 _atom_site_occupancy
  La  La0  1  0.144422  0.267702  0.903512  1
  La  La1  1  0.144422  0.232298  0.403512  1
  La  La2  1  0.855578  0.767702  0.596488  1
  La  La3  1  0.855578  0.732298  0.096488  1
  H  H4  1  0.147036  0.897829  0.708641  1
  H  H5  1  0.127729  0.837642  0.592564  1
  H  H6  1  0.193184  0.579708  0.744583  1
  H  H7  1  0.313491  0.579246  0.847741  1
  H  H8  1  0.347054  0.976896  0.861322  1
  H  H9  1  0.319302  0.134481  0.772436  1
  H  H10  1  0.147036  0.602171  0.208641  1
  H  H11  1  0.127729  0.662358  0.092564  1
  H  H12  1  0.193184  0.920292  0.244583  1
  H  H13  1  0.364071  0.623385  0.591122  1
  H  H14  1  0.373949  0.872064  0.588464  1
  H  H15  1  0.453713  0.742994  0.701683  1
  H  H16  1  0.313491  0.920754  0.347741  1
  H  H17  1  0.347054  0.523104  0.361322  1
  H  H18  1  0.319302  0.365519  0.272436  1
  H  H19  1  0.546287  0.242994  0.798317  1
  H  H20  1  0.626051  0.372064  0.911536  1
  H  H21  1  0.635929  0.123385  0.908878  1
  H  H22  1  0.364071  0.876615  0.091122  1
  H  H23  1  0.373949  0.627936  0.088464  1
  H  H24  1  0.453713  0.757006  0.201683  1
  H  H25  1  0.680698  0.634481  0.727564  1
  H  H26  1  0.652946  0.476896  0.638678  1
  H  H27  1  0.686509  0.079246  0.652259  1
  H  H28  1  0.546287  0.257006  0.298317  1
  H  H29  1  0.626051  0.127936  0.411536  1
  H  H30  1  0.635929  0.376615  0.408878  1
  H  H31  1  0.806816  0.079708  0.755417  1
  H  H32  1  0.872271  0.337642  0.907436  1
  H  H33  1  0.852964  0.397829  0.791359  1
  H  H34  1  0.680698  0.865519  0.227564  1
  H  H35  1  0.652946  0.023104  0.138678  1
  H  H36  1  0.686509  0.420754  0.152259  1
  H  H37  1  0.806816  0.420292  0.255417  1
  H  H38  1  0.872271  0.162358  0.407436  1
  H  H39  1  0.852964  0.102171  0.291359  1
  S  S40  1  0.015618  0.752286  0.895090  1
  S  S41  1  0.015618  0.747714  0.395090  1
  S  S42  1  0.427877  0.243825  0.596617  1
  S  S43  1  0.572123  0.743825  0.903383  1
  S  S44  1  0.427877  0.256175  0.096617  1
  S  S45  1  0.572123  0.756175  0.403383  1
  S  S46  1  0.984382  0.252286  0.604910  1
  S  S47  1  0.984382  0.247714  0.104910  1
  O  O48  1  0.080709  0.939951  0.908401  1
  O  O49  1  0.109580  0.605484  0.958106  1
  O  O50  1  0.028916  0.194290  0.716838  1
  O  O51  1  0.107022  0.799643  0.654829  1
  O  O52  1  0.092463  0.260496  0.567655  1
  O  O53  1  0.242307  0.498725  0.804774  1
  O  O54  1  0.080709  0.560049  0.408401  1
  O  O55  1  0.109580  0.894516  0.458106  1
  O  O56  1  0.281894  0.067999  0.818264  1
  O  O57  1  0.028916  0.305710  0.216838  1
  O  O58  1  0.107022  0.700357  0.154829  1
  O  O59  1  0.444399  0.767126  0.907486  1
  O  O60  1  0.092463  0.239504  0.067655  1
  O  O61  1  0.375320  0.750564  0.631088  1
  O  O62  1  0.344477  0.411964  0.548252  1
  O  O63  1  0.242307  0.001275  0.304774  1
  O  O64  1  0.360072  0.073996  0.532971  1
  O  O65  1  0.434960  0.215651  0.707523  1
  O  O66  1  0.281894  0.432001  0.318264  1
  O  O67  1  0.565040  0.715651  0.792477  1
  O  O68  1  0.639928  0.573996  0.967029  1
  O  O69  1  0.655523  0.911964  0.951748  1
  O  O70  1  0.624680  0.250564  0.868912  1
  O  O71  1  0.444399  0.732874  0.407486  1
  O  O72  1  0.555601  0.267126  0.592514  1
  O  O73  1  0.375320  0.749436  0.131088  1
  O  O74  1  0.344477  0.088036  0.048252  1
  O  O75  1  0.360072  0.426004  0.032971  1
  O  O76  1  0.434960  0.284349  0.207523  1
  O  O77  1  0.718106  0.567999  0.681736  1
  O  O78  1  0.565040  0.784349  0.292477  1
  O  O79  1  0.639928  0.926004  0.467029  1
  O  O80  1  0.757693  0.998725  0.695226  1
  O  O81  1  0.655523  0.588036  0.451748  1
  O  O82  1  0.624680  0.249436  0.368912  1
  O  O83  1  0.907537  0.760496  0.932345  1
  O  O84  1  0.555601  0.232874  0.092514  1
  O  O85  1  0.892978  0.299643  0.845171  1
  O  O86  1  0.971084  0.694290  0.783162  1
  O  O87  1  0.718106  0.932001  0.181736  1
  O  O88  1  0.890420  0.105484  0.541894  1
  O  O89  1  0.919291  0.439951  0.591599  1
  O  O90  1  0.757693  0.501275  0.195226  1
  O  O91  1  0.907537  0.739504  0.432345  1
  O  O92  1  0.892978  0.200357  0.345171  1
  O  O93  1  0.971084  0.805710  0.283162  1
  O  O94  1  0.890420  0.394516  0.041894  1
  O  O95  1  0.919291  0.060049  0.091599  1
