# generated using pymatgen
data_Li4V2Co3Sn3O16
_symmetry_space_group_name_H-M   'P 1'
_cell_length_a   6.16470373
_cell_length_b   6.16470373
_cell_length_c   9.67047621
_cell_angle_alpha   89.49503142
_cell_angle_beta   90.50496858
_cell_angle_gamma   120.81666122
_symmetry_Int_Tables_number   1
_chemical_formula_structural   Li4V2Co3Sn3O16
_chemical_formula_sum   'Li4 V2 Co3 Sn3 O16'
_cell_volume   315.60767218
_cell_formula_units_Z   1
loop_
 _symmetry_equiv_pos_site_id
 _symmetry_equiv_pos_as_xyz
  1  'x, y, z'
loop_
 _atom_site_type_symbol
 _atom_site_label
 _atom_site_symmetry_multiplicity
 _atom_site_fract_x
 _atom_site_fract_y
 _atom_site_fract_z
 _atom_site_occupancy
  Li  Li0  1  0.683974  0.316026  0.901486  1
  Li  Li1  1  0.980925  0.019075  0.981677  1
  Li  Li2  1  0.989985  0.010015  0.501538  1
  Li  Li3  1  0.329651  0.670349  0.402197  1
  V  V4  1  0.675590  0.324410  0.498770  1
  V  V5  1  0.361583  0.638417  0.973021  1
  Co  Co6  1  0.822492  0.177508  0.216471  1
  Co  Co7  1  0.178193  0.340366  0.709321  1
  Co  Co8  1  0.659634  0.821807  0.709321  1
  Sn  Sn9  1  0.333765  0.173775  0.215349  1
  Sn  Sn10  1  0.826225  0.666235  0.215349  1
  Sn  Sn11  1  0.176302  0.823698  0.714982  1
  O  O12  1  0.358217  0.175213  0.588982  1
  O  O13  1  0.509664  0.490336  0.342029  1
  O  O14  1  0.662770  0.337230  0.101691  1
  O  O15  1  0.988634  0.011366  0.313621  1
  O  O16  1  0.001893  0.998107  0.792109  1
  O  O17  1  0.824787  0.641783  0.588982  1
  O  O18  1  0.515153  0.054302  0.354505  1
  O  O19  1  0.945698  0.484847  0.354505  1
  O  O20  1  0.145664  0.854336  0.093239  1
  O  O21  1  0.818125  0.181875  0.587116  1
  O  O22  1  0.055611  0.517744  0.854264  1
  O  O23  1  0.482256  0.944389  0.854264  1
  O  O24  1  0.337808  0.662192  0.605883  1
  O  O25  1  0.178143  0.360167  0.087278  1
  O  O26  1  0.489949  0.510051  0.861215  1
  O  O27  1  0.639833  0.821857  0.087278  1
