# generated using pymatgen
data_Na6CoO4
_symmetry_space_group_name_H-M   'P 1'
_cell_length_a   7.47943788
_cell_length_b   7.47943788
_cell_length_c   5.47547064
_cell_angle_alpha   90.00000000
_cell_angle_beta   90.00000000
_cell_angle_gamma   90.00000000
_symmetry_Int_Tables_number   1
_chemical_formula_structural   Na6CoO4
_chemical_formula_sum   'Na12 Co2 O8'
_cell_volume   306.30872886
_cell_formula_units_Z   2
loop_
 _symmetry_equiv_pos_site_id
 _symmetry_equiv_pos_as_xyz
  1  'x, y, z'
loop_
 _atom_site_type_symbol
 _atom_site_label
 _atom_site_symmetry_multiplicity
 _atom_site_fract_x
 _atom_site_fract_y
 _atom_site_fract_z
 _atom_site_occupancy
  Na  Na0  1  0.287243  0.287243  0.500000  1
  Na  Na1  1  0.712757  0.287243  0.500000  1
  Na  Na2  1  0.000000  0.500000  0.411326  1
  Na  Na3  1  0.000000  0.500000  0.911326  1
  Na  Na4  1  0.287243  0.712757  0.500000  1
  Na  Na5  1  0.712757  0.712757  0.500000  1
  Na  Na6  1  0.787243  0.787243  0.000000  1
  Na  Na7  1  0.212757  0.787243  0.000000  1
  Na  Na8  1  0.500000  0.000000  0.088674  1
  Na  Na9  1  0.500000  0.000000  0.588674  1
  Na  Na10  1  0.787243  0.212757  0.000000  1
  Na  Na11  1  0.212757  0.212757  0.000000  1
  Co  Co12  1  0.500000  0.500000  0.000000  1
  Co  Co13  1  0.000000  0.000000  0.500000  1
  O  O14  1  0.000000  0.244733  0.679674  1
  O  O15  1  0.744733  0.500000  0.179674  1
  O  O16  1  0.255267  0.500000  0.179674  1
  O  O17  1  0.000000  0.755267  0.679674  1
  O  O18  1  0.500000  0.744733  0.820326  1
  O  O19  1  0.755267  0.000000  0.320326  1
  O  O20  1  0.244733  0.000000  0.320326  1
  O  O21  1  0.500000  0.255267  0.820326  1
