# generated using pymatgen
data_Fe5(O4F)2
_symmetry_space_group_name_H-M   'P 1'
_cell_length_a   5.54888094
_cell_length_b   4.66041978
_cell_length_c   12.93551275
_cell_angle_alpha   90.00000000
_cell_angle_beta   101.76913243
_cell_angle_gamma   90.00000000
_symmetry_Int_Tables_number   1
_chemical_formula_structural   Fe5(O4F)2
_chemical_formula_sum   'Fe10 O16 F4'
_cell_volume   327.48149566
_cell_formula_units_Z   2
loop_
 _symmetry_equiv_pos_site_id
 _symmetry_equiv_pos_as_xyz
  1  'x, y, z'
loop_
 _atom_site_type_symbol
 _atom_site_label
 _atom_site_symmetry_multiplicity
 _atom_site_fract_x
 _atom_site_fract_y
 _atom_site_fract_z
 _atom_site_occupancy
  Fe  Fe0  1  0.840415  0.502356  0.402478  1
  Fe  Fe1  1  0.244897  0.472802  0.993766  1
  Fe  Fe2  1  0.034956  0.477068  0.196004  1
  Fe  Fe3  1  0.438226  0.514116  0.795552  1
  Fe  Fe4  1  0.641505  0.527823  0.598410  1
  Fe  Fe5  1  0.755103  0.972802  0.006234  1
  Fe  Fe6  1  0.159585  0.002356  0.597522  1
  Fe  Fe7  1  0.561774  0.014116  0.204448  1
  Fe  Fe8  1  0.965044  0.977068  0.803996  1
  Fe  Fe9  1  0.358495  0.027823  0.401590  1
  O  O10  1  0.801251  0.797041  0.145146  1
  O  O11  1  0.402263  0.819311  0.530761  1
  O  O12  1  0.204848  0.810412  0.732867  1
  O  O13  1  0.602173  0.819089  0.340788  1
  O  O14  1  0.005004  0.792032  0.941763  1
  O  O15  1  0.503330  0.683294  0.935976  1
  O  O16  1  0.704884  0.696583  0.737669  1
  O  O17  1  0.906140  0.699418  0.542030  1
  O  O18  1  0.994996  0.292032  0.058237  1
  O  O19  1  0.397827  0.319089  0.659212  1
  O  O20  1  0.795152  0.310412  0.267133  1
  O  O21  1  0.597737  0.319311  0.469239  1
  O  O22  1  0.198749  0.297041  0.854854  1
  O  O23  1  0.295116  0.196583  0.262331  1
  O  O24  1  0.093860  0.199418  0.457970  1
  O  O25  1  0.496670  0.183294  0.064024  1
  F  F26  1  0.108188  0.698601  0.338496  1
  F  F27  1  0.304725  0.690056  0.140082  1
  F  F28  1  0.695275  0.190056  0.859918  1
  F  F29  1  0.891812  0.198601  0.661504  1
