# generated using pymatgen
data_TbTmO3
_symmetry_space_group_name_H-M   'P 1'
_cell_length_a   5.65550201
_cell_length_b   5.92657082
_cell_length_c   8.33553242
_cell_angle_alpha   90.00000000
_cell_angle_beta   90.00000000
_cell_angle_gamma   90.00000000
_symmetry_Int_Tables_number   1
_chemical_formula_structural   TbTmO3
_chemical_formula_sum   'Tb4 Tm4 O12'
_cell_volume   279.38815161
_cell_formula_units_Z   4
loop_
 _symmetry_equiv_pos_site_id
 _symmetry_equiv_pos_as_xyz
  1  'x, y, z'
loop_
 _atom_site_type_symbol
 _atom_site_label
 _atom_site_symmetry_multiplicity
 _atom_site_fract_x
 _atom_site_fract_y
 _atom_site_fract_z
 _atom_site_occupancy
  Tb  Tb0  1  0.016652  0.945595  0.750000  1
  Tb  Tb1  1  0.483348  0.445595  0.750000  1
  Tb  Tb2  1  0.516652  0.554405  0.250000  1
  Tb  Tb3  1  0.983348  0.054405  0.250000  1
  Tm  Tm4  1  0.000000  0.500000  0.000000  1
  Tm  Tm5  1  0.000000  0.500000  0.500000  1
  Tm  Tm6  1  0.500000  0.000000  0.000000  1
  Tm  Tm7  1  0.500000  0.000000  0.500000  1
  O  O8  1  0.143758  0.426830  0.250000  1
  O  O9  1  0.182796  0.186309  0.575309  1
  O  O10  1  0.182796  0.186309  0.924691  1
  O  O11  1  0.317204  0.686309  0.924691  1
  O  O12  1  0.317204  0.686309  0.575309  1
  O  O13  1  0.356242  0.926830  0.250000  1
  O  O14  1  0.643758  0.073170  0.750000  1
  O  O15  1  0.682796  0.313691  0.424691  1
  O  O16  1  0.682796  0.313691  0.075309  1
  O  O17  1  0.817204  0.813691  0.075309  1
  O  O18  1  0.817204  0.813691  0.424691  1
  O  O19  1  0.856242  0.573170  0.750000  1
