# generated using pymatgen
data_LiMn5O8
_symmetry_space_group_name_H-M   'P 1'
_cell_length_a   8.52340556
_cell_length_b   8.52340556
_cell_length_c   8.52340556
_cell_angle_alpha   90.00000000
_cell_angle_beta   90.00000000
_cell_angle_gamma   90.00000000
_symmetry_Int_Tables_number   1
_chemical_formula_structural   LiMn5O8
_chemical_formula_sum   'Li4 Mn20 O32'
_cell_volume   619.21213659
_cell_formula_units_Z   4
loop_
 _symmetry_equiv_pos_site_id
 _symmetry_equiv_pos_as_xyz
  1  'x, y, z'
loop_
 _atom_site_type_symbol
 _atom_site_label
 _atom_site_symmetry_multiplicity
 _atom_site_fract_x
 _atom_site_fract_y
 _atom_site_fract_z
 _atom_site_occupancy
  Li  Li0  1  0.625000  0.375000  0.875000  1
  Li  Li1  1  0.875000  0.625000  0.375000  1
  Li  Li2  1  0.125000  0.125000  0.125000  1
  Li  Li3  1  0.375000  0.875000  0.625000  1
  Mn  Mn4  1  0.501046  0.501046  0.501046  1
  Mn  Mn5  1  0.498954  0.001046  0.998954  1
  Mn  Mn6  1  0.626625  0.623375  0.125000  1
  Mn  Mn7  1  0.623375  0.125000  0.626625  1
  Mn  Mn8  1  0.625000  0.873375  0.376625  1
  Mn  Mn9  1  0.748954  0.748954  0.748954  1
  Mn  Mn10  1  0.751046  0.251046  0.248954  1
  Mn  Mn11  1  0.876625  0.875000  0.126625  1
  Mn  Mn12  1  0.875000  0.126625  0.876625  1
  Mn  Mn13  1  0.873375  0.376625  0.625000  1
  Mn  Mn14  1  0.998954  0.498954  0.001046  1
  Mn  Mn15  1  0.001046  0.998954  0.498954  1
  Mn  Mn16  1  0.125000  0.626625  0.623375  1
  Mn  Mn17  1  0.126625  0.876625  0.875000  1
  Mn  Mn18  1  0.123375  0.375000  0.373375  1
  Mn  Mn19  1  0.248954  0.751046  0.251046  1
  Mn  Mn20  1  0.251046  0.248954  0.751046  1
  Mn  Mn21  1  0.376625  0.625000  0.873375  1
  Mn  Mn22  1  0.373375  0.123375  0.375000  1
  Mn  Mn23  1  0.375000  0.373375  0.123375  1
  O  O24  1  0.626167  0.891018  0.605089  1
  O  O25  1  0.638344  0.861656  0.138344  1
  O  O26  1  0.644911  0.358982  0.623833  1
  O  O27  1  0.605089  0.626167  0.891018  1
  O  O28  1  0.608982  0.394911  0.126167  1
  O  O29  1  0.623833  0.644911  0.358982  1
  O  O30  1  0.641018  0.123833  0.855089  1
  O  O31  1  0.611656  0.111656  0.388344  1
  O  O32  1  0.891018  0.605089  0.626167  1
  O  O33  1  0.888344  0.888344  0.888344  1
  O  O34  1  0.855089  0.641018  0.123833  1
  O  O35  1  0.858982  0.876167  0.355089  1
  O  O36  1  0.861656  0.138344  0.638344  1
  O  O37  1  0.876167  0.355089  0.858982  1
  O  O38  1  0.873833  0.108982  0.105089  1
  O  O39  1  0.894911  0.373833  0.391018  1
  O  O40  1  0.138344  0.638344  0.861656  1
  O  O41  1  0.123833  0.855089  0.641018  1
  O  O42  1  0.105089  0.873833  0.108982  1
  O  O43  1  0.108982  0.105089  0.873833  1
  O  O44  1  0.126167  0.608982  0.394911  1
  O  O45  1  0.144911  0.141018  0.376167  1
  O  O46  1  0.111656  0.388344  0.611656  1
  O  O47  1  0.141018  0.376167  0.144911  1
  O  O48  1  0.358982  0.623833  0.644911  1
  O  O49  1  0.388344  0.611656  0.111656  1
  O  O50  1  0.355089  0.858982  0.876167  1
  O  O51  1  0.394911  0.126167  0.608982  1
  O  O52  1  0.376167  0.144911  0.141018  1
  O  O53  1  0.391018  0.894911  0.373833  1
  O  O54  1  0.373833  0.391018  0.894911  1
  O  O55  1  0.361656  0.361656  0.361656  1
