# generated using pymatgen
data_Li3MnF6
_symmetry_space_group_name_H-M   'P 1'
_cell_length_a   8.71309456
_cell_length_b   5.57390928
_cell_length_c   9.80693382
_cell_angle_alpha   90.00000000
_cell_angle_beta   99.93131468
_cell_angle_gamma   90.00000000
_symmetry_Int_Tables_number   1
_chemical_formula_structural   Li3MnF6
_chemical_formula_sum   'Li12 Mn4 F24'
_cell_volume   469.14652683
_cell_formula_units_Z   4
loop_
 _symmetry_equiv_pos_site_id
 _symmetry_equiv_pos_as_xyz
  1  'x, y, z'
loop_
 _atom_site_type_symbol
 _atom_site_label
 _atom_site_symmetry_multiplicity
 _atom_site_fract_x
 _atom_site_fract_y
 _atom_site_fract_z
 _atom_site_occupancy
  Li  Li0  1  0.123967  0.010497  0.819711  1
  Li  Li1  1  0.123967  0.489503  0.319711  1
  Li  Li2  1  0.241877  0.637030  0.644212  1
  Li  Li3  1  0.241877  0.862970  0.144212  1
  Li  Li4  1  0.425179  0.083439  0.637021  1
  Li  Li5  1  0.425179  0.416561  0.137021  1
  Li  Li6  1  0.574821  0.583439  0.862979  1
  Li  Li7  1  0.574821  0.916561  0.362979  1
  Li  Li8  1  0.758123  0.137030  0.855788  1
  Li  Li9  1  0.758123  0.362970  0.355788  1
  Li  Li10  1  0.876033  0.510497  0.680289  1
  Li  Li11  1  0.876033  0.989503  0.180289  1
  Mn  Mn12  1  0.000000  0.000000  0.500000  1
  Mn  Mn13  1  0.000000  0.500000  0.000000  1
  Mn  Mn14  1  0.500000  0.500000  0.500000  1
  Mn  Mn15  1  0.500000  0.000000  0.000000  1
  F  F16  1  0.077235  0.638860  0.849585  1
  F  F17  1  0.077235  0.861140  0.349585  1
  F  F18  1  0.221858  0.513231  0.158351  1
  F  F19  1  0.009617  0.811695  0.078882  1
  F  F20  1  0.294724  0.378473  0.456223  1
  F  F21  1  0.221858  0.986769  0.658351  1
  F  F22  1  0.009617  0.688305  0.578882  1
  F  F23  1  0.416673  0.690149  0.980288  1
  F  F24  1  0.294724  0.121527  0.956223  1
  F  F25  1  0.437110  0.475854  0.701960  1
  F  F26  1  0.416673  0.809851  0.480288  1
  F  F27  1  0.437110  0.024146  0.201960  1
  F  F28  1  0.562890  0.975854  0.798040  1
  F  F29  1  0.583327  0.190149  0.519712  1
  F  F30  1  0.562890  0.524146  0.298040  1
  F  F31  1  0.705276  0.878473  0.043777  1
  F  F32  1  0.583327  0.309851  0.019712  1
  F  F33  1  0.990383  0.311695  0.421118  1
  F  F34  1  0.778142  0.013231  0.341649  1
  F  F35  1  0.705276  0.621527  0.543777  1
  F  F36  1  0.990383  0.188305  0.921118  1
  F  F37  1  0.778142  0.486769  0.841649  1
  F  F38  1  0.922765  0.138860  0.650415  1
  F  F39  1  0.922765  0.361140  0.150415  1
