# generated using pymatgen
data_Fe3(OF)2
_symmetry_space_group_name_H-M   'P 1'
_cell_length_a   5.68942544
_cell_length_b   5.89533022
_cell_length_c   5.95885730
_cell_angle_alpha   90.00000000
_cell_angle_beta   116.56814213
_cell_angle_gamma   90.00000000
_symmetry_Int_Tables_number   1
_chemical_formula_structural   Fe3(OF)2
_chemical_formula_sum   'Fe6 O4 F4'
_cell_volume   178.76101441
_cell_formula_units_Z   2
loop_
 _symmetry_equiv_pos_site_id
 _symmetry_equiv_pos_as_xyz
  1  'x, y, z'
loop_
 _atom_site_type_symbol
 _atom_site_label
 _atom_site_symmetry_multiplicity
 _atom_site_fract_x
 _atom_site_fract_y
 _atom_site_fract_z
 _atom_site_occupancy
  Fe  Fe0  1  0.500000  0.500000  0.000000  1
  Fe  Fe1  1  0.000000  0.000000  0.000000  1
  Fe  Fe2  1  0.721027  0.941896  0.352660  1
  Fe  Fe3  1  0.778973  0.441896  0.647340  1
  Fe  Fe4  1  0.221027  0.558104  0.352660  1
  Fe  Fe5  1  0.278973  0.058104  0.647340  1
  O  O6  1  0.569221  0.630372  0.331409  1
  O  O7  1  0.930779  0.130372  0.668591  1
  O  O8  1  0.069221  0.869628  0.331409  1
  O  O9  1  0.430779  0.369628  0.668591  1
  F  F10  1  0.914087  0.343532  0.144624  1
  F  F11  1  0.414087  0.156468  0.144624  1
  F  F12  1  0.585913  0.843532  0.855376  1
  F  F13  1  0.085913  0.656468  0.855376  1
