# generated using pymatgen
data_LiCu(PO3)3
_symmetry_space_group_name_H-M   'P 1'
_cell_length_a   7.97869415
_cell_length_b   8.79089279
_cell_length_c   12.39129337
_cell_angle_alpha   90.00000000
_cell_angle_beta   90.00000000
_cell_angle_gamma   90.00000000
_symmetry_Int_Tables_number   1
_chemical_formula_structural   LiCu(PO3)3
_chemical_formula_sum   'Li4 Cu4 P12 O36'
_cell_volume   869.12339480
_cell_formula_units_Z   4
loop_
 _symmetry_equiv_pos_site_id
 _symmetry_equiv_pos_as_xyz
  1  'x, y, z'
loop_
 _atom_site_type_symbol
 _atom_site_label
 _atom_site_symmetry_multiplicity
 _atom_site_fract_x
 _atom_site_fract_y
 _atom_site_fract_z
 _atom_site_occupancy
  Li  Li0  1  0.004215  0.363832  0.994709  1
  Li  Li1  1  0.495785  0.636168  0.494709  1
  Li  Li2  1  0.504215  0.136168  0.005291  1
  Li  Li3  1  0.995785  0.863832  0.505291  1
  Cu  Cu4  1  0.163266  0.207680  0.624472  1
  Cu  Cu5  1  0.336734  0.792320  0.124472  1
  Cu  Cu6  1  0.663266  0.292320  0.375528  1
  Cu  Cu7  1  0.836734  0.707680  0.875528  1
  P  P8  1  0.192457  0.002642  0.322342  1
  P  P9  1  0.170659  0.491105  0.189515  1
  P  P10  1  0.226602  0.681732  0.886525  1
  P  P11  1  0.273398  0.318268  0.386525  1
  P  P12  1  0.329341  0.508895  0.689515  1
  P  P13  1  0.307543  0.997358  0.822342  1
  P  P14  1  0.692457  0.497358  0.677658  1
  P  P15  1  0.670659  0.008895  0.810485  1
  P  P16  1  0.726602  0.818268  0.113475  1
  P  P17  1  0.773398  0.181732  0.613475  1
  P  P18  1  0.829341  0.991105  0.310485  1
  P  P19  1  0.807543  0.502642  0.177658  1
  O  O20  1  0.991972  0.578211  0.189049  1
  O  O21  1  0.060909  0.599226  0.893826  1
  O  O22  1  0.152953  0.399607  0.301583  1
  O  O23  1  0.200124  0.386433  0.708907  1
  O  O24  1  0.192951  0.845398  0.832139  1
  O  O25  1  0.235594  0.938206  0.213265  1
  O  O26  1  0.200998  0.908060  0.422476  1
  O  O27  1  0.184321  0.384232  0.096239  1
  O  O28  1  0.165577  0.300131  0.485423  1
  O  O29  1  0.334423  0.699869  0.985423  1
  O  O30  1  0.315679  0.615768  0.596239  1
  O  O31  1  0.299002  0.091940  0.922476  1
  O  O32  1  0.264406  0.061794  0.713265  1
  O  O33  1  0.307049  0.154602  0.332139  1
  O  O34  1  0.299876  0.613567  0.208907  1
  O  O35  1  0.347047  0.600393  0.801583  1
  O  O36  1  0.439091  0.400774  0.393826  1
  O  O37  1  0.508028  0.421789  0.689049  1
  O  O38  1  0.491972  0.921789  0.810951  1
  O  O39  1  0.560909  0.900774  0.106174  1
  O  O40  1  0.652953  0.100393  0.698417  1
  O  O41  1  0.700124  0.113567  0.291093  1
  O  O42  1  0.692951  0.654602  0.167861  1
  O  O43  1  0.735594  0.561794  0.786735  1
  O  O44  1  0.700998  0.591940  0.577524  1
  O  O45  1  0.684321  0.115768  0.903761  1
  O  O46  1  0.665577  0.199869  0.514577  1
  O  O47  1  0.834423  0.800131  0.014577  1
  O  O48  1  0.815679  0.884232  0.403761  1
  O  O49  1  0.799002  0.408060  0.077524  1
  O  O50  1  0.764406  0.438206  0.286735  1
  O  O51  1  0.807049  0.345398  0.667861  1
  O  O52  1  0.799876  0.886433  0.791093  1
  O  O53  1  0.847047  0.899607  0.198417  1
  O  O54  1  0.939091  0.099226  0.606174  1
  O  O55  1  0.008028  0.078211  0.310951  1
