# generated using pymatgen
data_Mn5OF11
_symmetry_space_group_name_H-M   'P 1'
_cell_length_a   5.53843634
_cell_length_b   5.79992508
_cell_length_c   9.33213737
_cell_angle_alpha   107.43100994
_cell_angle_beta   89.74192517
_cell_angle_gamma   115.41228386
_symmetry_Int_Tables_number   1
_chemical_formula_structural   Mn5OF11
_chemical_formula_sum   'Mn5 O1 F11'
_cell_volume   255.64249450
_cell_formula_units_Z   1
loop_
 _symmetry_equiv_pos_site_id
 _symmetry_equiv_pos_as_xyz
  1  'x, y, z'
loop_
 _atom_site_type_symbol
 _atom_site_label
 _atom_site_symmetry_multiplicity
 _atom_site_fract_x
 _atom_site_fract_y
 _atom_site_fract_z
 _atom_site_occupancy
  Mn  Mn0  1  0.995373  0.344170  0.670037  1
  Mn  Mn1  1  0.474728  0.107234  0.838540  1
  Mn  Mn2  1  0.766599  0.636155  0.928583  1
  Mn  Mn3  1  0.005984  0.684855  0.335121  1
  Mn  Mn4  1  0.505783  0.827676  0.159217  1
  O  O5  1  0.541911  0.811411  0.966696  1
  F  F6  1  0.049752  0.975950  0.805363  1
  F  F7  1  0.029862  0.361984  0.444037  1
  F  F8  1  0.054812  0.654441  0.131056  1
  F  F9  1  0.587714  0.519424  0.258105  1
  F  F10  1  0.576418  0.089313  0.666817  1
  F  F11  1  0.425155  0.856809  0.334309  1
  F  F12  1  0.492314  0.179344  0.036229  1
  F  F13  1  0.428544  0.446805  0.751165  1
  F  F14  1  0.898771  0.401490  0.858874  1
  F  F15  1  0.989948  0.711388  0.530160  1
  F  F16  1  0.940096  0.990225  0.231956  1
