# generated using pymatgen
data_Li2MnFe(PO4)2
_symmetry_space_group_name_H-M   'P 1'
_cell_length_a   4.77477674
_cell_length_b   6.12919548
_cell_length_c   10.50373916
_cell_angle_alpha   90.00000000
_cell_angle_beta   90.00000000
_cell_angle_gamma   90.00000000
_symmetry_Int_Tables_number   1
_chemical_formula_structural   Li2MnFe(PO4)2
_chemical_formula_sum   'Li4 Mn2 Fe2 P4 O16'
_cell_volume   307.39759875
_cell_formula_units_Z   2
loop_
 _symmetry_equiv_pos_site_id
 _symmetry_equiv_pos_as_xyz
  1  'x, y, z'
loop_
 _atom_site_type_symbol
 _atom_site_label
 _atom_site_symmetry_multiplicity
 _atom_site_fract_x
 _atom_site_fract_y
 _atom_site_fract_z
 _atom_site_occupancy
  Li  Li0  1  0.749811  0.748741  0.000212  1
  Li  Li1  1  0.749811  0.251259  0.000212  1
  Li  Li2  1  0.250189  0.748741  0.500212  1
  Li  Li3  1  0.250189  0.251259  0.500212  1
  Mn  Mn4  1  0.272414  0.000000  0.218556  1
  Mn  Mn5  1  0.727586  0.000000  0.718556  1
  Fe  Fe6  1  0.773940  0.500000  0.281556  1
  Fe  Fe7  1  0.226060  0.500000  0.781556  1
  P  P8  1  0.334259  0.500000  0.094132  1
  P  P9  1  0.831228  0.000000  0.406193  1
  P  P10  1  0.665741  0.500000  0.594132  1
  P  P11  1  0.168772  0.000000  0.906193  1
  O  O12  1  0.039932  0.000000  0.042167  1
  O  O13  1  0.012297  0.500000  0.097206  1
  O  O14  1  0.469661  0.700955  0.163947  1
  O  O15  1  0.469661  0.299045  0.163947  1
  O  O16  1  0.960771  0.202645  0.335298  1
  O  O17  1  0.960771  0.797355  0.335298  1
  O  O18  1  0.509612  0.000000  0.405013  1
  O  O19  1  0.544188  0.500000  0.456251  1
  O  O20  1  0.960068  0.000000  0.542167  1
  O  O21  1  0.987703  0.500000  0.597206  1
  O  O22  1  0.530339  0.700955  0.663947  1
  O  O23  1  0.530339  0.299045  0.663947  1
  O  O24  1  0.039229  0.202645  0.835298  1
  O  O25  1  0.039229  0.797355  0.835298  1
  O  O26  1  0.490388  0.000000  0.905013  1
  O  O27  1  0.455812  0.500000  0.956251  1
