# generated using pymatgen
data_Na3Fe2(PO4)3
_symmetry_space_group_name_H-M   'P 1'
_cell_length_a   9.08727980
_cell_length_b   9.08727980
_cell_length_c   9.08727980
_cell_angle_alpha   58.24421712
_cell_angle_beta   58.24421712
_cell_angle_gamma   58.24421712
_symmetry_Int_Tables_number   1
_chemical_formula_structural   Na3Fe2(PO4)3
_chemical_formula_sum   'Na6 Fe4 P6 O24'
_cell_volume   509.28094415
_cell_formula_units_Z   2
loop_
 _symmetry_equiv_pos_site_id
 _symmetry_equiv_pos_as_xyz
  1  'x, y, z'
loop_
 _atom_site_type_symbol
 _atom_site_label
 _atom_site_symmetry_multiplicity
 _atom_site_fract_x
 _atom_site_fract_y
 _atom_site_fract_z
 _atom_site_occupancy
  Na  Na0  1  0.249870  0.658980  0.909581  1
  Na  Na1  1  0.341020  0.090419  0.750130  1
  Na  Na2  1  0.090419  0.750130  0.341020  1
  Na  Na3  1  0.909581  0.249870  0.658980  1
  Na  Na4  1  0.658980  0.909581  0.249870  1
  Na  Na5  1  0.750130  0.341020  0.090419  1
  Fe  Fe6  1  0.148532  0.148532  0.148532  1
  Fe  Fe7  1  0.350335  0.350335  0.350335  1
  Fe  Fe8  1  0.649665  0.649665  0.649665  1
  Fe  Fe9  1  0.851468  0.851468  0.851468  1
  P  P10  1  0.036929  0.464935  0.751121  1
  P  P11  1  0.535065  0.248879  0.963071  1
  P  P12  1  0.248879  0.963071  0.535065  1
  P  P13  1  0.751121  0.036929  0.464935  1
  P  P14  1  0.464935  0.751121  0.036929  1
  P  P15  1  0.963071  0.535065  0.248879  1
  O  O16  1  0.238997  0.149707  0.516326  1
  O  O17  1  0.149707  0.516326  0.238997  1
  O  O18  1  0.012301  0.627881  0.782736  1
  O  O19  1  0.086053  0.278699  0.906850  1
  O  O20  1  0.516326  0.238997  0.149707  1
  O  O21  1  0.093150  0.913947  0.721301  1
  O  O22  1  0.372119  0.217264  0.987699  1
  O  O23  1  0.187044  0.457418  0.560743  1
  O  O24  1  0.542582  0.439257  0.812956  1
  O  O25  1  0.217264  0.987699  0.372119  1
  O  O26  1  0.721301  0.093150  0.913947  1
  O  O27  1  0.439257  0.812956  0.542582  1
  O  O28  1  0.560743  0.187044  0.457418  1
  O  O29  1  0.278699  0.906850  0.086053  1
  O  O30  1  0.782736  0.012301  0.627881  1
  O  O31  1  0.457418  0.560743  0.187044  1
  O  O32  1  0.812956  0.542582  0.439257  1
  O  O33  1  0.627881  0.782736  0.012301  1
  O  O34  1  0.906850  0.086053  0.278699  1
  O  O35  1  0.483674  0.761003  0.850293  1
  O  O36  1  0.913947  0.721301  0.093150  1
  O  O37  1  0.987699  0.372119  0.217264  1
  O  O38  1  0.850293  0.483674  0.761003  1
  O  O39  1  0.761003  0.850293  0.483674  1
