# generated using pymatgen
data_Er2P4O13
_symmetry_space_group_name_H-M   'P 1'
_cell_length_a   6.86152958
_cell_length_b   6.86152958
_cell_length_c   12.94670517
_cell_angle_alpha   76.01252286
_cell_angle_beta   103.98747714
_cell_angle_gamma   120.99577673
_symmetry_Int_Tables_number   1
_chemical_formula_structural   Er2P4O13
_chemical_formula_sum   'Er4 P8 O26'
_cell_volume   501.94560499
_cell_formula_units_Z   2
loop_
 _symmetry_equiv_pos_site_id
 _symmetry_equiv_pos_as_xyz
  1  'x, y, z'
loop_
 _atom_site_type_symbol
 _atom_site_label
 _atom_site_symmetry_multiplicity
 _atom_site_fract_x
 _atom_site_fract_y
 _atom_site_fract_z
 _atom_site_occupancy
  Er  Er0  1  0.303794  0.691637  0.948878  1
  Er  Er1  1  0.308363  0.696206  0.448878  1
  Er  Er2  1  0.691637  0.303794  0.551122  1
  Er  Er3  1  0.696206  0.308363  0.051122  1
  P  P4  1  0.862345  0.838721  0.866527  1
  P  P5  1  0.226903  0.760051  0.659551  1
  P  P6  1  0.838721  0.862345  0.633473  1
  P  P7  1  0.760051  0.226903  0.840449  1
  P  P8  1  0.239949  0.773097  0.159551  1
  P  P9  1  0.161279  0.137655  0.366527  1
  P  P10  1  0.773097  0.239949  0.340449  1
  P  P11  1  0.137655  0.161279  0.133473  1
  O  O12  1  0.682973  0.672935  0.940891  1
  O  O13  1  0.102874  0.876872  0.896940  1
  O  O14  1  0.092539  0.898948  0.653044  1
  O  O15  1  0.123128  0.897126  0.396940  1
  O  O16  1  0.426229  0.924549  0.594526  1
  O  O17  1  0.101052  0.907461  0.153044  1
  O  O18  1  0.295211  0.693310  0.776629  1
  O  O19  1  0.924549  0.426229  0.905474  1
  O  O20  1  0.327065  0.317027  0.440891  1
  O  O21  1  0.074021  0.561565  0.593066  1
  O  O22  1  0.693310  0.295211  0.723371  1
  O  O23  1  0.438435  0.925979  0.093066  1
  O  O24  1  0.753561  0.753561  0.750000  1
  O  O25  1  0.561565  0.074021  0.906934  1
  O  O26  1  0.306690  0.704789  0.276629  1
  O  O27  1  0.925979  0.438435  0.406934  1
  O  O28  1  0.672935  0.682973  0.559109  1
  O  O29  1  0.075451  0.573771  0.094526  1
  O  O30  1  0.704789  0.306690  0.223371  1
  O  O31  1  0.898948  0.092539  0.846956  1
  O  O32  1  0.573771  0.075451  0.405474  1
  O  O33  1  0.876872  0.102874  0.603060  1
  O  O34  1  0.907461  0.101052  0.346956  1
  O  O35  1  0.246439  0.246439  0.250000  1
  O  O36  1  0.897126  0.123128  0.103060  1
  O  O37  1  0.317027  0.327065  0.059109  1
