# generated using pymatgen
data_Cs4GeO4
_symmetry_space_group_name_H-M   'P 1'
_cell_length_a   7.09125542
_cell_length_b   19.72817530
_cell_length_c   7.11213519
_cell_angle_alpha   90.00000000
_cell_angle_beta   113.12783376
_cell_angle_gamma   90.00000000
_symmetry_Int_Tables_number   1
_chemical_formula_structural   Cs4GeO4
_chemical_formula_sum   'Cs16 Ge4 O16'
_cell_volume   915.00518680
_cell_formula_units_Z   4
loop_
 _symmetry_equiv_pos_site_id
 _symmetry_equiv_pos_as_xyz
  1  'x, y, z'
loop_
 _atom_site_type_symbol
 _atom_site_label
 _atom_site_symmetry_multiplicity
 _atom_site_fract_x
 _atom_site_fract_y
 _atom_site_fract_z
 _atom_site_occupancy
  Cs  Cs0  1  0.180441  0.810015  0.178065  1
  Cs  Cs1  1  0.215326  0.014564  0.254222  1
  Cs  Cs2  1  0.309257  0.215056  0.328285  1
  Cs  Cs3  1  0.339027  0.420163  0.282458  1
  Cs  Cs4  1  0.180441  0.689985  0.678065  1
  Cs  Cs5  1  0.215326  0.485436  0.754222  1
  Cs  Cs6  1  0.309257  0.284944  0.828285  1
  Cs  Cs7  1  0.339027  0.079837  0.782458  1
  Cs  Cs8  1  0.660973  0.920163  0.217542  1
  Cs  Cs9  1  0.690743  0.715056  0.171715  1
  Cs  Cs10  1  0.784674  0.514564  0.245778  1
  Cs  Cs11  1  0.819559  0.310015  0.321935  1
  Cs  Cs12  1  0.660973  0.579837  0.717542  1
  Cs  Cs13  1  0.690743  0.784944  0.671715  1
  Cs  Cs14  1  0.784674  0.985436  0.745778  1
  Cs  Cs15  1  0.819559  0.189985  0.821935  1
  Ge  Ge16  1  0.258591  0.623494  0.204426  1
  Ge  Ge17  1  0.258591  0.876506  0.704426  1
  Ge  Ge18  1  0.741409  0.123494  0.295574  1
  Ge  Ge19  1  0.741409  0.376506  0.795574  1
  O  O20  1  0.019857  0.662349  0.039746  1
  O  O21  1  0.216535  0.555772  0.353723  1
  O  O22  1  0.019857  0.837651  0.539746  1
  O  O23  1  0.216535  0.944228  0.853723  1
  O  O24  1  0.422150  0.685621  0.385799  1
  O  O25  1  0.397564  0.595022  0.051887  1
  O  O26  1  0.602436  0.095022  0.448113  1
  O  O27  1  0.422150  0.814379  0.885799  1
  O  O28  1  0.577850  0.185621  0.114201  1
  O  O29  1  0.397564  0.904978  0.551887  1
  O  O30  1  0.602436  0.404978  0.948113  1
  O  O31  1  0.577850  0.314379  0.614201  1
  O  O32  1  0.783465  0.055772  0.146277  1
  O  O33  1  0.980143  0.162349  0.460254  1
  O  O34  1  0.783465  0.444228  0.646277  1
  O  O35  1  0.980143  0.337651  0.960254  1
