# generated using pymatgen
data_V2(OF)3
_symmetry_space_group_name_H-M   'P 1'
_cell_length_a   5.18642808
_cell_length_b   5.20032110
_cell_length_c   13.24879982
_cell_angle_alpha   91.45756111
_cell_angle_beta   89.31618002
_cell_angle_gamma   119.43582260
_symmetry_Int_Tables_number   1
_chemical_formula_structural   V2(OF)3
_chemical_formula_sum   'V6 O9 F9'
_cell_volume   311.10433586
_cell_formula_units_Z   3
loop_
 _symmetry_equiv_pos_site_id
 _symmetry_equiv_pos_as_xyz
  1  'x, y, z'
loop_
 _atom_site_type_symbol
 _atom_site_label
 _atom_site_symmetry_multiplicity
 _atom_site_fract_x
 _atom_site_fract_y
 _atom_site_fract_z
 _atom_site_occupancy
  V  V0  1  0.045905  0.989337  0.500230  1
  V  V1  1  0.961122  0.969773  0.991168  1
  V  V2  1  0.659452  0.307572  0.160798  1
  V  V3  1  0.367834  0.698304  0.319301  1
  V  V4  1  0.692249  0.332629  0.659623  1
  V  V5  1  0.301251  0.682001  0.832193  1
  O  O6  1  0.415443  0.992579  0.253566  1
  O  O7  1  0.323724  0.086164  0.582312  1
  O  O8  1  0.011183  0.585986  0.754304  1
  O  O9  1  0.750532  0.096526  0.085502  1
  O  O10  1  0.085145  0.756291  0.418953  1
  O  O11  1  0.568662  0.577145  0.253354  1
  O  O12  1  0.899627  0.247751  0.583067  1
  O  O13  1  0.256340  0.905474  0.917129  1
  O  O14  1  0.673086  0.754993  0.916680  1
  F  F15  1  0.997199  0.414879  0.257433  1
  F  F16  1  0.086372  0.339555  0.916087  1
  F  F17  1  0.325577  0.255622  0.082620  1
  F  F18  1  0.237081  0.324808  0.419498  1
  F  F19  1  0.591208  0.996043  0.752229  1
  F  F20  1  0.426688  0.420303  0.752307  1
  F  F21  1  0.743794  0.679493  0.583174  1
  F  F22  1  0.926276  0.677309  0.088585  1
  F  F23  1  0.654253  0.909465  0.419886  1
