# generated using pymatgen
data_TiMn(PO4)2
_symmetry_space_group_name_H-M   'P 1'
_cell_length_a   8.68042145
_cell_length_b   8.68042145
_cell_length_c   8.68042145
_cell_angle_alpha   60.12512594
_cell_angle_beta   60.12512594
_cell_angle_gamma   60.12512594
_symmetry_Int_Tables_number   1
_chemical_formula_structural   TiMn(PO4)2
_chemical_formula_sum   'Ti3 Mn3 P6 O24'
_cell_volume   463.80644277
_cell_formula_units_Z   3
loop_
 _symmetry_equiv_pos_site_id
 _symmetry_equiv_pos_as_xyz
  1  'x, y, z'
loop_
 _atom_site_type_symbol
 _atom_site_label
 _atom_site_symmetry_multiplicity
 _atom_site_fract_x
 _atom_site_fract_y
 _atom_site_fract_z
 _atom_site_occupancy
  Ti  Ti0  1  0.646287  0.646287  0.646287  1
  Ti  Ti1  1  0.855396  0.855396  0.855396  1
  Ti  Ti2  1  0.352598  0.352598  0.352598  1
  Mn  Mn3  1  0.002999  0.002999  0.002999  1
  Mn  Mn4  1  0.145786  0.145786  0.145786  1
  Mn  Mn5  1  0.500782  0.500782  0.500782  1
  P  P6  1  0.952197  0.248077  0.547646  1
  P  P7  1  0.547646  0.952197  0.248077  1
  P  P8  1  0.248077  0.547646  0.952197  1
  P  P9  1  0.745006  0.459389  0.043957  1
  P  P10  1  0.459389  0.043957  0.745006  1
  P  P11  1  0.043957  0.745006  0.459389  1
  O  O12  1  0.498719  0.121453  0.305632  1
  O  O13  1  0.305632  0.498719  0.121453  1
  O  O14  1  0.121453  0.305632  0.498719  1
  O  O15  1  0.938993  0.086794  0.742796  1
  O  O16  1  0.977960  0.192349  0.396621  1
  O  O17  1  0.760965  0.414420  0.573362  1
  O  O18  1  0.742796  0.938993  0.086794  1
  O  O19  1  0.573362  0.760965  0.414420  1
  O  O20  1  0.808057  0.621901  0.998582  1
  O  O21  1  0.414420  0.573362  0.760965  1
  O  O22  1  0.901436  0.269353  0.050419  1
  O  O23  1  0.621901  0.998582  0.808057  1
  O  O24  1  0.396621  0.977960  0.192349  1
  O  O25  1  0.086794  0.742796  0.938993  1
  O  O26  1  0.580196  0.449052  0.236034  1
  O  O27  1  0.192349  0.396621  0.977960  1
  O  O28  1  0.449052  0.236034  0.580196  1
  O  O29  1  0.269353  0.050419  0.901436  1
  O  O30  1  0.236034  0.580196  0.449052  1
  O  O31  1  0.998582  0.808057  0.621901  1
  O  O32  1  0.050419  0.901436  0.269353  1
  O  O33  1  0.886254  0.671999  0.516522  1
  O  O34  1  0.671999  0.516522  0.886254  1
  O  O35  1  0.516522  0.886254  0.671999  1
