# generated using pymatgen
data_Li3V(OF)2
_symmetry_space_group_name_H-M   'P 1'
_cell_length_a   5.01006188
_cell_length_b   5.97059158
_cell_length_c   5.11767737
_cell_angle_alpha   90.00000000
_cell_angle_beta   107.76067125
_cell_angle_gamma   90.00000000
_symmetry_Int_Tables_number   1
_chemical_formula_structural   Li3V(OF)2
_chemical_formula_sum   'Li6 V2 O4 F4'
_cell_volume   145.78905766
_cell_formula_units_Z   2
loop_
 _symmetry_equiv_pos_site_id
 _symmetry_equiv_pos_as_xyz
  1  'x, y, z'
loop_
 _atom_site_type_symbol
 _atom_site_label
 _atom_site_symmetry_multiplicity
 _atom_site_fract_x
 _atom_site_fract_y
 _atom_site_fract_z
 _atom_site_occupancy
  Li  Li0  1  0.250000  0.114687  0.500000  1
  Li  Li1  1  0.250000  0.641396  0.500000  1
  Li  Li2  1  0.250000  0.375080  0.000000  1
  Li  Li3  1  0.750000  0.358604  0.500000  1
  Li  Li4  1  0.750000  0.885313  0.500000  1
  Li  Li5  1  0.750000  0.624920  0.000000  1
  V  V6  1  0.250000  0.901643  0.000000  1
  V  V7  1  0.750000  0.098357  0.000000  1
  O  O8  1  0.003604  0.870780  0.237143  1
  O  O9  1  0.496396  0.870780  0.762857  1
  O  O10  1  0.503604  0.129220  0.237143  1
  O  O11  1  0.996396  0.129220  0.762857  1
  F  F12  1  0.007335  0.628676  0.755038  1
  F  F13  1  0.507335  0.371324  0.755038  1
  F  F14  1  0.492665  0.628676  0.244962  1
  F  F15  1  0.992665  0.371324  0.244962  1
