# generated using pymatgen
data_Sr(CdAs)2
_symmetry_space_group_name_H-M   'P 1'
_cell_length_a   4.52589245
_cell_length_b   4.52589245
_cell_length_c   7.49663506
_cell_angle_alpha   90.00000000
_cell_angle_beta   90.00000000
_cell_angle_gamma   120.00000000
_symmetry_Int_Tables_number   1
_chemical_formula_structural   Sr(CdAs)2
_chemical_formula_sum   'Sr1 Cd2 As2'
_cell_volume   132.98585839
_cell_formula_units_Z   1
loop_
 _symmetry_equiv_pos_site_id
 _symmetry_equiv_pos_as_xyz
  1  'x, y, z'
loop_
 _atom_site_type_symbol
 _atom_site_label
 _atom_site_symmetry_multiplicity
 _atom_site_fract_x
 _atom_site_fract_y
 _atom_site_fract_z
 _atom_site_occupancy
  Sr  Sr0  1  0.000000  0.000000  0.000000  1
  Cd  Cd1  1  0.333333  0.666667  0.632489  1
  Cd  Cd2  1  0.666667  0.333333  0.367511  1
  As  As3  1  0.666667  0.333333  0.750418  1
  As  As4  1  0.333333  0.666667  0.249582  1
