# generated using pymatgen
data_Li2MnF6
_symmetry_space_group_name_H-M   'P 1'
_cell_length_a   6.81025280
_cell_length_b   6.81025280
_cell_length_c   7.75365990
_cell_angle_alpha   86.96720704
_cell_angle_beta   93.03279296
_cell_angle_gamma   45.61746023
_symmetry_Int_Tables_number   1
_chemical_formula_structural   Li2MnF6
_chemical_formula_sum   'Li4 Mn2 F12'
_cell_volume   254.60414588
_cell_formula_units_Z   2
loop_
 _symmetry_equiv_pos_site_id
 _symmetry_equiv_pos_as_xyz
  1  'x, y, z'
loop_
 _atom_site_type_symbol
 _atom_site_label
 _atom_site_symmetry_multiplicity
 _atom_site_fract_x
 _atom_site_fract_y
 _atom_site_fract_z
 _atom_site_occupancy
  Li  Li0  1  0.285673  0.266878  0.552506  1
  Li  Li1  1  0.266878  0.285673  0.947494  1
  Li  Li2  1  0.733122  0.714327  0.052506  1
  Li  Li3  1  0.714327  0.733122  0.447494  1
  Mn  Mn4  1  0.129080  0.129080  0.250000  1
  Mn  Mn5  1  0.870920  0.870920  0.750000  1
  F  F6  1  0.817906  0.251935  0.313947  1
  F  F7  1  0.460190  0.019453  0.178245  1
  F  F8  1  0.327795  0.963118  0.471549  1
  F  F9  1  0.963118  0.327795  0.028451  1
  F  F10  1  0.019453  0.460190  0.321755  1
  F  F11  1  0.251935  0.817906  0.186053  1
  F  F12  1  0.748065  0.182094  0.813947  1
  F  F13  1  0.980547  0.539810  0.678245  1
  F  F14  1  0.036882  0.672205  0.971549  1
  F  F15  1  0.672205  0.036882  0.528451  1
  F  F16  1  0.539810  0.980547  0.821755  1
  F  F17  1  0.182094  0.748065  0.686053  1
