# generated using pymatgen
data_SrCrO3
_symmetry_space_group_name_H-M   'P 1'
_cell_length_a   5.55537502
_cell_length_b   5.55537502
_cell_length_c   13.68560695
_cell_angle_alpha   90.00000000
_cell_angle_beta   90.00000000
_cell_angle_gamma   120.28366951
_symmetry_Int_Tables_number   1
_chemical_formula_structural   SrCrO3
_chemical_formula_sum   'Sr6 Cr6 O18'
_cell_volume   364.73122245
_cell_formula_units_Z   6
loop_
 _symmetry_equiv_pos_site_id
 _symmetry_equiv_pos_as_xyz
  1  'x, y, z'
loop_
 _atom_site_type_symbol
 _atom_site_label
 _atom_site_symmetry_multiplicity
 _atom_site_fract_x
 _atom_site_fract_y
 _atom_site_fract_z
 _atom_site_occupancy
  Sr  Sr0  1  0.666535  0.332703  0.907011  1
  Sr  Sr1  1  0.003331  0.003136  0.750000  1
  Sr  Sr2  1  0.003136  0.003331  0.250000  1
  Sr  Sr3  1  0.666535  0.332703  0.592989  1
  Sr  Sr4  1  0.332703  0.666535  0.407011  1
  Sr  Sr5  1  0.332703  0.666535  0.092989  1
  Cr  Cr6  1  0.676306  0.339133  0.155087  1
  Cr  Cr7  1  0.005296  0.005296  1.000000  1
  Cr  Cr8  1  0.005296  0.005296  0.500000  1
  Cr  Cr9  1  0.676306  0.339133  0.344913  1
  Cr  Cr10  1  0.339133  0.676306  0.844913  1
  Cr  Cr11  1  0.339133  0.676306  0.655087  1
  O  O12  1  0.319225  0.158965  0.418906  1
  O  O13  1  0.319225  0.158965  0.081094  1
  O  O14  1  0.512850  0.030155  0.250000  1
  O  O15  1  0.825165  0.163867  0.417581  1
  O  O16  1  0.825165  0.163867  0.082419  1
  O  O17  1  0.513952  0.485334  0.250000  1
  O  O18  1  0.984954  0.494162  0.250000  1
  O  O19  1  0.828420  0.667229  0.418588  1
  O  O20  1  0.828420  0.667229  0.081412  1
  O  O21  1  0.158965  0.319225  0.918906  1
  O  O22  1  0.158965  0.319225  0.581094  1
  O  O23  1  0.030155  0.512850  0.750000  1
  O  O24  1  0.485334  0.513952  0.750000  1
  O  O25  1  0.163867  0.825165  0.917581  1
  O  O26  1  0.163867  0.825165  0.582419  1
  O  O27  1  0.494162  0.984954  0.750000  1
  O  O28  1  0.667229  0.828420  0.581412  1
  O  O29  1  0.667229  0.828420  0.918588  1
