# generated using pymatgen
data_Li2CrCo3O8
_symmetry_space_group_name_H-M   'P 1'
_cell_length_a   8.12669642
_cell_length_b   8.12669642
_cell_length_c   8.14302730
_cell_angle_alpha   89.92239828
_cell_angle_beta   90.07760172
_cell_angle_gamma   90.13986931
_symmetry_Int_Tables_number   1
_chemical_formula_structural   Li2CrCo3O8
_chemical_formula_sum   'Li8 Cr4 Co12 O32'
_cell_volume   537.78895013
_cell_formula_units_Z   4
loop_
 _symmetry_equiv_pos_site_id
 _symmetry_equiv_pos_as_xyz
  1  'x, y, z'
loop_
 _atom_site_type_symbol
 _atom_site_label
 _atom_site_symmetry_multiplicity
 _atom_site_fract_x
 _atom_site_fract_y
 _atom_site_fract_z
 _atom_site_occupancy
  Li  Li0  1  0.996682  0.250797  0.374965  1
  Li  Li1  1  0.250797  0.996682  0.625035  1
  Li  Li2  1  0.249115  0.502635  0.124597  1
  Li  Li3  1  0.502635  0.249115  0.875403  1
  Li  Li4  1  0.499600  0.751550  0.377612  1
  Li  Li5  1  0.752739  0.001388  0.124350  1
  Li  Li6  1  0.751550  0.499600  0.622388  1
  Li  Li7  1  0.001388  0.752739  0.875650  1
  Cr  Cr8  1  0.123814  0.376765  0.752964  1
  Cr  Cr9  1  0.376765  0.123814  0.247036  1
  Cr  Cr10  1  0.628659  0.628659  0.000000  1
  Cr  Cr11  1  0.874178  0.874178  0.500000  1
  Co  Co12  1  0.123872  0.123872  0.000000  1
  Co  Co13  1  0.124340  0.873083  0.247395  1
  Co  Co14  1  0.125321  0.625493  0.497228  1
  Co  Co15  1  0.374644  0.874408  0.998950  1
  Co  Co16  1  0.375250  0.627798  0.749425  1
  Co  Co17  1  0.377102  0.377102  0.500000  1
  Co  Co18  1  0.622232  0.878458  0.749451  1
  Co  Co19  1  0.625493  0.125321  0.502772  1
  Co  Co20  1  0.627798  0.375250  0.250575  1
  Co  Co21  1  0.873083  0.124340  0.752605  1
  Co  Co22  1  0.874408  0.374644  0.001050  1
  Co  Co23  1  0.878458  0.622232  0.250549  1
  O  O24  1  0.108853  0.139084  0.765635  1
  O  O25  1  0.110792  0.361499  0.991064  1
  O  O26  1  0.112279  0.638693  0.264064  1
  O  O27  1  0.139084  0.108853  0.234365  1
  O  O28  1  0.123065  0.856459  0.479808  1
  O  O29  1  0.138204  0.889718  0.016885  1
  O  O30  1  0.135396  0.612396  0.732123  1
  O  O31  1  0.142117  0.392414  0.507640  1
  O  O32  1  0.361499  0.110792  0.008936  1
  O  O33  1  0.357779  0.887034  0.239111  1
  O  O34  1  0.359082  0.611235  0.511766  1
  O  O35  1  0.388789  0.636551  0.983574  1
  O  O36  1  0.362703  0.385514  0.731118  1
  O  O37  1  0.387984  0.861166  0.765822  1
  O  O38  1  0.392414  0.142117  0.492360  1
  O  O39  1  0.385514  0.362703  0.268882  1
  O  O40  1  0.612702  0.862104  0.986898  1
  O  O41  1  0.609856  0.641628  0.758719  1
  O  O42  1  0.611235  0.359082  0.488234  1
  O  O43  1  0.631184  0.893269  0.514799  1
  O  O44  1  0.612396  0.135396  0.267877  1
  O  O45  1  0.638693  0.112279  0.735936  1
  O  O46  1  0.636551  0.388789  0.016426  1
  O  O47  1  0.641628  0.609856  0.241281  1
  O  O48  1  0.860707  0.895385  0.744374  1
  O  O49  1  0.856459  0.123065  0.520192  1
  O  O50  1  0.861166  0.387984  0.234178  1
  O  O51  1  0.887034  0.357779  0.760889  1
  O  O52  1  0.862104  0.612702  0.013102  1
  O  O53  1  0.889718  0.138204  0.983115  1
  O  O54  1  0.895385  0.860707  0.255626  1
  O  O55  1  0.893269  0.631184  0.485201  1
