# generated using pymatgen
data_BaLaCl5
_symmetry_space_group_name_H-M   'P 1'
_cell_length_a   7.28437185
_cell_length_b   14.64532093
_cell_length_c   15.53248072
_cell_angle_alpha   90.00000000
_cell_angle_beta   90.00000000
_cell_angle_gamma   90.00000000
_symmetry_Int_Tables_number   1
_chemical_formula_structural   BaLaCl5
_chemical_formula_sum   'Ba8 La8 Cl40'
_cell_volume   1657.03554150
_cell_formula_units_Z   8
loop_
 _symmetry_equiv_pos_site_id
 _symmetry_equiv_pos_as_xyz
  1  'x, y, z'
loop_
 _atom_site_type_symbol
 _atom_site_label
 _atom_site_symmetry_multiplicity
 _atom_site_fract_x
 _atom_site_fract_y
 _atom_site_fract_z
 _atom_site_occupancy
  Ba  Ba0  1  0.750000  0.519912  0.101962  1
  Ba  Ba1  1  0.250000  0.814795  0.094694  1
  Ba  Ba2  1  0.750000  0.314795  0.405306  1
  Ba  Ba3  1  0.250000  0.019912  0.398038  1
  Ba  Ba4  1  0.750000  0.980088  0.601962  1
  Ba  Ba5  1  0.250000  0.685205  0.594694  1
  Ba  Ba6  1  0.750000  0.185205  0.905306  1
  Ba  Ba7  1  0.250000  0.480088  0.898038  1
  La  La8  1  0.250000  0.214988  0.104206  1
  La  La9  1  0.750000  0.034770  0.220434  1
  La  La10  1  0.250000  0.534770  0.279566  1
  La  La11  1  0.750000  0.714988  0.395794  1
  La  La12  1  0.250000  0.285012  0.604206  1
  La  La13  1  0.750000  0.465230  0.720434  1
  La  La14  1  0.250000  0.965230  0.779566  1
  La  La15  1  0.750000  0.785012  0.895794  1
  Cl  Cl16  1  0.988018  0.327806  0.025170  1
  Cl  Cl17  1  0.511982  0.327806  0.025170  1
  Cl  Cl18  1  0.750000  0.838370  0.073068  1
  Cl  Cl19  1  0.982447  0.077492  0.078162  1
  Cl  Cl20  1  0.517553  0.077492  0.078162  1
  Cl  Cl21  1  0.250000  0.516468  0.096351  1
  Cl  Cl22  1  0.986961  0.671656  0.223848  1
  Cl  Cl23  1  0.513039  0.671656  0.223848  1
  Cl  Cl24  1  0.975842  0.406615  0.245979  1
  Cl  Cl25  1  0.524158  0.406615  0.245979  1
  Cl  Cl26  1  0.475842  0.906615  0.254021  1
  Cl  Cl27  1  0.024158  0.906615  0.254021  1
  Cl  Cl28  1  0.486961  0.171656  0.276152  1
  Cl  Cl29  1  0.013039  0.171656  0.276152  1
  Cl  Cl30  1  0.750000  0.016468  0.403649  1
  Cl  Cl31  1  0.482447  0.577492  0.421838  1
  Cl  Cl32  1  0.017553  0.577492  0.421838  1
  Cl  Cl33  1  0.250000  0.338370  0.426932  1
  Cl  Cl34  1  0.488018  0.827806  0.474830  1
  Cl  Cl35  1  0.011982  0.827806  0.474830  1
  Cl  Cl36  1  0.988018  0.172194  0.525170  1
  Cl  Cl37  1  0.511982  0.172194  0.525170  1
  Cl  Cl38  1  0.750000  0.661630  0.573068  1
  Cl  Cl39  1  0.982447  0.422508  0.578162  1
  Cl  Cl40  1  0.517553  0.422508  0.578162  1
  Cl  Cl41  1  0.250000  0.983532  0.596351  1
  Cl  Cl42  1  0.986961  0.828344  0.723848  1
  Cl  Cl43  1  0.513039  0.828344  0.723848  1
  Cl  Cl44  1  0.975842  0.093385  0.745979  1
  Cl  Cl45  1  0.524158  0.093385  0.745979  1
  Cl  Cl46  1  0.475842  0.593385  0.754021  1
  Cl  Cl47  1  0.024158  0.593385  0.754021  1
  Cl  Cl48  1  0.486961  0.328344  0.776152  1
  Cl  Cl49  1  0.013039  0.328344  0.776152  1
  Cl  Cl50  1  0.750000  0.483532  0.903649  1
  Cl  Cl51  1  0.482447  0.922508  0.921838  1
  Cl  Cl52  1  0.017553  0.922508  0.921838  1
  Cl  Cl53  1  0.250000  0.161630  0.926932  1
  Cl  Cl54  1  0.488018  0.672194  0.974830  1
  Cl  Cl55  1  0.011982  0.672194  0.974830  1
