# generated using pymatgen
data_Li4V3Ni2Sn3O16
_symmetry_space_group_name_H-M   'P 1'
_cell_length_a   6.08889535
_cell_length_b   6.09648999
_cell_length_c   9.78602561
_cell_angle_alpha   90.48993333
_cell_angle_beta   89.83796677
_cell_angle_gamma   119.79419113
_symmetry_Int_Tables_number   1
_chemical_formula_structural   Li4V3Ni2Sn3O16
_chemical_formula_sum   'Li4 V3 Ni2 Sn3 O16'
_cell_volume   315.23601815
_cell_formula_units_Z   1
loop_
 _symmetry_equiv_pos_site_id
 _symmetry_equiv_pos_as_xyz
  1  'x, y, z'
loop_
 _atom_site_type_symbol
 _atom_site_label
 _atom_site_symmetry_multiplicity
 _atom_site_fract_x
 _atom_site_fract_y
 _atom_site_fract_z
 _atom_site_occupancy
  Li  Li0  1  0.325089  0.651995  0.887284  1
  Li  Li1  1  0.010096  0.026707  0.995042  1
  Li  Li2  1  0.007382  0.017812  0.501456  1
  Li  Li3  1  0.660363  0.326988  0.393786  1
  V  V4  1  0.166494  0.337108  0.216140  1
  V  V5  1  0.334307  0.174042  0.711429  1
  V  V6  1  0.813916  0.156423  0.719159  1
  Ni  Ni7  1  0.338579  0.664246  0.490893  1
  Ni  Ni8  1  0.674224  0.335646  0.988183  1
  Sn  Sn9  1  0.660760  0.829682  0.215300  1
  Sn  Sn10  1  0.168690  0.830931  0.213846  1
  Sn  Sn11  1  0.833396  0.657520  0.713521  1
  O  O12  1  0.684955  0.845531  0.602584  1
  O  O13  1  0.476203  0.963699  0.341086  1
  O  O14  1  0.327809  0.654115  0.097654  1
  O  O15  1  0.004642  0.010885  0.318577  1
  O  O16  1  0.002762  0.009088  0.812696  1
  O  O17  1  0.179098  0.863234  0.604684  1
  O  O18  1  0.476804  0.510131  0.335778  1
  O  O19  1  0.035634  0.498666  0.332420  1
  O  O20  1  0.848089  0.689980  0.092804  1
  O  O21  1  0.152986  0.316868  0.613296  1
  O  O22  1  0.962081  0.473367  0.834897  1
  O  O23  1  0.497883  0.452969  0.832962  1
  O  O24  1  0.660933  0.317373  0.602056  1
  O  O25  1  0.846664  0.170147  0.105599  1
  O  O26  1  0.532128  0.034523  0.827573  1
  O  O27  1  0.318329  0.180323  0.107139  1
