# generated using pymatgen
data_Li3Ti2Mn5O12
_symmetry_space_group_name_H-M   'P 1'
_cell_length_a   5.14223913
_cell_length_b   5.26031028
_cell_length_c   29.81397728
_cell_angle_alpha   90.34680543
_cell_angle_beta   91.12112690
_cell_angle_gamma   118.25523924
_symmetry_Int_Tables_number   1
_chemical_formula_structural   Li3Ti2Mn5O12
_chemical_formula_sum   'Li9 Ti6 Mn15 O36'
_cell_volume   710.12601163
_cell_formula_units_Z   3
loop_
 _symmetry_equiv_pos_site_id
 _symmetry_equiv_pos_as_xyz
  1  'x, y, z'
loop_
 _atom_site_type_symbol
 _atom_site_label
 _atom_site_symmetry_multiplicity
 _atom_site_fract_x
 _atom_site_fract_y
 _atom_site_fract_z
 _atom_site_occupancy
  Li  Li0  1  0.814271  0.158628  0.495624  1
  Li  Li1  1  0.843752  0.168968  0.002495  1
  Li  Li2  1  0.498478  0.153823  0.828695  1
  Li  Li3  1  0.503747  0.166753  0.336462  1
  Li  Li4  1  0.168265  0.162931  0.162811  1
  Li  Li5  1  0.833300  0.841680  0.083784  1
  Li  Li6  1  0.491138  0.842625  0.671110  1
  Li  Li7  1  0.498283  0.835967  0.416814  1
  Li  Li8  1  0.148963  0.828338  0.751174  1
  Ti  Ti9  1  0.848756  0.494304  0.918603  1
  Ti  Ti10  1  0.820678  0.506927  0.414875  1
  Ti  Ti11  1  0.471564  0.491409  0.747814  1
  Ti  Ti12  1  0.508422  0.493833  0.251567  1
  Ti  Ti13  1  0.194684  0.515568  0.585053  1
  Ti  Ti14  1  0.157185  0.506142  0.081758  1
  Mn  Mn15  1  0.813936  0.148613  0.751950  1
  Mn  Mn16  1  0.831303  0.158917  0.248844  1
  Mn  Mn17  1  0.515701  0.175057  0.582338  1
  Mn  Mn18  1  0.483406  0.150291  0.083981  1
  Mn  Mn19  1  0.172316  0.158146  0.914915  1
  Mn  Mn20  1  0.145040  0.149578  0.418181  1
  Mn  Mn21  1  0.843617  0.517001  0.670150  1
  Mn  Mn22  1  0.831770  0.516772  0.163668  1
  Mn  Mn23  1  0.515314  0.516966  0.003523  1
  Mn  Mn24  1  0.494107  0.508645  0.497139  1
  Mn  Mn25  1  0.857713  0.852363  0.581581  1
  Mn  Mn26  1  0.179656  0.514006  0.336872  1
  Mn  Mn27  1  0.160604  0.512787  0.830538  1
  Mn  Mn28  1  0.516059  0.833055  0.915593  1
  Mn  Mn29  1  0.175664  0.835453  0.249209  1
  O  O30  1  0.849924  0.212589  0.618893  1
  O  O31  1  0.843517  0.214101  0.121925  1
  O  O32  1  0.859924  0.232239  0.873874  1
  O  O33  1  0.850659  0.201135  0.379528  1
  O  O34  1  0.552482  0.180876  0.951261  1
  O  O35  1  0.505805  0.215078  0.455881  1
  O  O36  1  0.523266  0.187583  0.713570  1
  O  O37  1  0.513868  0.227443  0.208247  1
  O  O38  1  0.825706  0.464809  0.546486  1
  O  O39  1  0.829101  0.462841  0.044710  1
  O  O40  1  0.792271  0.445977  0.786975  1
  O  O41  1  0.820607  0.497529  0.288197  1
  O  O42  1  0.169061  0.207838  0.788760  1
  O  O43  1  0.212585  0.186138  0.285722  1
  O  O44  1  0.209478  0.212040  0.545554  1
  O  O45  1  0.188827  0.201676  0.045881  1
  O  O46  1  0.520511  0.517099  0.881387  1
  O  O47  1  0.499473  0.470177  0.378005  1
  O  O48  1  0.461085  0.446474  0.119882  1
  O  O49  1  0.505539  0.527605  0.622225  1
  O  O50  1  0.817880  0.814358  0.952839  1
  O  O51  1  0.180365  0.506266  0.711207  1
  O  O52  1  0.796116  0.796294  0.456552  1
  O  O53  1  0.849792  0.816631  0.212045  1
  O  O54  1  0.179208  0.517244  0.214390  1
  O  O55  1  0.791438  0.812880  0.716894  1
  O  O56  1  0.120817  0.439532  0.454208  1
  O  O57  1  0.158887  0.494943  0.955132  1
  O  O58  1  0.477399  0.815559  0.286371  1
  O  O59  1  0.457006  0.789129  0.790930  1
  O  O60  1  0.484677  0.794668  0.541679  1
  O  O61  1  0.483696  0.821166  0.050240  1
  O  O62  1  0.206651  0.841535  0.618183  1
  O  O63  1  0.190296  0.814229  0.878457  1
  O  O64  1  0.139438  0.804737  0.121895  1
  O  O65  1  0.149944  0.821144  0.384230  1
