# generated using pymatgen
data_LiVOF3
_symmetry_space_group_name_H-M   'P 1'
_cell_length_a   7.52122874
_cell_length_b   8.84771336
_cell_length_c   8.86391794
_cell_angle_alpha   90.00000000
_cell_angle_beta   90.00000000
_cell_angle_gamma   90.00000000
_symmetry_Int_Tables_number   1
_chemical_formula_structural   LiVOF3
_chemical_formula_sum   'Li8 V8 O8 F24'
_cell_volume   589.85541150
_cell_formula_units_Z   8
loop_
 _symmetry_equiv_pos_site_id
 _symmetry_equiv_pos_as_xyz
  1  'x, y, z'
loop_
 _atom_site_type_symbol
 _atom_site_label
 _atom_site_symmetry_multiplicity
 _atom_site_fract_x
 _atom_site_fract_y
 _atom_site_fract_z
 _atom_site_occupancy
  Li  Li0  1  0.500127  0.750529  0.000532  1
  Li  Li1  1  0.000127  0.749471  0.999468  1
  Li  Li2  1  0.125636  0.600288  0.349718  1
  Li  Li3  1  0.374364  0.399712  0.849718  1
  Li  Li4  1  0.499873  0.250529  0.499468  1
  Li  Li5  1  0.999873  0.249471  0.500532  1
  Li  Li6  1  0.874364  0.100288  0.150282  1
  Li  Li7  1  0.625636  0.899712  0.650282  1
  V  V8  1  0.356889  0.626375  0.623040  1
  V  V9  1  0.854876  0.618508  0.631859  1
  V  V10  1  0.645124  0.381492  0.131859  1
  V  V11  1  0.143111  0.373625  0.123040  1
  V  V12  1  0.643111  0.126375  0.876960  1
  V  V13  1  0.145124  0.118508  0.868141  1
  V  V14  1  0.354876  0.881492  0.368141  1
  V  V15  1  0.856889  0.873625  0.376960  1
  O  O16  1  0.628954  0.640301  0.625125  1
  O  O17  1  0.131752  0.626389  0.609835  1
  O  O18  1  0.368248  0.373611  0.109835  1
  O  O19  1  0.871046  0.359699  0.125125  1
  O  O20  1  0.371046  0.140301  0.874875  1
  O  O21  1  0.868248  0.126389  0.890165  1
  O  O22  1  0.631752  0.873611  0.390165  1
  O  O23  1  0.128954  0.859699  0.374875  1
  F  F24  1  0.376800  0.647423  0.395844  1
  F  F25  1  0.882395  0.647071  0.399392  1
  F  F26  1  0.380265  0.623296  0.840410  1
  F  F27  1  0.891592  0.635345  0.840200  1
  F  F28  1  0.618262  0.590867  0.111155  1
  F  F29  1  0.109848  0.590570  0.128248  1
  F  F30  1  0.390152  0.409430  0.628248  1
  F  F31  1  0.881738  0.409133  0.611155  1
  F  F32  1  0.608408  0.364655  0.340200  1
  F  F33  1  0.119735  0.376704  0.340410  1
  F  F34  1  0.617605  0.352929  0.899392  1
  F  F35  1  0.123200  0.352577  0.895844  1
  F  F36  1  0.623200  0.147423  0.104156  1
  F  F37  1  0.117605  0.147071  0.100608  1
  F  F38  1  0.619735  0.123296  0.659590  1
  F  F39  1  0.108408  0.135345  0.659800  1
  F  F40  1  0.381738  0.090867  0.388845  1
  F  F41  1  0.890152  0.090570  0.371752  1
  F  F42  1  0.609848  0.909430  0.871752  1
  F  F43  1  0.118262  0.909133  0.888845  1
  F  F44  1  0.391592  0.864655  0.159800  1
  F  F45  1  0.880265  0.876704  0.159590  1
  F  F46  1  0.382395  0.852929  0.600608  1
  F  F47  1  0.876800  0.852577  0.604156  1
