# generated using pymatgen
data_CaPH4O5F
_symmetry_space_group_name_H-M   'P 1'
_cell_length_a   5.80422972
_cell_length_b   6.30402403
_cell_length_c   8.48356174
_cell_angle_alpha   109.19914963
_cell_angle_beta   92.91931233
_cell_angle_gamma   114.88878043
_symmetry_Int_Tables_number   1
_chemical_formula_structural   CaPH4O5F
_chemical_formula_sum   'Ca2 P2 H8 O10 F2'
_cell_volume   259.34735302
_cell_formula_units_Z   2
loop_
 _symmetry_equiv_pos_site_id
 _symmetry_equiv_pos_as_xyz
  1  'x, y, z'
loop_
 _atom_site_type_symbol
 _atom_site_label
 _atom_site_symmetry_multiplicity
 _atom_site_fract_x
 _atom_site_fract_y
 _atom_site_fract_z
 _atom_site_occupancy
  Ca  Ca0  1  0.116392  0.318971  0.857756  1
  Ca  Ca1  1  0.883608  0.681029  0.142244  1
  P  P2  1  0.588375  0.798836  0.849632  1
  P  P3  1  0.411625  0.201164  0.150368  1
  H  H4  1  0.261510  0.038587  0.637177  1
  H  H5  1  0.738490  0.961413  0.362823  1
  H  H6  1  0.314630  0.253928  0.490201  1
  H  H7  1  0.685370  0.746072  0.509799  1
  H  H8  1  0.798766  0.340212  0.467799  1
  H  H9  1  0.201234  0.659788  0.532201  1
  H  H10  1  0.076262  0.384939  0.316021  1
  H  H11  1  0.923738  0.615061  0.683979  1
  O  O12  1  0.793498  0.877696  0.934073  1
  O  O13  1  0.206502  0.122304  0.065927  1
  O  O14  1  0.633973  0.652122  0.725458  1
  O  O15  1  0.366027  0.347878  0.274542  1
  O  O16  1  0.282178  0.677045  0.968588  1
  O  O17  1  0.717822  0.322955  0.031412  1
  O  O18  1  0.308748  0.210717  0.607033  1
  O  O19  1  0.691252  0.789283  0.392967  1
  O  O20  1  0.897580  0.389252  0.343976  1
  O  O21  1  0.102420  0.610748  0.656024  1
  F  F22  1  0.339631  0.942661  0.268877  1
  F  F23  1  0.660369  0.057339  0.731123  1
