# generated using pymatgen
data_CsTaCo(OF2)2
_symmetry_space_group_name_H-M   'P 1'
_cell_length_a   7.57069497
_cell_length_b   7.57069497
_cell_length_c   7.49710052
_cell_angle_alpha   61.04157998
_cell_angle_beta   118.95842002
_cell_angle_gamma   87.72706249
_symmetry_Int_Tables_number   1
_chemical_formula_structural   CsTaCo(OF2)2
_chemical_formula_sum   'Cs2 Ta2 Co2 O4 F8'
_cell_volume   307.16214492
_cell_formula_units_Z   2
loop_
 _symmetry_equiv_pos_site_id
 _symmetry_equiv_pos_as_xyz
  1  'x, y, z'
loop_
 _atom_site_type_symbol
 _atom_site_label
 _atom_site_symmetry_multiplicity
 _atom_site_fract_x
 _atom_site_fract_y
 _atom_site_fract_z
 _atom_site_occupancy
  Cs  Cs0  1  0.625012  0.625012  0.000000  1
  Cs  Cs1  1  0.372080  0.372080  0.500000  1
  Ta  Ta2  1  0.484190  0.996638  0.260332  1
  Ta  Ta3  1  0.996638  0.484190  0.739668  1
  Co  Co4  1  0.004550  0.997920  0.252900  1
  Co  Co5  1  0.997920  0.004550  0.747100  1
  O  O6  1  0.314571  0.932306  0.371525  1
  O  O7  1  0.932306  0.314571  0.628475  1
  O  O8  1  0.708054  0.708054  0.500000  1
  O  O9  1  0.305813  0.305813  0.000000  1
  F  F10  1  0.923197  0.341766  0.987441  1
  F  F11  1  0.930019  0.930019  0.000000  1
  F  F12  1  0.663173  0.081070  0.485963  1
  F  F13  1  0.341766  0.923197  0.012559  1
  F  F14  1  0.072025  0.680044  0.880989  1
  F  F15  1  0.680044  0.072025  0.119011  1
  F  F16  1  0.081070  0.663173  0.514037  1
  F  F17  1  0.067572  0.067572  0.500000  1
