# generated using pymatgen
data_Li4Mn3F10
_symmetry_space_group_name_H-M   'P 1'
_cell_length_a   5.41154523
_cell_length_b   5.41589034
_cell_length_c   27.09654284
_cell_angle_alpha   90.00000000
_cell_angle_beta   90.00000000
_cell_angle_gamma   90.00000000
_symmetry_Int_Tables_number   1
_chemical_formula_structural   Li4Mn3F10
_chemical_formula_sum   'Li16 Mn12 F40'
_cell_volume   794.15456941
_cell_formula_units_Z   4
loop_
 _symmetry_equiv_pos_site_id
 _symmetry_equiv_pos_as_xyz
  1  'x, y, z'
loop_
 _atom_site_type_symbol
 _atom_site_label
 _atom_site_symmetry_multiplicity
 _atom_site_fract_x
 _atom_site_fract_y
 _atom_site_fract_z
 _atom_site_occupancy
  Li  Li0  1  0.014395  0.510383  0.574507  1
  Li  Li1  1  0.014395  0.989617  0.074507  1
  Li  Li2  1  0.963210  0.465957  0.720194  1
  Li  Li3  1  0.963210  0.034043  0.220194  1
  Li  Li4  1  0.536790  0.965957  0.720194  1
  Li  Li5  1  0.536790  0.534043  0.220194  1
  Li  Li6  1  0.485605  0.489617  0.074507  1
  Li  Li7  1  0.485605  0.010383  0.574507  1
  Li  Li8  1  0.514395  0.989617  0.425493  1
  Li  Li9  1  0.514395  0.510383  0.925493  1
  Li  Li10  1  0.463210  0.465957  0.779806  1
  Li  Li11  1  0.463210  0.034043  0.279806  1
  Li  Li12  1  0.036790  0.965957  0.779806  1
  Li  Li13  1  0.036790  0.534043  0.279806  1
  Li  Li14  1  0.985605  0.010383  0.925493  1
  Li  Li15  1  0.985605  0.489617  0.425493  1
  Mn  Mn16  1  0.000000  0.500000  0.000000  1
  Mn  Mn17  1  0.000000  0.000000  0.500000  1
  Mn  Mn18  1  0.996379  0.495782  0.851464  1
  Mn  Mn19  1  0.996379  0.004218  0.351464  1
  Mn  Mn20  1  0.503621  0.504218  0.351464  1
  Mn  Mn21  1  0.503621  0.995782  0.851464  1
  Mn  Mn22  1  0.500000  0.500000  0.500000  1
  Mn  Mn23  1  0.500000  0.000000  0.000000  1
  Mn  Mn24  1  0.496379  0.495782  0.648536  1
  Mn  Mn25  1  0.496379  0.004218  0.148536  1
  Mn  Mn26  1  0.003621  0.995782  0.648536  1
  Mn  Mn27  1  0.003621  0.504218  0.148536  1
  F  F28  1  0.873750  0.098276  0.721369  1
  F  F29  1  0.873750  0.401724  0.221369  1
  F  F30  1  0.860212  0.393014  0.925661  1
  F  F31  1  0.860212  0.106986  0.425661  1
  F  F32  1  0.838804  0.334589  0.522796  1
  F  F33  1  0.838804  0.165411  0.022796  1
  F  F34  1  0.843384  0.159467  0.827089  1
  F  F35  1  0.843384  0.340533  0.327089  1
  F  F36  1  0.840193  0.332629  0.626106  1
  F  F37  1  0.840193  0.167371  0.126106  1
  F  F38  1  0.659807  0.667371  0.126106  1
  F  F39  1  0.659807  0.832629  0.626106  1
  F  F40  1  0.656616  0.659467  0.827089  1
  F  F41  1  0.656616  0.840533  0.327089  1
  F  F42  1  0.661196  0.834589  0.522796  1
  F  F43  1  0.661196  0.665411  0.022796  1
  F  F44  1  0.639788  0.606986  0.425661  1
  F  F45  1  0.639788  0.893014  0.925661  1
  F  F46  1  0.626250  0.598276  0.721369  1
  F  F47  1  0.626250  0.901724  0.221369  1
  F  F48  1  0.373750  0.098276  0.778631  1
  F  F49  1  0.373750  0.401724  0.278631  1
  F  F50  1  0.360212  0.106986  0.074339  1
  F  F51  1  0.360212  0.393014  0.574339  1
  F  F52  1  0.338804  0.334589  0.977204  1
  F  F53  1  0.338804  0.165411  0.477204  1
  F  F54  1  0.343384  0.159467  0.672911  1
  F  F55  1  0.343384  0.340533  0.172911  1
  F  F56  1  0.340193  0.167371  0.373894  1
  F  F57  1  0.340193  0.332629  0.873894  1
  F  F58  1  0.159807  0.667371  0.373894  1
  F  F59  1  0.159807  0.832629  0.873894  1
  F  F60  1  0.156616  0.659467  0.672911  1
  F  F61  1  0.156616  0.840533  0.172911  1
  F  F62  1  0.161196  0.834589  0.977204  1
  F  F63  1  0.161196  0.665411  0.477204  1
  F  F64  1  0.139788  0.893014  0.574339  1
  F  F65  1  0.139788  0.606986  0.074339  1
  F  F66  1  0.126250  0.598276  0.778631  1
  F  F67  1  0.126250  0.901724  0.278631  1
