# generated using pymatgen
data_Li3Ni5OF11
_symmetry_space_group_name_H-M   'P 1'
_cell_length_a   5.10352109
_cell_length_b   5.49247080
_cell_length_c   8.90479588
_cell_angle_alpha   106.27489539
_cell_angle_beta   89.43500162
_cell_angle_gamma   116.93064424
_symmetry_Int_Tables_number   1
_chemical_formula_structural   Li3Ni5OF11
_chemical_formula_sum   'Li3 Ni5 O1 F11'
_cell_volume   211.61541213
_cell_formula_units_Z   1
loop_
 _symmetry_equiv_pos_site_id
 _symmetry_equiv_pos_as_xyz
  1  'x, y, z'
loop_
 _atom_site_type_symbol
 _atom_site_label
 _atom_site_symmetry_multiplicity
 _atom_site_fract_x
 _atom_site_fract_y
 _atom_site_fract_z
 _atom_site_occupancy
  Li  Li0  1  0.520016  0.533038  0.500516  1
  Li  Li1  1  0.762260  0.265197  0.258584  1
  Li  Li2  1  0.295426  0.793253  0.767420  1
  Ni  Ni3  1  0.457929  0.747767  0.149085  1
  Ni  Ni4  1  0.979482  0.991827  0.996697  1
  Ni  Ni5  1  0.961043  0.276364  0.647710  1
  Ni  Ni6  1  0.217167  0.014388  0.407154  1
  Ni  Ni7  1  0.681767  0.510487  0.903497  1
  O  O8  1  0.559841  0.755691  0.957168  1
  F  F9  1  0.436381  0.842356  0.348834  1
  F  F10  1  0.503135  0.399388  0.299165  1
  F  F11  1  0.005195  0.916753  0.789437  1
  F  F12  1  0.430598  0.147925  0.043448  1
  F  F13  1  0.948595  0.657831  0.539012  1
  F  F14  1  0.933283  0.350090  0.851830  1
  F  F15  1  0.008559  0.589250  0.104704  1
  F  F16  1  0.037707  0.241704  0.452232  1
  F  F17  1  0.917205  0.003984  0.206795  1
  F  F18  1  0.403319  0.492243  0.698947  1
  F  F19  1  0.515732  0.094866  0.602642  1
