# generated using pymatgen
data_Li2FeP2O7
_symmetry_space_group_name_H-M   'P 1'
_cell_length_a   5.17579243
_cell_length_b   7.15825576
_cell_length_c   8.76618984
_cell_angle_alpha   65.92622547
_cell_angle_beta   74.71106084
_cell_angle_gamma   69.34073230
_symmetry_Int_Tables_number   1
_chemical_formula_structural   Li2FeP2O7
_chemical_formula_sum   'Li4 Fe2 P4 O14'
_cell_volume   274.72582482
_cell_formula_units_Z   2
loop_
 _symmetry_equiv_pos_site_id
 _symmetry_equiv_pos_as_xyz
  1  'x, y, z'
loop_
 _atom_site_type_symbol
 _atom_site_label
 _atom_site_symmetry_multiplicity
 _atom_site_fract_x
 _atom_site_fract_y
 _atom_site_fract_z
 _atom_site_occupancy
  Li  Li0  1  0.758955  0.306938  0.008341  1
  Li  Li1  1  0.703772  0.865335  0.749968  1
  Li  Li2  1  0.296228  0.134665  0.250032  1
  Li  Li3  1  0.241045  0.693062  0.991659  1
  Fe  Fe4  1  0.994176  0.815435  0.333961  1
  Fe  Fe5  1  0.005824  0.184565  0.666039  1
  P  P6  1  0.601981  0.253189  0.392887  1
  P  P7  1  0.645520  0.692760  0.140823  1
  P  P8  1  0.354480  0.307240  0.859177  1
  P  P9  1  0.398019  0.746811  0.607113  1
  O  O10  1  0.288417  0.274006  0.430718  1
  O  O11  1  0.749886  0.142795  0.547905  1
  O  O12  1  0.743152  0.145956  0.257794  1
  O  O13  1  0.110314  0.240766  0.848575  1
  O  O14  1  0.693081  0.622234  0.989346  1
  O  O15  1  0.645569  0.486940  0.315077  1
  O  O16  1  0.639526  0.146486  0.852166  1
  O  O17  1  0.360474  0.853514  0.147834  1
  O  O18  1  0.354431  0.513060  0.684923  1
  O  O19  1  0.306919  0.377766  0.010654  1
  O  O20  1  0.889686  0.759234  0.151425  1
  O  O21  1  0.256848  0.854044  0.742206  1
  O  O22  1  0.250114  0.857205  0.452095  1
  O  O23  1  0.711583  0.725994  0.569282  1
