# generated using pymatgen
data_P3H4N5Cl4
_symmetry_space_group_name_H-M   'P 1'
_cell_length_a   8.45642317
_cell_length_b   23.62587467
_cell_length_c   11.66127017
_cell_angle_alpha   90.00000000
_cell_angle_beta   104.40956510
_cell_angle_gamma   90.00000000
_symmetry_Int_Tables_number   1
_chemical_formula_structural   P3H4N5Cl4
_chemical_formula_sum   'P24 H32 N40 Cl32'
_cell_volume   2256.51774672
_cell_formula_units_Z   8
loop_
 _symmetry_equiv_pos_site_id
 _symmetry_equiv_pos_as_xyz
  1  'x, y, z'
loop_
 _atom_site_type_symbol
 _atom_site_label
 _atom_site_symmetry_multiplicity
 _atom_site_fract_x
 _atom_site_fract_y
 _atom_site_fract_z
 _atom_site_occupancy
  P  P0  1  0.192642  0.137065  0.990487  1
  P  P1  1  0.807358  0.637065  0.509513  1
  P  P2  1  0.807358  0.862935  0.009513  1
  P  P3  1  0.192642  0.362935  0.490487  1
  P  P4  1  0.003073  0.218777  0.840716  1
  P  P5  1  0.996927  0.718777  0.659284  1
  P  P6  1  0.996927  0.781223  0.159284  1
  P  P7  1  0.003073  0.281223  0.340716  1
  P  P8  1  0.307871  0.191488  0.814344  1
  P  P9  1  0.692129  0.691488  0.685656  1
  P  P10  1  0.692129  0.808512  0.185656  1
  P  P11  1  0.307871  0.308512  0.314344  1
  P  P12  1  0.271469  0.918342  0.888732  1
  P  P13  1  0.728531  0.418342  0.611268  1
  P  P14  1  0.728531  0.081658  0.111268  1
  P  P15  1  0.271469  0.581658  0.388732  1
  P  P16  1  0.349449  0.947115  0.673831  1
  P  P17  1  0.650551  0.447115  0.826169  1
  P  P18  1  0.650551  0.052885  0.326169  1
  P  P19  1  0.349449  0.552885  0.173831  1
  P  P20  1  0.046096  0.973496  0.701196  1
  P  P21  1  0.953904  0.473496  0.798804  1
  P  P22  1  0.953904  0.026504  0.298804  1
  P  P23  1  0.046096  0.526504  0.201196  1
  H  H24  1  0.127246  0.044960  0.932144  1
  H  H25  1  0.872754  0.544960  0.567856  1
  H  H26  1  0.872754  0.955040  0.067856  1
  H  H27  1  0.127246  0.455040  0.432144  1
  H  H28  1  0.097812  0.059894  0.067181  1
  H  H29  1  0.902188  0.559894  0.432819  1
  H  H30  1  0.902188  0.940106  0.932819  1
  H  H31  1  0.097812  0.440106  0.567181  1
  H  H32  1  0.220077  0.191388  0.161719  1
  H  H33  1  0.779923  0.691388  0.338281  1
  H  H34  1  0.779923  0.808612  0.838281  1
  H  H35  1  0.220077  0.308612  0.661719  1
  H  H36  1  0.377723  0.141655  0.172652  1
  H  H37  1  0.622277  0.641655  0.327348  1
  H  H38  1  0.622277  0.858345  0.827348  1
  H  H39  1  0.377723  0.358345  0.672652  1
  H  H40  1  0.450627  0.922747  0.069665  1
  H  H41  1  0.549373  0.422747  0.430335  1
  H  H42  1  0.549373  0.077253  0.930335  1
  H  H43  1  0.450627  0.577253  0.569665  1
  H  H44  1  0.340735  0.985255  0.039749  1
  H  H45  1  0.659265  0.485255  0.460251  1
  H  H46  1  0.659265  0.014745  0.960251  1
  H  H47  1  0.340735  0.514745  0.539749  1
  H  H48  1  0.242662  0.823137  0.848113  1
  H  H49  1  0.757338  0.323137  0.651887  1
  H  H50  1  0.757338  0.176863  0.151887  1
  H  H51  1  0.242662  0.676863  0.348113  1
  H  H52  1  0.177892  0.840308  0.972525  1
  H  H53  1  0.822108  0.340308  0.527475  1
  H  H54  1  0.822108  0.159692  0.027475  1
  H  H55  1  0.177892  0.659692  0.472525  1
  N  N56  1  0.312927  0.139752  0.900883  1
  N  N57  1  0.687073  0.639752  0.599117  1
  N  N58  1  0.687073  0.860248  0.099117  1
  N  N59  1  0.312927  0.360248  0.400883  1
  N  N60  1  0.024085  0.173473  0.942721  1
  N  N61  1  0.975915  0.673473  0.557279  1
  N  N62  1  0.975915  0.826527  0.057279  1
  N  N63  1  0.024085  0.326527  0.442721  1
  N  N64  1  0.149471  0.231395  0.779696  1
  N  N65  1  0.850529  0.731395  0.720304  1
  N  N66  1  0.850529  0.768605  0.220304  1
  N  N67  1  0.149471  0.268605  0.279696  1
  N  N68  1  0.164787  0.068809  0.007105  1
  N  N69  1  0.835213  0.568809  0.492895  1
  N  N70  1  0.835213  0.931191  0.992895  1
  N  N71  1  0.164787  0.431191  0.507105  1
  N  N72  1  0.271975  0.159436  0.125090  1
  N  N73  1  0.728025  0.659436  0.374910  1
  N  N74  1  0.728025  0.840564  0.874910  1
  N  N75  1  0.271975  0.340564  0.625090  1
  N  N76  1  0.107208  0.956734  0.837115  1
  N  N77  1  0.892792  0.456734  0.662885  1
  N  N78  1  0.892792  0.043266  0.162885  1
  N  N79  1  0.107208  0.543266  0.337115  1
  N  N80  1  0.392443  0.917432  0.799030  1
  N  N81  1  0.607557  0.417432  0.700970  1
  N  N82  1  0.607557  0.082568  0.200970  1
  N  N83  1  0.392443  0.582568  0.299030  1
  N  N84  1  0.169619  0.970289  0.617789  1
  N  N85  1  0.830381  0.470289  0.882211  1
  N  N86  1  0.830381  0.029711  0.382211  1
  N  N87  1  0.169619  0.529711  0.117789  1
  N  N88  1  0.348212  0.943068  0.022666  1
  N  N89  1  0.651788  0.443068  0.477334  1
  N  N90  1  0.651788  0.056932  0.977334  1
  N  N91  1  0.348212  0.556932  0.522666  1
  N  N92  1  0.246617  0.851125  0.914917  1
  N  N93  1  0.753383  0.351125  0.585083  1
  N  N94  1  0.753383  0.148875  0.085083  1
  N  N95  1  0.246617  0.648875  0.414917  1
  Cl  Cl96  1  0.801521  0.200740  0.708480  1
  Cl  Cl97  1  0.198479  0.700740  0.791520  1
  Cl  Cl98  1  0.198479  0.799260  0.291520  1
  Cl  Cl99  1  0.801521  0.299260  0.208480  1
  Cl  Cl100  1  0.933855  0.293986  0.896996  1
  Cl  Cl101  1  0.066145  0.793986  0.603004  1
  Cl  Cl102  1  0.066145  0.706014  0.103004  1
  Cl  Cl103  1  0.933855  0.206014  0.396996  1
  Cl  Cl104  1  0.500467  0.244353  0.873459  1
  Cl  Cl105  1  0.499533  0.744353  0.626541  1
  Cl  Cl106  1  0.499533  0.755647  0.126541  1
  Cl  Cl107  1  0.500467  0.255647  0.373459  1
  Cl  Cl108  1  0.352624  0.161773  0.663176  1
  Cl  Cl109  1  0.647376  0.661773  0.836824  1
  Cl  Cl110  1  0.647376  0.838227  0.336824  1
  Cl  Cl111  1  0.352624  0.338227  0.163176  1
  Cl  Cl112  1  0.404654  0.892909  0.554053  1
  Cl  Cl113  1  0.595346  0.392909  0.945947  1
  Cl  Cl114  1  0.595346  0.107091  0.445947  1
  Cl  Cl115  1  0.404654  0.607091  0.054053  1
  Cl  Cl116  1  0.508677  0.010931  0.670383  1
  Cl  Cl117  1  0.491323  0.510931  0.829617  1
  Cl  Cl118  1  0.491323  0.989069  0.329617  1
  Cl  Cl119  1  0.508677  0.489069  0.170383  1
  Cl  Cl120  1  0.844742  0.928687  0.620954  1
  Cl  Cl121  1  0.155258  0.428687  0.879046  1
  Cl  Cl122  1  0.155258  0.071313  0.379046  1
  Cl  Cl123  1  0.844742  0.571313  0.120954  1
  Cl  Cl124  1  0.954257  0.052950  0.693229  1
  Cl  Cl125  1  0.045743  0.552950  0.806771  1
  Cl  Cl126  1  0.045743  0.947050  0.306771  1
  Cl  Cl127  1  0.954257  0.447050  0.193229  1
