# generated using pymatgen
data_K8Al2O7
_symmetry_space_group_name_H-M   'P 1'
_cell_length_a   9.55706599
_cell_length_b   12.24138996
_cell_length_c   11.25948780
_cell_angle_alpha   90.00000000
_cell_angle_beta   107.96577678
_cell_angle_gamma   90.00000000
_symmetry_Int_Tables_number   1
_chemical_formula_structural   K8Al2O7
_chemical_formula_sum   'K32 Al8 O28'
_cell_volume   1253.03868497
_cell_formula_units_Z   4
loop_
 _symmetry_equiv_pos_site_id
 _symmetry_equiv_pos_as_xyz
  1  'x, y, z'
loop_
 _atom_site_type_symbol
 _atom_site_label
 _atom_site_symmetry_multiplicity
 _atom_site_fract_x
 _atom_site_fract_y
 _atom_site_fract_z
 _atom_site_occupancy
  K  K0  1  0.116356  0.524237  0.923929  1
  K  K1  1  0.079565  0.539035  0.642982  1
  K  K2  1  0.104941  0.259322  0.531288  1
  K  K3  1  0.116356  0.975763  0.423929  1
  K  K4  1  0.245933  0.057991  0.712175  1
  K  K5  1  0.079565  0.960965  0.142982  1
  K  K6  1  0.291383  0.756670  0.568652  1
  K  K7  1  0.104941  0.240678  0.031288  1
  K  K8  1  0.426907  0.533156  0.858407  1
  K  K9  1  0.336050  0.491565  0.517622  1
  K  K10  1  0.245933  0.442009  0.212175  1
  K  K11  1  0.495378  0.772071  0.871286  1
  K  K12  1  0.291383  0.743330  0.068652  1
  K  K13  1  0.504622  0.272071  0.628714  1
  K  K14  1  0.426907  0.966844  0.358407  1
  K  K15  1  0.663950  0.991565  0.982378  1
  K  K16  1  0.336050  0.008435  0.017622  1
  K  K17  1  0.573093  0.033156  0.641593  1
  K  K18  1  0.495378  0.727929  0.371286  1
  K  K19  1  0.708617  0.256670  0.931348  1
  K  K20  1  0.504622  0.227929  0.128714  1
  K  K21  1  0.754067  0.557991  0.787825  1
  K  K22  1  0.663950  0.508435  0.482378  1
  K  K23  1  0.573093  0.466844  0.141593  1
  K  K24  1  0.895059  0.759322  0.968712  1
  K  K25  1  0.708617  0.243330  0.431348  1
  K  K26  1  0.920435  0.039035  0.857018  1
  K  K27  1  0.754067  0.942009  0.287825  1
  K  K28  1  0.883644  0.024237  0.576071  1
  K  K29  1  0.895059  0.740678  0.468712  1
  K  K30  1  0.920435  0.460965  0.357018  1
  K  K31  1  0.883644  0.475763  0.076071  1
  Al  Al32  1  0.084516  0.799334  0.768496  1
  Al  Al33  1  0.084516  0.700666  0.268496  1
  Al  Al34  1  0.294838  0.291768  0.840375  1
  Al  Al35  1  0.294838  0.208232  0.340375  1
  Al  Al36  1  0.705162  0.791768  0.659625  1
  Al  Al37  1  0.705162  0.708232  0.159625  1
  Al  Al38  1  0.915484  0.299334  0.731504  1
  Al  Al39  1  0.915484  0.200666  0.231504  1
  O  O40  1  0.112925  0.882690  0.908033  1
  O  O41  1  0.104081  0.236041  0.781381  1
  O  O42  1  0.100795  0.878591  0.638280  1
  O  O43  1  0.112925  0.617310  0.408033  1
  O  O44  1  0.215822  0.687398  0.805141  1
  O  O45  1  0.104081  0.263959  0.281381  1
  O  O46  1  0.100795  0.621409  0.138280  1
  O  O47  1  0.318871  0.374729  0.714378  1
  O  O48  1  0.215822  0.812602  0.305141  1
  O  O49  1  0.420157  0.173879  0.882493  1
  O  O50  1  0.324356  0.124371  0.479187  1
  O  O51  1  0.318871  0.125271  0.214378  1
  O  O52  1  0.420157  0.326121  0.382493  1
  O  O53  1  0.675644  0.624371  0.020813  1
  O  O54  1  0.324356  0.375629  0.979187  1
  O  O55  1  0.579843  0.673879  0.617507  1
  O  O56  1  0.681129  0.874729  0.785622  1
  O  O57  1  0.675644  0.875629  0.520813  1
  O  O58  1  0.579843  0.826121  0.117507  1
  O  O59  1  0.784178  0.187398  0.694859  1
  O  O60  1  0.681129  0.625271  0.285622  1
  O  O61  1  0.899205  0.378591  0.861720  1
  O  O62  1  0.895919  0.736041  0.718619  1
  O  O63  1  0.784178  0.312602  0.194859  1
  O  O64  1  0.887075  0.382690  0.591967  1
  O  O65  1  0.899205  0.121409  0.361720  1
  O  O66  1  0.895919  0.763959  0.218619  1
  O  O67  1  0.887075  0.117310  0.091967  1
