# generated using pymatgen
data_Li4Fe3O8
_symmetry_space_group_name_H-M   'P 1'
_cell_length_a   5.92443382
_cell_length_b   5.92443382
_cell_length_c   5.92443382
_cell_angle_alpha   58.87570624
_cell_angle_beta   58.87570624
_cell_angle_gamma   58.87570624
_symmetry_Int_Tables_number   1
_chemical_formula_structural   Li4Fe3O8
_chemical_formula_sum   'Li4 Fe3 O8'
_cell_volume   143.26305971
_cell_formula_units_Z   1
loop_
 _symmetry_equiv_pos_site_id
 _symmetry_equiv_pos_as_xyz
  1  'x, y, z'
loop_
 _atom_site_type_symbol
 _atom_site_label
 _atom_site_symmetry_multiplicity
 _atom_site_fract_x
 _atom_site_fract_y
 _atom_site_fract_z
 _atom_site_occupancy
  Li  Li0  1  0.000000  0.000000  0.000000  1
  Li  Li1  1  0.000000  0.000000  0.500000  1
  Li  Li2  1  0.500000  0.000000  0.000000  1
  Li  Li3  1  1.000000  0.500000  0.000000  1
  Fe  Fe4  1  0.500000  0.500000  0.000000  1
  Fe  Fe5  1  0.000000  0.500000  0.500000  1
  Fe  Fe6  1  0.500000  1.000000  0.500000  1
  O  O7  1  0.248006  0.248006  0.248006  1
  O  O8  1  0.756019  0.756019  0.281103  1
  O  O9  1  0.281103  0.756019  0.756019  1
  O  O10  1  0.751994  0.751994  0.751994  1
  O  O11  1  0.756019  0.281103  0.756019  1
  O  O12  1  0.243981  0.243981  0.718897  1
  O  O13  1  0.718897  0.243981  0.243981  1
  O  O14  1  0.243981  0.718897  0.243981  1
