# generated using pymatgen
data_Li3Mn2FeO6
_symmetry_space_group_name_H-M   'P 1'
_cell_length_a   6.46019650
_cell_length_b   6.46019650
_cell_length_c   6.00202660
_cell_angle_alpha   75.76729496
_cell_angle_beta   104.23270504
_cell_angle_gamma   153.10000752
_symmetry_Int_Tables_number   1
_chemical_formula_structural   Li3Mn2FeO6
_chemical_formula_sum   'Li3 Mn2 Fe1 O6'
_cell_volume   109.64912726
_cell_formula_units_Z   1
loop_
 _symmetry_equiv_pos_site_id
 _symmetry_equiv_pos_as_xyz
  1  'x, y, z'
loop_
 _atom_site_type_symbol
 _atom_site_label
 _atom_site_symmetry_multiplicity
 _atom_site_fract_x
 _atom_site_fract_y
 _atom_site_fract_z
 _atom_site_occupancy
  Li  Li0  1  0.000000  0.000000  0.000000  1
  Li  Li1  1  0.333123  0.666877  0.664322  1
  Li  Li2  1  0.666877  0.333123  0.335678  1
  Mn  Mn3  1  0.332610  0.667390  0.173587  1
  Mn  Mn4  1  0.667390  0.332610  0.826413  1
  Fe  Fe5  1  0.000000  1.000000  0.500000  1
  O  O6  1  0.841152  0.158848  0.416881  1
  O  O7  1  0.173594  0.826406  0.080711  1
  O  O8  1  0.158848  0.841152  0.583119  1
  O  O9  1  0.507722  0.492278  0.729743  1
  O  O10  1  0.492278  0.507722  0.270257  1
  O  O11  1  0.826406  0.173594  0.919289  1
