# generated using pymatgen
data_Li2Mn2Si5O13
_symmetry_space_group_name_H-M   'P 1'
_cell_length_a   7.59775725
_cell_length_b   7.81693594
_cell_length_c   10.00901251
_cell_angle_alpha   83.36207660
_cell_angle_beta   68.39021508
_cell_angle_gamma   72.09894796
_symmetry_Int_Tables_number   1
_chemical_formula_structural   Li2Mn2Si5O13
_chemical_formula_sum   'Li4 Mn4 Si10 O26'
_cell_volume   525.90838877
_cell_formula_units_Z   2
loop_
 _symmetry_equiv_pos_site_id
 _symmetry_equiv_pos_as_xyz
  1  'x, y, z'
loop_
 _atom_site_type_symbol
 _atom_site_label
 _atom_site_symmetry_multiplicity
 _atom_site_fract_x
 _atom_site_fract_y
 _atom_site_fract_z
 _atom_site_occupancy
  Li  Li0  1  0.210171  0.070526  0.847243  1
  Li  Li1  1  0.153683  0.400747  0.744064  1
  Li  Li2  1  0.846317  0.599253  0.255936  1
  Li  Li3  1  0.789829  0.929474  0.152757  1
  Mn  Mn4  1  0.039766  0.158936  0.599988  1
  Mn  Mn5  1  0.419169  0.824550  0.400403  1
  Mn  Mn6  1  0.580831  0.175450  0.599597  1
  Mn  Mn7  1  0.960234  0.841064  0.400012  1
  Si  Si8  1  0.159988  0.220914  0.257892  1
  Si  Si9  1  0.210219  0.694806  0.042324  1
  Si  Si10  1  0.310596  0.447081  0.407587  1
  Si  Si11  1  0.251063  0.757516  0.732761  1
  Si  Si12  1  0.623557  0.704952  0.047455  1
  Si  Si13  1  0.376443  0.295048  0.952545  1
  Si  Si14  1  0.748937  0.242484  0.267239  1
  Si  Si15  1  0.689404  0.552919  0.592413  1
  Si  Si16  1  0.789781  0.305194  0.957676  1
  Si  Si17  1  0.840012  0.779086  0.742108  1
  O  O18  1  0.015318  0.769808  0.179181  1
  O  O19  1  0.168486  0.052075  0.368497  1
  O  O20  1  0.304771  0.163037  0.091105  1
  O  O21  1  0.214180  0.387342  0.303061  1
  O  O22  1  0.065451  0.681354  0.747669  1
  O  O23  1  0.406166  0.690671  0.071844  1
  O  O24  1  0.222937  0.663954  0.428412  1
  O  O25  1  0.283046  0.318050  0.549266  1
  O  O26  1  0.551913  0.413364  0.316019  1
  O  O27  1  0.370749  0.221474  0.810663  1
  O  O28  1  0.220008  0.497463  0.993929  1
  O  O29  1  0.273363  0.926911  0.625507  1
  O  O30  1  0.209128  0.825694  0.896857  1
  O  O31  1  0.790872  0.174306  0.103143  1
  O  O32  1  0.726637  0.073089  0.374493  1
  O  O33  1  0.779992  0.502537  0.006071  1
  O  O34  1  0.629251  0.778526  0.189337  1
  O  O35  1  0.448087  0.586636  0.683981  1
  O  O36  1  0.716954  0.681950  0.450734  1
  O  O37  1  0.777063  0.336046  0.571588  1
  O  O38  1  0.593834  0.309329  0.928156  1
  O  O39  1  0.934549  0.318646  0.252331  1
  O  O40  1  0.785820  0.612658  0.696939  1
  O  O41  1  0.695229  0.836963  0.908895  1
  O  O42  1  0.831514  0.947925  0.631503  1
  O  O43  1  0.984682  0.230192  0.820819  1
