# generated using pymatgen
data_Li5Fe3(CoO5)2
_symmetry_space_group_name_H-M   'P 1'
_cell_length_a   5.06787044
_cell_length_b   5.18634886
_cell_length_c   7.91874944
_cell_angle_alpha   107.83240939
_cell_angle_beta   100.98262789
_cell_angle_gamma   101.44070168
_symmetry_Int_Tables_number   1
_chemical_formula_structural   Li5Fe3(CoO5)2
_chemical_formula_sum   'Li5 Fe3 Co2 O10'
_cell_volume   187.02444127
_cell_formula_units_Z   1
loop_
 _symmetry_equiv_pos_site_id
 _symmetry_equiv_pos_as_xyz
  1  'x, y, z'
loop_
 _atom_site_type_symbol
 _atom_site_label
 _atom_site_symmetry_multiplicity
 _atom_site_fract_x
 _atom_site_fract_y
 _atom_site_fract_z
 _atom_site_occupancy
  Li  Li0  1  0.800321  0.499570  0.413115  1
  Li  Li1  1  0.605791  0.513305  0.772445  1
  Li  Li2  1  0.000000  0.000000  0.500000  1
  Li  Li3  1  0.394209  0.486695  0.227555  1
  Li  Li4  1  0.199679  0.500430  0.586885  1
  Fe  Fe5  1  0.000000  0.500000  0.000000  1
  Fe  Fe6  1  0.798913  0.000958  0.892561  1
  Fe  Fe7  1  0.201087  0.999042  0.107439  1
  Co  Co8  1  0.416535  0.008937  0.682678  1
  Co  Co9  1  0.583465  0.991063  0.317322  1
  O  O10  1  0.184646  0.248551  0.863720  1
  O  O11  1  0.392679  0.765905  0.948773  1
  O  O12  1  0.589146  0.768033  0.545819  1
  O  O13  1  0.992274  0.238864  0.234959  1
  O  O14  1  0.779271  0.233666  0.663826  1
  O  O15  1  0.220729  0.766334  0.336174  1
  O  O16  1  0.007726  0.761136  0.765041  1
  O  O17  1  0.410854  0.231967  0.454181  1
  O  O18  1  0.607321  0.234095  0.051227  1
  O  O19  1  0.815354  0.751449  0.136280  1
