# generated using pymatgen
data_LiSb3(PO5)2
_symmetry_space_group_name_H-M   'P 1'
_cell_length_a   5.29698005
_cell_length_b   6.70651031
_cell_length_c   6.99527992
_cell_angle_alpha   112.07276694
_cell_angle_beta   109.82912672
_cell_angle_gamma   85.41993829
_symmetry_Int_Tables_number   1
_chemical_formula_structural   LiSb3(PO5)2
_chemical_formula_sum   'Li1 Sb3 P2 O10'
_cell_volume   216.31108297
_cell_formula_units_Z   1
loop_
 _symmetry_equiv_pos_site_id
 _symmetry_equiv_pos_as_xyz
  1  'x, y, z'
loop_
 _atom_site_type_symbol
 _atom_site_label
 _atom_site_symmetry_multiplicity
 _atom_site_fract_x
 _atom_site_fract_y
 _atom_site_fract_z
 _atom_site_occupancy
  Li  Li0  1  0.889397  0.486528  0.998381  1
  Sb  Sb1  1  0.559731  0.414999  0.337385  1
  Sb  Sb2  1  0.015137  0.013197  0.034784  1
  Sb  Sb3  1  0.384496  0.165107  0.765556  1
  P  P4  1  0.649978  0.930329  0.380822  1
  P  P5  1  0.288961  0.619527  0.708507  1
  O  O6  1  0.722220  0.998591  0.634919  1
  O  O7  1  0.360489  0.868023  0.843284  1
  O  O8  1  0.586844  0.683601  0.256915  1
  O  O9  1  0.244232  0.574690  0.461241  1
  O  O10  1  0.044399  0.552855  0.741936  1
  O  O11  1  0.220534  0.285486  0.052337  1
  O  O12  1  0.719414  0.249719  0.041297  1
  O  O13  1  0.535966  0.489247  0.786947  1
  O  O14  1  0.875588  0.003583  0.327279  1
  O  O15  1  0.386912  0.054099  0.316310  1
