# generated using pymatgen
data_Li2Fe2Si4O11
_symmetry_space_group_name_H-M   'P 1'
_cell_length_a   7.04741651
_cell_length_b   7.58095190
_cell_length_c   8.79380012
_cell_angle_alpha   99.96762003
_cell_angle_beta   101.12744171
_cell_angle_gamma   104.42481130
_symmetry_Int_Tables_number   1
_chemical_formula_structural   Li2Fe2Si4O11
_chemical_formula_sum   'Li4 Fe4 Si8 O22'
_cell_volume   434.19350129
_cell_formula_units_Z   2
loop_
 _symmetry_equiv_pos_site_id
 _symmetry_equiv_pos_as_xyz
  1  'x, y, z'
loop_
 _atom_site_type_symbol
 _atom_site_label
 _atom_site_symmetry_multiplicity
 _atom_site_fract_x
 _atom_site_fract_y
 _atom_site_fract_z
 _atom_site_occupancy
  Li  Li0  1  0.388694  0.211605  0.803000  1
  Li  Li1  1  0.859719  0.249673  0.848059  1
  Li  Li2  1  0.140281  0.750327  0.151941  1
  Li  Li3  1  0.611306  0.788395  0.197000  1
  Fe  Fe4  1  0.116959  0.377428  0.611835  1
  Fe  Fe5  1  0.628466  0.381610  0.602116  1
  Fe  Fe6  1  0.371534  0.618390  0.397884  1
  Fe  Fe7  1  0.883041  0.622572  0.388165  1
  Si  Si8  1  0.760736  0.612760  0.966014  1
  Si  Si9  1  0.041420  0.774162  0.766251  1
  Si  Si10  1  0.477838  0.776487  0.773053  1
  Si  Si11  1  0.232234  0.026236  0.401826  1
  Si  Si12  1  0.767766  0.973764  0.598174  1
  Si  Si13  1  0.522162  0.223513  0.226947  1
  Si  Si14  1  0.958580  0.225838  0.233749  1
  Si  Si15  1  0.239264  0.387240  0.033986  1
  O  O16  1  0.184375  0.373958  0.846302  1
  O  O17  1  0.601026  0.740217  0.938261  1
  O  O18  1  0.677119  0.406619  0.845193  1
  O  O19  1  0.975893  0.736184  0.931287  1
  O  O20  1  0.288902  0.845716  0.816795  1
  O  O21  1  0.616364  0.957715  0.724977  1
  O  O22  1  0.321174  0.189050  0.564879  1
  O  O23  1  0.416454  0.590186  0.629474  1
  O  O24  1  0.818111  0.193131  0.593552  1
  O  O25  1  0.975870  0.949358  0.709371  1
  O  O26  1  0.939215  0.585698  0.625079  1
  O  O27  1  0.060785  0.414302  0.374921  1
  O  O28  1  0.024130  0.050642  0.290629  1
  O  O29  1  0.181889  0.806869  0.406448  1
  O  O30  1  0.583546  0.409814  0.370526  1
  O  O31  1  0.678826  0.810950  0.435121  1
  O  O32  1  0.383636  0.042285  0.275023  1
  O  O33  1  0.711098  0.154284  0.183205  1
  O  O34  1  0.024107  0.263816  0.068713  1
  O  O35  1  0.322881  0.593381  0.154807  1
  O  O36  1  0.398974  0.259783  0.061739  1
  O  O37  1  0.815625  0.626042  0.153698  1
