# generated using pymatgen
data_NaH8O5
_symmetry_space_group_name_H-M   'P 1'
_cell_length_a   7.90981301
_cell_length_b   7.90981301
_cell_length_c   11.56070326
_cell_angle_alpha   64.53510596
_cell_angle_beta   115.46489404
_cell_angle_gamma   131.27138247
_symmetry_Int_Tables_number   1
_chemical_formula_structural   NaH8O5
_chemical_formula_sum   'Na4 H32 O20'
_cell_volume   479.26138629
_cell_formula_units_Z   4
loop_
 _symmetry_equiv_pos_site_id
 _symmetry_equiv_pos_as_xyz
  1  'x, y, z'
loop_
 _atom_site_type_symbol
 _atom_site_label
 _atom_site_symmetry_multiplicity
 _atom_site_fract_x
 _atom_site_fract_y
 _atom_site_fract_z
 _atom_site_occupancy
  Na  Na0  1  0.694051  0.296051  0.932007  1
  Na  Na1  1  0.296051  0.694051  0.567993  1
  Na  Na2  1  0.305949  0.703949  0.067993  1
  Na  Na3  1  0.703949  0.305949  0.432007  1
  H  H4  1  0.097329  0.344433  0.929660  1
  H  H5  1  0.344433  0.097329  0.570340  1
  H  H6  1  0.902671  0.655567  0.070340  1
  H  H7  1  0.655567  0.902671  0.429660  1
  H  H8  1  0.040517  0.205191  0.071298  1
  H  H9  1  0.205191  0.040517  0.428702  1
  H  H10  1  0.959483  0.794809  0.928702  1
  H  H11  1  0.794809  0.959483  0.571298  1
  H  H12  1  0.844603  0.679075  0.713419  1
  H  H13  1  0.679075  0.844603  0.786581  1
  H  H14  1  0.155397  0.320925  0.286581  1
  H  H15  1  0.320925  0.155397  0.213419  1
  H  H16  1  0.586224  0.459501  0.671701  1
  H  H17  1  0.459501  0.586224  0.828299  1
  H  H18  1  0.413776  0.540499  0.328299  1
  H  H19  1  0.540499  0.413776  0.171701  1
  H  H20  1  0.214178  0.179634  0.868779  1
  H  H21  1  0.179634  0.214178  0.631221  1
  H  H22  1  0.785822  0.820366  0.131221  1
  H  H23  1  0.820366  0.785822  0.368779  1
  H  H24  1  0.383548  0.262467  0.005262  1
  H  H25  1  0.262467  0.383548  0.494738  1
  H  H26  1  0.616452  0.737533  0.994738  1
  H  H27  1  0.737533  0.616452  0.505262  1
  H  H28  1  0.407282  0.881779  0.816419  1
  H  H29  1  0.881779  0.407282  0.683581  1
  H  H30  1  0.592718  0.118221  0.183581  1
  H  H31  1  0.118221  0.592718  0.316419  1
  H  H32  1  0.236561  0.944411  0.795796  1
  H  H33  1  0.944411  0.236561  0.704204  1
  H  H34  1  0.763439  0.055589  0.204204  1
  H  H35  1  0.055589  0.763439  0.295796  1
  O  O36  1  0.001176  0.960991  0.700759  1
  O  O37  1  0.960991  0.001176  0.799241  1
  O  O38  1  0.998824  0.039009  0.299241  1
  O  O39  1  0.039009  0.998824  0.200759  1
  O  O40  1  0.042543  0.333903  0.994834  1
  O  O41  1  0.333903  0.042543  0.505166  1
  O  O42  1  0.957457  0.666097  0.005166  1
  O  O43  1  0.666097  0.957457  0.494834  1
  O  O44  1  0.749132  0.510760  0.710854  1
  O  O45  1  0.510760  0.749132  0.789146  1
  O  O46  1  0.250868  0.489240  0.289146  1
  O  O47  1  0.489240  0.250868  0.210854  1
  O  O48  1  0.376622  0.303285  0.911154  1
  O  O49  1  0.303285  0.376622  0.588846  1
  O  O50  1  0.623378  0.696715  0.088846  1
  O  O51  1  0.696715  0.623378  0.411154  1
  O  O52  1  0.374850  0.946335  0.854125  1
  O  O53  1  0.946335  0.374850  0.645875  1
  O  O54  1  0.625150  0.053665  0.145875  1
  O  O55  1  0.053665  0.625150  0.354125  1
