# generated using pymatgen
data_Li2Ni4OF8
_symmetry_space_group_name_H-M   'P 1'
_cell_length_a   5.15700276
_cell_length_b   5.15700276
_cell_length_c   14.05720074
_cell_angle_alpha   89.58235176
_cell_angle_beta   90.41764824
_cell_angle_gamma   120.52677435
_symmetry_Int_Tables_number   1
_chemical_formula_structural   Li2Ni4OF8
_chemical_formula_sum   'Li4 Ni8 O2 F16'
_cell_volume   322.01718716
_cell_formula_units_Z   2
loop_
 _symmetry_equiv_pos_site_id
 _symmetry_equiv_pos_as_xyz
  1  'x, y, z'
loop_
 _atom_site_type_symbol
 _atom_site_label
 _atom_site_symmetry_multiplicity
 _atom_site_fract_x
 _atom_site_fract_y
 _atom_site_fract_z
 _atom_site_occupancy
  Li  Li0  1  0.005427  0.002694  0.153584  1
  Li  Li1  1  0.998175  0.978455  0.354930  1
  Li  Li2  1  0.997306  0.994573  0.653584  1
  Li  Li3  1  0.021545  0.001825  0.854930  1
  Ni  Ni4  1  0.687401  0.346479  0.319445  1
  Ni  Ni5  1  0.654743  0.330691  0.012366  1
  Ni  Ni6  1  0.653521  0.312599  0.819445  1
  Ni  Ni7  1  0.669309  0.345257  0.512366  1
  Ni  Ni8  1  0.336017  0.670653  0.181343  1
  Ni  Ni9  1  0.341772  0.694563  0.975689  1
  Ni  Ni10  1  0.329347  0.663983  0.681343  1
  Ni  Ni11  1  0.305437  0.658228  0.475689  1
  O  O12  1  0.376336  0.047768  0.918231  1
  O  O13  1  0.952232  0.623664  0.418231  1
  F  F14  1  0.308509  0.311225  0.747287  1
  F  F15  1  0.348159  0.322749  0.416932  1
  F  F16  1  0.688775  0.691491  0.247287  1
  F  F17  1  0.677251  0.651841  0.916932  1
  F  F18  1  0.993239  0.675825  0.747339  1
  F  F19  1  0.023117  0.666466  0.084338  1
  F  F20  1  0.659105  0.015071  0.415021  1
  F  F21  1  0.324175  0.006761  0.247339  1
  F  F22  1  0.333534  0.976883  0.584338  1
  F  F23  1  0.984929  0.340895  0.915021  1
  F  F24  1  0.009080  0.313061  0.247922  1
  F  F25  1  0.023499  0.353625  0.585424  1
  F  F26  1  0.331054  0.372308  0.082528  1
  F  F27  1  0.646375  0.976501  0.085424  1
  F  F28  1  0.686939  0.990920  0.747922  1
  F  F29  1  0.627692  0.668946  0.582528  1
