# generated using pymatgen
data_Li4V2Cr3Co3O16
_symmetry_space_group_name_H-M   'P 1'
_cell_length_a   5.82385357
_cell_length_b   5.82385357
_cell_length_c   9.30407784
_cell_angle_alpha   89.75770598
_cell_angle_beta   90.24229402
_cell_angle_gamma   119.94600844
_symmetry_Int_Tables_number   1
_chemical_formula_structural   Li4V2Cr3Co3O16
_chemical_formula_sum   'Li4 V2 Cr3 Co3 O16'
_cell_volume   273.43600643
_cell_formula_units_Z   1
loop_
 _symmetry_equiv_pos_site_id
 _symmetry_equiv_pos_as_xyz
  1  'x, y, z'
loop_
 _atom_site_type_symbol
 _atom_site_label
 _atom_site_symmetry_multiplicity
 _atom_site_fract_x
 _atom_site_fract_y
 _atom_site_fract_z
 _atom_site_occupancy
  Li  Li0  1  0.669027  0.330973  0.106516  1
  Li  Li1  1  0.994255  0.005745  0.007668  1
  Li  Li2  1  0.994606  0.005394  0.502269  1
  Li  Li3  1  0.335719  0.664281  0.600700  1
  V  V4  1  0.666500  0.333500  0.501694  1
  V  V5  1  0.333081  0.666919  0.006799  1
  Cr  Cr6  1  0.828451  0.656099  0.785131  1
  Cr  Cr7  1  0.343901  0.171549  0.785131  1
  Cr  Cr8  1  0.171690  0.828310  0.284302  1
  Co  Co9  1  0.826991  0.173009  0.781890  1
  Co  Co10  1  0.654880  0.827913  0.284987  1
  Co  Co11  1  0.172087  0.345120  0.284987  1
  O  O12  1  0.823715  0.653852  0.406943  1
  O  O13  1  0.522666  0.477334  0.653417  1
  O  O14  1  0.668355  0.331645  0.899346  1
  O  O15  1  0.998472  0.001528  0.691392  1
  O  O16  1  0.994121  0.005879  0.194998  1
  O  O17  1  0.346148  0.176285  0.406943  1
  O  O18  1  0.958967  0.478042  0.652139  1
  O  O19  1  0.521958  0.041033  0.652139  1
  O  O20  1  0.172285  0.827715  0.911891  1
  O  O21  1  0.824983  0.175017  0.402055  1
  O  O22  1  0.485149  0.953283  0.157054  1
  O  O23  1  0.046717  0.514851  0.157054  1
  O  O24  1  0.338978  0.661022  0.390989  1
  O  O25  1  0.650024  0.821746  0.909685  1
  O  O26  1  0.477024  0.522976  0.164429  1
  O  O27  1  0.178254  0.349976  0.909685  1
