# generated using pymatgen
data_Ti3V5O16
_symmetry_space_group_name_H-M   'P 1'
_cell_length_a   5.90771513
_cell_length_b   5.90771513
_cell_length_c   9.02114750
_cell_angle_alpha   89.89769474
_cell_angle_beta   90.10230526
_cell_angle_gamma   119.38417615
_symmetry_Int_Tables_number   1
_chemical_formula_structural   Ti3V5O16
_chemical_formula_sum   'Ti3 V5 O16'
_cell_volume   274.34197391
_cell_formula_units_Z   1
loop_
 _symmetry_equiv_pos_site_id
 _symmetry_equiv_pos_as_xyz
  1  'x, y, z'
loop_
 _atom_site_type_symbol
 _atom_site_label
 _atom_site_symmetry_multiplicity
 _atom_site_fract_x
 _atom_site_fract_y
 _atom_site_fract_z
 _atom_site_occupancy
  Ti  Ti0  1  0.664337  0.838663  0.211999  1
  Ti  Ti1  1  0.161337  0.335663  0.211999  1
  Ti  Ti2  1  0.835589  0.164411  0.707368  1
  V  V3  1  0.331290  0.668710  0.485934  1
  V  V4  1  0.166973  0.833027  0.204834  1
  V  V5  1  0.661345  0.338655  0.985339  1
  V  V6  1  0.336169  0.166838  0.710279  1
  V  V7  1  0.833162  0.663831  0.710279  1
  O  O8  1  0.664707  0.826379  0.605736  1
  O  O9  1  0.472770  0.527230  0.345178  1
  O  O10  1  0.334881  0.665119  0.097772  1
  O  O11  1  0.998505  0.001495  0.312598  1
  O  O12  1  0.001115  0.998885  0.813622  1
  O  O13  1  0.173621  0.335293  0.605736  1
  O  O14  1  0.467175  0.952329  0.337190  1
  O  O15  1  0.047671  0.532825  0.337190  1
  O  O16  1  0.827696  0.172304  0.104351  1
  O  O17  1  0.177522  0.822478  0.603233  1
  O  O18  1  0.948825  0.478689  0.838815  1
  O  O19  1  0.521311  0.051175  0.838815  1
  O  O20  1  0.668893  0.331107  0.599521  1
  O  O21  1  0.830035  0.656673  0.104950  1
  O  O22  1  0.523168  0.476832  0.837668  1
  O  O23  1  0.343327  0.169965  0.104950  1
