# generated using pymatgen
data_Li5Mn5(NiO6)2
_symmetry_space_group_name_H-M   'P 1'
_cell_length_a   5.16780190
_cell_length_b   5.16780190
_cell_length_c   9.84884187
_cell_angle_alpha   84.97348761
_cell_angle_beta   95.02651239
_cell_angle_gamma   60.35675407
_symmetry_Int_Tables_number   1
_chemical_formula_structural   Li5Mn5(NiO6)2
_chemical_formula_sum   'Li5 Mn5 Ni2 O12'
_cell_volume   225.10164276
_cell_formula_units_Z   1
loop_
 _symmetry_equiv_pos_site_id
 _symmetry_equiv_pos_as_xyz
  1  'x, y, z'
loop_
 _atom_site_type_symbol
 _atom_site_label
 _atom_site_symmetry_multiplicity
 _atom_site_fract_x
 _atom_site_fract_y
 _atom_site_fract_z
 _atom_site_occupancy
  Li  Li0  1  0.824858  0.343335  0.743497  1
  Li  Li1  1  0.677910  0.156343  0.259291  1
  Li  Li2  1  0.343335  0.824858  0.256503  1
  Li  Li3  1  0.156343  0.677910  0.740709  1
  Li  Li4  1  0.078169  0.078169  0.500000  1
  Mn  Mn5  1  0.926386  0.926386  0.000000  1
  Mn  Mn6  1  0.009280  0.480676  0.256804  1
  Mn  Mn7  1  0.480676  0.009280  0.743196  1
  Mn  Mn8  1  0.583359  0.583359  0.000000  1
  Mn  Mn9  1  0.418840  0.418840  0.500000  1
  Ni  Ni10  1  0.745377  0.745377  0.500000  1
  Ni  Ni11  1  0.253943  0.253943  0.000000  1
  O  O12  1  0.060821  0.745001  0.381211  1
  O  O13  1  0.745001  0.060821  0.618789  1
  O  O14  1  0.835860  0.649888  0.872865  1
  O  O15  1  0.649888  0.835860  0.127135  1
  O  O16  1  0.694010  0.453763  0.386253  1
  O  O17  1  0.453763  0.694010  0.613747  1
  O  O18  1  0.543707  0.304316  0.887221  1
  O  O19  1  0.304316  0.543707  0.112779  1
  O  O20  1  0.372071  0.149462  0.378263  1
  O  O21  1  0.149462  0.372071  0.621737  1
  O  O22  1  0.207937  0.984688  0.867206  1
  O  O23  1  0.984688  0.207937  0.132794  1
