# generated using pymatgen
data_DyGaO3
_symmetry_space_group_name_H-M   'P 1'
_cell_length_a   5.30715281
_cell_length_b   5.59716506
_cell_length_c   7.63873974
_cell_angle_alpha   90.00000000
_cell_angle_beta   90.00000000
_cell_angle_gamma   90.00000000
_symmetry_Int_Tables_number   1
_chemical_formula_structural   DyGaO3
_chemical_formula_sum   'Dy4 Ga4 O12'
_cell_volume   226.90884247
_cell_formula_units_Z   4
loop_
 _symmetry_equiv_pos_site_id
 _symmetry_equiv_pos_as_xyz
  1  'x, y, z'
loop_
 _atom_site_type_symbol
 _atom_site_label
 _atom_site_symmetry_multiplicity
 _atom_site_fract_x
 _atom_site_fract_y
 _atom_site_fract_z
 _atom_site_occupancy
  Dy  Dy0  1  0.481589  0.067681  0.250000  1
  Dy  Dy1  1  0.018411  0.567681  0.250000  1
  Dy  Dy2  1  0.518411  0.932319  0.750000  1
  Dy  Dy3  1  0.981589  0.432319  0.750000  1
  Ga  Ga4  1  0.500000  0.500000  0.500000  1
  Ga  Ga5  1  0.000000  0.000000  0.000000  1
  Ga  Ga6  1  0.500000  0.500000  0.000000  1
  Ga  Ga7  1  0.000000  0.000000  0.500000  1
  O  O8  1  0.390388  0.537442  0.750000  1
  O  O9  1  0.109612  0.037442  0.750000  1
  O  O10  1  0.609612  0.462558  0.250000  1
  O  O11  1  0.890388  0.962558  0.250000  1
  O  O12  1  0.805725  0.695481  0.556116  1
  O  O13  1  0.694275  0.195481  0.943884  1
  O  O14  1  0.194275  0.304519  0.056116  1
  O  O15  1  0.305725  0.804519  0.443884  1
  O  O16  1  0.194275  0.304519  0.443884  1
  O  O17  1  0.305725  0.804519  0.056116  1
  O  O18  1  0.805725  0.695481  0.943884  1
  O  O19  1  0.694275  0.195481  0.556116  1
