# generated using pymatgen
data_Li9Fe5(SiO8)2
_symmetry_space_group_name_H-M   'P 1'
_cell_length_a   5.07810350
_cell_length_b   11.61217818
_cell_length_c   5.13037592
_cell_angle_alpha   90.00000000
_cell_angle_beta   109.42492891
_cell_angle_gamma   90.00000000
_symmetry_Int_Tables_number   1
_chemical_formula_structural   Li9Fe5(SiO8)2
_chemical_formula_sum   'Li9 Fe5 Si2 O16'
_cell_volume   285.30676141
_cell_formula_units_Z   1
loop_
 _symmetry_equiv_pos_site_id
 _symmetry_equiv_pos_as_xyz
  1  'x, y, z'
loop_
 _atom_site_type_symbol
 _atom_site_label
 _atom_site_symmetry_multiplicity
 _atom_site_fract_x
 _atom_site_fract_y
 _atom_site_fract_z
 _atom_site_occupancy
  Li  Li0  1  0.000000  0.384214  0.000000  1
  Li  Li1  1  0.000000  0.124924  0.000000  1
  Li  Li2  1  0.500000  0.257961  0.000000  1
  Li  Li3  1  0.000000  0.875076  0.000000  1
  Li  Li4  1  0.500000  0.000000  0.000000  1
  Li  Li5  1  0.000000  0.615786  0.000000  1
  Li  Li6  1  0.500000  0.742039  0.000000  1
  Li  Li7  1  0.000000  0.500000  0.500000  1
  Li  Li8  1  0.500000  0.500000  0.000000  1
  Fe  Fe9  1  0.000000  0.261077  0.500000  1
  Fe  Fe10  1  0.000000  0.000000  0.500000  1
  Fe  Fe11  1  0.500000  0.129481  0.500000  1
  Fe  Fe12  1  0.000000  0.738923  0.500000  1
  Fe  Fe13  1  0.500000  0.870519  0.500000  1
  Si  Si14  1  0.500000  0.383105  0.500000  1
  Si  Si15  1  0.500000  0.616895  0.500000  1
  O  O16  1  0.720416  0.374984  0.289716  1
  O  O17  1  0.757840  0.127652  0.268834  1
  O  O18  1  0.729547  0.266914  0.721507  1
  O  O19  1  0.742263  0.000000  0.733242  1
  O  O20  1  0.270453  0.266914  0.278493  1
  O  O21  1  0.757840  0.872348  0.268834  1
  O  O22  1  0.279584  0.374984  0.710284  1
  O  O23  1  0.257737  0.000000  0.266758  1
  O  O24  1  0.720416  0.625016  0.289716  1
  O  O25  1  0.729547  0.733086  0.721507  1
  O  O26  1  0.242160  0.127652  0.731166  1
  O  O27  1  0.270453  0.733086  0.278493  1
  O  O28  1  0.242160  0.872348  0.731166  1
  O  O29  1  0.706557  0.500000  0.711481  1
  O  O30  1  0.279584  0.625016  0.710284  1
  O  O31  1  0.293443  0.500000  0.288519  1
