# generated using pymatgen
data_Li2Fe3F8
_symmetry_space_group_name_H-M   'P 1'
_cell_length_a   6.55461294
_cell_length_b   11.51675208
_cell_length_c   9.05826594
_cell_angle_alpha   90.00000000
_cell_angle_beta   96.34533676
_cell_angle_gamma   90.00000000
_symmetry_Int_Tables_number   1
_chemical_formula_structural   Li2Fe3F8
_chemical_formula_sum   'Li8 Fe12 F32'
_cell_volume   679.60002219
_cell_formula_units_Z   4
loop_
 _symmetry_equiv_pos_site_id
 _symmetry_equiv_pos_as_xyz
  1  'x, y, z'
loop_
 _atom_site_type_symbol
 _atom_site_label
 _atom_site_symmetry_multiplicity
 _atom_site_fract_x
 _atom_site_fract_y
 _atom_site_fract_z
 _atom_site_occupancy
  Li  Li0  1  0.099361  0.617846  0.926683  1
  Li  Li1  1  0.599361  0.882154  0.926683  1
  Li  Li2  1  0.297547  0.428363  0.598885  1
  Li  Li3  1  0.797547  0.071637  0.598885  1
  Li  Li4  1  0.202453  0.928363  0.401115  1
  Li  Li5  1  0.702453  0.571637  0.401115  1
  Li  Li6  1  0.400639  0.117846  0.073317  1
  Li  Li7  1  0.900639  0.382154  0.073317  1
  Fe  Fe8  1  0.360199  0.397731  0.935070  1
  Fe  Fe9  1  0.860199  0.102269  0.935070  1
  Fe  Fe10  1  0.316487  0.096784  0.740345  1
  Fe  Fe11  1  0.816487  0.403216  0.740345  1
  Fe  Fe12  1  0.357901  0.703936  0.638418  1
  Fe  Fe13  1  0.857901  0.796064  0.638418  1
  Fe  Fe14  1  0.142099  0.203936  0.361582  1
  Fe  Fe15  1  0.642099  0.296064  0.361582  1
  Fe  Fe16  1  0.183513  0.596784  0.259655  1
  Fe  Fe17  1  0.683513  0.903216  0.259655  1
  Fe  Fe18  1  0.139801  0.897731  0.064930  1
  Fe  Fe19  1  0.639801  0.602269  0.064930  1
  F  F20  1  0.384415  0.580655  0.902446  1
  F  F21  1  0.362389  0.222376  0.912238  1
  F  F22  1  0.334684  0.960035  0.910777  1
  F  F23  1  0.884415  0.919345  0.902446  1
  F  F24  1  0.862389  0.277624  0.912238  1
  F  F25  1  0.834684  0.539965  0.910777  1
  F  F26  1  0.084975  0.715861  0.763466  1
  F  F27  1  0.020298  0.096804  0.744182  1
  F  F28  1  0.584975  0.784139  0.763466  1
  F  F29  1  0.116395  0.408923  0.742560  1
  F  F30  1  0.520298  0.403196  0.744182  1
  F  F31  1  0.616395  0.091077  0.742560  1
  F  F32  1  0.144587  0.812667  0.527764  1
  F  F33  1  0.252157  0.573314  0.498543  1
  F  F34  1  0.644587  0.687333  0.527764  1
  F  F35  1  0.752157  0.926686  0.498543  1
  F  F36  1  0.247843  0.073314  0.501457  1
  F  F37  1  0.355413  0.312667  0.472236  1
  F  F38  1  0.747843  0.426686  0.501457  1
  F  F39  1  0.855413  0.187333  0.472236  1
  F  F40  1  0.383605  0.908923  0.257440  1
  F  F41  1  0.479702  0.596804  0.255818  1
  F  F42  1  0.883605  0.591077  0.257440  1
  F  F43  1  0.415025  0.215861  0.236534  1
  F  F44  1  0.979702  0.903196  0.255818  1
  F  F45  1  0.915025  0.284139  0.236534  1
  F  F46  1  0.165316  0.460035  0.089223  1
  F  F47  1  0.137611  0.722376  0.087762  1
  F  F48  1  0.115585  0.080655  0.097554  1
  F  F49  1  0.665316  0.039965  0.089223  1
  F  F50  1  0.637611  0.777624  0.087762  1
  F  F51  1  0.615585  0.419345  0.097554  1
