# generated using pymatgen
data_MnH12N2(Cl2O)2
_symmetry_space_group_name_H-M   'P 1'
_cell_length_a   6.85201326
_cell_length_b   6.85201326
_cell_length_c   6.85201326
_cell_angle_alpha   113.42706497
_cell_angle_beta   113.42706497
_cell_angle_gamma   101.81997273
_symmetry_Int_Tables_number   1
_chemical_formula_structural   MnH12N2(Cl2O)2
_chemical_formula_sum   'Mn1 H12 N2 Cl4 O2'
_cell_volume   244.39706593
_cell_formula_units_Z   1
loop_
 _symmetry_equiv_pos_site_id
 _symmetry_equiv_pos_as_xyz
  1  'x, y, z'
loop_
 _atom_site_type_symbol
 _atom_site_label
 _atom_site_symmetry_multiplicity
 _atom_site_fract_x
 _atom_site_fract_y
 _atom_site_fract_z
 _atom_site_occupancy
  Mn  Mn0  1  0.000000  0.000000  0.000000  1
  H  H1  1  0.601619  0.601619  0.851979  1
  H  H2  1  0.749639  0.749639  0.148021  1
  H  H3  1  0.398381  0.250361  1.000000  1
  H  H4  1  0.821714  0.431519  0.612733  1
  H  H5  1  0.208981  0.818785  0.387267  1
  H  H6  1  0.568481  0.181215  0.390195  1
  H  H7  1  0.178286  0.791019  0.609805  1
  H  H8  1  0.431519  0.821714  0.612733  1
  H  H9  1  0.818785  0.208981  0.387267  1
  H  H10  1  0.181215  0.568481  0.390195  1
  H  H11  1  0.791019  0.178286  0.609805  1
  H  H12  1  0.250361  0.398381  0.000000  1
  N  N13  1  0.250000  0.750000  0.500000  1
  N  N14  1  0.750000  0.250000  0.500000  1
  Cl  Cl15  1  0.240401  0.240401  0.476254  1
  Cl  Cl16  1  0.759599  0.235853  1.000000  1
  Cl  Cl17  1  0.235853  0.759599  0.000000  1
  Cl  Cl18  1  0.764147  0.764147  0.523746  1
  O  O19  1  0.256991  0.256991  0.000000  1
  O  O20  1  0.743009  0.743009  0.000000  1
