# generated using pymatgen
data_Sm3ReO8
_symmetry_space_group_name_H-M   'P 1'
_cell_length_a   7.41988070
_cell_length_b   6.15026403
_cell_length_c   14.83972770
_cell_angle_alpha   90.00000000
_cell_angle_beta   111.05915501
_cell_angle_gamma   90.00000000
_symmetry_Int_Tables_number   1
_chemical_formula_structural   Sm3ReO8
_chemical_formula_sum   'Sm12 Re4 O32'
_cell_volume   631.96927964
_cell_formula_units_Z   4
loop_
 _symmetry_equiv_pos_site_id
 _symmetry_equiv_pos_as_xyz
  1  'x, y, z'
loop_
 _atom_site_type_symbol
 _atom_site_label
 _atom_site_symmetry_multiplicity
 _atom_site_fract_x
 _atom_site_fract_y
 _atom_site_fract_z
 _atom_site_occupancy
  Sm  Sm0  1  0.105236  0.688073  0.167047  1
  Sm  Sm1  1  0.894764  0.188073  0.332953  1
  Sm  Sm2  1  0.894764  0.311927  0.832953  1
  Sm  Sm3  1  0.105236  0.811927  0.667047  1
  Sm  Sm4  1  0.339100  0.300014  0.554194  1
  Sm  Sm5  1  0.660900  0.800014  0.945806  1
  Sm  Sm6  1  0.660900  0.699986  0.445806  1
  Sm  Sm7  1  0.339100  0.199986  0.054194  1
  Sm  Sm8  1  0.404595  0.261411  0.798599  1
  Sm  Sm9  1  0.595405  0.761411  0.701401  1
  Sm  Sm10  1  0.595405  0.738589  0.201401  1
  Sm  Sm11  1  0.404595  0.238589  0.298599  1
  Re  Re12  1  0.820865  0.245619  0.090494  1
  Re  Re13  1  0.179135  0.745619  0.409506  1
  Re  Re14  1  0.179135  0.754381  0.909506  1
  Re  Re15  1  0.820865  0.254381  0.590494  1
  O  O16  1  0.973385  0.197409  0.520297  1
  O  O17  1  0.026615  0.697409  0.979703  1
  O  O18  1  0.026615  0.802591  0.479703  1
  O  O19  1  0.973385  0.302591  0.020297  1
  O  O20  1  0.751241  0.956976  0.596366  1
  O  O21  1  0.248759  0.456976  0.903634  1
  O  O22  1  0.248759  0.043024  0.403634  1
  O  O23  1  0.751241  0.543024  0.096366  1
  O  O24  1  0.669395  0.349949  0.669024  1
  O  O25  1  0.330605  0.849949  0.830976  1
  O  O26  1  0.330605  0.650051  0.330976  1
  O  O27  1  0.669395  0.150051  0.169024  1
  O  O28  1  0.878299  0.550051  0.588823  1
  O  O29  1  0.121701  0.050051  0.911177  1
  O  O30  1  0.121701  0.449949  0.411177  1
  O  O31  1  0.878299  0.949949  0.088823  1
  O  O32  1  0.684859  0.469657  0.327041  1
  O  O33  1  0.315141  0.969657  0.172959  1
  O  O34  1  0.315141  0.530343  0.672959  1
  O  O35  1  0.684859  0.030343  0.827041  1
  O  O36  1  0.352756  0.469636  0.159396  1
  O  O37  1  0.647244  0.969636  0.340604  1
  O  O38  1  0.647244  0.530364  0.840604  1
  O  O39  1  0.352756  0.030364  0.659396  1
  O  O40  1  0.589478  0.197794  0.982056  1
  O  O41  1  0.410522  0.697794  0.517944  1
  O  O42  1  0.410522  0.802206  0.017944  1
  O  O43  1  0.589478  0.302206  0.482056  1
  O  O44  1  0.029624  0.294647  0.211047  1
  O  O45  1  0.970376  0.794647  0.288953  1
  O  O46  1  0.970376  0.705353  0.788953  1
  O  O47  1  0.029624  0.205353  0.711047  1
