# generated using pymatgen
data_Li5Ti2Fe3O10
_symmetry_space_group_name_H-M   'P 1'
_cell_length_a   5.16799813
_cell_length_b   5.23842917
_cell_length_c   7.84074349
_cell_angle_alpha   72.01849555
_cell_angle_beta   71.10450657
_cell_angle_gamma   80.07530199
_symmetry_Int_Tables_number   1
_chemical_formula_structural   Li5Ti2Fe3O10
_chemical_formula_sum   'Li5 Ti2 Fe3 O10'
_cell_volume   190.39923649
_cell_formula_units_Z   1
loop_
 _symmetry_equiv_pos_site_id
 _symmetry_equiv_pos_as_xyz
  1  'x, y, z'
loop_
 _atom_site_type_symbol
 _atom_site_label
 _atom_site_symmetry_multiplicity
 _atom_site_fract_x
 _atom_site_fract_y
 _atom_site_fract_z
 _atom_site_occupancy
  Li  Li0  1  0.494837  0.779901  0.405043  1
  Li  Li1  1  0.513671  0.600364  0.790112  1
  Li  Li2  1  0.000000  0.500000  0.500000  1
  Li  Li3  1  0.505163  0.220099  0.594957  1
  Li  Li4  1  0.486329  0.399636  0.209888  1
  Ti  Ti5  1  0.021832  0.904246  0.694200  1
  Ti  Ti6  1  0.978168  0.095754  0.305800  1
  Fe  Fe7  1  0.500000  0.000000  0.000000  1
  Fe  Fe8  1  0.000873  0.687438  0.106149  1
  Fe  Fe9  1  0.999127  0.312562  0.893851  1
  O  O10  1  0.245218  0.951231  0.845791  1
  O  O11  1  0.781475  0.865811  0.539906  1
  O  O12  1  0.749728  0.684610  0.933040  1
  O  O13  1  0.252783  0.784144  0.240134  1
  O  O14  1  0.228852  0.576938  0.660323  1
  O  O15  1  0.771148  0.423062  0.339677  1
  O  O16  1  0.747217  0.215856  0.759866  1
  O  O17  1  0.250272  0.315390  0.066960  1
  O  O18  1  0.218525  0.134189  0.460094  1
  O  O19  1  0.754782  0.048769  0.154209  1
