# generated using pymatgen
data_Sr(IO3)2
_symmetry_space_group_name_H-M   'P 1'
_cell_length_a   6.04189654
_cell_length_b   6.21067673
_cell_length_c   18.12898924
_cell_angle_alpha   90.00000000
_cell_angle_beta   90.00000000
_cell_angle_gamma   90.00000000
_symmetry_Int_Tables_number   1
_chemical_formula_structural   Sr(IO3)2
_chemical_formula_sum   'Sr4 I8 O24'
_cell_volume   680.27701901
_cell_formula_units_Z   4
loop_
 _symmetry_equiv_pos_site_id
 _symmetry_equiv_pos_as_xyz
  1  'x, y, z'
loop_
 _atom_site_type_symbol
 _atom_site_label
 _atom_site_symmetry_multiplicity
 _atom_site_fract_x
 _atom_site_fract_y
 _atom_site_fract_z
 _atom_site_occupancy
  Sr  Sr0  1  0.709513  0.171713  0.095972  1
  Sr  Sr1  1  0.209513  0.328287  0.904028  1
  Sr  Sr2  1  0.290487  0.671713  0.404028  1
  Sr  Sr3  1  0.790487  0.828287  0.595972  1
  I  I4  1  0.971042  0.135594  0.421072  1
  I  I5  1  0.253187  0.211721  0.209790  1
  I  I6  1  0.753187  0.288279  0.790210  1
  I  I7  1  0.471042  0.364406  0.578928  1
  I  I8  1  0.028958  0.635594  0.078928  1
  I  I9  1  0.746813  0.711721  0.290210  1
  I  I10  1  0.246813  0.788279  0.709790  1
  I  I11  1  0.528958  0.864406  0.921072  1
  O  O12  1  0.107250  0.015187  0.339376  1
  O  O13  1  0.052874  0.026788  0.166427  1
  O  O14  1  0.499203  0.037352  0.211284  1
  O  O15  1  0.469250  0.091961  0.983450  1
  O  O16  1  0.842411  0.131545  0.872100  1
  O  O17  1  0.701811  0.194089  0.546878  1
  O  O18  1  0.201811  0.305911  0.453122  1
  O  O19  1  0.342411  0.368455  0.127900  1
  O  O20  1  0.969250  0.408039  0.016550  1
  O  O21  1  0.999203  0.462648  0.788716  1
  O  O22  1  0.552874  0.473212  0.833573  1
  O  O23  1  0.607250  0.484813  0.660624  1
  O  O24  1  0.892750  0.515187  0.160624  1
  O  O25  1  0.947126  0.526788  0.333573  1
  O  O26  1  0.500797  0.537352  0.288716  1
  O  O27  1  0.530750  0.591961  0.516550  1
  O  O28  1  0.157589  0.631545  0.627900  1
  O  O29  1  0.298189  0.694089  0.953122  1
  O  O30  1  0.798189  0.805911  0.046878  1
  O  O31  1  0.657589  0.868455  0.372100  1
  O  O32  1  0.030750  0.908039  0.483450  1
  O  O33  1  0.000797  0.962648  0.711284  1
  O  O34  1  0.447126  0.973212  0.666427  1
  O  O35  1  0.392750  0.984813  0.839376  1
