# generated using pymatgen
data_Li2TiCrO4
_symmetry_space_group_name_H-M   'P 1'
_cell_length_a   5.93303582
_cell_length_b   5.93303582
_cell_length_c   5.93303582
_cell_angle_alpha   120.34859525
_cell_angle_beta   119.48379181
_cell_angle_gamma   90.14684595
_symmetry_Int_Tables_number   1
_chemical_formula_structural   Li2TiCrO4
_chemical_formula_sum   'Li4 Ti2 Cr2 O8'
_cell_volume   147.85408677
_cell_formula_units_Z   2
loop_
 _symmetry_equiv_pos_site_id
 _symmetry_equiv_pos_as_xyz
  1  'x, y, z'
loop_
 _atom_site_type_symbol
 _atom_site_label
 _atom_site_symmetry_multiplicity
 _atom_site_fract_x
 _atom_site_fract_y
 _atom_site_fract_z
 _atom_site_occupancy
  Li  Li0  1  0.000000  0.000000  0.500000  1
  Li  Li1  1  0.500000  0.000000  0.500000  1
  Li  Li2  1  0.500000  0.000000  0.000000  1
  Li  Li3  1  0.500000  0.500000  0.000000  1
  Ti  Ti4  1  0.000000  0.500000  0.500000  1
  Ti  Ti5  1  0.000000  0.000000  0.000000  1
  Cr  Cr6  1  0.000000  0.500000  0.000000  1
  Cr  Cr7  1  0.500000  0.500000  0.500000  1
  O  O8  1  0.244438  0.259439  0.015001  1
  O  O9  1  0.245459  0.255907  0.489552  1
  O  O10  1  0.244438  0.729437  0.484999  1
  O  O11  1  0.766355  0.255907  0.010448  1
  O  O12  1  0.233645  0.744093  0.989552  1
  O  O13  1  0.755562  0.270563  0.515001  1
  O  O14  1  0.754541  0.744093  0.510448  1
  O  O15  1  0.755562  0.740561  0.984999  1
