# generated using pymatgen
data_Mn2OF3
_symmetry_space_group_name_H-M   'P 1'
_cell_length_a   5.81349318
_cell_length_b   5.81349318
_cell_length_c   10.70986593
_cell_angle_alpha   69.36388279
_cell_angle_beta   110.63611721
_cell_angle_gamma   114.11240292
_symmetry_Int_Tables_number   1
_chemical_formula_structural   Mn2OF3
_chemical_formula_sum   'Mn8 O4 F12'
_cell_volume   299.83021174
_cell_formula_units_Z   4
loop_
 _symmetry_equiv_pos_site_id
 _symmetry_equiv_pos_as_xyz
  1  'x, y, z'
loop_
 _atom_site_type_symbol
 _atom_site_label
 _atom_site_symmetry_multiplicity
 _atom_site_fract_x
 _atom_site_fract_y
 _atom_site_fract_z
 _atom_site_occupancy
  Mn  Mn0  1  0.265659  0.734341  0.982813  1
  Mn  Mn1  1  0.881469  0.629173  0.250118  1
  Mn  Mn2  1  0.118531  0.370827  0.749882  1
  Mn  Mn3  1  0.734341  0.265659  0.017187  1
  Mn  Mn4  1  0.000000  0.000000  0.500000  1
  Mn  Mn5  1  0.500000  0.500000  0.500000  1
  Mn  Mn6  1  0.370827  0.118531  0.250118  1
  Mn  Mn7  1  0.629173  0.881469  0.749882  1
  O  O8  1  0.084461  0.915539  0.338498  1
  O  O9  1  0.915539  0.084461  0.661502  1
  O  O10  1  0.664670  0.335330  0.165071  1
  O  O11  1  0.335330  0.664670  0.834929  1
  F  F12  1  0.100158  0.398362  0.397939  1
  F  F13  1  0.185269  0.814731  0.142046  1
  F  F14  1  0.578362  0.421638  0.352510  1
  F  F15  1  0.814731  0.185269  0.857954  1
  F  F16  1  0.899842  0.601638  0.602061  1
  F  F17  1  0.150528  0.341565  0.101137  1
  F  F18  1  0.658435  0.849472  0.101137  1
  F  F19  1  0.601638  0.899842  0.397939  1
  F  F20  1  0.849472  0.658435  0.898863  1
  F  F21  1  0.341565  0.150528  0.898863  1
  F  F22  1  0.421638  0.578362  0.647490  1
  F  F23  1  0.398362  0.100158  0.602061  1
