# generated using pymatgen
data_MnV3(PO4)6
_symmetry_space_group_name_H-M   'P 1'
_cell_length_a   8.70881522
_cell_length_b   8.70881522
_cell_length_c   8.70881522
_cell_angle_alpha   58.47324454
_cell_angle_beta   58.47324454
_cell_angle_gamma   58.47324454
_symmetry_Int_Tables_number   1
_chemical_formula_structural   MnV3(PO4)6
_chemical_formula_sum   'Mn1 V3 P6 O24'
_cell_volume   450.73424864
_cell_formula_units_Z   1
loop_
 _symmetry_equiv_pos_site_id
 _symmetry_equiv_pos_as_xyz
  1  'x, y, z'
loop_
 _atom_site_type_symbol
 _atom_site_label
 _atom_site_symmetry_multiplicity
 _atom_site_fract_x
 _atom_site_fract_y
 _atom_site_fract_z
 _atom_site_occupancy
  Mn  Mn0  1  0.143602  0.143602  0.143602  1
  V  V1  1  0.858236  0.858236  0.858236  1
  V  V2  1  0.640410  0.640410  0.640410  1
  V  V3  1  0.360720  0.360720  0.360720  1
  P  P4  1  0.248855  0.531262  0.969564  1
  P  P5  1  0.969564  0.248855  0.531262  1
  P  P6  1  0.531262  0.969564  0.248855  1
  P  P7  1  0.463543  0.033141  0.754423  1
  P  P8  1  0.033141  0.754423  0.463543  1
  P  P9  1  0.754423  0.463543  0.033141  1
  O  O10  1  0.718239  0.497480  0.860338  1
  O  O11  1  0.497480  0.860338  0.718239  1
  O  O12  1  0.075752  0.714334  0.942549  1
  O  O13  1  0.860338  0.718239  0.497480  1
  O  O14  1  0.426547  0.563217  0.785554  1
  O  O15  1  0.231191  0.356383  0.985971  1
  O  O16  1  0.942549  0.075752  0.714334  1
  O  O17  1  0.785554  0.426547  0.563217  1
  O  O18  1  0.563217  0.785554  0.426547  1
  O  O19  1  0.637897  0.011032  0.776394  1
  O  O20  1  0.279396  0.056939  0.926782  1
  O  O21  1  0.011032  0.776394  0.637897  1
  O  O22  1  0.985971  0.231191  0.356383  1
  O  O23  1  0.714334  0.942549  0.075752  1
  O  O24  1  0.356383  0.985971  0.231191  1
  O  O25  1  0.437603  0.215548  0.572804  1
  O  O26  1  0.215548  0.572804  0.437603  1
  O  O27  1  0.056939  0.926782  0.279396  1
  O  O28  1  0.776394  0.637897  0.011032  1
  O  O29  1  0.572804  0.437603  0.215548  1
  O  O30  1  0.143339  0.279907  0.501046  1
  O  O31  1  0.926782  0.279396  0.056939  1
  O  O32  1  0.501046  0.143339  0.279907  1
  O  O33  1  0.279907  0.501046  0.143339  1
