# generated using pymatgen
data_Ca2Ti6N2O11
_symmetry_space_group_name_H-M   'P 1'
_cell_length_a   7.69709519
_cell_length_b   7.69709519
_cell_length_c   9.31610737
_cell_angle_alpha   81.65624345
_cell_angle_beta   98.34375655
_cell_angle_gamma   151.53063972
_symmetry_Int_Tables_number   1
_chemical_formula_structural   Ca2Ti6N2O11
_chemical_formula_sum   'Ca2 Ti6 N2 O11'
_cell_volume   260.13625489
_cell_formula_units_Z   1
loop_
 _symmetry_equiv_pos_site_id
 _symmetry_equiv_pos_as_xyz
  1  'x, y, z'
loop_
 _atom_site_type_symbol
 _atom_site_label
 _atom_site_symmetry_multiplicity
 _atom_site_fract_x
 _atom_site_fract_y
 _atom_site_fract_z
 _atom_site_occupancy
  Ca  Ca0  1  0.538519  0.461481  0.756196  1
  Ca  Ca1  1  0.448904  0.551096  0.246419  1
  Ti  Ti2  1  0.119243  0.880757  0.094459  1
  Ti  Ti3  1  0.159518  0.840482  0.423542  1
  Ti  Ti4  1  0.224387  0.775613  0.759006  1
  Ti  Ti5  1  0.766538  0.233462  0.242828  1
  Ti  Ti6  1  0.834000  0.166000  0.559045  1
  Ti  Ti7  1  0.878380  0.121620  0.910788  1
  N  N8  1  0.228262  0.771738  0.247861  1
  N  N9  1  0.874252  0.125748  0.383698  1
  O  O10  1  0.054149  0.945851  0.294408  1
  O  O11  1  0.118637  0.881363  0.616380  1
  O  O12  1  0.150292  0.849708  0.900113  1
  O  O13  1  0.626629  0.373371  0.107749  1
  O  O14  1  0.693483  0.306517  0.434360  1
  O  O15  1  0.751496  0.248504  0.760767  1
  O  O16  1  0.293701  0.706299  0.574588  1
  O  O17  1  0.356086  0.643914  0.876810  1
  O  O18  1  0.833037  0.166963  0.088774  1
  O  O19  1  0.935027  0.064973  0.708423  1
  O  O20  1  0.992912  0.007088  0.003514  1
