# generated using pymatgen
data_Li2Mn3(BO3)4
_symmetry_space_group_name_H-M   'P 1'
_cell_length_a   5.11349349
_cell_length_b   9.06315174
_cell_length_c   10.88159782
_cell_angle_alpha   90.00000000
_cell_angle_beta   107.27209996
_cell_angle_gamma   90.00000000
_symmetry_Int_Tables_number   1
_chemical_formula_structural   Li2Mn3(BO3)4
_chemical_formula_sum   'Li4 Mn6 B8 O24'
_cell_volume   481.55957203
_cell_formula_units_Z   2
loop_
 _symmetry_equiv_pos_site_id
 _symmetry_equiv_pos_as_xyz
  1  'x, y, z'
loop_
 _atom_site_type_symbol
 _atom_site_label
 _atom_site_symmetry_multiplicity
 _atom_site_fract_x
 _atom_site_fract_y
 _atom_site_fract_z
 _atom_site_occupancy
  Li  Li0  1  0.508209  0.215013  0.610829  1
  Li  Li1  1  0.071389  0.715486  0.376495  1
  Li  Li2  1  0.508209  0.784987  0.110829  1
  Li  Li3  1  0.071389  0.284514  0.876495  1
  Mn  Mn4  1  0.002401  0.553263  0.122150  1
  Mn  Mn5  1  0.920878  0.213999  0.123568  1
  Mn  Mn6  1  0.013835  0.039352  0.385817  1
  Mn  Mn7  1  0.002401  0.446737  0.622150  1
  Mn  Mn8  1  0.920878  0.786001  0.623568  1
  Mn  Mn9  1  0.013835  0.960648  0.885817  1
  B  B10  1  0.430144  0.548615  0.609239  1
  B  B11  1  0.001832  0.885226  0.136987  1
  B  B12  1  0.572792  0.057320  0.908068  1
  B  B13  1  0.999868  0.390324  0.353197  1
  B  B14  1  0.001832  0.114774  0.636987  1
  B  B15  1  0.430144  0.451385  0.109239  1
  B  B16  1  0.999868  0.609676  0.853197  1
  B  B17  1  0.572792  0.942680  0.408068  1
  O  O18  1  0.879850  0.602622  0.949562  1
  O  O19  1  0.312116  0.901171  0.396222  1
  O  O20  1  0.794040  0.159885  0.942692  1
  O  O21  1  0.076257  0.516557  0.303242  1
  O  O22  1  0.036919  0.251850  0.304354  1
  O  O23  1  0.646556  0.916726  0.886551  1
  O  O24  1  0.376691  0.405187  0.637527  1
  O  O25  1  0.190262  0.633600  0.584967  1
  O  O26  1  0.908441  0.751651  0.170070  1
  O  O27  1  0.895351  0.009276  0.185130  1
  O  O28  1  0.179432  0.098017  0.566617  1
  O  O29  1  0.677393  0.408648  0.099912  1
  O  O30  1  0.312116  0.098829  0.896222  1
  O  O31  1  0.879850  0.397378  0.449562  1
  O  O32  1  0.794040  0.840115  0.442692  1
  O  O33  1  0.076257  0.483443  0.803242  1
  O  O34  1  0.036919  0.748150  0.804354  1
  O  O35  1  0.646556  0.083274  0.386551  1
  O  O36  1  0.376691  0.594813  0.137527  1
  O  O37  1  0.908441  0.248349  0.670070  1
  O  O38  1  0.895351  0.990724  0.685130  1
  O  O39  1  0.190262  0.366400  0.084967  1
  O  O40  1  0.677393  0.591352  0.599912  1
  O  O41  1  0.179432  0.901983  0.066617  1
