# generated using pymatgen
data_Li2MnV(PO4)3
_symmetry_space_group_name_H-M   'P 1'
_cell_length_a   8.30838142
_cell_length_b   8.31154582
_cell_length_c   8.95526709
_cell_angle_alpha   89.05262794
_cell_angle_beta   117.31595070
_cell_angle_gamma   119.21323699
_symmetry_Int_Tables_number   1
_chemical_formula_structural   Li2MnV(PO4)3
_chemical_formula_sum   'Li4 Mn2 V2 P6 O24'
_cell_volume   462.09063515
_cell_formula_units_Z   2
loop_
 _symmetry_equiv_pos_site_id
 _symmetry_equiv_pos_as_xyz
  1  'x, y, z'
loop_
 _atom_site_type_symbol
 _atom_site_label
 _atom_site_symmetry_multiplicity
 _atom_site_fract_x
 _atom_site_fract_y
 _atom_site_fract_z
 _atom_site_occupancy
  Li  Li0  1  0.605323  0.682190  0.870767  1
  Li  Li1  1  0.944903  0.269944  0.862582  1
  Li  Li2  1  0.632240  0.439641  0.375034  1
  Li  Li3  1  0.818910  0.074616  0.143826  1
  Mn  Mn4  1  0.284556  0.146709  0.435350  1
  Mn  Mn5  1  0.717557  0.853794  0.567516  1
  V  V6  1  0.302300  0.664912  0.960568  1
  V  V7  1  0.689052  0.346601  0.041536  1
  P  P8  1  0.221070  0.264957  0.753371  1
  P  P9  1  0.499610  0.963069  0.750128  1
  P  P10  1  0.794539  0.550514  0.753255  1
  P  P11  1  0.203504  0.458635  0.247781  1
  P  P12  1  0.500517  0.033085  0.254861  1
  P  P13  1  0.789900  0.742093  0.249520  1
  O  O14  1  0.394059  0.224989  0.892930  1
  O  O15  1  0.009011  0.140266  0.747674  1
  O  O16  1  0.311055  0.481076  0.817764  1
  O  O17  1  0.349486  0.828896  0.816695  1
  O  O18  1  0.691729  0.152590  0.900832  1
  O  O19  1  0.726481  0.524598  0.893126  1
  O  O20  1  0.197238  0.223321  0.576304  1
  O  O21  1  0.607448  0.865202  0.729266  1
  O  O22  1  0.372290  0.998780  0.583942  1
  O  O23  1  0.987746  0.524498  0.817817  1
  O  O24  1  0.863925  0.756232  0.740490  1
  O  O25  1  0.613564  0.402195  0.579748  1
  O  O26  1  0.389493  0.607549  0.414103  1
  O  O27  1  0.134463  0.249483  0.259154  1
  O  O28  1  0.991396  0.456595  0.176364  1
  O  O29  1  0.636857  0.006796  0.427469  1
  O  O30  1  0.409058  0.143545  0.285074  1
  O  O31  1  0.781553  0.752843  0.416732  1
  O  O32  1  0.253652  0.479497  0.095066  1
  O  O33  1  0.317623  0.837482  0.114339  1
  O  O34  1  0.652794  0.158914  0.187224  1
  O  O35  1  0.706904  0.524961  0.195144  1
  O  O36  1  0.003830  0.877365  0.266435  1
  O  O37  1  0.627374  0.785025  0.100816  1
