# generated using pymatgen
data_LaTiNO2
_symmetry_space_group_name_H-M   'P 1'
_cell_length_a   5.61057162
_cell_length_b   5.62136000
_cell_length_c   7.94823656
_cell_angle_alpha   89.97998580
_cell_angle_beta   89.92209962
_cell_angle_gamma   89.27619854
_symmetry_Int_Tables_number   1
_chemical_formula_structural   LaTiNO2
_chemical_formula_sum   'La4 Ti4 N4 O8'
_cell_volume   250.65952599
_cell_formula_units_Z   4
loop_
 _symmetry_equiv_pos_site_id
 _symmetry_equiv_pos_as_xyz
  1  'x, y, z'
loop_
 _atom_site_type_symbol
 _atom_site_label
 _atom_site_symmetry_multiplicity
 _atom_site_fract_x
 _atom_site_fract_y
 _atom_site_fract_z
 _atom_site_occupancy
  La  La0  1  0.505871  0.992842  0.262107  1
  La  La1  1  0.007209  0.493335  0.263319  1
  La  La2  1  0.507493  0.994419  0.744873  1
  La  La3  1  0.006098  0.494907  0.744561  1
  Ti  Ti4  1  0.006150  0.995597  0.016013  1
  Ti  Ti5  1  0.505161  0.493038  0.987783  1
  Ti  Ti6  1  0.005302  0.981094  0.500814  1
  Ti  Ti7  1  0.504389  0.512195  0.508101  1
  N  N8  1  0.049968  0.953373  0.244933  1
  N  N9  1  0.249618  0.751954  0.548944  1
  N  N10  1  0.749364  0.750056  0.499846  1
  N  N11  1  0.547078  0.447668  0.753558  1
  O  O12  1  0.745861  0.754346  0.997186  1
  O  O13  1  0.247208  0.252413  0.997951  1
  O  O14  1  0.438752  0.554677  0.245516  1
  O  O15  1  0.747291  0.253719  0.055373  1
  O  O16  1  0.245394  0.253749  0.497105  1
  O  O17  1  0.744258  0.251385  0.441710  1
  O  O18  1  0.246248  0.753096  0.942296  1
  O  O19  1  0.941349  0.066077  0.748071  1
