# generated using pymatgen
data_LiCo(SiO3)2
_symmetry_space_group_name_H-M   'P 1'
_cell_length_a   5.20181803
_cell_length_b   5.20181803
_cell_length_c   10.40773912
_cell_angle_alpha   75.94864066
_cell_angle_beta   104.05135934
_cell_angle_gamma   90.75483593
_symmetry_Int_Tables_number   1
_chemical_formula_structural   LiCo(SiO3)2
_chemical_formula_sum   'Li2 Co2 Si4 O12'
_cell_volume   264.70739992
_cell_formula_units_Z   2
loop_
 _symmetry_equiv_pos_site_id
 _symmetry_equiv_pos_as_xyz
  1  'x, y, z'
loop_
 _atom_site_type_symbol
 _atom_site_label
 _atom_site_symmetry_multiplicity
 _atom_site_fract_x
 _atom_site_fract_y
 _atom_site_fract_z
 _atom_site_occupancy
  Li  Li0  1  0.105165  0.098676  0.329357  1
  Li  Li1  1  0.901324  0.894835  0.829357  1
  Co  Co2  1  0.722667  0.014086  0.504350  1
  Co  Co3  1  0.985914  0.277333  0.004350  1
  Si  Si4  1  0.408236  0.246981  0.833964  1
  Si  Si5  1  0.307276  0.836658  0.661729  1
  Si  Si6  1  0.163342  0.692724  0.161729  1
  Si  Si7  1  0.753019  0.591764  0.333964  1
  O  O8  1  0.114596  0.203670  0.863826  1
  O  O9  1  0.047236  0.631679  0.011380  1
  O  O10  1  0.135620  0.005526  0.159896  1
  O  O11  1  0.630785  0.233272  0.975208  1
  O  O12  1  0.486055  0.004160  0.768383  1
  O  O13  1  0.368321  0.952764  0.511380  1
  O  O14  1  0.417923  0.528227  0.723003  1
  O  O15  1  0.471773  0.582077  0.223003  1
  O  O16  1  0.766728  0.369215  0.475208  1
  O  O17  1  0.796330  0.885404  0.363826  1
  O  O18  1  0.994474  0.864380  0.659896  1
  O  O19  1  0.995840  0.513945  0.268383  1
