# generated using pymatgen
data_Li15(FeO6)2
_symmetry_space_group_name_H-M   'P 1'
_cell_length_a   5.44830341
_cell_length_b   5.82502041
_cell_length_c   8.09213217
_cell_angle_alpha   86.08709874
_cell_angle_beta   89.14808555
_cell_angle_gamma   89.56112106
_symmetry_Int_Tables_number   1
_chemical_formula_structural   Li15(FeO6)2
_chemical_formula_sum   'Li15 Fe2 O12'
_cell_volume   256.18311981
_cell_formula_units_Z   1
loop_
 _symmetry_equiv_pos_site_id
 _symmetry_equiv_pos_as_xyz
  1  'x, y, z'
loop_
 _atom_site_type_symbol
 _atom_site_label
 _atom_site_symmetry_multiplicity
 _atom_site_fract_x
 _atom_site_fract_y
 _atom_site_fract_z
 _atom_site_occupancy
  Li  Li0  1  0.980976  0.310613  0.652618  1
  Li  Li1  1  0.854109  0.725826  0.637083  1
  Li  Li2  1  0.857865  0.438122  0.934105  1
  Li  Li3  1  0.779553  0.032179  0.273501  1
  Li  Li4  1  0.632442  0.797038  0.899371  1
  Li  Li5  1  0.687311  0.480661  0.207108  1
  Li  Li6  1  0.658384  0.066541  0.565116  1
  Li  Li7  1  0.516906  0.193176  0.838961  1
  Li  Li8  1  0.340452  0.898238  0.408022  1
  Li  Li9  1  0.302956  0.562681  0.795080  1
  Li  Li10  1  0.373193  0.194781  0.127574  1
  Li  Li11  1  0.191726  0.945682  0.698836  1
  Li  Li12  1  0.207106  0.615326  0.086227  1
  Li  Li13  1  0.125462  0.257001  0.371516  1
  Li  Li14  1  0.002483  0.680612  0.351709  1
  Fe  Fe15  1  0.496178  0.489642  0.503027  1
  Fe  Fe16  1  0.004906  0.010106  0.994991  1
  O  O17  1  0.849744  0.002900  0.760919  1
  O  O18  1  0.861270  0.706053  0.065287  1
  O  O19  1  0.786609  0.328668  0.426354  1
  O  O20  1  0.642029  0.496674  0.732405  1
  O  O21  1  0.714152  0.180179  0.060359  1
  O  O22  1  0.668763  0.784914  0.439750  1
  O  O23  1  0.330785  0.195061  0.565866  1
  O  O24  1  0.294924  0.851363  0.914341  1
  O  O25  1  0.348677  0.483812  0.282085  1
  O  O26  1  0.200227  0.658373  0.572638  1
  O  O27  1  0.178766  0.303455  0.935002  1
  O  O28  1  0.129733  0.998444  0.236742  1
