# generated using pymatgen
data_Hg4HN3O10
_symmetry_space_group_name_H-M   'P 1'
_cell_length_a   11.41154786
_cell_length_b   11.41154786
_cell_length_c   11.62633469
_cell_angle_alpha   90.00000000
_cell_angle_beta   90.00000000
_cell_angle_gamma   129.74959036
_symmetry_Int_Tables_number   1
_chemical_formula_structural   Hg4HN3O10
_chemical_formula_sum   'Hg16 H4 N12 O40'
_cell_volume   1164.04969191
_cell_formula_units_Z   4
loop_
 _symmetry_equiv_pos_site_id
 _symmetry_equiv_pos_as_xyz
  1  'x, y, z'
loop_
 _atom_site_type_symbol
 _atom_site_label
 _atom_site_symmetry_multiplicity
 _atom_site_fract_x
 _atom_site_fract_y
 _atom_site_fract_z
 _atom_site_occupancy
  Hg  Hg0  1  0.465162  0.526998  0.596136  1
  Hg  Hg1  1  0.526998  0.465162  0.403864  1
  Hg  Hg2  1  0.965162  0.026998  0.903864  1
  Hg  Hg3  1  0.026998  0.965162  0.096136  1
  Hg  Hg4  1  0.462918  0.557135  0.925618  1
  Hg  Hg5  1  0.557135  0.462918  0.074382  1
  Hg  Hg6  1  0.962918  0.057135  0.574382  1
  Hg  Hg7  1  0.057135  0.962918  0.425618  1
  Hg  Hg8  1  0.309077  0.711916  0.707760  1
  Hg  Hg9  1  0.711916  0.309077  0.292240  1
  Hg  Hg10  1  0.809077  0.211916  0.792240  1
  Hg  Hg11  1  0.211916  0.809077  0.207760  1
  Hg  Hg12  1  0.109984  0.747363  0.751525  1
  Hg  Hg13  1  0.747363  0.109984  0.248475  1
  Hg  Hg14  1  0.609984  0.247363  0.748475  1
  Hg  Hg15  1  0.247363  0.609984  0.251525  1
  H  H16  1  0.762297  0.949768  0.747524  1
  H  H17  1  0.949768  0.762297  0.252476  1
  H  H18  1  0.262297  0.449768  0.752476  1
  H  H19  1  0.449768  0.262297  0.247524  1
  N  N20  1  0.812997  0.693493  0.720596  1
  N  N21  1  0.693493  0.812997  0.279404  1
  N  N22  1  0.312997  0.193493  0.779404  1
  N  N23  1  0.193493  0.312997  0.220596  1
  N  N24  1  0.583682  0.927996  0.538972  1
  N  N25  1  0.927996  0.583682  0.461028  1
  N  N26  1  0.083682  0.427996  0.961028  1
  N  N27  1  0.427996  0.083682  0.038972  1
  N  N28  1  0.115937  0.406091  0.504309  1
  N  N29  1  0.406091  0.115937  0.495691  1
  N  N30  1  0.615937  0.906091  0.995691  1
  N  N31  1  0.906091  0.615937  0.004309  1
  O  O32  1  0.366418  0.548222  0.749052  1
  O  O33  1  0.548222  0.366418  0.250948  1
  O  O34  1  0.866418  0.048222  0.750948  1
  O  O35  1  0.048222  0.866418  0.249052  1
  O  O36  1  0.215757  0.211773  0.765533  1
  O  O37  1  0.211773  0.215757  0.234467  1
  O  O38  1  0.715757  0.711773  0.734467  1
  O  O39  1  0.711773  0.715757  0.265533  1
  O  O40  1  0.951625  0.804890  0.756136  1
  O  O41  1  0.804890  0.951625  0.243864  1
  O  O42  1  0.451625  0.304890  0.743864  1
  O  O43  1  0.304890  0.451625  0.256136  1
  O  O44  1  0.782884  0.578726  0.674896  1
  O  O45  1  0.578726  0.782884  0.325104  1
  O  O46  1  0.282884  0.078726  0.825104  1
  O  O47  1  0.078726  0.282884  0.174896  1
  O  O48  1  0.474978  0.908991  0.492837  1
  O  O49  1  0.908991  0.474978  0.507163  1
  O  O50  1  0.974978  0.408991  0.007163  1
  O  O51  1  0.408991  0.974978  0.992837  1
  O  O52  1  0.561091  0.846835  0.629541  1
  O  O53  1  0.846835  0.561091  0.370459  1
  O  O54  1  0.061091  0.346835  0.870459  1
  O  O55  1  0.346835  0.061091  0.129541  1
  O  O56  1  0.719231  0.024375  0.502772  1
  O  O57  1  0.024375  0.719231  0.497228  1
  O  O58  1  0.219231  0.524375  0.997228  1
  O  O59  1  0.524375  0.219231  0.002772  1
  O  O60  1  0.046300  0.334430  0.414281  1
  O  O61  1  0.334430  0.046300  0.585719  1
  O  O62  1  0.546300  0.834430  0.085719  1
  O  O63  1  0.834430  0.546300  0.914281  1
  O  O64  1  0.082807  0.335241  0.600730  1
  O  O65  1  0.335241  0.082807  0.399270  1
  O  O66  1  0.582807  0.835241  0.899270  1
  O  O67  1  0.835241  0.582807  0.100730  1
  O  O68  1  0.222923  0.549686  0.502297  1
  O  O69  1  0.549686  0.222923  0.497703  1
  O  O70  1  0.722923  0.049686  0.997703  1
  O  O71  1  0.049686  0.722923  0.002297  1
