# generated using pymatgen
data_Li3Fe(PO4)2
_symmetry_space_group_name_H-M   'P 1'
_cell_length_a   8.22375409
_cell_length_b   10.49345121
_cell_length_c   8.26734920
_cell_angle_alpha   90.00000000
_cell_angle_beta   104.06173203
_cell_angle_gamma   90.00000000
_symmetry_Int_Tables_number   1
_chemical_formula_structural   Li3Fe(PO4)2
_chemical_formula_sum   'Li12 Fe4 P8 O32'
_cell_volume   692.05710199
_cell_formula_units_Z   4
loop_
 _symmetry_equiv_pos_site_id
 _symmetry_equiv_pos_as_xyz
  1  'x, y, z'
loop_
 _atom_site_type_symbol
 _atom_site_label
 _atom_site_symmetry_multiplicity
 _atom_site_fract_x
 _atom_site_fract_y
 _atom_site_fract_z
 _atom_site_occupancy
  Li  Li0  1  0.602330  0.913756  0.094756  1
  Li  Li1  1  0.457402  0.665091  0.218588  1
  Li  Li2  1  0.847621  0.103176  0.344072  1
  Li  Li3  1  0.535626  0.190979  0.276749  1
  Li  Li4  1  0.351917  0.908188  0.337768  1
  Li  Li5  1  0.396901  0.424160  0.402556  1
  Li  Li6  1  0.602330  0.086244  0.594756  1
  Li  Li7  1  0.457402  0.334909  0.718588  1
  Li  Li8  1  0.847621  0.896824  0.844072  1
  Li  Li9  1  0.535626  0.809021  0.776749  1
  Li  Li10  1  0.351917  0.091812  0.837768  1
  Li  Li11  1  0.396901  0.575840  0.902556  1
  Fe  Fe12  1  0.094332  0.093036  0.087050  1
  Fe  Fe13  1  0.094332  0.906964  0.587050  1
  Fe  Fe14  1  0.901223  0.583415  0.405360  1
  Fe  Fe15  1  0.901223  0.416585  0.905360  1
  P  P16  1  0.759393  0.661289  0.040830  1
  P  P17  1  0.287236  0.336967  0.030611  1
  P  P18  1  0.714140  0.840989  0.470921  1
  P  P19  1  0.759393  0.338711  0.540830  1
  P  P20  1  0.237104  0.155324  0.460169  1
  P  P21  1  0.287236  0.663033  0.530611  1
  P  P22  1  0.714140  0.159011  0.970921  1
  P  P23  1  0.237104  0.844676  0.960169  1
  O  O24  1  0.771942  0.298650  0.001903  1
  O  O25  1  0.601936  0.607624  0.081569  1
  O  O26  1  0.272361  0.709294  0.015487  1
  O  O27  1  0.665052  0.102505  0.125452  1
  O  O28  1  0.909561  0.656646  0.199643  1
  O  O29  1  0.119335  0.399677  0.045254  1
  O  O30  1  0.190024  0.925499  0.105472  1
  O  O31  1  0.411305  0.340642  0.200430  1
  O  O32  1  0.571300  0.853661  0.311630  1
  O  O33  1  0.814104  0.418088  0.402377  1
  O  O34  1  0.871264  0.922628  0.445990  1
  O  O35  1  0.076182  0.138428  0.307127  1
  O  O36  1  0.733555  0.198691  0.478131  1
  O  O37  1  0.352602  0.608294  0.388967  1
  O  O38  1  0.771942  0.701350  0.501903  1
  O  O39  1  0.384600  0.087568  0.408884  1
  O  O40  1  0.601936  0.392376  0.581569  1
  O  O41  1  0.240126  0.811971  0.488686  1
  O  O42  1  0.272361  0.290706  0.515487  1
  O  O43  1  0.665052  0.897495  0.625452  1
  O  O44  1  0.909561  0.343354  0.699643  1
  O  O45  1  0.119335  0.600323  0.545254  1
  O  O46  1  0.190024  0.074501  0.605472  1
  O  O47  1  0.411305  0.659358  0.700430  1
  O  O48  1  0.814104  0.581912  0.902377  1
  O  O49  1  0.571300  0.146339  0.811630  1
  O  O50  1  0.871264  0.077372  0.945990  1
  O  O51  1  0.076182  0.861572  0.807127  1
  O  O52  1  0.733555  0.801309  0.978131  1
  O  O53  1  0.352602  0.391706  0.888967  1
  O  O54  1  0.384600  0.912432  0.908884  1
  O  O55  1  0.240126  0.188029  0.988686  1
