# generated using pymatgen
data_Sr2Ti6N2O11
_symmetry_space_group_name_H-M   'P 1'
_cell_length_a   7.84652588
_cell_length_b   7.84652588
_cell_length_c   9.30616311
_cell_angle_alpha   81.39181568
_cell_angle_beta   98.60818432
_cell_angle_gamma   151.58996431
_symmetry_Int_Tables_number   1
_chemical_formula_structural   Sr2Ti6N2O11
_chemical_formula_sum   'Sr2 Ti6 N2 O11'
_cell_volume   269.33383413
_cell_formula_units_Z   1
loop_
 _symmetry_equiv_pos_site_id
 _symmetry_equiv_pos_as_xyz
  1  'x, y, z'
loop_
 _atom_site_type_symbol
 _atom_site_label
 _atom_site_symmetry_multiplicity
 _atom_site_fract_x
 _atom_site_fract_y
 _atom_site_fract_z
 _atom_site_occupancy
  Sr  Sr0  1  0.555214  0.444786  0.761693  1
  Sr  Sr1  1  0.455385  0.544615  0.227104  1
  Ti  Ti2  1  0.121294  0.878706  0.086750  1
  Ti  Ti3  1  0.165969  0.834031  0.442061  1
  Ti  Ti4  1  0.241692  0.758308  0.757230  1
  Ti  Ti5  1  0.768446  0.231554  0.231409  1
  Ti  Ti6  1  0.832517  0.167483  0.564887  1
  Ti  Ti7  1  0.888067  0.111933  0.889575  1
  N  N8  1  0.292789  0.707211  0.579206  1
  N  N9  1  0.931975  0.068025  0.713142  1
  O  O10  1  0.068517  0.931483  0.294432  1
  O  O11  1  0.122789  0.877211  0.616671  1
  O  O12  1  0.154568  0.845432  0.904317  1
  O  O13  1  0.639652  0.360348  0.113275  1
  O  O14  1  0.697177  0.302823  0.425879  1
  O  O15  1  0.755123  0.244877  0.768093  1
  O  O16  1  0.240142  0.759858  0.238738  1
  O  O17  1  0.358588  0.641412  0.891571  1
  O  O18  1  0.838572  0.161428  0.098250  1
  O  O19  1  0.872189  0.127811  0.382598  1
  O  O20  1  0.999334  0.000666  0.013119  1
