# generated using pymatgen
data_Li3Ni3SbO8
_symmetry_space_group_name_H-M   'P 1'
_cell_length_a   6.00312076
_cell_length_b   6.00312076
_cell_length_c   6.00312076
_cell_angle_alpha   59.42380135
_cell_angle_beta   59.42380135
_cell_angle_gamma   59.42380135
_symmetry_Int_Tables_number   1
_chemical_formula_structural   Li3Ni3SbO8
_chemical_formula_sum   'Li3 Ni3 Sb1 O8'
_cell_volume   150.96797802
_cell_formula_units_Z   1
loop_
 _symmetry_equiv_pos_site_id
 _symmetry_equiv_pos_as_xyz
  1  'x, y, z'
loop_
 _atom_site_type_symbol
 _atom_site_label
 _atom_site_symmetry_multiplicity
 _atom_site_fract_x
 _atom_site_fract_y
 _atom_site_fract_z
 _atom_site_occupancy
  Li  Li0  1  0.500000  0.000000  0.000000  1
  Li  Li1  1  0.000000  0.000000  0.500000  1
  Li  Li2  1  0.000000  0.500000  0.000000  1
  Ni  Ni3  1  0.000000  0.500000  0.500000  1
  Ni  Ni4  1  0.500000  0.500000  0.000000  1
  Ni  Ni5  1  0.500000  0.000000  0.500000  1
  Sb  Sb6  1  0.000000  1.000000  0.000000  1
  O  O7  1  0.733397  0.733397  0.733397  1
  O  O8  1  0.757518  0.236066  0.236066  1
  O  O9  1  0.236066  0.236066  0.757518  1
  O  O10  1  0.266603  0.266603  0.266603  1
  O  O11  1  0.236066  0.757518  0.236066  1
  O  O12  1  0.242482  0.763934  0.763934  1
  O  O13  1  0.763934  0.763934  0.242482  1
  O  O14  1  0.763934  0.242482  0.763934  1
