# generated using pymatgen
data_LiV3CoO10
_symmetry_space_group_name_H-M   'P 1'
_cell_length_a   6.58661796
_cell_length_b   6.58661796
_cell_length_c   4.65193153
_cell_angle_alpha   88.28001596
_cell_angle_beta   91.71998404
_cell_angle_gamma   89.36870860
_symmetry_Int_Tables_number   1
_chemical_formula_structural   LiV3CoO10
_chemical_formula_sum   'Li1 V3 Co1 O10'
_cell_volume   201.62107571
_cell_formula_units_Z   1
loop_
 _symmetry_equiv_pos_site_id
 _symmetry_equiv_pos_as_xyz
  1  'x, y, z'
loop_
 _atom_site_type_symbol
 _atom_site_label
 _atom_site_symmetry_multiplicity
 _atom_site_fract_x
 _atom_site_fract_y
 _atom_site_fract_z
 _atom_site_occupancy
  Li  Li0  1  0.004866  0.004866  0.000000  1
  V  V1  1  0.750855  0.750855  0.500000  1
  V  V2  1  0.250457  0.749083  0.617741  1
  V  V3  1  0.749083  0.250457  0.382259  1
  Co  Co4  1  0.249310  0.249310  0.500000  1
  O  O5  1  0.756484  0.533716  0.297563  1
  O  O6  1  0.231964  0.766905  0.266357  1
  O  O7  1  0.533716  0.756484  0.702437  1
  O  O8  1  0.963631  0.760144  0.733084  1
  O  O9  1  0.760144  0.963631  0.266916  1
  O  O10  1  0.238036  0.025310  0.730373  1
  O  O11  1  0.025310  0.238036  0.269627  1
  O  O12  1  0.475429  0.243811  0.298158  1
  O  O13  1  0.766905  0.231964  0.733643  1
  O  O14  1  0.243811  0.475429  0.701842  1
