# generated using pymatgen
data_LiMnV(P2O7)2
_symmetry_space_group_name_H-M   'P 1'
_cell_length_a   7.14474164
_cell_length_b   8.17944052
_cell_length_c   9.67722029
_cell_angle_alpha   90.78836480
_cell_angle_beta   111.24281715
_cell_angle_gamma   91.33778998
_symmetry_Int_Tables_number   1
_chemical_formula_structural   LiMnV(P2O7)2
_chemical_formula_sum   'Li2 Mn2 V2 P8 O28'
_cell_volume   526.81679963
_cell_formula_units_Z   2
loop_
 _symmetry_equiv_pos_site_id
 _symmetry_equiv_pos_as_xyz
  1  'x, y, z'
loop_
 _atom_site_type_symbol
 _atom_site_label
 _atom_site_symmetry_multiplicity
 _atom_site_fract_x
 _atom_site_fract_y
 _atom_site_fract_z
 _atom_site_occupancy
  Li  Li0  1  0.672302  0.863232  0.750549  1
  Li  Li1  1  0.326387  0.358035  0.251651  1
  Mn  Mn2  1  0.266593  0.007414  0.741080  1
  Mn  Mn3  1  0.277915  0.993167  0.243916  1
  V  V4  1  0.718949  0.495707  0.755571  1
  V  V5  1  0.725572  0.505716  0.255964  1
  P  P6  1  0.091419  0.780756  0.936152  1
  P  P7  1  0.484944  0.678302  0.940291  1
  P  P8  1  0.522616  0.177822  0.558808  1
  P  P9  1  0.089742  0.782679  0.436175  1
  P  P10  1  0.913975  0.288508  0.562342  1
  P  P11  1  0.482432  0.682731  0.441335  1
  P  P12  1  0.518061  0.174701  0.059057  1
  P  P13  1  0.909659  0.287617  0.063051  1
  O  O14  1  0.252223  0.652193  0.921647  1
  O  O15  1  0.085769  0.932678  0.844531  1
  O  O16  1  0.391925  0.173740  0.894210  1
  O  O17  1  0.510622  0.843408  0.880052  1
  O  O18  1  0.528006  0.535833  0.852484  1
  O  O19  1  0.842805  0.332652  0.898610  1
  O  O20  1  0.888063  0.686654  0.872420  1
  O  O21  1  0.108958  0.203679  0.611733  1
  O  O22  1  0.142445  0.828433  0.599906  1
  O  O23  1  0.481481  0.038402  0.648256  1
  O  O24  1  0.515339  0.348022  0.625684  1
  O  O25  1  0.607445  0.670670  0.609430  1
  O  O26  1  0.901212  0.439245  0.657051  1
  O  O27  1  0.751229  0.151421  0.572938  1
  O  O28  1  0.250136  0.650664  0.423521  1
  O  O29  1  0.094300  0.931823  0.343990  1
  O  O30  1  0.390193  0.177196  0.394231  1
  O  O31  1  0.507374  0.847345  0.384580  1
  O  O32  1  0.518576  0.536981  0.351628  1
  O  O33  1  0.842546  0.341345  0.398544  1
  O  O34  1  0.891700  0.683053  0.379981  1
  O  O35  1  0.111851  0.209741  0.118576  1
  O  O36  1  0.140426  0.820353  0.099637  1
  O  O37  1  0.470579  0.038019  0.146645  1
  O  O38  1  0.513578  0.344320  0.131292  1
  O  O39  1  0.606246  0.662101  0.107858  1
  O  O40  1  0.908849  0.441068  0.158200  1
  O  O41  1  0.750164  0.151717  0.076077  1
