# generated using pymatgen
data_K4Li3Mn2O8
_symmetry_space_group_name_H-M   'P 1'
_cell_length_a   5.64931631
_cell_length_b   8.45118199
_cell_length_c   11.45768947
_cell_angle_alpha   90.00000000
_cell_angle_beta   107.39178502
_cell_angle_gamma   90.00000000
_symmetry_Int_Tables_number   1
_chemical_formula_structural   K4Li3Mn2O8
_chemical_formula_sum   'K8 Li6 Mn4 O16'
_cell_volume   522.02063344
_cell_formula_units_Z   2
loop_
 _symmetry_equiv_pos_site_id
 _symmetry_equiv_pos_as_xyz
  1  'x, y, z'
loop_
 _atom_site_type_symbol
 _atom_site_label
 _atom_site_symmetry_multiplicity
 _atom_site_fract_x
 _atom_site_fract_y
 _atom_site_fract_z
 _atom_site_occupancy
  K  K0  1  0.326666  0.253427  0.154927  1
  K  K1  1  0.782847  0.989790  0.619704  1
  K  K2  1  0.689695  0.751001  0.336206  1
  K  K3  1  0.782847  0.010210  0.119704  1
  K  K4  1  0.263222  0.460398  0.885856  1
  K  K5  1  0.326666  0.746573  0.654927  1
  K  K6  1  0.263222  0.539602  0.385856  1
  K  K7  1  0.689695  0.248999  0.836206  1
  Li  Li8  1  0.340607  0.720139  0.076554  1
  Li  Li9  1  0.623477  0.235488  0.431665  1
  Li  Li10  1  0.897074  0.701135  0.798524  1
  Li  Li11  1  0.897074  0.298865  0.298524  1
  Li  Li12  1  0.340607  0.279861  0.576554  1
  Li  Li13  1  0.623477  0.764512  0.931665  1
  Mn  Mn14  1  0.131125  0.958567  0.930278  1
  Mn  Mn15  1  0.867479  0.464262  0.571528  1
  Mn  Mn16  1  0.131125  0.041433  0.430278  1
  Mn  Mn17  1  0.867479  0.535738  0.071528  1
  O  O18  1  0.197625  0.547493  0.135353  1
  O  O19  1  0.226783  0.940093  0.085973  1
  O  O20  1  0.692028  0.297814  0.601639  1
  O  O21  1  0.820485  0.665417  0.621848  1
  O  O22  1  0.767210  0.437307  0.402785  1
  O  O23  1  0.811762  0.073879  0.367237  1
  O  O24  1  0.213590  0.140372  0.894919  1
  O  O25  1  0.692028  0.702186  0.101639  1
  O  O26  1  0.254174  0.790490  0.879138  1
  O  O27  1  0.820485  0.334583  0.121848  1
  O  O28  1  0.197625  0.452507  0.635353  1
  O  O29  1  0.226783  0.059907  0.585973  1
  O  O30  1  0.213590  0.859628  0.394919  1
  O  O31  1  0.254174  0.209510  0.379138  1
  O  O32  1  0.767210  0.562693  0.902785  1
  O  O33  1  0.811762  0.926121  0.867237  1
