# generated using pymatgen
data_BaP4O11
_symmetry_space_group_name_H-M   'P 1'
_cell_length_a   10.38307623
_cell_length_b   10.44117471
_cell_length_c   11.85012199
_cell_angle_alpha   112.42212957
_cell_angle_beta   110.97491148
_cell_angle_gamma   85.85781808
_symmetry_Int_Tables_number   1
_chemical_formula_structural   BaP4O11
_chemical_formula_sum   'Ba4 P16 O44'
_cell_volume   1105.79271856
_cell_formula_units_Z   4
loop_
 _symmetry_equiv_pos_site_id
 _symmetry_equiv_pos_as_xyz
  1  'x, y, z'
loop_
 _atom_site_type_symbol
 _atom_site_label
 _atom_site_symmetry_multiplicity
 _atom_site_fract_x
 _atom_site_fract_y
 _atom_site_fract_z
 _atom_site_occupancy
  Ba  Ba0  1  0.752405  0.779694  0.017550  1
  Ba  Ba1  1  0.270232  0.733785  0.503410  1
  Ba  Ba2  1  0.729768  0.266215  0.496590  1
  Ba  Ba3  1  0.247595  0.220306  0.982450  1
  P  P4  1  0.909483  0.567792  0.224478  1
  P  P5  1  0.763162  0.901759  0.568588  1
  P  P6  1  0.911932  0.253192  0.076350  1
  P  P7  1  0.396752  0.773770  0.099370  1
  P  P8  1  0.737212  0.591942  0.387012  1
  P  P9  1  0.624258  0.931154  0.762537  1
  P  P10  1  0.936292  0.137437  0.289232  1
  P  P11  1  0.443115  0.588191  0.253948  1
  P  P12  1  0.556885  0.411809  0.746052  1
  P  P13  1  0.063708  0.862563  0.710768  1
  P  P14  1  0.375742  0.068846  0.237463  1
  P  P15  1  0.262788  0.408058  0.612988  1
  P  P16  1  0.603248  0.226230  0.900630  1
  P  P17  1  0.088068  0.746808  0.923650  1
  P  P18  1  0.236838  0.098241  0.431412  1
  P  P19  1  0.090517  0.432208  0.775522  1
  O  O20  1  0.018582  0.797008  0.019628  1
  O  O21  1  0.829385  0.020238  0.231213  1
  O  O22  1  0.912936  0.927625  0.673986  1
  O  O23  1  0.787011  0.592793  0.123862  1
  O  O24  1  0.955621  0.410324  0.166773  1
  O  O25  1  0.511661  0.778101  0.055860  1
  O  O26  1  0.758617  0.757963  0.452955  1
  O  O27  1  0.392803  0.904049  0.222725  1
  O  O28  1  0.859879  0.549423  0.335722  1
  O  O29  1  0.664503  0.871243  0.631077  1
  O  O30  1  0.949067  0.174817  0.171178  1
  O  O31  1  0.746571  0.241119  0.018411  1
  O  O32  1  0.744727  0.931046  0.878329  1
  O  O33  1  0.604070  0.562772  0.258315  1
  O  O34  1  0.386762  0.645420  0.134258  1
  O  O35  1  0.274403  0.985469  0.479904  1
  O  O36  1  0.731369  0.522689  0.472686  1
  O  O37  1  0.933417  0.266112  0.400511  1
  O  O38  1  0.448271  0.702018  0.379172  1
  O  O39  1  0.488108  0.859718  0.724890  1
  O  O40  1  0.960479  0.341172  0.709991  1
  O  O41  1  0.634439  0.547841  0.796742  1
  O  O42  1  0.365561  0.452159  0.203258  1
  O  O43  1  0.039521  0.658828  0.290009  1
  O  O44  1  0.511892  0.140282  0.275110  1
  O  O45  1  0.551729  0.297982  0.620828  1
  O  O46  1  0.066583  0.733888  0.599489  1
  O  O47  1  0.268631  0.477311  0.527314  1
  O  O48  1  0.725597  0.014531  0.520096  1
  O  O49  1  0.613238  0.354580  0.865742  1
  O  O50  1  0.395930  0.437228  0.741685  1
  O  O51  1  0.255273  0.068954  0.121671  1
  O  O52  1  0.253429  0.758881  0.981589  1
  O  O53  1  0.050933  0.825183  0.828822  1
  O  O54  1  0.335497  0.128757  0.368923  1
  O  O55  1  0.140121  0.450577  0.664278  1
  O  O56  1  0.607197  0.095951  0.777275  1
  O  O57  1  0.241383  0.242037  0.547045  1
  O  O58  1  0.488339  0.221899  0.944140  1
  O  O59  1  0.044379  0.589676  0.833227  1
  O  O60  1  0.212989  0.407207  0.876138  1
  O  O61  1  0.087064  0.072375  0.326014  1
  O  O62  1  0.170615  0.979762  0.768787  1
  O  O63  1  0.981418  0.202992  0.980372  1
