# generated using pymatgen
data_Li2Fe4OF8
_symmetry_space_group_name_H-M   'P 1'
_cell_length_a   6.55756693
_cell_length_b   8.03942857
_cell_length_c   9.14379477
_cell_angle_alpha   67.34312415
_cell_angle_beta   70.15686779
_cell_angle_gamma   74.12605789
_symmetry_Int_Tables_number   1
_chemical_formula_structural   Li2Fe4OF8
_chemical_formula_sum   'Li4 Fe8 O2 F16'
_cell_volume   412.74082361
_cell_formula_units_Z   2
loop_
 _symmetry_equiv_pos_site_id
 _symmetry_equiv_pos_as_xyz
  1  'x, y, z'
loop_
 _atom_site_type_symbol
 _atom_site_label
 _atom_site_symmetry_multiplicity
 _atom_site_fract_x
 _atom_site_fract_y
 _atom_site_fract_z
 _atom_site_occupancy
  Li  Li0  1  0.262879  0.258475  0.660714  1
  Li  Li1  1  0.401847  0.714806  0.063280  1
  Li  Li2  1  0.598153  0.285194  0.936720  1
  Li  Li3  1  0.737121  0.741525  0.339286  1
  Fe  Fe4  1  0.692677  0.327725  0.277618  1
  Fe  Fe5  1  0.137317  0.881176  0.412103  1
  Fe  Fe6  1  0.931721  0.888021  0.917330  1
  Fe  Fe7  1  0.849437  0.646561  0.740157  1
  Fe  Fe8  1  0.150563  0.353439  0.259843  1
  Fe  Fe9  1  0.068279  0.111979  0.082670  1
  Fe  Fe10  1  0.862683  0.118824  0.587897  1
  Fe  Fe11  1  0.307323  0.672275  0.722382  1
  O  O12  1  0.035584  0.858872  0.672482  1
  O  O13  1  0.964416  0.141128  0.327518  1
  F  F14  1  0.842197  0.931497  0.143386  1
  F  F15  1  0.432434  0.764093  0.463391  1
  F  F16  1  0.794711  0.314036  0.038379  1
  F  F17  1  0.411059  0.475220  0.221565  1
  F  F18  1  0.152962  0.476718  0.720114  1
  F  F19  1  0.287870  0.884730  0.173340  1
  F  F20  1  0.117808  0.264955  0.508596  1
  F  F21  1  0.299745  0.272849  0.056717  1
  F  F22  1  0.700255  0.727151  0.943283  1
  F  F23  1  0.882192  0.735045  0.491404  1
  F  F24  1  0.712130  0.115270  0.826660  1
  F  F25  1  0.847038  0.523282  0.279886  1
  F  F26  1  0.588941  0.524780  0.778435  1
  F  F27  1  0.205289  0.685964  0.961621  1
  F  F28  1  0.567566  0.235907  0.536609  1
  F  F29  1  0.157803  0.068503  0.856614  1
