# generated using pymatgen
data_KCa4B22H18ClO46
_symmetry_space_group_name_H-M   'P 1'
_cell_length_a   6.63191799
_cell_length_b   6.64193136
_cell_length_c   24.25099326
_cell_angle_alpha   95.45227249
_cell_angle_beta   90.70687919
_cell_angle_gamma   119.39559085
_symmetry_Int_Tables_number   1
_chemical_formula_structural   KCa4B22H18ClO46
_chemical_formula_sum   'K1 Ca4 B22 H18 Cl1 O46'
_cell_volume   924.33833957
_cell_formula_units_Z   1
loop_
 _symmetry_equiv_pos_site_id
 _symmetry_equiv_pos_as_xyz
  1  'x, y, z'
loop_
 _atom_site_type_symbol
 _atom_site_label
 _atom_site_symmetry_multiplicity
 _atom_site_fract_x
 _atom_site_fract_y
 _atom_site_fract_z
 _atom_site_occupancy
  K  K0  1  0.977461  0.960161  0.975977  1
  Ca  Ca1  1  0.191013  0.347878  0.835672  1
  Ca  Ca2  1  0.278797  0.609118  0.419842  1
  Ca  Ca3  1  0.502759  0.977690  0.093735  1
  Ca  Ca4  1  0.806370  0.656573  0.510580  1
  B  B5  1  0.960056  0.919057  0.388113  1
  B  B6  1  0.011068  0.894200  0.110278  1
  B  B7  1  0.697319  0.097364  0.400265  1
  B  B8  1  0.607303  0.571749  0.083306  1
  B  B9  1  0.233516  0.160186  0.528614  1
  B  B10  1  0.599501  0.842686  0.839226  1
  B  B11  1  0.761228  0.441539  0.734610  1
  B  B12  1  0.290781  0.940264  0.845749  1
  B  B13  1  0.775629  0.492936  0.387225  1
  B  B14  1  0.839482  0.666294  0.299096  1
  B  B15  1  0.428220  0.827820  0.630580  1
  B  B16  1  0.920059  0.249393  0.520137  1
  B  B17  1  0.124480  0.180115  0.195713  1
  B  B18  1  0.502684  0.994315  0.541771  1
  B  B19  1  0.862813  0.665629  0.828721  1
  B  B20  1  0.389541  0.195431  0.409352  1
  B  B21  1  0.164559  0.252350  0.713771  1
  B  B22  1  0.680532  0.235596  0.819699  1
  B  B23  1  0.188940  0.315659  0.102401  1
  B  B24  1  0.544964  0.016005  0.217091  1
  B  B25  1  0.319831  0.568822  0.542496  1
  B  B26  1  0.920107  0.480284  0.089095  1
  H  H27  1  0.997992  0.913417  0.743477  1
  H  H28  1  0.375252  0.648792  0.188058  1
  H  H29  1  0.697737  0.364719  0.208781  1
  H  H30  1  0.521035  0.994415  0.711320  1
  H  H31  1  0.069907  0.101203  0.275915  1
  H  H32  1  0.680999  0.284086  0.654416  1
  H  H33  1  0.323601  0.609445  0.719748  1
  H  H34  1  0.197739  0.345039  0.637519  1
  H  H35  1  0.902532  0.754492  0.218598  1
  H  H36  1  0.600972  0.188815  0.292388  1
  H  H37  1  0.229985  0.477560  0.295088  1
  H  H38  1  0.360416  0.755576  0.308432  1
  H  H39  1  0.431985  0.422072  0.940104  1
  H  H40  1  0.304407  0.563475  0.950714  1
  H  H41  1  0.774172  0.423752  0.921749  1
  H  H42  1  0.664646  0.317137  0.976246  1
  H  H43  1  0.815966  0.638813  0.634837  1
  H  H44  1  0.951937  0.906952  0.623449  1
  Cl  Cl45  1  0.469203  0.932898  0.979289  1
  O  O46  1  0.859174  0.459287  0.846418  1
  O  O47  1  0.177863  0.093796  0.085070  1
  O  O48  1  0.965912  0.301831  0.084191  1
  O  O49  1  0.955608  0.720569  0.412743  1
  O  O50  1  0.082347  0.475974  0.512669  1
  O  O51  1  0.394052  0.391293  0.531860  1
  O  O52  1  0.856123  0.325554  0.397325  1
  O  O53  1  0.090165  0.087414  0.749679  1
  O  O54  1  0.165005  0.142414  0.409837  1
  O  O55  1  0.459030  0.028588  0.401669  1
  O  O56  1  0.681371  0.407958  0.083282  1
  O  O57  1  0.755710  0.066883  0.831999  1
  O  O58  1  0.960944  0.887198  0.326592  1
  O  O59  1  0.218742  0.364058  0.164922  1
  O  O60  1  0.469133  0.815980  0.181922  1
  O  O61  1  0.768113  0.805134  0.086992  1
  O  O62  1  0.279412  0.982877  0.525932  1
  O  O63  1  0.648560  0.669633  0.844616  1
  O  O64  1  0.724733  0.474457  0.327607  1
  O  O65  1  0.556030  0.429223  0.417203  1
  O  O66  1  0.380151  0.510929  0.078991  1
  O  O67  1  0.484925  0.772262  0.517210  1
  O  O68  1  0.994294  0.089758  0.527252  1
  O  O69  1  0.362702  0.774581  0.842357  1
  O  O70  1  0.078568  0.711968  0.098910  1
  O  O71  1  0.630358  0.205864  0.187398  1
  O  O72  1  0.745888  0.923708  0.403724  1
  O  O73  1  0.021484  0.951713  0.172221  1
  O  O74  1  0.435285  0.840814  0.687747  1
  O  O75  1  0.446998  0.167764  0.840403  1
  O  O76  1  0.066442  0.882541  0.854218  1
  O  O77  1  0.865817  0.654273  0.766087  1
  O  O78  1  0.664698  0.235382  0.757859  1
  O  O79  1  0.304134  0.607969  0.602147  1
  O  O80  1  0.135168  0.231913  0.252762  1
  O  O81  1  0.754020  0.437415  0.677377  1
  O  O82  1  0.695593  0.196453  0.520316  1
  O  O83  1  0.264627  0.473201  0.742068  1
  O  O84  1  0.274967  0.609019  0.324890  1
  O  O85  1  0.140405  0.203989  0.657168  1
  O  O86  1  0.823623  0.623641  0.242066  1
  O  O87  1  0.536387  0.022891  0.603391  1
  O  O88  1  0.277627  0.409857  0.933625  1
  O  O89  1  0.725274  0.461015  0.957851  1
  O  O90  1  0.536329  0.026875  0.273715  1
  O  O91  1  0.851212  0.746213  0.605872  1
