# generated using pymatgen
data_Mn3Cr2Sb(PO4)6
_symmetry_space_group_name_H-M   'P 1'
_cell_length_a   8.58286523
_cell_length_b   8.58286523
_cell_length_c   8.58286523
_cell_angle_alpha   61.20349380
_cell_angle_beta   61.20349380
_cell_angle_gamma   61.20349380
_symmetry_Int_Tables_number   1
_chemical_formula_structural   Mn3Cr2Sb(PO4)6
_chemical_formula_sum   'Mn3 Cr2 Sb1 P6 O24'
_cell_volume   459.17933632
_cell_formula_units_Z   1
loop_
 _symmetry_equiv_pos_site_id
 _symmetry_equiv_pos_as_xyz
  1  'x, y, z'
loop_
 _atom_site_type_symbol
 _atom_site_label
 _atom_site_symmetry_multiplicity
 _atom_site_fract_x
 _atom_site_fract_y
 _atom_site_fract_z
 _atom_site_occupancy
  Mn  Mn0  1  0.852193  0.852193  0.852193  1
  Mn  Mn1  1  0.648065  0.648065  0.648065  1
  Mn  Mn2  1  0.354764  0.354764  0.354764  1
  Cr  Cr3  1  0.995617  0.995617  0.995617  1
  Cr  Cr4  1  0.500328  0.500328  0.500328  1
  Sb  Sb5  1  0.144816  0.144816  0.144816  1
  P  P6  1  0.252817  0.550423  0.947583  1
  P  P7  1  0.746057  0.455361  0.054730  1
  P  P8  1  0.455361  0.054730  0.746057  1
  P  P9  1  0.054730  0.746057  0.455361  1
  P  P10  1  0.947583  0.252817  0.550423  1
  P  P11  1  0.550423  0.947583  0.252817  1
  O  O12  1  0.906729  0.683644  0.479480  1
  O  O13  1  0.683644  0.479480  0.906729  1
  O  O14  1  0.935763  0.092420  0.746432  1
  O  O15  1  0.479480  0.906729  0.683644  1
  O  O16  1  0.992176  0.178735  0.391527  1
  O  O17  1  0.749066  0.400416  0.558031  1
  O  O18  1  0.746432  0.935763  0.092420  1
  O  O19  1  0.558031  0.749066  0.400416  1
  O  O20  1  0.821167  0.601989  0.014350  1
  O  O21  1  0.400416  0.558031  0.749066  1
  O  O22  1  0.912300  0.247942  0.068413  1
  O  O23  1  0.601989  0.014350  0.821167  1
  O  O24  1  0.391527  0.992176  0.178735  1
  O  O25  1  0.092420  0.746432  0.935763  1
  O  O26  1  0.599440  0.432569  0.256969  1
  O  O27  1  0.178735  0.391527  0.992176  1
  O  O28  1  0.432569  0.256969  0.599440  1
  O  O29  1  0.247942  0.068413  0.912300  1
  O  O30  1  0.256969  0.599440  0.432569  1
  O  O31  1  0.014350  0.821167  0.601989  1
  O  O32  1  0.507642  0.100251  0.319791  1
  O  O33  1  0.068413  0.912300  0.247942  1
  O  O34  1  0.319791  0.507642  0.100251  1
  O  O35  1  0.100251  0.319791  0.507642  1
