# generated using pymatgen
data_Sn2(SO4)3
_symmetry_space_group_name_H-M   'P 1'
_cell_length_a   9.61849233
_cell_length_b   9.61849233
_cell_length_c   9.61849233
_cell_angle_alpha   53.54321804
_cell_angle_beta   53.54321804
_cell_angle_gamma   53.54321804
_symmetry_Int_Tables_number   1
_chemical_formula_structural   Sn2(SO4)3
_chemical_formula_sum   'Sn4 S6 O24'
_cell_volume   534.17335284
_cell_formula_units_Z   2
loop_
 _symmetry_equiv_pos_site_id
 _symmetry_equiv_pos_as_xyz
  1  'x, y, z'
loop_
 _atom_site_type_symbol
 _atom_site_label
 _atom_site_symmetry_multiplicity
 _atom_site_fract_x
 _atom_site_fract_y
 _atom_site_fract_z
 _atom_site_occupancy
  Sn  Sn0  1  0.141100  0.141100  0.141100  1
  Sn  Sn1  1  0.344344  0.344344  0.344344  1
  Sn  Sn2  1  0.655656  0.655656  0.655656  1
  Sn  Sn3  1  0.858900  0.858900  0.858900  1
  S  S4  1  0.052570  0.446284  0.731293  1
  S  S5  1  0.553716  0.268707  0.947430  1
  S  S6  1  0.268707  0.947430  0.553716  1
  S  S7  1  0.731293  0.052570  0.446284  1
  S  S8  1  0.446284  0.731293  0.052570  1
  S  S9  1  0.947430  0.553716  0.268707  1
  O  O10  1  0.229775  0.140589  0.521879  1
  O  O11  1  0.140589  0.521879  0.229775  1
  O  O12  1  0.039546  0.575501  0.776035  1
  O  O13  1  0.135559  0.249973  0.839093  1
  O  O14  1  0.521879  0.229775  0.140589  1
  O  O15  1  0.160907  0.864441  0.750027  1
  O  O16  1  0.424499  0.223965  0.960454  1
  O  O17  1  0.166783  0.488570  0.523485  1
  O  O18  1  0.511430  0.476515  0.833217  1
  O  O19  1  0.223965  0.960454  0.424499  1
  O  O20  1  0.750027  0.160907  0.864441  1
  O  O21  1  0.476515  0.833217  0.511430  1
  O  O22  1  0.523485  0.166783  0.488570  1
  O  O23  1  0.249973  0.839093  0.135559  1
  O  O24  1  0.776035  0.039546  0.575501  1
  O  O25  1  0.488570  0.523485  0.166783  1
  O  O26  1  0.833217  0.511430  0.476515  1
  O  O27  1  0.575501  0.776035  0.039546  1
  O  O28  1  0.839093  0.135559  0.249973  1
  O  O29  1  0.478121  0.770225  0.859411  1
  O  O30  1  0.864441  0.750027  0.160907  1
  O  O31  1  0.960454  0.424499  0.223965  1
  O  O32  1  0.859411  0.478121  0.770225  1
  O  O33  1  0.770225  0.859411  0.478121  1
