# generated using pymatgen
data_Ca2Ga2Si(HO4)2
_symmetry_space_group_name_H-M   'P 1'
_cell_length_a   7.82560406
_cell_length_b   7.82560406
_cell_length_c   7.82560406
_cell_angle_alpha   109.40010871
_cell_angle_beta   109.40010871
_cell_angle_gamma   109.61353830
_symmetry_Int_Tables_number   1
_chemical_formula_structural   Ca2Ga2Si(HO4)2
_chemical_formula_sum   'Ca4 Ga4 Si2 H4 O16'
_cell_volume   368.91788536
_cell_formula_units_Z   2
loop_
 _symmetry_equiv_pos_site_id
 _symmetry_equiv_pos_as_xyz
  1  'x, y, z'
loop_
 _atom_site_type_symbol
 _atom_site_label
 _atom_site_symmetry_multiplicity
 _atom_site_fract_x
 _atom_site_fract_y
 _atom_site_fract_z
 _atom_site_occupancy
  Ca  Ca0  1  0.499333  0.221050  0.004787  1
  Ca  Ca1  1  0.778950  0.783737  0.278283  1
  Ca  Ca2  1  0.216263  0.494546  0.995213  1
  Ca  Ca3  1  0.505454  0.500667  0.721717  1
  Ga  Ga4  1  0.002659  0.256013  0.257413  1
  Ga  Ga5  1  0.743987  0.001399  0.746646  1
  Ga  Ga6  1  0.254754  0.997341  0.253354  1
  Ga  Ga7  1  0.998601  0.745246  0.742587  1
  Si  Si8  1  0.750000  0.250000  0.500000  1
  Si  Si9  1  0.250000  0.750000  0.500000  1
  H  H10  1  0.849593  0.485226  0.012099  1
  H  H11  1  0.473126  0.837494  0.987901  1
  H  H12  1  0.162506  0.150407  0.635632  1
  H  H13  1  0.514774  0.526874  0.364368  1
  O  O14  1  0.941063  0.240141  0.001857  1
  O  O15  1  0.521825  0.231689  0.459306  1
  O  O16  1  0.500279  0.727235  0.995876  1
  O  O17  1  0.768311  0.227617  0.290137  1
  O  O18  1  0.937481  0.478175  0.709863  1
  O  O19  1  0.731359  0.504403  0.004124  1
  O  O20  1  0.495597  0.499721  0.226955  1
  O  O21  1  0.772383  0.062519  0.540694  1
  O  O22  1  0.060794  0.058937  0.299078  1
  O  O23  1  0.238284  0.939206  0.998143  1
  O  O24  1  0.759859  0.761716  0.700922  1
  O  O25  1  0.229568  0.765168  0.288942  1
  O  O26  1  0.272765  0.268641  0.773045  1
  O  O27  1  0.059374  0.770432  0.535600  1
  O  O28  1  0.234832  0.523774  0.464400  1
  O  O29  1  0.476226  0.940626  0.711058  1
