# generated using pymatgen
data_Li2VP2O7
_symmetry_space_group_name_H-M   'P 1'
_cell_length_a   7.43194780
_cell_length_b   7.43194780
_cell_length_c   11.68354126
_cell_angle_alpha   88.61801234
_cell_angle_beta   91.38198766
_cell_angle_gamma   58.87557525
_symmetry_Int_Tables_number   1
_chemical_formula_structural   Li2VP2O7
_chemical_formula_sum   'Li8 V4 P8 O28'
_cell_volume   551.76452502
_cell_formula_units_Z   4
loop_
 _symmetry_equiv_pos_site_id
 _symmetry_equiv_pos_as_xyz
  1  'x, y, z'
loop_
 _atom_site_type_symbol
 _atom_site_label
 _atom_site_symmetry_multiplicity
 _atom_site_fract_x
 _atom_site_fract_y
 _atom_site_fract_z
 _atom_site_occupancy
  Li  Li0  1  0.700541  0.734380  0.993467  1
  Li  Li1  1  0.265620  0.299459  0.493467  1
  Li  Li2  1  0.723736  0.723736  0.750000  1
  Li  Li3  1  0.288004  0.288004  0.750000  1
  Li  Li4  1  0.711996  0.711996  0.250000  1
  Li  Li5  1  0.276264  0.276264  0.250000  1
  Li  Li6  1  0.734380  0.700541  0.506533  1
  Li  Li7  1  0.299459  0.265620  0.006533  1
  V  V8  1  0.334838  0.673224  0.889341  1
  V  V9  1  0.326776  0.665162  0.389341  1
  V  V10  1  0.673224  0.334838  0.610659  1
  V  V11  1  0.665162  0.326776  0.110659  1
  P  P12  1  0.073239  0.718631  0.629627  1
  P  P13  1  0.281369  0.926761  0.129627  1
  P  P14  1  0.325285  0.902985  0.637769  1
  P  P15  1  0.097015  0.674715  0.137769  1
  P  P16  1  0.902985  0.325285  0.862231  1
  P  P17  1  0.674715  0.097015  0.362231  1
  P  P18  1  0.718631  0.073239  0.870373  1
  P  P19  1  0.926761  0.281369  0.370373  1
  O  O20  1  0.090677  0.931831  0.625057  1
  O  O21  1  0.068169  0.909323  0.125057  1
  O  O22  1  0.171332  0.598436  0.520465  1
  O  O23  1  0.401564  0.828668  0.020465  1
  O  O24  1  0.417912  0.816878  0.759491  1
  O  O25  1  0.183122  0.582088  0.259491  1
  O  O26  1  0.202044  0.592502  0.738543  1
  O  O27  1  0.407498  0.797956  0.238543  1
  O  O28  1  0.457709  0.733025  0.549428  1
  O  O29  1  0.266975  0.542291  0.049428  1
  O  O30  1  0.116934  0.296812  0.882991  1
  O  O31  1  0.703188  0.883066  0.382991  1
  O  O32  1  0.797297  0.841054  0.871540  1
  O  O33  1  0.158946  0.202703  0.371540  1
  O  O34  1  0.841054  0.797297  0.628460  1
  O  O35  1  0.202703  0.158946  0.128460  1
  O  O36  1  0.296812  0.116934  0.617009  1
  O  O37  1  0.883066  0.703188  0.117009  1
  O  O38  1  0.733025  0.457709  0.950572  1
  O  O39  1  0.542291  0.266975  0.450572  1
  O  O40  1  0.592502  0.202044  0.761457  1
  O  O41  1  0.797956  0.407498  0.261457  1
  O  O42  1  0.816878  0.417912  0.740509  1
  O  O43  1  0.582088  0.183122  0.240509  1
  O  O44  1  0.598436  0.171332  0.979535  1
  O  O45  1  0.828668  0.401564  0.479535  1
  O  O46  1  0.931831  0.090677  0.874943  1
  O  O47  1  0.909323  0.068169  0.374943  1
