# generated using pymatgen
data_V2Fe3P6WO24
_symmetry_space_group_name_H-M   'P 1'
_cell_length_a   8.62140940
_cell_length_b   8.62140940
_cell_length_c   8.62140940
_cell_angle_alpha   60.38556477
_cell_angle_beta   60.38556477
_cell_angle_gamma   60.38556477
_symmetry_Int_Tables_number   1
_chemical_formula_structural   V2Fe3P6WO24
_chemical_formula_sum   'V2 Fe3 P6 W1 O24'
_cell_volume   457.07822316
_cell_formula_units_Z   1
loop_
 _symmetry_equiv_pos_site_id
 _symmetry_equiv_pos_as_xyz
  1  'x, y, z'
loop_
 _atom_site_type_symbol
 _atom_site_label
 _atom_site_symmetry_multiplicity
 _atom_site_fract_x
 _atom_site_fract_y
 _atom_site_fract_z
 _atom_site_occupancy
  V  V0  1  0.997721  0.997721  0.997721  1
  V  V1  1  0.499486  0.499486  0.499486  1
  Fe  Fe2  1  0.643964  0.643964  0.643964  1
  Fe  Fe3  1  0.854487  0.854487  0.854487  1
  Fe  Fe4  1  0.355972  0.355972  0.355972  1
  P  P5  1  0.954162  0.252358  0.548606  1
  P  P6  1  0.548606  0.954162  0.252358  1
  P  P7  1  0.252358  0.548606  0.954162  1
  P  P8  1  0.744125  0.462573  0.044486  1
  P  P9  1  0.462573  0.044486  0.744125  1
  P  P10  1  0.044486  0.744125  0.462573  1
  W  W11  1  0.143091  0.143091  0.143091  1
  O  O12  1  0.500729  0.110670  0.317920  1
  O  O13  1  0.317920  0.500729  0.110670  1
  O  O14  1  0.110670  0.317920  0.500729  1
  O  O15  1  0.941432  0.088197  0.738695  1
  O  O16  1  0.999147  0.180839  0.388301  1
  O  O17  1  0.760642  0.411361  0.554022  1
  O  O18  1  0.738695  0.941432  0.088197  1
  O  O19  1  0.554022  0.760642  0.411361  1
  O  O20  1  0.815458  0.612291  0.004812  1
  O  O21  1  0.411361  0.554022  0.760642  1
  O  O22  1  0.910180  0.260837  0.065232  1
  O  O23  1  0.612291  0.004812  0.815458  1
  O  O24  1  0.388301  0.999147  0.180839  1
  O  O25  1  0.088197  0.738695  0.941432  1
  O  O26  1  0.588803  0.439904  0.240834  1
  O  O27  1  0.180839  0.388301  0.999147  1
  O  O28  1  0.439904  0.240834  0.588803  1
  O  O29  1  0.260837  0.065232  0.910180  1
  O  O30  1  0.240834  0.588803  0.439904  1
  O  O31  1  0.004812  0.815458  0.612291  1
  O  O32  1  0.065232  0.910180  0.260837  1
  O  O33  1  0.885619  0.690706  0.492326  1
  O  O34  1  0.690706  0.492326  0.885619  1
  O  O35  1  0.492326  0.885619  0.690706  1
