# generated using pymatgen
data_LiCuF4
_symmetry_space_group_name_H-M   'P 1'
_cell_length_a   4.69082158
_cell_length_b   5.53447441
_cell_length_c   10.07058112
_cell_angle_alpha   90.00000000
_cell_angle_beta   90.00000000
_cell_angle_gamma   90.00000000
_symmetry_Int_Tables_number   1
_chemical_formula_structural   LiCuF4
_chemical_formula_sum   'Li4 Cu4 F16'
_cell_volume   261.44469263
_cell_formula_units_Z   4
loop_
 _symmetry_equiv_pos_site_id
 _symmetry_equiv_pos_as_xyz
  1  'x, y, z'
loop_
 _atom_site_type_symbol
 _atom_site_label
 _atom_site_symmetry_multiplicity
 _atom_site_fract_x
 _atom_site_fract_y
 _atom_site_fract_z
 _atom_site_occupancy
  Li  Li0  1  0.500000  0.000000  0.500000  1
  Li  Li1  1  0.500000  0.000000  0.000000  1
  Li  Li2  1  0.000000  0.500000  0.500000  1
  Li  Li3  1  0.000000  0.500000  0.000000  1
  Cu  Cu4  1  0.500000  0.318699  0.750000  1
  Cu  Cu5  1  0.500000  0.681301  0.250000  1
  Cu  Cu6  1  0.000000  0.818699  0.750000  1
  Cu  Cu7  1  0.000000  0.181301  0.250000  1
  F  F8  1  0.680850  0.304362  0.585631  1
  F  F9  1  0.680850  0.695638  0.085631  1
  F  F10  1  0.743426  0.063407  0.820998  1
  F  F11  1  0.743426  0.936593  0.320998  1
  F  F12  1  0.756574  0.563407  0.820998  1
  F  F13  1  0.756574  0.436593  0.320998  1
  F  F14  1  0.819150  0.804362  0.585631  1
  F  F15  1  0.819150  0.195638  0.085631  1
  F  F16  1  0.180850  0.804362  0.914369  1
  F  F17  1  0.180850  0.195638  0.414369  1
  F  F18  1  0.243426  0.563407  0.679002  1
  F  F19  1  0.243426  0.436593  0.179002  1
  F  F20  1  0.256574  0.063407  0.679002  1
  F  F21  1  0.256574  0.936593  0.179002  1
  F  F22  1  0.319150  0.695638  0.414369  1
  F  F23  1  0.319150  0.304362  0.914369  1
