# generated using pymatgen
data_V3P2O11
_symmetry_space_group_name_H-M   'P 1'
_cell_length_a   9.91557834
_cell_length_b   7.42157333
_cell_length_c   11.99354038
_cell_angle_alpha   90.00000000
_cell_angle_beta   100.78188827
_cell_angle_gamma   90.00000000
_symmetry_Int_Tables_number   1
_chemical_formula_structural   V3P2O11
_chemical_formula_sum   'V12 P8 O44'
_cell_volume   867.01399521
_cell_formula_units_Z   4
loop_
 _symmetry_equiv_pos_site_id
 _symmetry_equiv_pos_as_xyz
  1  'x, y, z'
loop_
 _atom_site_type_symbol
 _atom_site_label
 _atom_site_symmetry_multiplicity
 _atom_site_fract_x
 _atom_site_fract_y
 _atom_site_fract_z
 _atom_site_occupancy
  V  V0  1  0.487622  0.201745  0.836102  1
  V  V1  1  0.065737  0.862354  0.734511  1
  V  V2  1  0.987622  0.298255  0.836102  1
  V  V3  1  0.565737  0.637646  0.734511  1
  V  V4  1  0.179880  0.313911  0.680022  1
  V  V5  1  0.679880  0.186089  0.680022  1
  V  V6  1  0.320120  0.813911  0.319978  1
  V  V7  1  0.820120  0.686089  0.319978  1
  V  V8  1  0.434263  0.362354  0.265489  1
  V  V9  1  0.012378  0.701745  0.163898  1
  V  V10  1  0.934263  0.137646  0.265489  1
  V  V11  1  0.512378  0.798255  0.163898  1
  P  P12  1  0.359313  0.807915  0.904743  1
  P  P13  1  0.859313  0.692085  0.904743  1
  P  P14  1  0.255618  0.701032  0.571785  1
  P  P15  1  0.755618  0.798968  0.571785  1
  P  P16  1  0.244382  0.201032  0.428215  1
  P  P17  1  0.744382  0.298968  0.428215  1
  P  P18  1  0.140687  0.307915  0.095257  1
  P  P19  1  0.640687  0.192085  0.095257  1
  O  O20  1  0.115045  0.245963  0.968160  1
  O  O21  1  0.202795  0.782383  0.856852  1
  O  O22  1  0.615045  0.254037  0.968160  1
  O  O23  1  0.393815  0.009182  0.901024  1
  O  O24  1  0.702795  0.717617  0.856852  1
  O  O25  1  0.440051  0.680856  0.841552  1
  O  O26  1  0.893815  0.490818  0.901024  1
  O  O27  1  0.940051  0.819144  0.841552  1
  O  O28  1  0.077928  0.112646  0.742312  1
  O  O29  1  0.037026  0.443349  0.738773  1
  O  O30  1  0.318652  0.322350  0.788222  1
  O  O31  1  0.577928  0.387354  0.742312  1
  O  O32  1  0.537026  0.056651  0.738773  1
  O  O33  1  0.818652  0.177650  0.788222  1
  O  O34  1  0.197154  0.863595  0.629367  1
  O  O35  1  0.697154  0.636405  0.629367  1
  O  O36  1  0.413921  0.681406  0.618584  1
  O  O37  1  0.173841  0.534576  0.595036  1
  O  O38  1  0.913921  0.818594  0.618584  1
  O  O39  1  0.673841  0.965424  0.595036  1
  O  O40  1  0.259603  0.218648  0.556893  1
  O  O41  1  0.240397  0.718648  0.443107  1
  O  O42  1  0.759603  0.281352  0.556893  1
  O  O43  1  0.740397  0.781352  0.443107  1
  O  O44  1  0.326159  0.034576  0.404964  1
  O  O45  1  0.086079  0.181406  0.381416  1
  O  O46  1  0.826159  0.465424  0.404964  1
  O  O47  1  0.586079  0.318594  0.381416  1
  O  O48  1  0.302846  0.363595  0.370633  1
  O  O49  1  0.802846  0.136405  0.370633  1
  O  O50  1  0.181348  0.822350  0.211778  1
  O  O51  1  0.462974  0.943349  0.261227  1
  O  O52  1  0.422072  0.612646  0.257688  1
  O  O53  1  0.681348  0.677650  0.211778  1
  O  O54  1  0.962974  0.556651  0.261227  1
  O  O55  1  0.922072  0.887354  0.257688  1
  O  O56  1  0.059949  0.180856  0.158448  1
  O  O57  1  0.106185  0.509182  0.098976  1
  O  O58  1  0.559949  0.319144  0.158448  1
  O  O59  1  0.297205  0.282383  0.143148  1
  O  O60  1  0.606185  0.990818  0.098976  1
  O  O61  1  0.384955  0.745963  0.031840  1
  O  O62  1  0.797205  0.217617  0.143148  1
  O  O63  1  0.884955  0.754037  0.031840  1
