# generated using pymatgen
data_Li4Mn3V3(WO8)2
_symmetry_space_group_name_H-M   'P 1'
_cell_length_a   6.09161331
_cell_length_b   6.09161331
_cell_length_c   9.84581643
_cell_angle_alpha   88.89121499
_cell_angle_beta   91.10878501
_cell_angle_gamma   119.85673522
_symmetry_Int_Tables_number   1
_chemical_formula_structural   Li4Mn3V3(WO8)2
_chemical_formula_sum   'Li4 Mn3 V3 W2 O16'
_cell_volume   316.78424425
_cell_formula_units_Z   1
loop_
 _symmetry_equiv_pos_site_id
 _symmetry_equiv_pos_as_xyz
  1  'x, y, z'
loop_
 _atom_site_type_symbol
 _atom_site_label
 _atom_site_symmetry_multiplicity
 _atom_site_fract_x
 _atom_site_fract_y
 _atom_site_fract_z
 _atom_site_occupancy
  Li  Li0  1  0.340225  0.659775  0.090500  1
  Li  Li1  1  0.993238  0.006762  0.012868  1
  Li  Li2  1  0.994266  0.005734  0.512260  1
  Li  Li3  1  0.671535  0.328465  0.594884  1
  Mn  Mn4  1  0.168474  0.831526  0.789096  1
  Mn  Mn5  1  0.338129  0.170524  0.291406  1
  Mn  Mn6  1  0.829476  0.661871  0.291406  1
  V  V7  1  0.163761  0.342942  0.783948  1
  V  V8  1  0.657058  0.836239  0.783948  1
  V  V9  1  0.825420  0.174580  0.276324  1
  W  W10  1  0.334000  0.666000  0.513469  1
  W  W11  1  0.663104  0.336896  0.011025  1
  O  O12  1  0.168494  0.355196  0.411153  1
  O  O13  1  0.479672  0.520328  0.649592  1
  O  O14  1  0.344227  0.655773  0.889908  1
  O  O15  1  0.992345  0.007655  0.698476  1
  O  O16  1  0.985532  0.014468  0.202018  1
  O  O17  1  0.644804  0.831506  0.411153  1
  O  O18  1  0.044614  0.510510  0.648270  1
  O  O19  1  0.489490  0.955386  0.648270  1
  O  O20  1  0.821408  0.178592  0.905725  1
  O  O21  1  0.171317  0.828683  0.422943  1
  O  O22  1  0.538973  0.039371  0.145533  1
  O  O23  1  0.960629  0.461027  0.145533  1
  O  O24  1  0.688465  0.311535  0.389674  1
  O  O25  1  0.344475  0.180899  0.915108  1
  O  O26  1  0.526597  0.473403  0.142579  1
  O  O27  1  0.819101  0.655525  0.915108  1
