# generated using pymatgen
data_Li2MnF4
_symmetry_space_group_name_H-M   'P 1'
_cell_length_a   5.07119118
_cell_length_b   5.81000999
_cell_length_c   10.49041693
_cell_angle_alpha   90.00000000
_cell_angle_beta   90.00000000
_cell_angle_gamma   90.00000000
_symmetry_Int_Tables_number   1
_chemical_formula_structural   Li2MnF4
_chemical_formula_sum   'Li8 Mn4 F16'
_cell_volume   309.08619745
_cell_formula_units_Z   4
loop_
 _symmetry_equiv_pos_site_id
 _symmetry_equiv_pos_as_xyz
  1  'x, y, z'
loop_
 _atom_site_type_symbol
 _atom_site_label
 _atom_site_symmetry_multiplicity
 _atom_site_fract_x
 _atom_site_fract_y
 _atom_site_fract_z
 _atom_site_occupancy
  Li  Li0  1  0.486914  0.500000  0.773169  1
  Li  Li1  1  0.000000  0.750000  0.750000  1
  Li  Li2  1  0.000000  0.250000  0.750000  1
  Li  Li3  1  0.513086  0.000000  0.726831  1
  Li  Li4  1  0.513086  0.000000  0.273169  1
  Li  Li5  1  0.000000  0.750000  0.250000  1
  Li  Li6  1  0.000000  0.250000  0.250000  1
  Li  Li7  1  0.486914  0.500000  0.226831  1
  Mn  Mn8  1  0.467547  0.000000  0.000000  1
  Mn  Mn9  1  0.860921  0.500000  0.000000  1
  Mn  Mn10  1  0.139079  0.000000  0.500000  1
  Mn  Mn11  1  0.532453  0.500000  0.500000  1
  F  F12  1  0.666567  0.250942  0.871506  1
  F  F13  1  0.666567  0.749058  0.871506  1
  F  F14  1  0.146152  0.500000  0.856093  1
  F  F15  1  0.200237  0.000000  0.849378  1
  F  F16  1  0.799763  0.500000  0.650622  1
  F  F17  1  0.853848  0.000000  0.643907  1
  F  F18  1  0.333433  0.750942  0.628494  1
  F  F19  1  0.333433  0.249058  0.628494  1
  F  F20  1  0.333433  0.750942  0.371506  1
  F  F21  1  0.333433  0.249058  0.371506  1
  F  F22  1  0.853848  0.000000  0.356093  1
  F  F23  1  0.799763  0.500000  0.349378  1
  F  F24  1  0.200237  0.000000  0.150622  1
  F  F25  1  0.146152  0.500000  0.143907  1
  F  F26  1  0.666567  0.749058  0.128494  1
  F  F27  1  0.666567  0.250942  0.128494  1
