# generated using pymatgen
data_Al2H10S3O17
_symmetry_space_group_name_H-M   'P 1'
_cell_length_a   5.53787100
_cell_length_b   10.90979583
_cell_length_c   21.06960891
_cell_angle_alpha   90.00000000
_cell_angle_beta   98.62933406
_cell_angle_gamma   90.00000000
_symmetry_Int_Tables_number   1
_chemical_formula_structural   Al2H10S3O17
_chemical_formula_sum   'Al8 H40 S12 O68'
_cell_volume   1258.55310738
_cell_formula_units_Z   4
loop_
 _symmetry_equiv_pos_site_id
 _symmetry_equiv_pos_as_xyz
  1  'x, y, z'
loop_
 _atom_site_type_symbol
 _atom_site_label
 _atom_site_symmetry_multiplicity
 _atom_site_fract_x
 _atom_site_fract_y
 _atom_site_fract_z
 _atom_site_occupancy
  Al  Al0  1  0.000000  0.000000  0.000000  1
  Al  Al1  1  0.000000  0.500000  0.000000  1
  Al  Al2  1  0.601262  0.239129  0.687226  1
  Al  Al3  1  0.398738  0.739129  0.812774  1
  Al  Al4  1  0.601262  0.260871  0.187226  1
  Al  Al5  1  0.000000  0.000000  0.500000  1
  Al  Al6  1  0.000000  0.500000  0.500000  1
  Al  Al7  1  0.398738  0.760871  0.312774  1
  H  H8  1  0.137409  0.674482  0.207897  1
  H  H9  1  0.103606  0.824699  0.211554  1
  H  H10  1  0.636927  0.872976  0.737617  1
  H  H11  1  0.701743  0.921164  0.810106  1
  H  H12  1  0.689979  0.561321  0.797156  1
  H  H13  1  0.684224  0.435814  0.905107  1
  H  H14  1  0.674729  0.091703  0.915572  1
  H  H15  1  0.896394  0.324699  0.288446  1
  H  H16  1  0.571699  0.607573  0.725906  1
  H  H17  1  0.862591  0.174482  0.292103  1
  H  H18  1  0.679052  0.164623  0.980962  1
  H  H19  1  0.602441  0.386587  0.971472  1
  H  H20  1  0.397559  0.886587  0.528528  1
  H  H21  1  0.320948  0.664623  0.519038  1
  H  H22  1  0.428301  0.107573  0.774094  1
  H  H23  1  0.325271  0.591703  0.584428  1
  H  H24  1  0.315776  0.935814  0.594893  1
  H  H25  1  0.636927  0.627024  0.237617  1
  H  H26  1  0.701743  0.578836  0.310106  1
  H  H27  1  0.689979  0.938679  0.297156  1
  H  H28  1  0.310021  0.061321  0.702844  1
  H  H29  1  0.298257  0.421164  0.689894  1
  H  H30  1  0.363073  0.372976  0.762383  1
  H  H31  1  0.684224  0.064186  0.405107  1
  H  H32  1  0.674729  0.408297  0.415572  1
  H  H33  1  0.571699  0.892427  0.225906  1
  H  H34  1  0.679052  0.335377  0.480962  1
  H  H35  1  0.602441  0.113413  0.471472  1
  H  H36  1  0.397559  0.613413  0.028528  1
  H  H37  1  0.320948  0.835377  0.019038  1
  H  H38  1  0.137409  0.825518  0.707897  1
  H  H39  1  0.428301  0.392427  0.274094  1
  H  H40  1  0.103606  0.675301  0.711554  1
  H  H41  1  0.325271  0.908297  0.084428  1
  H  H42  1  0.315776  0.564186  0.094893  1
  H  H43  1  0.310021  0.438679  0.202844  1
  H  H44  1  0.298257  0.078836  0.189894  1
  H  H45  1  0.363073  0.127024  0.262383  1
  H  H46  1  0.896394  0.175301  0.788446  1
  H  H47  1  0.862591  0.325518  0.792103  1
  S  S48  1  0.207813  0.505249  0.366298  1
  S  S49  1  0.150564  0.007273  0.359442  1
  S  S50  1  0.849436  0.507273  0.140558  1
  S  S51  1  0.720677  0.746952  0.953246  1
  S  S52  1  0.792187  0.005249  0.133702  1
  S  S53  1  0.279323  0.246952  0.546754  1
  S  S54  1  0.720677  0.753048  0.453246  1
  S  S55  1  0.207813  0.994751  0.866298  1
  S  S56  1  0.279323  0.253048  0.046754  1
  S  S57  1  0.150564  0.492727  0.859442  1
  S  S58  1  0.849436  0.992727  0.640558  1
  S  S59  1  0.792187  0.494751  0.633702  1
  O  O60  1  0.333077  0.089010  0.338236  1
  O  O61  1  0.177087  0.750454  0.234241  1
  O  O62  1  0.240131  0.639151  0.354427  1
  O  O63  1  0.104059  0.545641  0.167812  1
  O  O64  1  0.180956  0.877574  0.340525  1
  O  O65  1  0.206790  0.491050  0.436842  1
  O  O66  1  0.931683  0.668035  0.978401  1
  O  O67  1  0.176563  0.013709  0.430903  1
  O  O68  1  0.025324  0.964202  0.171029  1
  O  O69  1  0.809903  0.875401  0.951909  1
  O  O70  1  0.784072  0.117910  0.954990  1
  O  O71  1  0.974676  0.464202  0.328971  1
  O  O72  1  0.823437  0.513709  0.069097  1
  O  O73  1  0.581939  0.566623  0.649412  1
  O  O74  1  0.793210  0.991050  0.063158  1
  O  O75  1  0.476984  0.236113  0.507622  1
  O  O76  1  0.704043  0.447074  0.951805  1
  O  O77  1  0.602199  0.861503  0.782447  1
  O  O78  1  0.819044  0.377574  0.159475  1
  O  O79  1  0.895941  0.045641  0.332188  1
  O  O80  1  0.637224  0.709801  0.885507  1
  O  O81  1  0.565491  0.616133  0.772833  1
  O  O82  1  0.759869  0.139151  0.145573  1
  O  O83  1  0.822913  0.250454  0.265759  1
  O  O84  1  0.931683  0.831965  0.478401  1
  O  O85  1  0.434509  0.116133  0.727167  1
  O  O86  1  0.362776  0.209801  0.614493  1
  O  O87  1  0.666923  0.589010  0.161764  1
  O  O88  1  0.397801  0.361503  0.717553  1
  O  O89  1  0.295957  0.947074  0.548195  1
  O  O90  1  0.809903  0.624599  0.451909  1
  O  O91  1  0.523016  0.736113  0.992378  1
  O  O92  1  0.784072  0.382090  0.454990  1
  O  O93  1  0.418061  0.066623  0.850588  1
  O  O94  1  0.581939  0.933377  0.149412  1
  O  O95  1  0.215928  0.617910  0.545010  1
  O  O96  1  0.476984  0.263887  0.007622  1
  O  O97  1  0.190097  0.375401  0.548091  1
  O  O98  1  0.704043  0.052926  0.451805  1
  O  O99  1  0.602199  0.638497  0.282447  1
  O  O100  1  0.333077  0.410990  0.838236  1
  O  O101  1  0.637224  0.790199  0.385507  1
  O  O102  1  0.565491  0.883867  0.272833  1
  O  O103  1  0.068317  0.168035  0.521599  1
  O  O104  1  0.177087  0.749546  0.734241  1
  O  O105  1  0.240131  0.860849  0.854427  1
  O  O106  1  0.434509  0.383867  0.227167  1
  O  O107  1  0.362776  0.290199  0.114493  1
  O  O108  1  0.104059  0.954359  0.667812  1
  O  O109  1  0.180956  0.622426  0.840525  1
  O  O110  1  0.397801  0.138497  0.217553  1
  O  O111  1  0.295957  0.552926  0.048195  1
  O  O112  1  0.523016  0.763887  0.492378  1
  O  O113  1  0.206790  0.008950  0.936842  1
  O  O114  1  0.418061  0.433377  0.350588  1
  O  O115  1  0.176563  0.486291  0.930903  1
  O  O116  1  0.025324  0.535798  0.671029  1
  O  O117  1  0.215928  0.882090  0.045010  1
  O  O118  1  0.190097  0.124599  0.048091  1
  O  O119  1  0.974676  0.035798  0.828971  1
  O  O120  1  0.823437  0.986291  0.569097  1
  O  O121  1  0.068317  0.331965  0.021599  1
  O  O122  1  0.793210  0.508950  0.563158  1
  O  O123  1  0.819044  0.122426  0.659475  1
  O  O124  1  0.895941  0.454359  0.832188  1
  O  O125  1  0.759869  0.360849  0.645573  1
  O  O126  1  0.822913  0.249546  0.765759  1
  O  O127  1  0.666923  0.910990  0.661764  1
