# generated using pymatgen
data_Li4Fe2O5
_symmetry_space_group_name_H-M   'P 1'
_cell_length_a   8.53456322
_cell_length_b   5.25706029
_cell_length_c   11.19852127
_cell_angle_alpha   90.00000000
_cell_angle_beta   108.75619623
_cell_angle_gamma   90.00000000
_symmetry_Int_Tables_number   1
_chemical_formula_structural   Li4Fe2O5
_chemical_formula_sum   'Li16 Fe8 O20'
_cell_volume   475.75890539
_cell_formula_units_Z   4
loop_
 _symmetry_equiv_pos_site_id
 _symmetry_equiv_pos_as_xyz
  1  'x, y, z'
loop_
 _atom_site_type_symbol
 _atom_site_label
 _atom_site_symmetry_multiplicity
 _atom_site_fract_x
 _atom_site_fract_y
 _atom_site_fract_z
 _atom_site_occupancy
  Li  Li0  1  0.121707  0.122594  0.996822  1
  Li  Li1  1  0.499824  0.324239  0.587775  1
  Li  Li2  1  0.991358  0.477000  0.884908  1
  Li  Li3  1  0.886037  0.336551  0.674753  1
  Li  Li4  1  0.113963  0.836551  0.825247  1
  Li  Li5  1  0.878293  0.622594  0.503178  1
  Li  Li6  1  0.008642  0.977000  0.615092  1
  Li  Li7  1  0.499824  0.175761  0.087775  1
  Li  Li8  1  0.500176  0.824239  0.912225  1
  Li  Li9  1  0.991358  0.023000  0.384908  1
  Li  Li10  1  0.121707  0.377406  0.496822  1
  Li  Li11  1  0.886037  0.163449  0.174753  1
  Li  Li12  1  0.113963  0.663449  0.325247  1
  Li  Li13  1  0.008642  0.523000  0.115092  1
  Li  Li14  1  0.500176  0.675761  0.412225  1
  Li  Li15  1  0.878293  0.877406  0.003178  1
  Fe  Fe16  1  0.308099  0.669247  0.117650  1
  Fe  Fe17  1  0.691901  0.169247  0.382350  1
  Fe  Fe18  1  0.308099  0.830753  0.617650  1
  Fe  Fe19  1  0.691901  0.330753  0.882350  1
  Fe  Fe20  1  0.706654  0.829795  0.712096  1
  Fe  Fe21  1  0.706654  0.670205  0.212096  1
  Fe  Fe22  1  0.293346  0.329795  0.787904  1
  Fe  Fe23  1  0.293346  0.170205  0.287904  1
  O  O24  1  0.296370  0.301522  0.126697  1
  O  O25  1  0.700376  0.198126  0.723336  1
  O  O26  1  0.495976  0.286367  0.411431  1
  O  O27  1  0.504024  0.786367  0.088569  1
  O  O28  1  0.901284  0.711359  0.687455  1
  O  O29  1  0.101689  0.749124  0.995826  1
  O  O30  1  0.703630  0.801522  0.373303  1
  O  O31  1  0.898311  0.249124  0.504174  1
  O  O32  1  0.098716  0.211359  0.812545  1
  O  O33  1  0.700376  0.301874  0.223336  1
  O  O34  1  0.299624  0.698126  0.776664  1
  O  O35  1  0.901284  0.788641  0.187455  1
  O  O36  1  0.101689  0.750876  0.495826  1
  O  O37  1  0.296370  0.198478  0.626697  1
  O  O38  1  0.898311  0.250876  0.004174  1
  O  O39  1  0.098716  0.288641  0.312545  1
  O  O40  1  0.495976  0.213633  0.911431  1
  O  O41  1  0.504024  0.713633  0.588569  1
  O  O42  1  0.299624  0.801874  0.276664  1
  O  O43  1  0.703630  0.698478  0.873303  1
