# generated using pymatgen
data_LiV2F7
_symmetry_space_group_name_H-M   'P 1'
_cell_length_a   9.15595241
_cell_length_b   9.15595241
_cell_length_c   5.63681152
_cell_angle_alpha   87.17527382
_cell_angle_beta   92.82472618
_cell_angle_gamma   148.54037809
_symmetry_Int_Tables_number   1
_chemical_formula_structural   LiV2F7
_chemical_formula_sum   'Li2 V4 F14'
_cell_volume   246.29516355
_cell_formula_units_Z   2
loop_
 _symmetry_equiv_pos_site_id
 _symmetry_equiv_pos_as_xyz
  1  'x, y, z'
loop_
 _atom_site_type_symbol
 _atom_site_label
 _atom_site_symmetry_multiplicity
 _atom_site_fract_x
 _atom_site_fract_y
 _atom_site_fract_z
 _atom_site_occupancy
  Li  Li0  1  0.500000  0.000000  0.000000  1
  Li  Li1  1  0.000000  0.500000  0.500000  1
  V  V2  1  0.147904  0.360793  0.220171  1
  V  V3  1  0.639207  0.852096  0.720171  1
  V  V4  1  0.360793  0.147904  0.279829  1
  V  V5  1  0.852096  0.639207  0.779829  1
  F  F6  1  0.374930  0.525506  0.930455  1
  F  F7  1  0.474494  0.625070  0.430455  1
  F  F8  1  0.807496  0.087559  0.014090  1
  F  F9  1  0.912441  0.192504  0.514090  1
  F  F10  1  0.390149  0.803502  0.706972  1
  F  F11  1  0.196498  0.609851  0.206972  1
  F  F12  1  0.803502  0.390149  0.793028  1
  F  F13  1  0.609851  0.196498  0.293028  1
  F  F14  1  0.087559  0.807496  0.485910  1
  F  F15  1  0.192504  0.912441  0.985910  1
  F  F16  1  0.525506  0.374930  0.569545  1
  F  F17  1  0.625070  0.474494  0.069545  1
  F  F18  1  0.112711  0.112711  0.250000  1
  F  F19  1  0.887289  0.887289  0.750000  1
