# generated using pymatgen
data_Li3Ti3VO8
_symmetry_space_group_name_H-M   'P 1'
_cell_length_a   5.95059432
_cell_length_b   5.95059432
_cell_length_c   6.06205315
_cell_angle_alpha   60.30229471
_cell_angle_beta   119.69770529
_cell_angle_gamma   119.90778799
_symmetry_Int_Tables_number   1
_chemical_formula_structural   Li3Ti3VO8
_chemical_formula_sum   'Li3 Ti3 V1 O8'
_cell_volume   152.58057312
_cell_formula_units_Z   1
loop_
 _symmetry_equiv_pos_site_id
 _symmetry_equiv_pos_as_xyz
  1  'x, y, z'
loop_
 _atom_site_type_symbol
 _atom_site_label
 _atom_site_symmetry_multiplicity
 _atom_site_fract_x
 _atom_site_fract_y
 _atom_site_fract_z
 _atom_site_occupancy
  Li  Li0  1  0.500000  0.500000  0.500000  1
  Li  Li1  1  0.000000  0.500000  0.500000  1
  Li  Li2  1  0.500000  0.000000  0.500000  1
  Ti  Ti3  1  0.500000  0.500000  0.000000  1
  Ti  Ti4  1  0.000000  0.500000  0.000000  1
  Ti  Ti5  1  0.500000  0.000000  0.000000  1
  V  V6  1  0.000000  0.000000  0.000000  1
  O  O7  1  0.736533  0.263467  0.219963  1
  O  O8  1  0.250936  0.749064  0.233090  1
  O  O9  1  0.252627  0.278888  0.218865  1
  O  O10  1  0.721112  0.747373  0.218865  1
  O  O11  1  0.278888  0.252627  0.781135  1
  O  O12  1  0.747373  0.721112  0.781135  1
  O  O13  1  0.749064  0.250936  0.766910  1
  O  O14  1  0.263467  0.736533  0.780037  1
