# generated using pymatgen
data_Na2MnPCO7
_symmetry_space_group_name_H-M   'P 1'
_cell_length_a   8.49170294
_cell_length_b   8.53902089
_cell_length_c   8.88033170
_cell_angle_alpha   90.82784002
_cell_angle_beta   90.83252453
_cell_angle_gamma   104.70731425
_symmetry_Int_Tables_number   1
_chemical_formula_structural   Na2MnPCO7
_chemical_formula_sum   'Na8 Mn4 P4 C4 O28'
_cell_volume   622.64712853
_cell_formula_units_Z   4
loop_
 _symmetry_equiv_pos_site_id
 _symmetry_equiv_pos_as_xyz
  1  'x, y, z'
loop_
 _atom_site_type_symbol
 _atom_site_label
 _atom_site_symmetry_multiplicity
 _atom_site_fract_x
 _atom_site_fract_y
 _atom_site_fract_z
 _atom_site_occupancy
  Na  Na0  1  0.371141  0.377999  0.240429  1
  Na  Na1  1  0.642046  0.115532  0.249165  1
  Na  Na2  1  0.135671  0.622534  0.254477  1
  Na  Na3  1  0.135749  0.130981  0.752701  1
  Na  Na4  1  0.861012  0.365384  0.755285  1
  Na  Na5  1  0.616277  0.612081  0.754791  1
  Na  Na6  1  0.381410  0.886737  0.751164  1
  Na  Na7  1  0.997122  0.767454  0.931819  1
  Mn  Mn8  1  0.736310  0.492265  0.350383  1
  Mn  Mn9  1  0.227446  0.984897  0.351782  1
  Mn  Mn10  1  0.264319  0.517501  0.648434  1
  Mn  Mn11  1  0.766913  0.014501  0.645849  1
  P  P12  1  0.021707  0.273953  0.419354  1
  P  P13  1  0.517930  0.768683  0.421116  1
  P  P14  1  0.477604  0.228496  0.575452  1
  P  P15  1  0.979317  0.727312  0.582841  1
  C  C16  1  0.261632  0.007775  0.071041  1
  C  C17  1  0.767606  0.513907  0.069546  1
  C  C18  1  0.238579  0.490183  0.926551  1
  C  C19  1  0.739299  0.989795  0.924428  1
  O  O20  1  0.233134  0.489973  0.066683  1
  O  O21  1  0.733426  0.986490  0.062840  1
  O  O22  1  0.654101  0.410954  0.144252  1
  O  O23  1  0.153978  0.898768  0.146958  1
  O  O24  1  0.364026  0.111740  0.154241  1
  O  O25  1  0.876941  0.610355  0.153348  1
  O  O26  1  0.093870  0.157355  0.326394  1
  O  O27  1  0.572618  0.634952  0.333375  1
  O  O28  1  0.889477  0.330117  0.329828  1
  O  O29  1  0.389634  0.826459  0.327869  1
  O  O30  1  0.166304  0.430180  0.455523  1
  O  O31  1  0.544222  0.293298  0.420842  1
  O  O32  1  0.053893  0.792174  0.432853  1
  O  O33  1  0.665214  0.918320  0.457486  1
  O  O34  1  0.325261  0.076550  0.546137  1
  O  O35  1  0.955066  0.200818  0.572498  1
  O  O36  1  0.447392  0.702422  0.576200  1
  O  O37  1  0.826913  0.578560  0.548221  1
  O  O38  1  0.604965  0.170495  0.669709  1
  O  O39  1  0.417723  0.355880  0.667609  1
  O  O40  1  0.099693  0.667056  0.686278  1
  O  O41  1  0.922676  0.854470  0.679264  1
  O  O42  1  0.137683  0.389614  0.835533  1
  O  O43  1  0.641803  0.887347  0.830155  1
  O  O44  1  0.851211  0.098492  0.849921  1
  O  O45  1  0.349514  0.598611  0.852635  1
  O  O46  1  0.253799  0.001548  0.928435  1
  O  O47  1  0.767433  0.517986  0.926745  1
