# generated using pymatgen
data_H6C3N4O3
_symmetry_space_group_name_H-M   'P 1'
_cell_length_a   5.16905501
_cell_length_b   5.16905501
_cell_length_c   21.85166109
_cell_angle_alpha   85.38955081
_cell_angle_beta   94.61044919
_cell_angle_gamma   91.67692212
_symmetry_Int_Tables_number   1
_chemical_formula_structural   H6C3N4O3
_chemical_formula_sum   'H24 C12 N16 O12'
_cell_volume   579.93223274
_cell_formula_units_Z   4
loop_
 _symmetry_equiv_pos_site_id
 _symmetry_equiv_pos_as_xyz
  1  'x, y, z'
loop_
 _atom_site_type_symbol
 _atom_site_label
 _atom_site_symmetry_multiplicity
 _atom_site_fract_x
 _atom_site_fract_y
 _atom_site_fract_z
 _atom_site_occupancy
  H  H0  1  0.110187  0.737719  0.500822  1
  H  H1  1  0.737719  0.110187  0.999178  1
  H  H2  1  0.889813  0.262281  0.499178  1
  H  H3  1  0.262281  0.889813  0.000822  1
  H  H4  1  0.375794  0.889053  0.541879  1
  H  H5  1  0.889053  0.375794  0.958121  1
  H  H6  1  0.624206  0.110947  0.458121  1
  H  H7  1  0.110947  0.624206  0.041879  1
  H  H8  1  0.557243  0.305379  0.629326  1
  H  H9  1  0.305379  0.557243  0.870674  1
  H  H10  1  0.442757  0.694621  0.370674  1
  H  H11  1  0.694621  0.442757  0.129326  1
  H  H12  1  0.803989  0.431272  0.702909  1
  H  H13  1  0.431272  0.803989  0.797091  1
  H  H14  1  0.196011  0.568728  0.297091  1
  H  H15  1  0.568728  0.196011  0.202909  1
  H  H16  1  0.085357  0.029294  0.637016  1
  H  H17  1  0.029294  0.085357  0.862984  1
  H  H18  1  0.914643  0.970706  0.362984  1
  H  H19  1  0.970706  0.914643  0.137016  1
  H  H20  1  0.320479  0.038186  0.701141  1
  H  H21  1  0.038186  0.320479  0.798859  1
  H  H22  1  0.679521  0.961814  0.298859  1
  H  H23  1  0.961814  0.679521  0.201141  1
  C  C24  1  0.316475  0.500074  0.564449  1
  C  C25  1  0.500074  0.316475  0.935551  1
  C  C26  1  0.683525  0.499926  0.435551  1
  C  C27  1  0.499926  0.683525  0.064449  1
  C  C28  1  0.698634  0.685008  0.627136  1
  C  C29  1  0.685008  0.698634  0.872864  1
  C  C30  1  0.301366  0.314992  0.372864  1
  C  C31  1  0.314992  0.301366  0.127136  1
  C  C32  1  0.069216  0.733707  0.706562  1
  C  C33  1  0.733707  0.069216  0.793438  1
  C  C34  1  0.930784  0.266293  0.293438  1
  C  C35  1  0.266293  0.930784  0.206562  1
  N  N36  1  0.270337  0.726258  0.531887  1
  N  N37  1  0.726258  0.270337  0.968113  1
  N  N38  1  0.729663  0.273742  0.468113  1
  N  N39  1  0.273742  0.729663  0.031887  1
  N  N40  1  0.524861  0.489675  0.610297  1
  N  N41  1  0.489675  0.524861  0.889703  1
  N  N42  1  0.475139  0.510325  0.389703  1
  N  N43  1  0.510325  0.475139  0.110297  1
  N  N44  1  0.860148  0.601248  0.678186  1
  N  N45  1  0.601248  0.860148  0.821814  1
  N  N46  1  0.139852  0.398752  0.321814  1
  N  N47  1  0.398752  0.139852  0.178186  1
  N  N48  1  0.161035  0.953476  0.679066  1
  N  N49  1  0.953476  0.161035  0.820934  1
  N  N50  1  0.838965  0.046524  0.320934  1
  N  N51  1  0.046524  0.838965  0.179066  1
  O  O52  1  0.188004  0.293714  0.558007  1
  O  O53  1  0.293714  0.188004  0.941993  1
  O  O54  1  0.811996  0.706286  0.441993  1
  O  O55  1  0.706286  0.811996  0.058007  1
  O  O56  1  0.707045  0.905363  0.600733  1
  O  O57  1  0.905363  0.707045  0.899267  1
  O  O58  1  0.292955  0.094637  0.399267  1
  O  O59  1  0.094637  0.292955  0.100733  1
  O  O60  1  0.166372  0.635067  0.757701  1
  O  O61  1  0.635067  0.166372  0.742299  1
  O  O62  1  0.833628  0.364933  0.242299  1
  O  O63  1  0.364933  0.833628  0.257701  1
