# generated using pymatgen
data_Li4CoO3
_symmetry_space_group_name_H-M   'P 1'
_cell_length_a   5.61416095
_cell_length_b   5.61416095
_cell_length_c   6.95633143
_cell_angle_alpha   70.48403224
_cell_angle_beta   109.51596776
_cell_angle_gamma   126.01313666
_symmetry_Int_Tables_number   1
_chemical_formula_structural   Li4CoO3
_chemical_formula_sum   'Li8 Co2 O6'
_cell_volume   164.41562404
_cell_formula_units_Z   2
loop_
 _symmetry_equiv_pos_site_id
 _symmetry_equiv_pos_as_xyz
  1  'x, y, z'
loop_
 _atom_site_type_symbol
 _atom_site_label
 _atom_site_symmetry_multiplicity
 _atom_site_fract_x
 _atom_site_fract_y
 _atom_site_fract_z
 _atom_site_occupancy
  Li  Li0  1  0.812445  0.766473  0.908937  1
  Li  Li1  1  0.297570  0.387065  0.718841  1
  Li  Li2  1  0.360868  0.936035  0.814705  1
  Li  Li3  1  0.756631  0.550780  0.609850  1
  Li  Li4  1  0.233527  0.187555  0.408937  1
  Li  Li5  1  0.612935  0.702430  0.218841  1
  Li  Li6  1  0.063965  0.639132  0.314705  1
  Li  Li7  1  0.449220  0.243369  0.109850  1
  Co  Co8  1  0.983354  0.302479  0.995307  1
  Co  Co9  1  0.697521  0.016646  0.495307  1
  O  O10  1  0.376913  0.587543  0.944514  1
  O  O11  1  0.655343  0.328459  0.893223  1
  O  O12  1  0.024527  0.971206  0.656389  1
  O  O13  1  0.412457  0.623087  0.444514  1
  O  O14  1  0.671541  0.344657  0.393223  1
  O  O15  1  0.028794  0.975473  0.156389  1
