# generated using pymatgen
data_Li3Nb(CuO2)4
_symmetry_space_group_name_H-M   'P 1'
_cell_length_a   6.24157687
_cell_length_b   6.24157687
_cell_length_c   5.92263203
_cell_angle_alpha   62.90392946
_cell_angle_beta   117.09607054
_cell_angle_gamma   125.27379020
_symmetry_Int_Tables_number   1
_chemical_formula_structural   Li3Nb(CuO2)4
_chemical_formula_sum   'Li3 Nb1 Cu4 O8'
_cell_volume   161.70791207
_cell_formula_units_Z   1
loop_
 _symmetry_equiv_pos_site_id
 _symmetry_equiv_pos_as_xyz
  1  'x, y, z'
loop_
 _atom_site_type_symbol
 _atom_site_label
 _atom_site_symmetry_multiplicity
 _atom_site_fract_x
 _atom_site_fract_y
 _atom_site_fract_z
 _atom_site_occupancy
  Li  Li0  1  0.500000  0.000000  0.000000  1
  Li  Li1  1  0.000000  0.500000  0.000000  1
  Li  Li2  1  0.000000  0.000000  0.500000  1
  Nb  Nb3  1  0.500000  0.500000  0.000000  1
  Cu  Cu4  1  0.000000  0.000000  0.000000  1
  Cu  Cu5  1  0.000000  0.500000  0.500000  1
  Cu  Cu6  1  0.500000  0.000000  0.500000  1
  Cu  Cu7  1  0.500000  0.500000  0.500000  1
  O  O8  1  0.283401  0.716599  0.766181  1
  O  O9  1  0.218750  0.266299  0.210190  1
  O  O10  1  0.733701  0.781250  0.210190  1
  O  O11  1  0.716599  0.283401  0.233819  1
  O  O12  1  0.709381  0.290619  0.680835  1
  O  O13  1  0.781250  0.733701  0.789810  1
  O  O14  1  0.266299  0.218750  0.789810  1
  O  O15  1  0.290619  0.709381  0.319165  1
