# generated using pymatgen
data_SbOF
_symmetry_space_group_name_H-M   'P 1'
_cell_length_a   7.06003323
_cell_length_b   10.77646564
_cell_length_c   9.37508870
_cell_angle_alpha   90.00000000
_cell_angle_beta   105.19285377
_cell_angle_gamma   90.00000000
_symmetry_Int_Tables_number   1
_chemical_formula_structural   SbOF
_chemical_formula_sum   'Sb12 O12 F12'
_cell_volume   688.34779997
_cell_formula_units_Z   12
loop_
 _symmetry_equiv_pos_site_id
 _symmetry_equiv_pos_as_xyz
  1  'x, y, z'
loop_
 _atom_site_type_symbol
 _atom_site_label
 _atom_site_symmetry_multiplicity
 _atom_site_fract_x
 _atom_site_fract_y
 _atom_site_fract_z
 _atom_site_occupancy
  Sb  Sb0  1  0.253331  0.527829  0.902122  1
  Sb  Sb1  1  0.973663  0.219376  0.955229  1
  Sb  Sb2  1  0.454651  0.167305  0.779888  1
  Sb  Sb3  1  0.545349  0.667305  0.720112  1
  Sb  Sb4  1  0.026337  0.719376  0.544771  1
  Sb  Sb5  1  0.746669  0.027829  0.597878  1
  Sb  Sb6  1  0.253331  0.972171  0.402122  1
  Sb  Sb7  1  0.973663  0.280624  0.455229  1
  Sb  Sb8  1  0.454651  0.332695  0.279888  1
  Sb  Sb9  1  0.545349  0.832695  0.220112  1
  Sb  Sb10  1  0.026337  0.780624  0.044771  1
  Sb  Sb11  1  0.746669  0.472171  0.097878  1
  O  O12  1  0.539425  0.560424  0.898016  1
  O  O13  1  0.750347  0.327957  0.967289  1
  O  O14  1  0.246389  0.640835  0.711060  1
  O  O15  1  0.753611  0.140835  0.788940  1
  O  O16  1  0.249653  0.827957  0.532711  1
  O  O17  1  0.460575  0.060424  0.601984  1
  O  O18  1  0.539425  0.939576  0.398016  1
  O  O19  1  0.750347  0.172043  0.467289  1
  O  O20  1  0.246389  0.859165  0.211060  1
  O  O21  1  0.753611  0.359165  0.288940  1
  O  O22  1  0.249653  0.672043  0.032711  1
  O  O23  1  0.460575  0.439576  0.101984  1
  F  F24  1  0.073382  0.900347  0.899223  1
  F  F25  1  0.571268  0.821351  0.836151  1
  F  F26  1  0.874471  0.655463  0.836757  1
  F  F27  1  0.125529  0.155463  0.663243  1
  F  F28  1  0.428732  0.321351  0.663849  1
  F  F29  1  0.926618  0.400347  0.600777  1
  F  F30  1  0.073382  0.599653  0.399223  1
  F  F31  1  0.571268  0.678649  0.336151  1
  F  F32  1  0.874471  0.844537  0.336757  1
  F  F33  1  0.125529  0.344537  0.163243  1
  F  F34  1  0.428732  0.178649  0.163849  1
  F  F35  1  0.926618  0.099653  0.100777  1
