# generated using pymatgen
data_BaNiS2
_symmetry_space_group_name_H-M   'P 1'
_cell_length_a   4.42091289
_cell_length_b   4.42091289
_cell_length_c   8.97257086
_cell_angle_alpha   90.00000000
_cell_angle_beta   90.00000000
_cell_angle_gamma   90.00000000
_symmetry_Int_Tables_number   1
_chemical_formula_structural   BaNiS2
_chemical_formula_sum   'Ba2 Ni2 S4'
_cell_volume   175.36414900
_cell_formula_units_Z   2
loop_
 _symmetry_equiv_pos_site_id
 _symmetry_equiv_pos_as_xyz
  1  'x, y, z'
loop_
 _atom_site_type_symbol
 _atom_site_label
 _atom_site_symmetry_multiplicity
 _atom_site_fract_x
 _atom_site_fract_y
 _atom_site_fract_z
 _atom_site_occupancy
  Ba  Ba0  1  0.000000  0.500000  0.197836  1
  Ba  Ba1  1  0.500000  0.000000  0.802164  1
  Ni  Ni2  1  0.500000  0.000000  0.414928  1
  Ni  Ni3  1  0.000000  0.500000  0.585072  1
  S  S4  1  0.500000  0.500000  0.500000  1
  S  S5  1  0.000000  0.000000  0.500000  1
  S  S6  1  0.500000  0.000000  0.157636  1
  S  S7  1  0.000000  0.500000  0.842364  1
