# generated using pymatgen
data_Li20Co21O40
_symmetry_space_group_name_H-M   'P 1'
_cell_length_a   9.95370811
_cell_length_b   9.95370811
_cell_length_c   9.95370811
_cell_angle_alpha   99.59238722
_cell_angle_beta   99.59238722
_cell_angle_gamma   131.81476259
_symmetry_Int_Tables_number   1
_chemical_formula_structural   Li20Co21O40
_chemical_formula_sum   'Li20 Co21 O40'
_cell_volume   670.97325481
_cell_formula_units_Z   1
loop_
 _symmetry_equiv_pos_site_id
 _symmetry_equiv_pos_as_xyz
  1  'x, y, z'
loop_
 _atom_site_type_symbol
 _atom_site_label
 _atom_site_symmetry_multiplicity
 _atom_site_fract_x
 _atom_site_fract_y
 _atom_site_fract_z
 _atom_site_occupancy
  Li  Li0  1  0.024284  0.073015  0.851449  1
  Li  Li1  1  0.926985  0.778435  0.951270  1
  Li  Li2  1  0.819701  0.473744  0.039937  1
  Li  Li3  1  0.016734  0.571525  0.855530  1
  Li  Li4  1  0.433807  0.779764  0.960063  1
  Li  Li5  1  0.220236  0.180299  0.654043  1
  Li  Li6  1  0.636748  0.388371  0.756333  1
  Li  Li7  1  0.827165  0.975716  0.048730  1
  Li  Li8  1  0.218420  0.650401  0.703587  1
  Li  Li9  1  0.428475  0.284005  0.445209  1
  Li  Li10  1  0.119585  0.363252  0.751623  1
  Li  Li11  1  0.526256  0.566193  0.345957  1
  Li  Li12  1  0.349599  0.053185  0.568019  1
  Li  Li13  1  0.946815  0.514833  0.296413  1
  Li  Li14  1  0.838796  0.983266  0.554791  1
  Li  Li15  1  0.485167  0.781580  0.431981  1
  Li  Li16  1  0.221565  0.172835  0.148551  1
  Li  Li17  1  0.611629  0.367962  0.248377  1
  Li  Li18  1  0.632038  0.880415  0.243667  1
  Li  Li19  1  0.715995  0.161204  0.144470  1
  Co  Co20  1  0.526172  0.574098  0.850287  1
  Co  Co21  1  0.325260  0.976154  0.051907  1
  Co  Co22  1  0.425902  0.276189  0.952074  1
  Co  Co23  1  0.924247  0.273353  0.948093  1
  Co  Co24  1  0.525846  0.076191  0.852378  1
  Co  Co25  1  0.126485  0.877329  0.752360  1
  Co  Co26  1  0.726647  0.674740  0.650894  1
  Co  Co27  1  0.324115  0.473828  0.047926  1
  Co  Co28  1  0.923809  0.776187  0.449655  1
  Co  Co29  1  0.724905  0.174622  0.649799  1
  Co  Co30  1  0.625875  0.873515  0.750844  1
  Co  Co31  1  0.023846  0.075753  0.349106  1
  Co  Co32  1  0.825378  0.475177  0.550283  1
  Co  Co33  1  0.250000  0.750000  0.500000  1
  Co  Co34  1  0.122671  0.875031  0.249156  1
  Co  Co35  1  0.723811  0.675885  0.149713  1
  Co  Co36  1  0.524823  0.075106  0.350201  1
  Co  Co37  1  0.924894  0.275095  0.449717  1
  Co  Co38  1  0.326532  0.474154  0.550345  1
  Co  Co39  1  0.124969  0.374125  0.247640  1
  Co  Co40  1  0.223813  0.673468  0.147622  1
  O  O41  1  0.567736  0.705443  0.044902  1
  O  O42  1  0.660541  0.522834  0.955098  1
  O  O43  1  0.294557  0.339459  0.862293  1
  O  O44  1  0.191471  0.029596  0.948563  1
  O  O45  1  0.757093  0.808529  0.838126  1
  O  O46  1  0.557031  0.213873  0.043334  1
  O  O47  1  0.576400  0.718196  0.563793  1
  O  O48  1  0.486303  0.442969  0.656843  1
  O  O49  1  0.170540  0.513697  0.956666  1
  O  O50  1  0.373579  0.121821  0.765898  1
  O  O51  1  0.281804  0.845597  0.858204  1
  O  O52  1  0.768311  0.305377  0.844583  1
  O  O53  1  0.879263  0.632008  0.737729  1
  O  O54  1  0.969669  0.907373  0.647502  1
  O  O55  1  0.677834  0.030331  0.937704  1
  O  O56  1  0.495282  0.938786  0.662400  1
  O  O57  1  0.694623  0.539206  0.462934  1
  O  O58  1  0.259871  0.322166  0.352498  1
  O  O59  1  0.858467  0.120737  0.752745  1
  O  O60  1  0.061214  0.723614  0.556496  1
  O  O61  1  0.392319  0.626421  0.748243  1
  O  O62  1  0.954335  0.408272  0.637851  1
  O  O63  1  0.591728  0.229579  0.546063  1
  O  O64  1  0.786127  0.829460  0.343157  1
  O  O65  1  0.154403  0.012607  0.436207  1
  O  O66  1  0.770421  0.316484  0.362149  1
  O  O67  1  0.683516  0.045665  0.453937  1
  O  O68  1  0.970404  0.918967  0.161874  1
  O  O69  1  0.878179  0.644076  0.251757  1
  O  O70  1  0.477166  0.432264  0.137707  1
  O  O71  1  0.276386  0.832882  0.337600  1
  O  O72  1  0.367992  0.105721  0.247255  1
  O  O73  1  0.167118  0.504718  0.443504  1
  O  O74  1  0.076272  0.231689  0.537066  1
  O  O75  1  0.092627  0.740129  0.062296  1
  O  O76  1  0.894279  0.141533  0.262271  1
  O  O77  1  0.460794  0.923728  0.155417  1
  O  O78  1  0.987393  0.423600  0.141796  1
  O  O79  1  0.355924  0.607681  0.234102  1
  O  O80  1  0.081033  0.242907  0.051437  1
