# generated using pymatgen
data_Li2CrSiO4
_symmetry_space_group_name_H-M   'P 1'
_cell_length_a   7.11137999
_cell_length_b   4.74509245
_cell_length_c   10.64634290
_cell_angle_alpha   90.00000000
_cell_angle_beta   91.38248816
_cell_angle_gamma   90.00000000
_symmetry_Int_Tables_number   1
_chemical_formula_structural   Li2CrSiO4
_chemical_formula_sum   'Li8 Cr4 Si4 O16'
_cell_volume   359.14727592
_cell_formula_units_Z   4
loop_
 _symmetry_equiv_pos_site_id
 _symmetry_equiv_pos_as_xyz
  1  'x, y, z'
loop_
 _atom_site_type_symbol
 _atom_site_label
 _atom_site_symmetry_multiplicity
 _atom_site_fract_x
 _atom_site_fract_y
 _atom_site_fract_z
 _atom_site_occupancy
  Li  Li0  1  0.499786  0.692006  0.082753  1
  Li  Li1  1  0.499786  0.807994  0.582753  1
  Li  Li2  1  0.690133  0.182065  0.172586  1
  Li  Li3  1  0.690133  0.317935  0.672586  1
  Li  Li4  1  0.309867  0.682065  0.327414  1
  Li  Li5  1  0.309867  0.817935  0.827414  1
  Li  Li6  1  0.500214  0.192006  0.417247  1
  Li  Li7  1  0.500214  0.307994  0.917247  1
  Cr  Cr8  1  0.003686  0.220313  0.385582  1
  Cr  Cr9  1  0.003686  0.279687  0.885582  1
  Cr  Cr10  1  0.996314  0.720313  0.114418  1
  Cr  Cr11  1  0.996314  0.779687  0.614418  1
  Si  Si12  1  0.733062  0.676388  0.335673  1
  Si  Si13  1  0.733062  0.823612  0.835673  1
  Si  Si14  1  0.266938  0.176388  0.164327  1
  Si  Si15  1  0.266938  0.323612  0.664327  1
  O  O16  1  0.546741  0.787232  0.404140  1
  O  O17  1  0.546741  0.712768  0.904140  1
  O  O18  1  0.735702  0.327031  0.344240  1
  O  O19  1  0.735702  0.172969  0.844240  1
  O  O20  1  0.731677  0.767910  0.184265  1
  O  O21  1  0.731677  0.732090  0.684265  1
  O  O22  1  0.944475  0.772944  0.397192  1
  O  O23  1  0.944475  0.727056  0.897192  1
  O  O24  1  0.055525  0.272944  0.102808  1
  O  O25  1  0.055525  0.227056  0.602808  1
  O  O26  1  0.268323  0.267910  0.315735  1
  O  O27  1  0.268323  0.232090  0.815735  1
  O  O28  1  0.264298  0.827031  0.155760  1
  O  O29  1  0.264298  0.672969  0.655760  1
  O  O30  1  0.453259  0.287232  0.095860  1
  O  O31  1  0.453259  0.212768  0.595860  1
