# generated using pymatgen
data_Li8Mn3Fe5(BO3)8
_symmetry_space_group_name_H-M   'P 1'
_cell_length_a   6.04358730
_cell_length_b   9.71222758
_cell_length_c   9.77455853
_cell_angle_alpha   65.01809065
_cell_angle_beta   79.57425240
_cell_angle_gamma   78.27261944
_symmetry_Int_Tables_number   1
_chemical_formula_structural   Li8Mn3Fe5(BO3)8
_chemical_formula_sum   'Li8 Mn3 Fe5 B8 O24'
_cell_volume   506.26770865
_cell_formula_units_Z   1
loop_
 _symmetry_equiv_pos_site_id
 _symmetry_equiv_pos_as_xyz
  1  'x, y, z'
loop_
 _atom_site_type_symbol
 _atom_site_label
 _atom_site_symmetry_multiplicity
 _atom_site_fract_x
 _atom_site_fract_y
 _atom_site_fract_z
 _atom_site_occupancy
  Li  Li0  1  0.045133  0.467008  0.815171  1
  Li  Li1  1  0.045067  0.966168  0.314135  1
  Li  Li2  1  0.452782  0.031777  0.185338  1
  Li  Li3  1  0.545029  0.467759  0.315338  1
  Li  Li4  1  0.453886  0.533746  0.686266  1
  Li  Li5  1  0.546786  0.966973  0.816943  1
  Li  Li6  1  0.953817  0.033820  0.686280  1
  Li  Li7  1  0.954985  0.533709  0.186768  1
  Mn  Mn8  1  0.313151  0.292882  0.625294  1
  Mn  Mn9  1  0.812607  0.292505  0.125504  1
  Mn  Mn10  1  0.812638  0.793709  0.624890  1
  Fe  Fe11  1  0.184018  0.208748  0.371333  1
  Fe  Fe12  1  0.315148  0.789614  0.124358  1
  Fe  Fe13  1  0.185841  0.709041  0.871862  1
  Fe  Fe14  1  0.685423  0.208347  0.870969  1
  Fe  Fe15  1  0.681317  0.710337  0.370036  1
  B  B16  1  0.334143  0.366449  0.038080  1
  B  B17  1  0.167380  0.130353  0.962813  1
  B  B18  1  0.164461  0.634176  0.460288  1
  B  B19  1  0.334496  0.867080  0.537607  1
  B  B20  1  0.666167  0.132629  0.462289  1
  B  B21  1  0.834527  0.367753  0.537393  1
  B  B22  1  0.837157  0.867100  0.038267  1
  B  B23  1  0.666067  0.632833  0.964013  1
  O  O24  1  0.176214  0.012345  0.105120  1
  O  O25  1  0.014579  0.245176  0.561424  1
  O  O26  1  0.016931  0.745019  0.062892  1
  O  O27  1  0.164342  0.361570  0.157018  1
  O  O28  1  0.177569  0.517288  0.603709  1
  O  O29  1  0.513669  0.244533  0.061538  1
  O  O30  1  0.166566  0.862830  0.657515  1
  O  O31  1  0.341604  0.134871  0.847061  1
  O  O32  1  0.336770  0.638694  0.343406  1
  O  O33  1  0.484829  0.253958  0.433146  1
  O  O34  1  0.321150  0.487083  0.897661  1
  O  O35  1  0.321156  0.985885  0.397063  1
  O  O36  1  0.674746  0.016579  0.606220  1
  O  O37  1  0.676055  0.515770  0.106409  1
  O  O38  1  0.513764  0.744637  0.561166  1
  O  O39  1  0.666207  0.363159  0.657008  1
  O  O40  1  0.665973  0.862837  0.155661  1
  O  O41  1  0.840422  0.134098  0.347755  1
  O  O42  1  0.483977  0.754238  0.937589  1
  O  O43  1  0.820965  0.486631  0.396869  1
  O  O44  1  0.837687  0.635921  0.847462  1
  O  O45  1  0.986193  0.252084  0.934761  1
  O  O46  1  0.982172  0.754089  0.433609  1
  O  O47  1  0.824440  0.986182  0.896707  1
