# generated using pymatgen
data_FeP3(HO5)2
_symmetry_space_group_name_H-M   'P 1'
_cell_length_a   7.47995761
_cell_length_b   8.93217549
_cell_length_c   12.58992010
_cell_angle_alpha   90.00000000
_cell_angle_beta   112.39447677
_cell_angle_gamma   90.00000000
_symmetry_Int_Tables_number   1
_chemical_formula_structural   FeP3(HO5)2
_chemical_formula_sum   'Fe4 P12 H8 O40'
_cell_volume   777.72337205
_cell_formula_units_Z   4
loop_
 _symmetry_equiv_pos_site_id
 _symmetry_equiv_pos_as_xyz
  1  'x, y, z'
loop_
 _atom_site_type_symbol
 _atom_site_label
 _atom_site_symmetry_multiplicity
 _atom_site_fract_x
 _atom_site_fract_y
 _atom_site_fract_z
 _atom_site_occupancy
  Fe  Fe0  1  0.254509  0.573132  0.795382  1
  Fe  Fe1  1  0.745491  0.073132  0.704618  1
  Fe  Fe2  1  0.745491  0.426868  0.204618  1
  Fe  Fe3  1  0.254509  0.926868  0.295382  1
  P  P4  1  0.146305  0.603156  0.364550  1
  P  P5  1  0.853695  0.103156  0.135450  1
  P  P6  1  0.853695  0.396844  0.635450  1
  P  P7  1  0.146305  0.896844  0.864550  1
  P  P8  1  0.354454  0.603368  0.206526  1
  P  P9  1  0.645546  0.103368  0.293474  1
  P  P10  1  0.645546  0.396632  0.793474  1
  P  P11  1  0.354454  0.896632  0.706526  1
  P  P12  1  0.711510  0.621654  0.978285  1
  P  P13  1  0.288490  0.121654  0.521715  1
  P  P14  1  0.288490  0.378346  0.021715  1
  P  P15  1  0.711510  0.878346  0.478285  1
  H  H16  1  0.283047  0.643481  0.552857  1
  H  H17  1  0.716953  0.143481  0.947143  1
  H  H18  1  0.716953  0.356519  0.447143  1
  H  H19  1  0.283047  0.856519  0.052857  1
  H  H20  1  0.782637  0.819220  0.897698  1
  H  H21  1  0.217363  0.319220  0.602302  1
  H  H22  1  0.217363  0.180780  0.102302  1
  H  H23  1  0.782637  0.680780  0.397698  1
  O  O24  1  0.266772  0.532894  0.292990  1
  O  O25  1  0.733228  0.032894  0.207010  1
  O  O26  1  0.733228  0.467106  0.707010  1
  O  O27  1  0.266772  0.967106  0.792990  1
  O  O28  1  0.289829  0.576885  0.490889  1
  O  O29  1  0.710171  0.076885  0.009111  1
  O  O30  1  0.710171  0.423115  0.509111  1
  O  O31  1  0.289829  0.923115  0.990889  1
  O  O32  1  0.238083  0.984523  0.590798  1
  O  O33  1  0.761917  0.484523  0.909202  1
  O  O34  1  0.761917  0.015477  0.409202  1
  O  O35  1  0.238083  0.515477  0.090798  1
  O  O36  1  0.034151  0.491424  0.663116  1
  O  O37  1  0.965849  0.991424  0.836884  1
  O  O38  1  0.965849  0.508576  0.336884  1
  O  O39  1  0.034151  0.008576  0.163116  1
  O  O40  1  0.107191  0.732132  0.834746  1
  O  O41  1  0.892809  0.232132  0.665254  1
  O  O42  1  0.892809  0.267868  0.165254  1
  O  O43  1  0.107191  0.767868  0.334746  1
  O  O44  1  0.496357  0.849715  0.423968  1
  O  O45  1  0.503643  0.349715  0.076032  1
  O  O46  1  0.503643  0.150285  0.576032  1
  O  O47  1  0.496357  0.650285  0.923968  1
  O  O48  1  0.300717  0.732647  0.683547  1
  O  O49  1  0.699283  0.232647  0.816453  1
  O  O50  1  0.699283  0.267353  0.316453  1
  O  O51  1  0.300717  0.767353  0.183547  1
  O  O52  1  0.568411  0.932550  0.750222  1
  O  O53  1  0.431589  0.432550  0.749778  1
  O  O54  1  0.431589  0.067450  0.249778  1
  O  O55  1  0.568411  0.567450  0.250222  1
  O  O56  1  0.795215  0.922085  0.603295  1
  O  O57  1  0.204785  0.422085  0.896705  1
  O  O58  1  0.204785  0.077915  0.396705  1
  O  O59  1  0.795215  0.577915  0.103295  1
  O  O60  1  0.836406  0.757641  0.967205  1
  O  O61  1  0.163594  0.257641  0.532795  1
  O  O62  1  0.163594  0.242359  0.032795  1
  O  O63  1  0.836406  0.742359  0.467205  1
