# generated using pymatgen
data_K8Li9(FeO4)4
_symmetry_space_group_name_H-M   'P 1'
_cell_length_a   5.56758029
_cell_length_b   9.14214305
_cell_length_c   10.49165800
_cell_angle_alpha   91.24626638
_cell_angle_beta   98.68323039
_cell_angle_gamma   89.87873321
_symmetry_Int_Tables_number   1
_chemical_formula_structural   K8Li9(FeO4)4
_chemical_formula_sum   'K8 Li9 Fe4 O16'
_cell_volume   527.77522270
_cell_formula_units_Z   1
loop_
 _symmetry_equiv_pos_site_id
 _symmetry_equiv_pos_as_xyz
  1  'x, y, z'
loop_
 _atom_site_type_symbol
 _atom_site_label
 _atom_site_symmetry_multiplicity
 _atom_site_fract_x
 _atom_site_fract_y
 _atom_site_fract_z
 _atom_site_occupancy
  K  K0  1  0.172222  0.001854  0.876452  1
  K  K1  1  0.101824  0.718729  0.373927  1
  K  K2  1  0.362479  0.516769  0.644443  1
  K  K3  1  0.355846  0.268293  0.122967  1
  K  K4  1  0.648867  0.736968  0.873508  1
  K  K5  1  0.628552  0.492930  0.352725  1
  K  K6  1  0.892762  0.271337  0.619613  1
  K  K7  1  0.836976  0.000351  0.143043  1
  Li  Li8  1  0.075912  0.757608  0.702694  1
  Li  Li9  1  0.162802  0.985163  0.560418  1
  Li  Li10  1  0.277569  0.492202  0.925432  1
  Li  Li11  1  0.410416  0.255332  0.804262  1
  Li  Li12  1  0.413565  0.966852  0.304217  1
  Li  Li13  1  0.594631  0.023414  0.704536  1
  Li  Li14  1  0.582525  0.740718  0.193164  1
  Li  Li15  1  0.723632  0.508684  0.070618  1
  Li  Li16  1  0.929379  0.247293  0.303516  1
  Fe  Fe17  1  0.175103  0.715137  0.060588  1
  Fe  Fe18  1  0.349289  0.205646  0.448485  1
  Fe  Fe19  1  0.670754  0.801329  0.550527  1
  Fe  Fe20  1  0.824042  0.284252  0.937935  1
  O  O21  1  0.148317  0.697075  0.879449  1
  O  O22  1  0.115635  0.300264  0.873609  1
  O  O23  1  0.149182  0.052927  0.380218  1
  O  O24  1  0.197450  0.379976  0.418119  1
  O  O25  1  0.393321  0.832523  0.628617  1
  O  O26  1  0.367081  0.181018  0.624043  1
  O  O27  1  0.332798  0.890306  0.125147  1
  O  O28  1  0.402244  0.567176  0.114626  1
  O  O29  1  0.596791  0.431518  0.878474  1
  O  O30  1  0.664154  0.108089  0.878424  1
  O  O31  1  0.576651  0.787482  0.375997  1
  O  O32  1  0.600880  0.194781  0.355980  1
  O  O33  1  0.848189  0.636168  0.579485  1
  O  O34  1  0.878250  0.933550  0.644652  1
  O  O35  1  0.878055  0.703238  0.121317  1
  O  O36  1  0.860853  0.303707  0.119926  1
