# generated using pymatgen
data_Na5CuO4
_symmetry_space_group_name_H-M   'P 1'
_cell_length_a   5.39675513
_cell_length_b   7.20461529
_cell_length_c   7.47590101
_cell_angle_alpha   90.00000000
_cell_angle_beta   90.00000000
_cell_angle_gamma   90.00000000
_symmetry_Int_Tables_number   1
_chemical_formula_structural   Na5CuO4
_chemical_formula_sum   'Na10 Cu2 O8'
_cell_volume   290.67457800
_cell_formula_units_Z   2
loop_
 _symmetry_equiv_pos_site_id
 _symmetry_equiv_pos_as_xyz
  1  'x, y, z'
loop_
 _atom_site_type_symbol
 _atom_site_label
 _atom_site_symmetry_multiplicity
 _atom_site_fract_x
 _atom_site_fract_y
 _atom_site_fract_z
 _atom_site_occupancy
  Na  Na0  1  0.758663  0.739716  0.695366  1
  Na  Na1  1  0.758663  0.260284  0.695366  1
  Na  Na2  1  0.324340  0.000000  0.500000  1
  Na  Na3  1  0.758663  0.260284  0.304634  1
  Na  Na4  1  0.758663  0.739716  0.304634  1
  Na  Na5  1  0.241337  0.239716  0.195366  1
  Na  Na6  1  0.241337  0.760284  0.195366  1
  Na  Na7  1  0.675660  0.500000  0.000000  1
  Na  Na8  1  0.241337  0.239716  0.804634  1
  Na  Na9  1  0.241337  0.760284  0.804634  1
  Cu  Cu10  1  0.287791  0.500000  0.500000  1
  Cu  Cu11  1  0.712209  0.000000  0.000000  1
  O  O12  1  0.468665  0.500000  0.727151  1
  O  O13  1  0.098890  0.271375  0.500000  1
  O  O14  1  0.098890  0.728625  0.500000  1
  O  O15  1  0.468665  0.500000  0.272849  1
  O  O16  1  0.531335  0.000000  0.227151  1
  O  O17  1  0.901110  0.228625  0.000000  1
  O  O18  1  0.901110  0.771375  0.000000  1
  O  O19  1  0.531335  0.000000  0.772849  1
