# generated using pymatgen
data_Cr2Fe3Cu(PO4)6
_symmetry_space_group_name_H-M   'P 1'
_cell_length_a   8.38852377
_cell_length_b   8.38852377
_cell_length_c   8.38852377
_cell_angle_alpha   61.84276768
_cell_angle_beta   61.84276768
_cell_angle_gamma   61.84276768
_symmetry_Int_Tables_number   1
_chemical_formula_structural   Cr2Fe3Cu(PO4)6
_chemical_formula_sum   'Cr2 Fe3 Cu1 P6 O24'
_cell_volume   434.61317743
_cell_formula_units_Z   1
loop_
 _symmetry_equiv_pos_site_id
 _symmetry_equiv_pos_as_xyz
  1  'x, y, z'
loop_
 _atom_site_type_symbol
 _atom_site_label
 _atom_site_symmetry_multiplicity
 _atom_site_fract_x
 _atom_site_fract_y
 _atom_site_fract_z
 _atom_site_occupancy
  Cr  Cr0  1  0.000827  0.000827  0.000827  1
  Cr  Cr1  1  0.500530  0.500530  0.500530  1
  Fe  Fe2  1  0.854848  0.854848  0.854848  1
  Fe  Fe3  1  0.646547  0.646547  0.646547  1
  Fe  Fe4  1  0.354247  0.354247  0.354247  1
  Cu  Cu5  1  0.145887  0.145887  0.145887  1
  P  P6  1  0.951558  0.250057  0.546671  1
  P  P7  1  0.546671  0.951558  0.250057  1
  P  P8  1  0.250057  0.546671  0.951558  1
  P  P9  1  0.751317  0.451724  0.049458  1
  P  P10  1  0.451724  0.049458  0.751317  1
  P  P11  1  0.049458  0.751317  0.451724  1
  O  O12  1  0.894840  0.676041  0.495231  1
  O  O13  1  0.676041  0.495231  0.894840  1
  O  O14  1  0.939694  0.094990  0.750616  1
  O  O15  1  0.495231  0.894840  0.676041  1
  O  O16  1  0.982980  0.180648  0.392765  1
  O  O17  1  0.746665  0.404544  0.566942  1
  O  O18  1  0.750616  0.939694  0.094990  1
  O  O19  1  0.566942  0.746665  0.404544  1
  O  O20  1  0.825601  0.606202  0.006237  1
  O  O21  1  0.404544  0.566942  0.746665  1
  O  O22  1  0.905450  0.249001  0.059376  1
  O  O23  1  0.606202  0.006237  0.825601  1
  O  O24  1  0.392765  0.982980  0.180648  1
  O  O25  1  0.094990  0.750616  0.939694  1
  O  O26  1  0.596140  0.436540  0.252738  1
  O  O27  1  0.180648  0.392765  0.982980  1
  O  O28  1  0.436540  0.252738  0.596140  1
  O  O29  1  0.249001  0.059376  0.905450  1
  O  O30  1  0.252738  0.596140  0.436540  1
  O  O31  1  0.006237  0.825601  0.606202  1
  O  O32  1  0.501729  0.106107  0.325250  1
  O  O33  1  0.059376  0.905450  0.249001  1
  O  O34  1  0.325250  0.501729  0.106107  1
  O  O35  1  0.106107  0.325250  0.501729  1
