# generated using pymatgen
data_Li3Cu4F9
_symmetry_space_group_name_H-M   'P 1'
_cell_length_a   5.22460141
_cell_length_b   5.25281229
_cell_length_c   8.09035951
_cell_angle_alpha   85.51635060
_cell_angle_beta   106.53366074
_cell_angle_gamma   119.66133341
_symmetry_Int_Tables_number   1
_chemical_formula_structural   Li3Cu4F9
_chemical_formula_sum   'Li3 Cu4 F9'
_cell_volume   184.43566021
_cell_formula_units_Z   1
loop_
 _symmetry_equiv_pos_site_id
 _symmetry_equiv_pos_as_xyz
  1  'x, y, z'
loop_
 _atom_site_type_symbol
 _atom_site_label
 _atom_site_symmetry_multiplicity
 _atom_site_fract_x
 _atom_site_fract_y
 _atom_site_fract_z
 _atom_site_occupancy
  Li  Li0  1  0.032364  0.996664  0.995099  1
  Li  Li1  1  0.599760  0.804784  0.441807  1
  Li  Li2  1  0.836789  0.415138  0.287553  1
  Cu  Cu3  1  0.392928  0.698251  0.062073  1
  Cu  Cu4  1  0.562821  0.242485  0.752765  1
  Cu  Cu5  1  0.061116  0.480994  0.686775  1
  Cu  Cu6  1  0.224195  0.118336  0.372757  1
  F  F7  1  0.188423  0.452135  0.233240  1
  F  F8  1  0.790963  0.749403  0.216463  1
  F  F9  1  0.433114  0.082258  0.213526  1
  F  F10  1  0.994763  0.648664  0.905344  1
  F  F11  1  0.975046  0.185471  0.492889  1
  F  F12  1  0.681956  0.502845  0.544495  1
  F  F13  1  0.634359  0.973581  0.915172  1
  F  F14  1  0.272871  0.304249  0.857594  1
  F  F15  1  0.336054  0.853504  0.548729  1
