# generated using pymatgen
data_Li2Mn(PO3)5
_symmetry_space_group_name_H-M   'P 1'
_cell_length_a   5.21204125
_cell_length_b   13.51719937
_cell_length_c   8.67130361
_cell_angle_alpha   90.00000000
_cell_angle_beta   101.59821188
_cell_angle_gamma   90.00000000
_symmetry_Int_Tables_number   1
_chemical_formula_structural   Li2Mn(PO3)5
_chemical_formula_sum   'Li4 Mn2 P10 O30'
_cell_volume   598.43852174
_cell_formula_units_Z   2
loop_
 _symmetry_equiv_pos_site_id
 _symmetry_equiv_pos_as_xyz
  1  'x, y, z'
loop_
 _atom_site_type_symbol
 _atom_site_label
 _atom_site_symmetry_multiplicity
 _atom_site_fract_x
 _atom_site_fract_y
 _atom_site_fract_z
 _atom_site_occupancy
  Li  Li0  1  0.561982  0.615494  0.106402  1
  Li  Li1  1  0.561982  0.884506  0.106402  1
  Li  Li2  1  0.438018  0.115494  0.893598  1
  Li  Li3  1  0.438018  0.384506  0.893598  1
  Mn  Mn4  1  0.000000  0.500000  0.500000  1
  Mn  Mn5  1  0.000000  0.000000  0.500000  1
  P  P6  1  0.162251  0.423012  0.186819  1
  P  P7  1  0.517157  0.139664  0.489148  1
  P  P8  1  0.958230  0.250000  0.989063  1
  P  P9  1  0.837749  0.576988  0.813181  1
  P  P10  1  0.162251  0.076988  0.186819  1
  P  P11  1  0.041770  0.750000  0.010937  1
  P  P12  1  0.837749  0.923012  0.813181  1
  P  P13  1  0.482843  0.860336  0.510852  1
  P  P14  1  0.517157  0.360336  0.489148  1
  P  P15  1  0.482843  0.639664  0.510852  1
  O  O16  1  0.695866  0.531690  0.928390  1
  O  O17  1  0.364492  0.143671  0.310139  1
  O  O18  1  0.194329  0.875982  0.509320  1
  O  O19  1  0.515689  0.750000  0.455449  1
  O  O20  1  0.364492  0.356329  0.310139  1
  O  O21  1  0.635508  0.856329  0.689861  1
  O  O22  1  0.982707  0.991906  0.721636  1
  O  O23  1  0.788186  0.750000  0.066497  1
  O  O24  1  0.484311  0.250000  0.544551  1
  O  O25  1  0.635508  0.643671  0.689861  1
  O  O26  1  0.380014  0.424295  0.588587  1
  O  O27  1  0.696176  0.250000  0.880486  1
  O  O28  1  0.619986  0.575705  0.411413  1
  O  O29  1  0.211814  0.250000  0.933503  1
  O  O30  1  0.194329  0.624018  0.509320  1
  O  O31  1  0.805671  0.124018  0.490680  1
  O  O32  1  0.017293  0.491906  0.278364  1
  O  O33  1  0.982707  0.508094  0.721636  1
  O  O34  1  0.049744  0.657375  0.890097  1
  O  O35  1  0.304134  0.468310  0.071610  1
  O  O36  1  0.619986  0.924295  0.411413  1
  O  O37  1  0.017293  0.008094  0.278364  1
  O  O38  1  0.380014  0.075705  0.588587  1
  O  O39  1  0.950256  0.342625  0.109903  1
  O  O40  1  0.950256  0.157375  0.109903  1
  O  O41  1  0.695866  0.968310  0.928390  1
  O  O42  1  0.805671  0.375982  0.490680  1
  O  O43  1  0.304134  0.031690  0.071610  1
  O  O44  1  0.049744  0.842625  0.890097  1
  O  O45  1  0.303824  0.750000  0.119514  1
