# generated using pymatgen
data_Li2Ni2SnO6
_symmetry_space_group_name_H-M   'P 1'
_cell_length_a   6.63261741
_cell_length_b   6.74387105
_cell_length_c   8.50347577
_cell_angle_alpha   71.75235057
_cell_angle_beta   71.42564241
_cell_angle_gamma   83.71714696
_symmetry_Int_Tables_number   1
_chemical_formula_structural   Li2Ni2SnO6
_chemical_formula_sum   'Li6 Ni6 Sn3 O18'
_cell_volume   342.39309665
_cell_formula_units_Z   3
loop_
 _symmetry_equiv_pos_site_id
 _symmetry_equiv_pos_as_xyz
  1  'x, y, z'
loop_
 _atom_site_type_symbol
 _atom_site_label
 _atom_site_symmetry_multiplicity
 _atom_site_fract_x
 _atom_site_fract_y
 _atom_site_fract_z
 _atom_site_occupancy
  Li  Li0  1  0.162335  0.510927  0.325637  1
  Li  Li1  1  0.837665  0.489073  0.674363  1
  Li  Li2  1  0.815227  0.150379  0.003710  1
  Li  Li3  1  0.504347  0.126024  0.339174  1
  Li  Li4  1  0.495653  0.873976  0.660826  1
  Li  Li5  1  0.184773  0.849621  0.996290  1
  Ni  Ni6  1  0.829677  0.843542  0.823734  1
  Ni  Ni7  1  0.508930  0.162487  0.836810  1
  Ni  Ni8  1  0.170323  0.156458  0.176266  1
  Ni  Ni9  1  0.841113  0.163879  0.494830  1
  Ni  Ni10  1  0.491070  0.837513  0.163190  1
  Ni  Ni11  1  0.158887  0.836121  0.505170  1
  Sn  Sn12  1  0.500000  0.500000  0.500000  1
  Sn  Sn13  1  0.172914  0.494505  0.839373  1
  Sn  Sn14  1  0.827086  0.505495  0.160627  1
  O  O15  1  0.802684  0.831779  0.057694  1
  O  O16  1  0.458688  0.822847  0.438627  1
  O  O17  1  0.146828  0.817709  0.750567  1
  O  O18  1  0.828604  0.492037  0.410081  1
  O  O19  1  0.501216  0.468947  0.750130  1
  O  O20  1  0.804459  0.161696  0.741013  1
  O  O21  1  0.498784  0.531053  0.249870  1
  O  O22  1  0.171396  0.507963  0.589919  1
  O  O23  1  0.541312  0.177153  0.561373  1
  O  O24  1  0.153583  0.511612  0.082405  1
  O  O25  1  0.481810  0.126960  0.103012  1
  O  O26  1  0.142593  0.154605  0.402818  1
  O  O27  1  0.846417  0.488388  0.917595  1
  O  O28  1  0.197316  0.168221  0.942306  1
  O  O29  1  0.853172  0.182291  0.249433  1
  O  O30  1  0.518190  0.873040  0.896988  1
  O  O31  1  0.195541  0.838304  0.258987  1
  O  O32  1  0.857407  0.845395  0.597182  1
