# generated using pymatgen
data_Li3VPCO7
_symmetry_space_group_name_H-M   'P 1'
_cell_length_a   6.61602792
_cell_length_b   8.51418135
_cell_length_c   9.99486168
_cell_angle_alpha   95.26317676
_cell_angle_beta   90.26845381
_cell_angle_gamma   90.38406172
_symmetry_Int_Tables_number   1
_chemical_formula_structural   Li3VPCO7
_chemical_formula_sum   'Li12 V4 P4 C4 O28'
_cell_volume   560.61690089
_cell_formula_units_Z   4
loop_
 _symmetry_equiv_pos_site_id
 _symmetry_equiv_pos_as_xyz
  1  'x, y, z'
loop_
 _atom_site_type_symbol
 _atom_site_label
 _atom_site_symmetry_multiplicity
 _atom_site_fract_x
 _atom_site_fract_y
 _atom_site_fract_z
 _atom_site_occupancy
  Li  Li0  1  0.740695  0.910045  0.384127  1
  Li  Li1  1  0.744019  0.902297  0.882836  1
  Li  Li2  1  0.531472  0.715825  0.122459  1
  Li  Li3  1  0.971808  0.720537  0.625295  1
  Li  Li4  1  0.532313  0.718228  0.625333  1
  Li  Li5  1  0.749308  0.336916  0.105939  1
  Li  Li6  1  0.480993  0.280427  0.365614  1
  Li  Li7  1  0.018465  0.280941  0.365322  1
  Li  Li8  1  0.485915  0.280243  0.887316  1
  Li  Li9  1  0.010677  0.278268  0.887215  1
  Li  Li10  1  0.251862  0.106315  0.108085  1
  Li  Li11  1  0.251370  0.100077  0.615714  1
  V  V12  1  0.987683  0.727180  0.132262  1
  V  V13  1  0.251788  0.669578  0.399465  1
  V  V14  1  0.254633  0.668100  0.890358  1
  V  V15  1  0.750610  0.327908  0.603271  1
  P  P16  1  0.750150  0.591013  0.361108  1
  P  P17  1  0.749001  0.583038  0.860530  1
  P  P18  1  0.249992  0.406821  0.139201  1
  P  P19  1  0.250920  0.408732  0.638507  1
  C  C20  1  0.246096  0.965097  0.346867  1
  C  C21  1  0.247706  0.964109  0.848052  1
  C  C22  1  0.747953  0.039453  0.150406  1
  C  C23  1  0.750557  0.035122  0.653121  1
  O  O24  1  0.252995  0.928011  0.469350  1
  O  O25  1  0.747507  0.889444  0.182916  1
  O  O26  1  0.246850  0.923096  0.971389  1
  O  O27  1  0.238984  0.845972  0.251683  1
  O  O28  1  0.751267  0.888676  0.680282  1
  O  O29  1  0.248931  0.850598  0.750754  1
  O  O30  1  0.934016  0.694586  0.414548  1
  O  O31  1  0.568380  0.693112  0.414263  1
  O  O32  1  0.934592  0.686550  0.916189  1
  O  O33  1  0.570565  0.691019  0.911786  1
  O  O34  1  0.249868  0.576116  0.086750  1
  O  O35  1  0.753016  0.574014  0.203815  1
  O  O36  1  0.252148  0.576375  0.589308  1
  O  O37  1  0.754136  0.569380  0.703405  1
  O  O38  1  0.250485  0.433571  0.296742  1
  O  O39  1  0.749891  0.424859  0.410248  1
  O  O40  1  0.251512  0.430019  0.795397  1
  O  O41  1  0.746925  0.419693  0.911893  1
  O  O42  1  0.062142  0.309123  0.090204  1
  O  O43  1  0.436918  0.311631  0.089965  1
  O  O44  1  0.432684  0.306965  0.585043  1
  O  O45  1  0.067659  0.306518  0.584185  1
  O  O46  1  0.744721  0.149209  0.247935  1
  O  O47  1  0.248262  0.107364  0.314556  1
  O  O48  1  0.751129  0.148541  0.749042  1
  O  O49  1  0.750695  0.066653  0.027165  1
  O  O50  1  0.248778  0.109507  0.822798  1
  O  O51  1  0.748963  0.073129  0.529982  1
