# generated using pymatgen
data_Fe5Co3O16
_symmetry_space_group_name_H-M   'P 1'
_cell_length_a   5.69255246
_cell_length_b   5.69255246
_cell_length_c   9.01590122
_cell_angle_alpha   89.25256927
_cell_angle_beta   90.74743073
_cell_angle_gamma   120.18248899
_symmetry_Int_Tables_number   1
_chemical_formula_structural   Fe5Co3O16
_chemical_formula_sum   'Fe5 Co3 O16'
_cell_volume   252.52426730
_cell_formula_units_Z   1
loop_
 _symmetry_equiv_pos_site_id
 _symmetry_equiv_pos_as_xyz
  1  'x, y, z'
loop_
 _atom_site_type_symbol
 _atom_site_label
 _atom_site_symmetry_multiplicity
 _atom_site_fract_x
 _atom_site_fract_y
 _atom_site_fract_z
 _atom_site_occupancy
  Fe  Fe0  1  0.662820  0.337180  0.493639  1
  Fe  Fe1  1  0.833834  0.166166  0.214151  1
  Fe  Fe2  1  0.330239  0.669761  0.995143  1
  Fe  Fe3  1  0.166184  0.331786  0.712138  1
  Fe  Fe4  1  0.668214  0.833816  0.712138  1
  Co  Co5  1  0.335818  0.167085  0.211001  1
  Co  Co6  1  0.832915  0.664182  0.211001  1
  Co  Co7  1  0.167960  0.832040  0.711233  1
  O  O8  1  0.318452  0.157308  0.602699  1
  O  O9  1  0.519928  0.480072  0.325936  1
  O  O10  1  0.664844  0.335156  0.102660  1
  O  O11  1  0.003906  0.996094  0.318697  1
  O  O12  1  0.003313  0.996687  0.819626  1
  O  O13  1  0.842692  0.681548  0.602699  1
  O  O14  1  0.512752  0.036548  0.331740  1
  O  O15  1  0.963452  0.487248  0.331740  1
  O  O16  1  0.158787  0.841213  0.105599  1
  O  O17  1  0.838441  0.161559  0.604010  1
  O  O18  1  0.037261  0.519309  0.831038  1
  O  O19  1  0.480691  0.962739  0.831038  1
  O  O20  1  0.332222  0.667778  0.602901  1
  O  O21  1  0.165914  0.323665  0.104525  1
  O  O22  1  0.482021  0.517979  0.833061  1
  O  O23  1  0.676335  0.834086  0.104525  1
