# generated using pymatgen
data_Na3VSiCO7
_symmetry_space_group_name_H-M   'P 1'
_cell_length_a   5.31356836
_cell_length_b   6.64831445
_cell_length_c   8.97669744
_cell_angle_alpha   90.00000000
_cell_angle_beta   91.56643806
_cell_angle_gamma   90.00000000
_symmetry_Int_Tables_number   1
_chemical_formula_structural   Na3VSiCO7
_chemical_formula_sum   'Na6 V2 Si2 C2 O14'
_cell_volume   316.99476156
_cell_formula_units_Z   2
loop_
 _symmetry_equiv_pos_site_id
 _symmetry_equiv_pos_as_xyz
  1  'x, y, z'
loop_
 _atom_site_type_symbol
 _atom_site_label
 _atom_site_symmetry_multiplicity
 _atom_site_fract_x
 _atom_site_fract_y
 _atom_site_fract_z
 _atom_site_occupancy
  Na  Na0  1  0.229437  0.750000  0.089191  1
  Na  Na1  1  0.734692  0.985058  0.276864  1
  Na  Na2  1  0.734692  0.514942  0.276864  1
  Na  Na3  1  0.265308  0.485058  0.723136  1
  Na  Na4  1  0.265308  0.014942  0.723136  1
  Na  Na5  1  0.770563  0.250000  0.910809  1
  V  V6  1  0.205510  0.250000  0.340629  1
  V  V7  1  0.794490  0.750000  0.659371  1
  Si  Si8  1  0.289356  0.750000  0.420315  1
  Si  Si9  1  0.710644  0.250000  0.579685  1
  C  C10  1  0.280403  0.250000  0.058129  1
  C  C11  1  0.719597  0.750000  0.941871  1
  O  O12  1  0.684717  0.750000  0.082742  1
  O  O13  1  0.054705  0.250000  0.112516  1
  O  O14  1  0.470059  0.250000  0.154852  1
  O  O15  1  0.218009  0.947698  0.314924  1
  O  O16  1  0.218009  0.552302  0.314924  1
  O  O17  1  0.593447  0.750000  0.459214  1
  O  O18  1  0.868339  0.250000  0.424647  1
  O  O19  1  0.131661  0.750000  0.575353  1
  O  O20  1  0.406553  0.250000  0.540786  1
  O  O21  1  0.781991  0.447698  0.685076  1
  O  O22  1  0.781991  0.052302  0.685076  1
  O  O23  1  0.529941  0.750000  0.845148  1
  O  O24  1  0.945295  0.750000  0.887484  1
  O  O25  1  0.315283  0.250000  0.917258  1
