# generated using pymatgen
data_Li24Mn11CrO36
_symmetry_space_group_name_H-M   'P 1'
_cell_length_a   8.66795116
_cell_length_b   8.66795116
_cell_length_c   11.66429405
_cell_angle_alpha   60.48697206
_cell_angle_beta   119.51302794
_cell_angle_gamma   120.17224905
_symmetry_Int_Tables_number   1
_chemical_formula_structural   Li24Mn11CrO36
_chemical_formula_sum   'Li24 Mn11 Cr1 O36'
_cell_volume   623.38657359
_cell_formula_units_Z   1
loop_
 _symmetry_equiv_pos_site_id
 _symmetry_equiv_pos_as_xyz
  1  'x, y, z'
loop_
 _atom_site_type_symbol
 _atom_site_label
 _atom_site_symmetry_multiplicity
 _atom_site_fract_x
 _atom_site_fract_y
 _atom_site_fract_z
 _atom_site_occupancy
  Li  Li0  1  0.995503  0.991161  0.252468  1
  Li  Li1  1  0.666400  0.997405  0.999661  1
  Li  Li2  1  0.000120  0.667340  0.750138  1
  Li  Li3  1  0.330396  0.660355  0.749681  1
  Li  Li4  1  0.000902  0.664912  0.502170  1
  Li  Li5  1  0.660355  0.330396  0.250319  1
  Li  Li6  1  0.672204  0.673827  0.248187  1
  Li  Li7  1  0.996686  0.662705  0.251665  1
  Li  Li8  1  0.332834  0.332834  0.000000  1
  Li  Li9  1  0.003719  0.337753  0.751480  1
  Li  Li10  1  0.333987  0.334528  0.751697  1
  Li  Li11  1  0.663592  0.328457  0.750932  1
  Li  Li12  1  0.334528  0.333987  0.248303  1
  Li  Li13  1  0.336641  0.005128  0.749082  1
  Li  Li14  1  0.662705  0.996686  0.748335  1
  Li  Li15  1  0.991161  0.995503  0.747532  1
  Li  Li16  1  0.664912  0.000902  0.497830  1
  Li  Li17  1  0.328457  0.663592  0.249068  1
  Li  Li18  1  0.337753  0.003719  0.248520  1
  Li  Li19  1  0.667340  0.000120  0.249862  1
  Li  Li20  1  0.997405  0.666400  0.000339  1
  Li  Li21  1  0.673827  0.672204  0.751813  1
  Li  Li22  1  0.330177  0.330177  0.500000  1
  Li  Li23  1  0.005128  0.336641  0.250918  1
  Mn  Mn24  1  0.333351  0.665378  0.000075  1
  Mn  Mn25  1  0.665104  0.665104  0.000000  1
  Mn  Mn26  1  0.999198  0.330887  0.001013  1
  Mn  Mn27  1  0.665378  0.333351  0.999925  1
  Mn  Mn28  1  0.668603  0.330880  0.502532  1
  Mn  Mn29  1  0.998848  0.331388  0.500466  1
  Mn  Mn30  1  0.999404  0.999404  0.000000  1
  Mn  Mn31  1  0.330887  0.999198  0.998987  1
  Mn  Mn32  1  0.331388  0.998848  0.499534  1
  Mn  Mn33  1  0.999701  0.999701  0.500000  1
  Mn  Mn34  1  0.330880  0.668603  0.497468  1
  Cr  Cr35  1  0.661950  0.661950  0.500000  1
  O  O36  1  0.835600  0.828337  0.114082  1
  O  O37  1  0.497035  0.809023  0.887903  1
  O  O38  1  0.167789  0.854620  0.611596  1
  O  O39  1  0.501832  0.520462  0.112155  1
  O  O40  1  0.829805  0.837791  0.385501  1
  O  O41  1  0.809023  0.497035  0.112097  1
  O  O42  1  0.162738  0.501044  0.887031  1
  O  O43  1  0.520462  0.501832  0.887845  1
  O  O44  1  0.813449  0.493554  0.614246  1
  O  O45  1  0.169322  0.495941  0.614248  1
  O  O46  1  0.834715  0.187026  0.112562  1
  O  O47  1  0.526265  0.503128  0.389004  1
  O  O48  1  0.144174  0.162866  0.112736  1
  O  O49  1  0.501044  0.162738  0.112969  1
  O  O50  1  0.830384  0.475736  0.388944  1
  O  O51  1  0.854684  0.166002  0.889146  1
  O  O52  1  0.495866  0.167844  0.886607  1
  O  O53  1  0.162866  0.144174  0.887264  1
  O  O54  1  0.834964  0.185595  0.612883  1
  O  O55  1  0.502790  0.162320  0.615234  1
  O  O56  1  0.145467  0.165116  0.612007  1
  O  O57  1  0.166002  0.854684  0.110854  1
  O  O58  1  0.495941  0.169322  0.385752  1
  O  O59  1  0.854620  0.167789  0.388404  1
  O  O60  1  0.478768  0.830319  0.112139  1
  O  O61  1  0.165116  0.145467  0.387993  1
  O  O62  1  0.828337  0.835600  0.885918  1
  O  O63  1  0.187026  0.834715  0.887438  1
  O  O64  1  0.475736  0.830384  0.611056  1
  O  O65  1  0.837791  0.829805  0.614499  1
  O  O66  1  0.185595  0.834964  0.387117  1
  O  O67  1  0.167844  0.495866  0.113393  1
  O  O68  1  0.493554  0.813449  0.385754  1
  O  O69  1  0.830319  0.478768  0.887861  1
  O  O70  1  0.503128  0.526265  0.610996  1
  O  O71  1  0.162320  0.502790  0.384766  1
