# generated using pymatgen
data_Fe6O11F
_symmetry_space_group_name_H-M   'P 1'
_cell_length_a   10.43981177
_cell_length_b   10.43981177
_cell_length_c   2.98370144
_cell_angle_alpha   90.00000000
_cell_angle_beta   90.00000000
_cell_angle_gamma   143.70016463
_symmetry_Int_Tables_number   1
_chemical_formula_structural   Fe6O11F
_chemical_formula_sum   'Fe6 O11 F1'
_cell_volume   192.51757223
_cell_formula_units_Z   1
loop_
 _symmetry_equiv_pos_site_id
 _symmetry_equiv_pos_as_xyz
  1  'x, y, z'
loop_
 _atom_site_type_symbol
 _atom_site_label
 _atom_site_symmetry_multiplicity
 _atom_site_fract_x
 _atom_site_fract_y
 _atom_site_fract_z
 _atom_site_occupancy
  Fe  Fe0  1  0.007866  0.992134  0.000000  1
  Fe  Fe1  1  0.498961  0.501039  0.500000  1
  Fe  Fe2  1  0.664426  0.335574  1.000000  1
  Fe  Fe3  1  0.827892  0.172108  0.500000  1
  Fe  Fe4  1  0.167741  0.832259  0.500000  1
  Fe  Fe5  1  0.333989  0.666011  0.000000  1
  O  O6  1  0.692558  0.693004  0.000000  1
  O  O7  1  0.976750  0.639796  1.000000  1
  O  O8  1  0.306996  0.307442  1.000000  1
  O  O9  1  0.600644  0.399356  0.500000  1
  O  O10  1  0.725439  0.274561  0.500000  1
  O  O11  1  0.069668  0.930332  0.500000  1
  O  O12  1  0.360204  0.023250  1.000000  1
  O  O13  1  0.641509  0.976000  0.000000  1
  O  O14  1  0.270179  0.729821  0.500000  1
  O  O15  1  0.397090  0.602910  0.500000  1
  O  O16  1  0.024000  0.358491  0.000000  1
  F  F17  1  0.935497  0.064503  0.500000  1
