# generated using pymatgen
data_Hf5Ge4
_symmetry_space_group_name_H-M   'P 1'
_cell_length_a   7.06518822
_cell_length_b   7.14488528
_cell_length_c   13.47967076
_cell_angle_alpha   90.00000000
_cell_angle_beta   90.00000000
_cell_angle_gamma   90.00000000
_symmetry_Int_Tables_number   1
_chemical_formula_structural   Hf5Ge4
_chemical_formula_sum   'Hf20 Ge16'
_cell_volume   680.45323152
_cell_formula_units_Z   4
loop_
 _symmetry_equiv_pos_site_id
 _symmetry_equiv_pos_as_xyz
  1  'x, y, z'
loop_
 _atom_site_type_symbol
 _atom_site_label
 _atom_site_symmetry_multiplicity
 _atom_site_fract_x
 _atom_site_fract_y
 _atom_site_fract_z
 _atom_site_occupancy
  Hf  Hf0  1  0.516028  0.323830  0.905145  1
  Hf  Hf1  1  0.016028  0.176170  0.594855  1
  Hf  Hf2  1  0.983972  0.823830  0.094855  1
  Hf  Hf3  1  0.483972  0.676170  0.405145  1
  Hf  Hf4  1  0.516028  0.323830  0.594855  1
  Hf  Hf5  1  0.016028  0.176170  0.905145  1
  Hf  Hf6  1  0.983972  0.823830  0.405145  1
  Hf  Hf7  1  0.483972  0.676170  0.094855  1
  Hf  Hf8  1  0.357181  0.834361  0.876253  1
  Hf  Hf9  1  0.857181  0.665639  0.623747  1
  Hf  Hf10  1  0.142819  0.334361  0.123747  1
  Hf  Hf11  1  0.642819  0.165639  0.376253  1
  Hf  Hf12  1  0.642819  0.165639  0.123747  1
  Hf  Hf13  1  0.142819  0.334361  0.376253  1
  Hf  Hf14  1  0.857181  0.665639  0.876253  1
  Hf  Hf15  1  0.357181  0.834361  0.623747  1
  Hf  Hf16  1  0.683258  0.002334  0.750000  1
  Hf  Hf17  1  0.183258  0.497666  0.750000  1
  Hf  Hf18  1  0.816742  0.502334  0.250000  1
  Hf  Hf19  1  0.316742  0.997666  0.250000  1
  Ge  Ge20  1  0.199361  0.535090  0.959039  1
  Ge  Ge21  1  0.699361  0.964910  0.540961  1
  Ge  Ge22  1  0.300639  0.035090  0.040961  1
  Ge  Ge23  1  0.800639  0.464910  0.459039  1
  Ge  Ge24  1  0.800639  0.464910  0.040961  1
  Ge  Ge25  1  0.300639  0.035090  0.459039  1
  Ge  Ge26  1  0.699361  0.964910  0.959039  1
  Ge  Ge27  1  0.199361  0.535090  0.540961  1
  Ge  Ge28  1  0.823402  0.352944  0.750000  1
  Ge  Ge29  1  0.323402  0.147056  0.750000  1
  Ge  Ge30  1  0.676598  0.852944  0.250000  1
  Ge  Ge31  1  0.176598  0.647056  0.250000  1
  Ge  Ge32  1  0.555083  0.611825  0.750000  1
  Ge  Ge33  1  0.055083  0.888175  0.750000  1
  Ge  Ge34  1  0.944917  0.111825  0.250000  1
  Ge  Ge35  1  0.444917  0.388175  0.250000  1
