# generated using pymatgen
data_Li5Cr2Co3O10
_symmetry_space_group_name_H-M   'P 1'
_cell_length_a   4.99396296
_cell_length_b   5.08586348
_cell_length_c   7.71196432
_cell_angle_alpha   71.04983594
_cell_angle_beta   71.14742291
_cell_angle_gamma   80.93950899
_symmetry_Int_Tables_number   1
_chemical_formula_structural   Li5Cr2Co3O10
_chemical_formula_sum   'Li5 Cr2 Co3 O10'
_cell_volume   175.01637042
_cell_formula_units_Z   1
loop_
 _symmetry_equiv_pos_site_id
 _symmetry_equiv_pos_as_xyz
  1  'x, y, z'
loop_
 _atom_site_type_symbol
 _atom_site_label
 _atom_site_symmetry_multiplicity
 _atom_site_fract_x
 _atom_site_fract_y
 _atom_site_fract_z
 _atom_site_occupancy
  Li  Li0  1  0.216316  0.494317  0.590712  1
  Li  Li1  1  0.406081  0.490685  0.211351  1
  Li  Li2  1  0.500000  0.000000  0.500000  1
  Li  Li3  1  0.593919  0.509315  0.788649  1
  Li  Li4  1  0.783684  0.505683  0.409288  1
  Cr  Cr5  1  0.107591  0.992456  0.305099  1
  Cr  Cr6  1  0.892409  0.007544  0.694901  1
  Co  Co7  1  0.000000  0.500000  0.000000  1
  Co  Co8  1  0.699612  0.000423  0.099306  1
  Co  Co9  1  0.300388  0.999577  0.900694  1
  O  O10  1  0.039235  0.778754  0.136996  1
  O  O11  1  0.358339  0.220375  0.050484  1
  O  O12  1  0.131581  0.235966  0.449232  1
  O  O13  1  0.229181  0.765330  0.769759  1
  O  O14  1  0.456494  0.771916  0.330584  1
  O  O15  1  0.543506  0.228084  0.669416  1
  O  O16  1  0.770819  0.234670  0.230241  1
  O  O17  1  0.868419  0.764034  0.550768  1
  O  O18  1  0.641661  0.779625  0.949516  1
  O  O19  1  0.960765  0.221246  0.863004  1
