# generated using pymatgen
data_Li6VFe3(PO4)6
_symmetry_space_group_name_H-M   'P 1'
_cell_length_a   8.59986367
_cell_length_b   8.62984122
_cell_length_c   8.64599614
_cell_angle_alpha   61.53641782
_cell_angle_beta   61.41683272
_cell_angle_gamma   61.37435026
_symmetry_Int_Tables_number   1
_chemical_formula_structural   Li6VFe3(PO4)6
_chemical_formula_sum   'Li6 V1 Fe3 P6 O24'
_cell_volume   468.42296058
_cell_formula_units_Z   1
loop_
 _symmetry_equiv_pos_site_id
 _symmetry_equiv_pos_as_xyz
  1  'x, y, z'
loop_
 _atom_site_type_symbol
 _atom_site_label
 _atom_site_symmetry_multiplicity
 _atom_site_fract_x
 _atom_site_fract_y
 _atom_site_fract_z
 _atom_site_occupancy
  Li  Li0  1  0.973963  0.002543  0.992854  1
  Li  Li1  1  0.250112  0.651473  0.847442  1
  Li  Li2  1  0.524715  0.505552  0.497007  1
  Li  Li3  1  0.742770  0.346997  0.157695  1
  Li  Li4  1  0.347471  0.160945  0.737549  1
  Li  Li5  1  0.159052  0.742496  0.346732  1
  V  V6  1  0.143184  0.146530  0.146331  1
  Fe  Fe7  1  0.854059  0.862811  0.853942  1
  Fe  Fe8  1  0.646729  0.644970  0.637722  1
  Fe  Fe9  1  0.352779  0.350729  0.351491  1
  P  P10  1  0.950973  0.550297  0.248827  1
  P  P11  1  0.549320  0.251789  0.949502  1
  P  P12  1  0.249817  0.953028  0.547762  1
  P  P13  1  0.748826  0.041746  0.459290  1
  P  P14  1  0.457482  0.748280  0.038732  1
  P  P15  1  0.044853  0.463045  0.749858  1
  O  O16  1  0.872493  0.504775  0.708512  1
  O  O17  1  0.696472  0.880835  0.491936  1
  O  O18  1  0.953483  0.730373  0.077315  1
  O  O19  1  0.470024  0.703855  0.879738  1
  O  O20  1  0.761736  0.569893  0.407209  1
  O  O21  1  0.984074  0.387009  0.193746  1
  O  O22  1  0.738704  0.092438  0.929720  1
  O  O23  1  0.549170  0.422976  0.767951  1
  O  O24  1  0.407687  0.759618  0.569180  1
  O  O25  1  0.803230  0.008719  0.618985  1
  O  O26  1  0.907495  0.067235  0.265254  1
  O  O27  1  0.628202  0.792206  0.995933  1
  O  O28  1  0.387124  0.195450  0.985023  1
  O  O29  1  0.093223  0.930609  0.741403  1
  O  O30  1  0.189539  0.988101  0.390504  1
  O  O31  1  0.586397  0.235188  0.436944  1
  O  O32  1  0.437334  0.586268  0.230605  1
  O  O33  1  0.266861  0.910893  0.071261  1
  O  O34  1  0.029867  0.620338  0.798795  1
  O  O35  1  0.233525  0.436374  0.584092  1
  O  O36  1  0.517401  0.306774  0.112805  1
  O  O37  1  0.068249  0.269533  0.907807  1
  O  O38  1  0.308046  0.113095  0.515309  1
  O  O39  1  0.113563  0.513221  0.308237  1
