# generated using pymatgen
data_K8Li13(FeO4)4
_symmetry_space_group_name_H-M   'P 1'
_cell_length_a   5.69835514
_cell_length_b   8.81316306
_cell_length_c   10.95492620
_cell_angle_alpha   89.91569051
_cell_angle_beta   97.64180358
_cell_angle_gamma   93.01540718
_symmetry_Int_Tables_number   1
_chemical_formula_structural   K8Li13(FeO4)4
_chemical_formula_sum   'K8 Li13 Fe4 O16'
_cell_volume   544.51266557
_cell_formula_units_Z   1
loop_
 _symmetry_equiv_pos_site_id
 _symmetry_equiv_pos_as_xyz
  1  'x, y, z'
loop_
 _atom_site_type_symbol
 _atom_site_label
 _atom_site_symmetry_multiplicity
 _atom_site_fract_x
 _atom_site_fract_y
 _atom_site_fract_z
 _atom_site_occupancy
  K  K0  1  0.102861  0.002980  0.855735  1
  K  K1  1  0.142245  0.751049  0.393387  1
  K  K2  1  0.421903  0.505156  0.657908  1
  K  K3  1  0.332863  0.247323  0.146075  1
  K  K4  1  0.625283  0.761408  0.884636  1
  K  K5  1  0.612336  0.559258  0.306830  1
  K  K6  1  0.858905  0.940329  0.181889  1
  K  K7  1  0.871396  0.252755  0.647126  1
  Li  Li8  1  0.099597  0.749322  0.695947  1
  Li  Li9  1  0.972462  0.474127  0.486204  1
  Li  Li10  1  0.326162  0.477836  0.928606  1
  Li  Li11  1  0.199255  0.996112  0.571339  1
  Li  Li12  1  0.081233  0.478284  0.191185  1
  Li  Li13  1  0.424237  0.257314  0.810152  1
  Li  Li14  1  0.418754  0.983461  0.300043  1
  Li  Li15  1  0.571004  0.017204  0.702453  1
  Li  Li16  1  0.529028  0.048360  0.018046  1
  Li  Li17  1  0.936903  0.514635  0.835214  1
  Li  Li18  1  0.696769  0.502577  0.059066  1
  Li  Li19  1  0.806848  0.030863  0.440453  1
  Li  Li20  1  0.890688  0.247137  0.298324  1
  Fe  Fe21  1  0.680052  0.793689  0.557446  1
  Fe  Fe22  1  0.841471  0.273200  0.948718  1
  Fe  Fe23  1  0.200514  0.716255  0.056690  1
  Fe  Fe24  1  0.330569  0.225687  0.443870  1
  O  O25  1  0.116823  0.318628  0.857636  1
  O  O26  1  0.134762  0.696042  0.879140  1
  O  O27  1  0.126379  0.058233  0.381319  1
  O  O28  1  0.159453  0.404871  0.378237  1
  O  O29  1  0.399204  0.818176  0.632736  1
  O  O30  1  0.338111  0.921154  0.105485  1
  O  O31  1  0.372954  0.197131  0.616920  1
  O  O32  1  0.631559  0.451942  0.875183  1
  O  O33  1  0.370646  0.539316  0.100170  1
  O  O34  1  0.622936  0.082847  0.871168  1
  O  O35  1  0.614332  0.199833  0.376409  1
  O  O36  1  0.623608  0.840173  0.388011  1
  O  O37  1  0.855905  0.609794  0.584337  1
  O  O38  1  0.889039  0.954382  0.625465  1
  O  O39  1  0.830939  0.284205  0.126218  1
  O  O40  1  0.933153  0.661627  0.139280  1
