# generated using pymatgen
data_Li4CrO4
_symmetry_space_group_name_H-M   'P 1'
_cell_length_a   5.19542541
_cell_length_b   5.21718762
_cell_length_c   7.78503954
_cell_angle_alpha   109.38677332
_cell_angle_beta   82.93103605
_cell_angle_gamma   111.96543520
_symmetry_Int_Tables_number   1
_chemical_formula_structural   Li4CrO4
_chemical_formula_sum   'Li8 Cr2 O8'
_cell_volume   184.60318489
_cell_formula_units_Z   2
loop_
 _symmetry_equiv_pos_site_id
 _symmetry_equiv_pos_as_xyz
  1  'x, y, z'
loop_
 _atom_site_type_symbol
 _atom_site_label
 _atom_site_symmetry_multiplicity
 _atom_site_fract_x
 _atom_site_fract_y
 _atom_site_fract_z
 _atom_site_occupancy
  Li  Li0  1  0.740150  0.240051  0.004300  1
  Li  Li1  1  0.216588  0.390431  0.205430  1
  Li  Li2  1  0.247708  0.916691  0.415248  1
  Li  Li3  1  0.759516  0.490491  0.441562  1
  Li  Li4  1  0.240484  0.509509  0.558438  1
  Li  Li5  1  0.752292  0.083309  0.584752  1
  Li  Li6  1  0.783412  0.609569  0.794570  1
  Li  Li7  1  0.259850  0.759949  0.995700  1
  Cr  Cr8  1  0.780212  0.837931  0.226967  1
  Cr  Cr9  1  0.219788  0.162069  0.773033  1
  O  O10  1  0.661330  0.844151  0.024606  1
  O  O11  1  0.999571  0.626490  0.193287  1
  O  O12  1  0.513503  0.697305  0.383033  1
  O  O13  1  0.975457  0.193748  0.375473  1
  O  O14  1  0.024543  0.806252  0.624527  1
  O  O15  1  0.486497  0.302695  0.616967  1
  O  O16  1  0.000429  0.373510  0.806713  1
  O  O17  1  0.338670  0.155849  0.975394  1
