# generated using pymatgen
data_Na3BiO3
_symmetry_space_group_name_H-M   'P 1'
_cell_length_a   10.34101086
_cell_length_b   10.35410983
_cell_length_c   11.33847462
_cell_angle_alpha   108.59932858
_cell_angle_beta   113.44722696
_cell_angle_gamma   89.07426940
_symmetry_Int_Tables_number   1
_chemical_formula_structural   Na3BiO3
_chemical_formula_sum   'Na24 Bi8 O24'
_cell_volume   1047.01723479
_cell_formula_units_Z   8
loop_
 _symmetry_equiv_pos_site_id
 _symmetry_equiv_pos_as_xyz
  1  'x, y, z'
loop_
 _atom_site_type_symbol
 _atom_site_label
 _atom_site_symmetry_multiplicity
 _atom_site_fract_x
 _atom_site_fract_y
 _atom_site_fract_z
 _atom_site_occupancy
  Na  Na0  1  0.488598  0.080172  0.913519  1
  Na  Na1  1  0.351824  0.077301  0.527691  1
  Na  Na2  1  0.899625  0.090389  0.487227  1
  Na  Na3  1  0.609960  0.153233  0.358987  1
  Na  Na4  1  0.435350  0.296640  0.773862  1
  Na  Na5  1  0.136407  0.330365  0.585380  1
  Na  Na6  1  0.894117  0.349115  0.659857  1
  Na  Na7  1  0.271521  0.495490  0.941988  1
  Na  Na8  1  0.572258  0.409257  0.615912  1
  Na  Na9  1  0.874709  0.518726  0.891542  1
  Na  Na10  1  0.513265  0.327818  0.158474  1
  Na  Na11  1  0.277700  0.536690  0.554670  1
  Na  Na12  1  0.722300  0.463310  0.445330  1
  Na  Na13  1  0.486735  0.672182  0.841526  1
  Na  Na14  1  0.125291  0.481274  0.108458  1
  Na  Na15  1  0.427742  0.590743  0.384088  1
  Na  Na16  1  0.728479  0.504510  0.058012  1
  Na  Na17  1  0.105883  0.650885  0.340143  1
  Na  Na18  1  0.863593  0.669635  0.414620  1
  Na  Na19  1  0.564650  0.703360  0.226138  1
  Na  Na20  1  0.390040  0.846767  0.641013  1
  Na  Na21  1  0.100375  0.909611  0.512773  1
  Na  Na22  1  0.648176  0.922699  0.472309  1
  Na  Na23  1  0.511402  0.919828  0.086481  1
  Bi  Bi24  1  0.152867  0.177496  0.845954  1
  Bi  Bi25  1  0.734156  0.165794  0.783054  1
  Bi  Bi26  1  0.289865  0.270348  0.320821  1
  Bi  Bi27  1  0.835922  0.265045  0.234912  1
  Bi  Bi28  1  0.164078  0.734955  0.765088  1
  Bi  Bi29  1  0.710135  0.729652  0.679179  1
  Bi  Bi30  1  0.265844  0.834206  0.216946  1
  Bi  Bi31  1  0.847133  0.822504  0.154046  1
  O  O32  1  0.529257  0.066454  0.721357  1
  O  O33  1  0.134122  0.136554  0.645511  1
  O  O34  1  0.736044  0.149177  0.591926  1
  O  O35  1  0.360868  0.279036  0.938112  1
  O  O36  1  0.055307  0.360664  0.875970  1
  O  O37  1  0.643274  0.134355  0.150599  1
  O  O38  1  0.675354  0.364987  0.833547  1
  O  O39  1  0.331135  0.298497  0.526438  1
  O  O40  1  0.886268  0.291563  0.440822  1
  O  O41  1  0.495576  0.349069  0.363539  1
  O  O42  1  0.258309  0.551073  0.758311  1
  O  O43  1  0.793718  0.545805  0.682162  1
  O  O44  1  0.206282  0.454195  0.317838  1
  O  O45  1  0.741691  0.448927  0.241689  1
  O  O46  1  0.504424  0.650931  0.636461  1
  O  O47  1  0.113732  0.708437  0.559178  1
  O  O48  1  0.668865  0.701503  0.473562  1
  O  O49  1  0.324646  0.635013  0.166453  1
  O  O50  1  0.356726  0.865645  0.849401  1
  O  O51  1  0.944693  0.639336  0.124030  1
  O  O52  1  0.639132  0.720964  0.061888  1
  O  O53  1  0.263956  0.850823  0.408074  1
  O  O54  1  0.865878  0.863446  0.354489  1
  O  O55  1  0.470743  0.933546  0.278643  1
