# generated using pymatgen
data_Li3Cu2F7
_symmetry_space_group_name_H-M   'P 1'
_cell_length_a   7.08861400
_cell_length_b   8.63907735
_cell_length_c   8.93681595
_cell_angle_alpha   90.00000000
_cell_angle_beta   102.60511236
_cell_angle_gamma   90.00000000
_symmetry_Int_Tables_number   1
_chemical_formula_structural   Li3Cu2F7
_chemical_formula_sum   'Li12 Cu8 F28'
_cell_volume   534.09144093
_cell_formula_units_Z   4
loop_
 _symmetry_equiv_pos_site_id
 _symmetry_equiv_pos_as_xyz
  1  'x, y, z'
loop_
 _atom_site_type_symbol
 _atom_site_label
 _atom_site_symmetry_multiplicity
 _atom_site_fract_x
 _atom_site_fract_y
 _atom_site_fract_z
 _atom_site_occupancy
  Li  Li0  1  0.935971  0.690913  0.046285  1
  Li  Li1  1  0.935971  0.809087  0.546285  1
  Li  Li2  1  0.772433  0.166932  0.140027  1
  Li  Li3  1  0.711041  0.845948  0.195446  1
  Li  Li4  1  0.772433  0.333068  0.640027  1
  Li  Li5  1  0.711041  0.654052  0.695446  1
  Li  Li6  1  0.288959  0.345948  0.304554  1
  Li  Li7  1  0.227567  0.666932  0.359973  1
  Li  Li8  1  0.288959  0.154052  0.804554  1
  Li  Li9  1  0.227567  0.833068  0.859973  1
  Li  Li10  1  0.064029  0.190913  0.453715  1
  Li  Li11  1  0.064029  0.309087  0.953715  1
  Cu  Cu12  1  0.813490  0.495090  0.341359  1
  Cu  Cu13  1  0.813490  0.004910  0.841359  1
  Cu  Cu14  1  0.629472  0.072586  0.421125  1
  Cu  Cu15  1  0.629472  0.427414  0.921125  1
  Cu  Cu16  1  0.370528  0.572586  0.078875  1
  Cu  Cu17  1  0.370528  0.927414  0.578875  1
  Cu  Cu18  1  0.186510  0.995090  0.158641  1
  Cu  Cu19  1  0.186510  0.504910  0.658641  1
  F  F20  1  0.928953  0.673405  0.265130  1
  F  F21  1  0.845598  0.921273  0.046021  1
  F  F22  1  0.840347  0.952279  0.388238  1
  F  F23  1  0.928953  0.826595  0.765130  1
  F  F24  1  0.740836  0.392721  0.145765  1
  F  F25  1  0.845598  0.578727  0.546021  1
  F  F26  1  0.799735  0.291690  0.429491  1
  F  F27  1  0.840347  0.547721  0.888238  1
  F  F28  1  0.585527  0.689024  0.055396  1
  F  F29  1  0.740836  0.107279  0.645765  1
  F  F30  1  0.799735  0.208310  0.929491  1
  F  F31  1  0.547492  0.055129  0.200339  1
  F  F32  1  0.585527  0.810976  0.555396  1
  F  F33  1  0.452508  0.555129  0.299661  1
  F  F34  1  0.547492  0.444871  0.700339  1
  F  F35  1  0.414473  0.189024  0.444604  1
  F  F36  1  0.452508  0.944871  0.799661  1
  F  F37  1  0.200265  0.791690  0.070509  1
  F  F38  1  0.259164  0.892721  0.354235  1
  F  F39  1  0.414473  0.310976  0.944604  1
  F  F40  1  0.159653  0.452279  0.111762  1
  F  F41  1  0.200265  0.708310  0.570509  1
  F  F42  1  0.154402  0.421273  0.453979  1
  F  F43  1  0.259164  0.607279  0.854235  1
  F  F44  1  0.071047  0.173405  0.234870  1
  F  F45  1  0.159653  0.047721  0.611762  1
  F  F46  1  0.154402  0.078727  0.953979  1
  F  F47  1  0.071047  0.326595  0.734870  1
