# generated using pymatgen
data_Ba2SrI6
_symmetry_space_group_name_H-M   'P 1'
_cell_length_a   9.32958666
_cell_length_b   9.32958666
_cell_length_c   10.45325443
_cell_angle_alpha   88.84926069
_cell_angle_beta   91.15073931
_cell_angle_gamma   60.00224515
_symmetry_Int_Tables_number   1
_chemical_formula_structural   Ba2SrI6
_chemical_formula_sum   'Ba4 Sr2 I12'
_cell_volume   787.34705153
_cell_formula_units_Z   2
loop_
 _symmetry_equiv_pos_site_id
 _symmetry_equiv_pos_as_xyz
  1  'x, y, z'
loop_
 _atom_site_type_symbol
 _atom_site_label
 _atom_site_symmetry_multiplicity
 _atom_site_fract_x
 _atom_site_fract_y
 _atom_site_fract_z
 _atom_site_occupancy
  Ba  Ba0  1  0.281725  0.389439  0.507980  1
  Ba  Ba1  1  0.389439  0.281725  0.992020  1
  Ba  Ba2  1  0.610561  0.718275  0.007980  1
  Ba  Ba3  1  0.718275  0.610561  0.492020  1
  Sr  Sr4  1  0.047628  0.047628  0.750000  1
  Sr  Sr5  1  0.952372  0.952372  0.250000  1
  I  I6  1  0.308295  0.650434  0.852375  1
  I  I7  1  0.986197  0.442559  0.788303  1
  I  I8  1  0.050594  0.192924  0.448155  1
  I  I9  1  0.192924  0.050594  0.051845  1
  I  I10  1  0.442559  0.986197  0.711697  1
  I  I11  1  0.650434  0.308295  0.647625  1
  I  I12  1  0.349566  0.691705  0.352375  1
  I  I13  1  0.557441  0.013803  0.288303  1
  I  I14  1  0.807076  0.949406  0.948155  1
  I  I15  1  0.949406  0.807076  0.551845  1
  I  I16  1  0.013803  0.557441  0.211697  1
  I  I17  1  0.691705  0.349566  0.147625  1
