# generated using pymatgen
data_LiNbCoO4
_symmetry_space_group_name_H-M   'P 1'
_cell_length_a   6.17115463
_cell_length_b   6.17115463
_cell_length_c   8.49939746
_cell_angle_alpha   90.00000000
_cell_angle_beta   90.00000000
_cell_angle_gamma   90.00000000
_symmetry_Int_Tables_number   1
_chemical_formula_structural   LiNbCoO4
_chemical_formula_sum   'Li4 Nb4 Co4 O16'
_cell_volume   323.68382354
_cell_formula_units_Z   4
loop_
 _symmetry_equiv_pos_site_id
 _symmetry_equiv_pos_as_xyz
  1  'x, y, z'
loop_
 _atom_site_type_symbol
 _atom_site_label
 _atom_site_symmetry_multiplicity
 _atom_site_fract_x
 _atom_site_fract_y
 _atom_site_fract_z
 _atom_site_occupancy
  Li  Li0  1  0.000000  0.221230  0.000000  1
  Li  Li1  1  0.000000  0.778770  0.500000  1
  Li  Li2  1  0.221230  0.000000  0.250000  1
  Li  Li3  1  0.778770  0.000000  0.750000  1
  Nb  Nb4  1  0.213692  0.500000  0.250000  1
  Nb  Nb5  1  0.500000  0.213692  0.000000  1
  Nb  Nb6  1  0.500000  0.786308  0.500000  1
  Nb  Nb7  1  0.786308  0.500000  0.750000  1
  Co  Co8  1  0.258638  0.258638  0.625000  1
  Co  Co9  1  0.258638  0.741362  0.875000  1
  Co  Co10  1  0.741362  0.258638  0.375000  1
  Co  Co11  1  0.741362  0.741362  0.125000  1
  O  O12  1  0.016233  0.263459  0.254383  1
  O  O13  1  0.016233  0.736541  0.245617  1
  O  O14  1  0.263459  0.016233  0.995617  1
  O  O15  1  0.263459  0.983767  0.504383  1
  O  O16  1  0.265373  0.482201  0.015780  1
  O  O17  1  0.265373  0.517799  0.484220  1
  O  O18  1  0.482201  0.265373  0.234220  1
  O  O19  1  0.482201  0.734627  0.265780  1
  O  O20  1  0.517799  0.265373  0.765780  1
  O  O21  1  0.517799  0.734627  0.734220  1
  O  O22  1  0.734627  0.517799  0.515780  1
  O  O23  1  0.734627  0.482201  0.984220  1
  O  O24  1  0.736541  0.016233  0.004383  1
  O  O25  1  0.736541  0.983767  0.495617  1
  O  O26  1  0.983767  0.263459  0.745617  1
  O  O27  1  0.983767  0.736541  0.754383  1
