# generated using pymatgen
data_MnPO4
_symmetry_space_group_name_H-M   'P 1'
_cell_length_a   8.49475988
_cell_length_b   8.49475988
_cell_length_c   6.88497588
_cell_angle_alpha   70.29863176
_cell_angle_beta   109.70136824
_cell_angle_gamma   89.80777772
_symmetry_Int_Tables_number   1
_chemical_formula_structural   MnPO4
_chemical_formula_sum   'Mn6 P6 O24'
_cell_volume   436.50923959
_cell_formula_units_Z   6
loop_
 _symmetry_equiv_pos_site_id
 _symmetry_equiv_pos_as_xyz
  1  'x, y, z'
loop_
 _atom_site_type_symbol
 _atom_site_label
 _atom_site_symmetry_multiplicity
 _atom_site_fract_x
 _atom_site_fract_y
 _atom_site_fract_z
 _atom_site_occupancy
  Mn  Mn0  1  0.380888  0.935927  0.136712  1
  Mn  Mn1  1  0.726787  0.726787  0.750000  1
  Mn  Mn2  1  0.064073  0.619112  0.636712  1
  Mn  Mn3  1  0.935927  0.380888  0.363288  1
  Mn  Mn4  1  0.273213  0.273213  0.250000  1
  Mn  Mn5  1  0.619112  0.064073  0.863288  1
  P  P6  1  0.120807  0.652769  0.120460  1
  P  P7  1  0.292968  0.292968  0.750000  1
  P  P8  1  0.347231  0.879193  0.620460  1
  P  P9  1  0.652769  0.120807  0.379540  1
  P  P10  1  0.707032  0.707032  0.250000  1
  P  P11  1  0.879193  0.347231  0.879540  1
  O  O12  1  0.185052  0.820603  0.117543  1
  O  O13  1  0.170961  0.265464  0.538892  1
  O  O14  1  0.041543  0.591743  0.304563  1
  O  O15  1  0.472446  0.270346  0.747026  1
  O  O16  1  0.736477  0.482479  0.834807  1
  O  O17  1  0.980549  0.682317  0.889648  1
  O  O18  1  0.682317  0.980549  0.610352  1
  O  O19  1  0.482479  0.736477  0.665193  1
  O  O20  1  0.270346  0.472446  0.752974  1
  O  O21  1  0.591743  0.041543  0.195437  1
  O  O22  1  0.265464  0.170961  0.961108  1
  O  O23  1  0.179397  0.814948  0.617543  1
  O  O24  1  0.820603  0.185052  0.382457  1
  O  O25  1  0.734536  0.829039  0.038892  1
  O  O26  1  0.408257  0.958457  0.804563  1
  O  O27  1  0.729654  0.527554  0.247026  1
  O  O28  1  0.517521  0.263523  0.334807  1
  O  O29  1  0.317683  0.019451  0.389648  1
  O  O30  1  0.019451  0.317683  0.110352  1
  O  O31  1  0.263523  0.517521  0.165193  1
  O  O32  1  0.527554  0.729654  0.252974  1
  O  O33  1  0.958457  0.408257  0.695437  1
  O  O34  1  0.829039  0.734536  0.461108  1
  O  O35  1  0.814948  0.179397  0.882457  1
