# generated using pymatgen
data_Li4CrTe(WO6)2
_symmetry_space_group_name_H-M   'P 1'
_cell_length_a   5.19441678
_cell_length_b   5.46808285
_cell_length_c   7.54905906
_cell_angle_alpha   85.80796718
_cell_angle_beta   89.91940512
_cell_angle_gamma   89.87444819
_symmetry_Int_Tables_number   1
_chemical_formula_structural   Li4CrTe(WO6)2
_chemical_formula_sum   'Li4 Cr1 Te1 W2 O12'
_cell_volume   213.84538095
_cell_formula_units_Z   1
loop_
 _symmetry_equiv_pos_site_id
 _symmetry_equiv_pos_as_xyz
  1  'x, y, z'
loop_
 _atom_site_type_symbol
 _atom_site_label
 _atom_site_symmetry_multiplicity
 _atom_site_fract_x
 _atom_site_fract_y
 _atom_site_fract_z
 _atom_site_occupancy
  Li  Li0  1  0.998038  0.589938  0.266843  1
  Li  Li1  1  0.503491  0.063711  0.810741  1
  Li  Li2  1  0.006077  0.560849  0.799728  1
  Li  Li3  1  0.491442  0.020889  0.241127  1
  Cr  Cr4  1  0.998479  0.001744  0.998324  1
  Te  Te5  1  0.502587  0.506849  0.504973  1
  W  W6  1  0.004537  0.007409  0.501328  1
  W  W7  1  0.497354  0.499291  0.003098  1
  O  O8  1  0.688718  0.814609  0.426053  1
  O  O9  1  0.880693  0.995376  0.737754  1
  O  O10  1  0.684630  0.194314  0.048054  1
  O  O11  1  0.829121  0.312770  0.429629  1
  O  O12  1  0.209329  0.302283  0.935342  1
  O  O13  1  0.634213  0.492035  0.750733  1
  O  O14  1  0.368796  0.486010  0.247883  1
  O  O15  1  0.798135  0.686470  0.050456  1
  O  O16  1  0.168529  0.675196  0.560156  1
  O  O17  1  0.303247  0.790794  0.938201  1
  O  O18  1  0.111667  0.978295  0.257703  1
  O  O19  1  0.320913  0.163568  0.563077  1
