# generated using pymatgen
data_Li2FeP2HO8
_symmetry_space_group_name_H-M   'P 1'
_cell_length_a   6.27238171
_cell_length_b   7.55730296
_cell_length_c   7.87920697
_cell_angle_alpha   90.00000000
_cell_angle_beta   124.47838420
_cell_angle_gamma   90.00000000
_symmetry_Int_Tables_number   1
_chemical_formula_structural   Li2FeP2HO8
_chemical_formula_sum   'Li4 Fe2 P4 H2 O16'
_cell_volume   307.88469360
_cell_formula_units_Z   2
loop_
 _symmetry_equiv_pos_site_id
 _symmetry_equiv_pos_as_xyz
  1  'x, y, z'
loop_
 _atom_site_type_symbol
 _atom_site_label
 _atom_site_symmetry_multiplicity
 _atom_site_fract_x
 _atom_site_fract_y
 _atom_site_fract_z
 _atom_site_occupancy
  Li  Li0  1  0.974807  0.046271  0.341135  1
  Li  Li1  1  0.011401  0.376501  0.188468  1
  Li  Li2  1  0.974807  0.953729  0.841135  1
  Li  Li3  1  0.011401  0.623499  0.688468  1
  Fe  Fe4  1  0.598619  0.248852  0.568076  1
  Fe  Fe5  1  0.598619  0.751148  0.068076  1
  P  P6  1  0.523165  0.673055  0.621777  1
  P  P7  1  0.182787  0.194685  0.697711  1
  P  P8  1  0.523165  0.326945  0.121777  1
  P  P9  1  0.182787  0.805315  0.197711  1
  H  H10  1  0.980239  0.737692  0.404475  1
  H  H11  1  0.980239  0.262308  0.904475  1
  O  O12  1  0.890255  0.770590  0.045254  1
  O  O13  1  0.392167  0.328648  0.238976  1
  O  O14  1  0.274714  0.653750  0.374788  1
  O  O15  1  0.685298  0.495676  0.155103  1
  O  O16  1  0.283504  0.241613  0.562373  1
  O  O17  1  0.244818  0.986644  0.289673  1
  O  O18  1  0.676702  0.167565  0.139138  1
  O  O19  1  0.392167  0.671352  0.738976  1
  O  O20  1  0.834523  0.818628  0.355052  1
  O  O21  1  0.274714  0.346250  0.874788  1
  O  O22  1  0.685298  0.504324  0.655103  1
  O  O23  1  0.890255  0.229410  0.545254  1
  O  O24  1  0.244818  0.013356  0.789673  1
  O  O25  1  0.676702  0.832435  0.639138  1
  O  O26  1  0.834523  0.181372  0.855052  1
  O  O27  1  0.283504  0.758387  0.062373  1
