# generated using pymatgen
data_Li4Ti5Nb3O16
_symmetry_space_group_name_H-M   'P 1'
_cell_length_a   5.98120295
_cell_length_b   5.98120295
_cell_length_c   9.87279911
_cell_angle_alpha   89.92316696
_cell_angle_beta   90.07683304
_cell_angle_gamma   120.19537015
_symmetry_Int_Tables_number   1
_chemical_formula_structural   Li4Ti5Nb3O16
_chemical_formula_sum   'Li4 Ti5 Nb3 O16'
_cell_volume   305.27351835
_cell_formula_units_Z   1
loop_
 _symmetry_equiv_pos_site_id
 _symmetry_equiv_pos_as_xyz
  1  'x, y, z'
loop_
 _atom_site_type_symbol
 _atom_site_label
 _atom_site_symmetry_multiplicity
 _atom_site_fract_x
 _atom_site_fract_y
 _atom_site_fract_z
 _atom_site_occupancy
  Li  Li0  1  0.668093  0.331907  0.900780  1
  Li  Li1  1  0.006563  0.993437  0.990773  1
  Li  Li2  1  0.006135  0.993865  0.494957  1
  Li  Li3  1  0.333129  0.666871  0.389712  1
  Ti  Ti4  1  0.342561  0.170562  0.216694  1
  Ti  Ti5  1  0.669631  0.330369  0.494363  1
  Ti  Ti6  1  0.829438  0.657439  0.216694  1
  Ti  Ti7  1  0.175929  0.824071  0.719540  1
  Ti  Ti8  1  0.331649  0.668351  0.992580  1
  Nb  Nb9  1  0.828209  0.171791  0.213412  1
  Nb  Nb10  1  0.193894  0.366360  0.713039  1
  Nb  Nb11  1  0.633640  0.806106  0.713039  1
  O  O12  1  0.338144  0.168312  0.595065  1
  O  O13  1  0.520713  0.479287  0.335452  1
  O  O14  1  0.659939  0.340061  0.101695  1
  O  O15  1  0.004642  0.995358  0.313010  1
  O  O16  1  0.004184  0.995816  0.808972  1
  O  O17  1  0.831688  0.661856  0.595065  1
  O  O18  1  0.515756  0.040745  0.342996  1
  O  O19  1  0.959255  0.484244  0.342996  1
  O  O20  1  0.166858  0.833142  0.100970  1
  O  O21  1  0.831302  0.168698  0.590141  1
  O  O22  1  0.034904  0.519381  0.846051  1
  O  O23  1  0.480619  0.965096  0.846051  1
  O  O24  1  0.315804  0.684196  0.579522  1
  O  O25  1  0.165479  0.333915  0.097332  1
  O  O26  1  0.484909  0.515091  0.859626  1
  O  O27  1  0.666085  0.834521  0.097332  1
