# generated using pymatgen
data_Li2VOF3
_symmetry_space_group_name_H-M   'P 1'
_cell_length_a   6.04927027
_cell_length_b   6.04927027
_cell_length_c   8.48954520
_cell_angle_alpha   90.00000000
_cell_angle_beta   90.00000000
_cell_angle_gamma   90.00000000
_symmetry_Int_Tables_number   1
_chemical_formula_structural   Li2VOF3
_chemical_formula_sum   'Li8 V4 O4 F12'
_cell_volume   310.66362229
_cell_formula_units_Z   4
loop_
 _symmetry_equiv_pos_site_id
 _symmetry_equiv_pos_as_xyz
  1  'x, y, z'
loop_
 _atom_site_type_symbol
 _atom_site_label
 _atom_site_symmetry_multiplicity
 _atom_site_fract_x
 _atom_site_fract_y
 _atom_site_fract_z
 _atom_site_occupancy
  Li  Li0  1  0.238728  0.257527  0.369468  1
  Li  Li1  1  0.257527  0.761272  0.119468  1
  Li  Li2  1  0.262696  0.507488  0.753270  1
  Li  Li3  1  0.492512  0.262696  0.003270  1
  Li  Li4  1  0.507488  0.737304  0.503270  1
  Li  Li5  1  0.737304  0.492512  0.253270  1
  Li  Li6  1  0.742473  0.238728  0.619468  1
  Li  Li7  1  0.761272  0.742473  0.869468  1
  V  V8  1  0.007538  0.249721  0.013648  1
  V  V9  1  0.992462  0.750279  0.513648  1
  V  V10  1  0.249721  0.992462  0.763648  1
  V  V11  1  0.750279  0.007538  0.263648  1
  O  O12  1  0.026861  0.763023  0.734108  1
  O  O13  1  0.236977  0.026861  0.984108  1
  O  O14  1  0.763023  0.973139  0.484108  1
  O  O15  1  0.973139  0.236977  0.234108  1
  F  F16  1  0.014170  0.252960  0.761744  1
  F  F17  1  0.252960  0.985830  0.511744  1
  F  F18  1  0.247588  0.487615  0.998381  1
  F  F19  1  0.244749  0.527630  0.494380  1
  F  F20  1  0.472370  0.244749  0.744380  1
  F  F21  1  0.487615  0.752412  0.748381  1
  F  F22  1  0.512385  0.247588  0.248381  1
  F  F23  1  0.527630  0.755251  0.244380  1
  F  F24  1  0.752412  0.512385  0.498381  1
  F  F25  1  0.755251  0.472370  0.994380  1
  F  F26  1  0.747040  0.014170  0.011744  1
  F  F27  1  0.985830  0.747040  0.261744  1
