# generated using pymatgen
data_Li2Ti3NiO8
_symmetry_space_group_name_H-M   'P 1'
_cell_length_a   8.42160097
_cell_length_b   8.42160097
_cell_length_c   8.42160097
_cell_angle_alpha   90.00000000
_cell_angle_beta   90.00000000
_cell_angle_gamma   90.00000000
_symmetry_Int_Tables_number   1
_chemical_formula_structural   Li2Ti3NiO8
_chemical_formula_sum   'Li8 Ti12 Ni4 O32'
_cell_volume   597.28826249
_cell_formula_units_Z   4
loop_
 _symmetry_equiv_pos_site_id
 _symmetry_equiv_pos_as_xyz
  1  'x, y, z'
loop_
 _atom_site_type_symbol
 _atom_site_label
 _atom_site_symmetry_multiplicity
 _atom_site_fract_x
 _atom_site_fract_y
 _atom_site_fract_z
 _atom_site_occupancy
  Li  Li0  1  0.998765  0.998765  0.998765  1
  Li  Li1  1  0.251235  0.251235  0.251235  1
  Li  Li2  1  0.248765  0.748765  0.751235  1
  Li  Li3  1  0.501235  0.001235  0.498765  1
  Li  Li4  1  0.498765  0.501235  0.001235  1
  Li  Li5  1  0.751235  0.248765  0.748765  1
  Li  Li6  1  0.748765  0.751235  0.248765  1
  Li  Li7  1  0.001235  0.498765  0.501235  1
  Ti  Ti8  1  0.129632  0.120368  0.625000  1
  Ti  Ti9  1  0.125000  0.370368  0.879632  1
  Ti  Ti10  1  0.120368  0.625000  0.129632  1
  Ti  Ti11  1  0.379632  0.375000  0.629632  1
  Ti  Ti12  1  0.375000  0.629632  0.379632  1
  Ti  Ti13  1  0.370368  0.879632  0.125000  1
  Ti  Ti14  1  0.629632  0.379632  0.375000  1
  Ti  Ti15  1  0.625000  0.129632  0.120368  1
  Ti  Ti16  1  0.620368  0.875000  0.870368  1
  Ti  Ti17  1  0.879632  0.125000  0.370368  1
  Ti  Ti18  1  0.875000  0.870368  0.620368  1
  Ti  Ti19  1  0.870368  0.620368  0.875000  1
  Ni  Ni20  1  0.125000  0.875000  0.375000  1
  Ni  Ni21  1  0.375000  0.125000  0.875000  1
  Ni  Ni22  1  0.625000  0.625000  0.625000  1
  Ni  Ni23  1  0.875000  0.375000  0.125000  1
  O  O24  1  0.107273  0.123276  0.390652  1
  O  O25  1  0.109348  0.892727  0.623276  1
  O  O26  1  0.111137  0.611137  0.888863  1
  O  O27  1  0.126724  0.142727  0.859348  1
  O  O28  1  0.123276  0.390652  0.107273  1
  O  O29  1  0.138863  0.361137  0.638863  1
  O  O30  1  0.140652  0.626724  0.357273  1
  O  O31  1  0.142727  0.859348  0.126724  1
  O  O32  1  0.357273  0.140652  0.626724  1
  O  O33  1  0.359348  0.373276  0.857273  1
  O  O34  1  0.361137  0.638863  0.138863  1
  O  O35  1  0.376724  0.609348  0.607273  1
  O  O36  1  0.373276  0.857273  0.359348  1
  O  O37  1  0.388863  0.388863  0.388863  1
  O  O38  1  0.390652  0.107273  0.123276  1
  O  O39  1  0.392727  0.876724  0.890652  1
  O  O40  1  0.607273  0.376724  0.609348  1
  O  O41  1  0.609348  0.607273  0.376724  1
  O  O42  1  0.611137  0.888863  0.111137  1
  O  O43  1  0.626724  0.357273  0.140652  1
  O  O44  1  0.623276  0.109348  0.892727  1
  O  O45  1  0.638863  0.138863  0.361137  1
  O  O46  1  0.640652  0.873276  0.642727  1
  O  O47  1  0.642727  0.640652  0.873276  1
  O  O48  1  0.857273  0.359348  0.373276  1
  O  O49  1  0.859348  0.126724  0.142727  1
  O  O50  1  0.861137  0.861137  0.861137  1
  O  O51  1  0.876724  0.890652  0.392727  1
  O  O52  1  0.873276  0.642727  0.640652  1
  O  O53  1  0.888863  0.111137  0.611137  1
  O  O54  1  0.890652  0.392727  0.876724  1
  O  O55  1  0.892727  0.623276  0.109348  1
