# generated using pymatgen
data_V4CrCuO12
_symmetry_space_group_name_H-M   'P 1'
_cell_length_a   6.75402100
_cell_length_b   6.75402100
_cell_length_c   5.90867228
_cell_angle_alpha   75.24339690
_cell_angle_beta   104.75660310
_cell_angle_gamma   95.92253286
_symmetry_Int_Tables_number   1
_chemical_formula_structural   V4CrCuO12
_chemical_formula_sum   'V4 Cr1 Cu1 O12'
_cell_volume   251.83605329
_cell_formula_units_Z   1
loop_
 _symmetry_equiv_pos_site_id
 _symmetry_equiv_pos_as_xyz
  1  'x, y, z'
loop_
 _atom_site_type_symbol
 _atom_site_label
 _atom_site_symmetry_multiplicity
 _atom_site_fract_x
 _atom_site_fract_y
 _atom_site_fract_z
 _atom_site_occupancy
  V  V0  1  0.391838  0.790178  0.019154  1
  V  V1  1  0.200522  0.613984  0.504065  1
  V  V2  1  0.790178  0.391838  0.980846  1
  V  V3  1  0.613984  0.200522  0.495935  1
  Cr  Cr4  1  0.916878  0.916878  0.000000  1
  Cu  Cu5  1  0.093541  0.093541  0.500000  1
  O  O6  1  0.199457  0.961757  0.924782  1
  O  O7  1  0.629674  0.908001  0.038356  1
  O  O8  1  0.030653  0.811664  0.363430  1
  O  O9  1  0.345200  0.638926  0.801756  1
  O  O10  1  0.908001  0.629674  0.961644  1
  O  O11  1  0.371416  0.632298  0.306642  1
  O  O12  1  0.638926  0.345200  0.198244  1
  O  O13  1  0.081903  0.382113  0.530494  1
  O  O14  1  0.632298  0.371416  0.693358  1
  O  O15  1  0.961757  0.199457  0.075218  1
  O  O16  1  0.382113  0.081903  0.469506  1
  O  O17  1  0.811664  0.030653  0.636570  1
