# generated using pymatgen
data_Al2O3
_symmetry_space_group_name_H-M   'P 1'
_cell_length_a   4.82757315
_cell_length_b   5.09036339
_cell_length_c   14.09522064
_cell_angle_alpha   90.00000000
_cell_angle_beta   90.00000000
_cell_angle_gamma   90.00000000
_symmetry_Int_Tables_number   1
_chemical_formula_structural   Al2O3
_chemical_formula_sum   'Al16 O24'
_cell_volume   346.37738444
_cell_formula_units_Z   8
loop_
 _symmetry_equiv_pos_site_id
 _symmetry_equiv_pos_as_xyz
  1  'x, y, z'
loop_
 _atom_site_type_symbol
 _atom_site_label
 _atom_site_symmetry_multiplicity
 _atom_site_fract_x
 _atom_site_fract_y
 _atom_site_fract_z
 _atom_site_occupancy
  Al  Al0  1  0.999740  0.185049  0.072853  1
  Al  Al1  1  0.997959  0.747036  0.178637  1
  Al  Al2  1  0.999740  0.314951  0.572853  1
  Al  Al3  1  0.997959  0.752964  0.678637  1
  Al  Al4  1  0.502041  0.247036  0.178637  1
  Al  Al5  1  0.502041  0.252964  0.678637  1
  Al  Al6  1  0.500260  0.685049  0.072853  1
  Al  Al7  1  0.500260  0.814951  0.572853  1
  Al  Al8  1  0.499740  0.185049  0.427147  1
  Al  Al9  1  0.499740  0.314951  0.927147  1
  Al  Al10  1  0.497959  0.747036  0.321363  1
  Al  Al11  1  0.497959  0.752964  0.821363  1
  Al  Al12  1  0.000260  0.685049  0.427147  1
  Al  Al13  1  0.002041  0.247036  0.321363  1
  Al  Al14  1  0.002041  0.252964  0.821363  1
  Al  Al15  1  0.000260  0.814951  0.927147  1
  O  O16  1  0.143010  0.118660  0.203287  1
  O  O17  1  0.143010  0.381340  0.703287  1
  O  O18  1  0.153792  0.836510  0.049840  1
  O  O19  1  0.153792  0.663490  0.549840  1
  O  O20  1  0.198003  0.963291  0.376610  1
  O  O21  1  0.198003  0.536709  0.876610  1
  O  O22  1  0.301997  0.463291  0.376610  1
  O  O23  1  0.301997  0.036709  0.876610  1
  O  O24  1  0.346208  0.163490  0.549840  1
  O  O25  1  0.346208  0.336510  0.049840  1
  O  O26  1  0.356990  0.618660  0.203287  1
  O  O27  1  0.356990  0.881340  0.703287  1
  O  O28  1  0.643010  0.118660  0.296713  1
  O  O29  1  0.643010  0.381340  0.796713  1
  O  O30  1  0.653792  0.836510  0.450160  1
  O  O31  1  0.653792  0.663490  0.950160  1
  O  O32  1  0.698003  0.536709  0.623390  1
  O  O33  1  0.698003  0.963291  0.123390  1
  O  O34  1  0.801997  0.463291  0.123390  1
  O  O35  1  0.801997  0.036709  0.623390  1
  O  O36  1  0.846208  0.336510  0.450160  1
  O  O37  1  0.846208  0.163490  0.950160  1
  O  O38  1  0.856990  0.881340  0.796713  1
  O  O39  1  0.856990  0.618660  0.296713  1
