# generated using pymatgen
data_Hf(MoO4)2
_symmetry_space_group_name_H-M   'P 1'
_cell_length_a   7.02024147
_cell_length_b   7.02024147
_cell_length_c   7.55903930
_cell_angle_alpha   64.09818787
_cell_angle_beta   115.90181213
_cell_angle_gamma   109.63279829
_symmetry_Int_Tables_number   1
_chemical_formula_structural   Hf(MoO4)2
_chemical_formula_sum   'Hf2 Mo4 O16'
_cell_volume   296.55925112
_cell_formula_units_Z   2
loop_
 _symmetry_equiv_pos_site_id
 _symmetry_equiv_pos_as_xyz
  1  'x, y, z'
loop_
 _atom_site_type_symbol
 _atom_site_label
 _atom_site_symmetry_multiplicity
 _atom_site_fract_x
 _atom_site_fract_y
 _atom_site_fract_z
 _atom_site_occupancy
  Hf  Hf0  1  0.979502  0.979502  0.750000  1
  Hf  Hf1  1  0.020498  0.020498  0.250000  1
  Mo  Mo2  1  0.493090  0.062387  0.758201  1
  Mo  Mo3  1  0.937613  0.506910  0.258201  1
  Mo  Mo4  1  0.506910  0.937613  0.241799  1
  Mo  Mo5  1  0.062387  0.493090  0.741799  1
  O  O6  1  0.344677  0.052515  0.287798  1
  O  O7  1  0.313671  0.004003  0.937736  1
  O  O8  1  0.947485  0.655323  0.787798  1
  O  O9  1  0.666723  0.416051  0.165389  1
  O  O10  1  0.980158  0.795963  0.077712  1
  O  O11  1  0.052515  0.344677  0.212202  1
  O  O12  1  0.019842  0.204037  0.922288  1
  O  O13  1  0.795963  0.980158  0.422288  1
  O  O14  1  0.583949  0.333277  0.665389  1
  O  O15  1  0.655323  0.947485  0.712202  1
  O  O16  1  0.204037  0.019842  0.577712  1
  O  O17  1  0.004003  0.313671  0.562264  1
  O  O18  1  0.686329  0.995997  0.062264  1
  O  O19  1  0.416051  0.666723  0.334611  1
  O  O20  1  0.333277  0.583949  0.834611  1
  O  O21  1  0.995997  0.686329  0.437736  1
