# generated using pymatgen
data_Li6CoCu3(PO4)4
_symmetry_space_group_name_H-M   'P 1'
_cell_length_a   5.07791608
_cell_length_b   6.26020455
_cell_length_c   10.45222691
_cell_angle_alpha   90.01820107
_cell_angle_beta   90.92786824
_cell_angle_gamma   90.13556462
_symmetry_Int_Tables_number   1
_chemical_formula_structural   Li6CoCu3(PO4)4
_chemical_formula_sum   'Li6 Co1 Cu3 P4 O16'
_cell_volume   332.21916180
_cell_formula_units_Z   1
loop_
 _symmetry_equiv_pos_site_id
 _symmetry_equiv_pos_as_xyz
  1  'x, y, z'
loop_
 _atom_site_type_symbol
 _atom_site_label
 _atom_site_symmetry_multiplicity
 _atom_site_fract_x
 _atom_site_fract_y
 _atom_site_fract_z
 _atom_site_occupancy
  Li  Li0  1  0.896704  0.488968  0.885360  1
  Li  Li1  1  0.896918  0.011053  0.885174  1
  Li  Li2  1  0.619790  0.494005  0.367102  1
  Li  Li3  1  0.620281  0.005950  0.367559  1
  Li  Li4  1  0.357864  0.996499  0.641859  1
  Li  Li5  1  0.357960  0.503859  0.641728  1
  Co  Co6  1  0.078538  0.243027  0.276192  1
  Cu  Cu7  1  0.855579  0.750125  0.658862  1
  Cu  Cu8  1  0.661715  0.751082  0.164224  1
  Cu  Cu9  1  0.352592  0.250127  0.861122  1
  P  P10  1  0.869411  0.250022  0.588592  1
  P  P11  1  0.614581  0.251344  0.111605  1
  P  P12  1  0.401697  0.750136  0.897394  1
  P  P13  1  0.128223  0.749540  0.401373  1
  O  O14  1  0.790366  0.250126  0.443773  1
  O  O15  1  0.823940  0.750615  0.382496  1
  O  O16  1  0.744896  0.051696  0.656479  1
  O  O17  1  0.745192  0.448083  0.656465  1
  O  O18  1  0.743108  0.059384  0.187481  1
  O  O19  1  0.743032  0.445248  0.184562  1
  O  O20  1  0.700865  0.750009  0.865564  1
  O  O21  1  0.714632  0.248846  0.970544  1
  O  O22  1  0.357620  0.750515  0.040401  1
  O  O23  1  0.313478  0.250051  0.115249  1
  O  O24  1  0.265317  0.550773  0.830493  1
  O  O25  1  0.265586  0.948952  0.830445  1
  O  O26  1  0.249106  0.956236  0.343185  1
  O  O27  1  0.246176  0.542905  0.343734  1
  O  O28  1  0.170427  0.250046  0.604992  1
  O  O29  1  0.199141  0.750777  0.549452  1
