# generated using pymatgen
data_KHoO2
_symmetry_space_group_name_H-M   'P 1'
_cell_length_a   6.56601929
_cell_length_b   6.56601929
_cell_length_c   6.56601929
_cell_angle_alpha   30.56354605
_cell_angle_beta   30.56354605
_cell_angle_gamma   30.56354605
_symmetry_Int_Tables_number   1
_chemical_formula_structural   KHoO2
_chemical_formula_sum   'K1 Ho1 O2'
_cell_volume   64.88889898
_cell_formula_units_Z   1
loop_
 _symmetry_equiv_pos_site_id
 _symmetry_equiv_pos_as_xyz
  1  'x, y, z'
loop_
 _atom_site_type_symbol
 _atom_site_label
 _atom_site_symmetry_multiplicity
 _atom_site_fract_x
 _atom_site_fract_y
 _atom_site_fract_z
 _atom_site_occupancy
  K  K0  1  0.000000  0.000000  0.000000  1
  Ho  Ho1  1  0.500000  0.500000  0.500000  1
  O  O2  1  0.771939  0.771940  0.771940  1
  O  O3  1  0.228061  0.228061  0.228061  1
