# generated using pymatgen
data_Li8Sb2S
_symmetry_space_group_name_H-M   'P 1'
_cell_length_a   7.92165192
_cell_length_b   7.92165192
_cell_length_c   9.60016495
_cell_angle_alpha   61.06445563
_cell_angle_beta   118.93554437
_cell_angle_gamma   118.42151402
_symmetry_Int_Tables_number   1
_chemical_formula_structural   Li8Sb2S
_chemical_formula_sum   'Li16 Sb4 S2'
_cell_volume   437.80193509
_cell_formula_units_Z   2
loop_
 _symmetry_equiv_pos_site_id
 _symmetry_equiv_pos_as_xyz
  1  'x, y, z'
loop_
 _atom_site_type_symbol
 _atom_site_label
 _atom_site_symmetry_multiplicity
 _atom_site_fract_x
 _atom_site_fract_y
 _atom_site_fract_z
 _atom_site_occupancy
  Li  Li0  1  0.889007  0.626970  0.701754  1
  Li  Li1  1  0.270212  0.922873  0.872765  1
  Li  Li2  1  0.922873  0.270212  0.627235  1
  Li  Li3  1  0.626970  0.889007  0.798246  1
  Li  Li4  1  0.270307  0.009536  0.548147  1
  Li  Li5  1  0.990464  0.729693  0.048147  1
  Li  Li6  1  0.563715  0.428685  0.419160  1
  Li  Li7  1  0.571315  0.436285  0.919160  1
  Li  Li8  1  0.428685  0.563715  0.080840  1
  Li  Li9  1  0.436285  0.571315  0.580840  1
  Li  Li10  1  0.009536  0.270307  0.951853  1
  Li  Li11  1  0.729693  0.990464  0.451853  1
  Li  Li12  1  0.373030  0.110993  0.201754  1
  Li  Li13  1  0.077127  0.729788  0.372765  1
  Li  Li14  1  0.729788  0.077127  0.127235  1
  Li  Li15  1  0.110993  0.373030  0.298246  1
  Sb  Sb16  1  0.597722  0.243668  0.755607  1
  Sb  Sb17  1  0.243668  0.597722  0.744393  1
  Sb  Sb18  1  0.756332  0.402278  0.255607  1
  Sb  Sb19  1  0.402278  0.756332  0.244393  1
  S  S20  1  0.099116  0.099116  0.250000  1
  S  S21  1  0.900884  0.900884  0.750000  1
