# generated using pymatgen
data_Na2NiO2
_symmetry_space_group_name_H-M   'P 1'
_cell_length_a   5.52341779
_cell_length_b   5.52341779
_cell_length_c   5.52341779
_cell_angle_alpha   149.88703397
_cell_angle_beta   131.34169759
_cell_angle_gamma   58.29228972
_symmetry_Int_Tables_number   1
_chemical_formula_structural   Na2NiO2
_chemical_formula_sum   'Na2 Ni1 O2'
_cell_volume   63.00165930
_cell_formula_units_Z   1
loop_
 _symmetry_equiv_pos_site_id
 _symmetry_equiv_pos_as_xyz
  1  'x, y, z'
loop_
 _atom_site_type_symbol
 _atom_site_label
 _atom_site_symmetry_multiplicity
 _atom_site_fract_x
 _atom_site_fract_y
 _atom_site_fract_z
 _atom_site_occupancy
  Na  Na0  1  0.678858  0.678858  0.000000  1
  Na  Na1  1  0.321142  0.321142  0.000000  1
  Ni  Ni2  1  0.000000  0.000000  0.000000  1
  O  O3  1  0.869216  0.369216  0.500000  1
  O  O4  1  0.130784  0.630784  0.500000  1
