# generated using pymatgen
data_Li4Ti5S12
_symmetry_space_group_name_H-M   'P 1'
_cell_length_a   6.49327314
_cell_length_b   11.66061611
_cell_length_c   12.01612417
_cell_angle_alpha   72.86033361
_cell_angle_beta   76.55552676
_cell_angle_gamma   78.38063938
_symmetry_Int_Tables_number   1
_chemical_formula_structural   Li4Ti5S12
_chemical_formula_sum   'Li8 Ti10 S24'
_cell_volume   836.88866933
_cell_formula_units_Z   2
loop_
 _symmetry_equiv_pos_site_id
 _symmetry_equiv_pos_as_xyz
  1  'x, y, z'
loop_
 _atom_site_type_symbol
 _atom_site_label
 _atom_site_symmetry_multiplicity
 _atom_site_fract_x
 _atom_site_fract_y
 _atom_site_fract_z
 _atom_site_occupancy
  Li  Li0  1  0.146593  0.407151  0.404216  1
  Li  Li1  1  0.355995  0.580659  0.110714  1
  Li  Li2  1  0.274450  0.912114  0.021726  1
  Li  Li3  1  0.309615  0.766913  0.556316  1
  Li  Li4  1  0.690385  0.233087  0.443684  1
  Li  Li5  1  0.725550  0.087886  0.978274  1
  Li  Li6  1  0.644005  0.419341  0.889286  1
  Li  Li7  1  0.853407  0.592849  0.595784  1
  Ti  Ti8  1  0.261261  0.091579  0.276288  1
  Ti  Ti9  1  0.191781  0.092269  0.677660  1
  Ti  Ti10  1  0.189337  0.275418  0.922571  1
  Ti  Ti11  1  0.124264  0.592369  0.860183  1
  Ti  Ti12  1  0.420595  0.425976  0.646799  1
  Ti  Ti13  1  0.579405  0.574024  0.353201  1
  Ti  Ti14  1  0.875736  0.407631  0.139817  1
  Ti  Ti15  1  0.810663  0.724582  0.077429  1
  Ti  Ti16  1  0.808219  0.907731  0.322340  1
  Ti  Ti17  1  0.738739  0.908421  0.723712  1
  S  S18  1  0.050085  0.265457  0.302438  1
  S  S19  1  0.245029  0.420185  0.017172  1
  S  S20  1  0.341470  0.102203  0.082689  1
  S  S21  1  0.102522  0.103378  0.866934  1
  S  S22  1  0.046382  0.429703  0.772276  1
  S  S23  1  0.110533  0.918354  0.384404  1
  S  S24  1  0.320084  0.263642  0.569307  1
  S  S25  1  0.252784  0.570702  0.484014  1
  S  S26  1  0.568839  0.080369  0.342969  1
  S  S27  1  0.171649  0.731158  0.946970  1
  S  S28  1  0.540493  0.417648  0.270497  1
  S  S29  1  0.465577  0.731263  0.192596  1
  S  S30  1  0.534423  0.268737  0.807404  1
  S  S31  1  0.459507  0.582352  0.729503  1
  S  S32  1  0.828351  0.268842  0.053030  1
  S  S33  1  0.431161  0.919631  0.657031  1
  S  S34  1  0.747216  0.429298  0.515986  1
  S  S35  1  0.679916  0.736358  0.430693  1
  S  S36  1  0.889467  0.081646  0.615596  1
  S  S37  1  0.953618  0.570297  0.227724  1
  S  S38  1  0.897478  0.896622  0.133066  1
  S  S39  1  0.658530  0.897797  0.917311  1
  S  S40  1  0.754971  0.579815  0.982828  1
  S  S41  1  0.949915  0.734543  0.697562  1
