# generated using pymatgen
data_Li4Mn5(NiO6)2
_symmetry_space_group_name_H-M   'P 1'
_cell_length_a   5.18731884
_cell_length_b   8.91998187
_cell_length_c   9.83410020
_cell_angle_alpha   90.00000000
_cell_angle_beta   100.70250130
_cell_angle_gamma   90.00000000
_symmetry_Int_Tables_number   1
_chemical_formula_structural   Li4Mn5(NiO6)2
_chemical_formula_sum   'Li8 Mn10 Ni4 O24'
_cell_volume   447.11616944
_cell_formula_units_Z   2
loop_
 _symmetry_equiv_pos_site_id
 _symmetry_equiv_pos_as_xyz
  1  'x, y, z'
loop_
 _atom_site_type_symbol
 _atom_site_label
 _atom_site_symmetry_multiplicity
 _atom_site_fract_x
 _atom_site_fract_y
 _atom_site_fract_z
 _atom_site_occupancy
  Li  Li0  1  0.486818  0.917946  0.736534  1
  Li  Li1  1  0.007374  0.589006  0.257418  1
  Li  Li2  1  0.750508  0.575754  0.504565  1
  Li  Li3  1  0.495372  0.580318  0.741217  1
  Li  Li4  1  0.513182  0.417946  0.263466  1
  Li  Li5  1  0.249492  0.075754  0.495435  1
  Li  Li6  1  0.992626  0.089006  0.742582  1
  Li  Li7  1  0.504628  0.080318  0.258783  1
  Mn  Mn8  1  0.241895  0.927425  0.001585  1
  Mn  Mn9  1  0.755513  0.918479  0.499428  1
  Mn  Mn10  1  0.989953  0.736648  0.739557  1
  Mn  Mn11  1  0.515391  0.745945  0.259164  1
  Mn  Mn12  1  0.253634  0.584470  0.996646  1
  Mn  Mn13  1  0.244487  0.418479  0.500572  1
  Mn  Mn14  1  0.758105  0.427425  0.998415  1
  Mn  Mn15  1  0.010047  0.236648  0.260443  1
  Mn  Mn16  1  0.484609  0.245945  0.740836  1
  Mn  Mn17  1  0.746366  0.084470  0.003354  1
  Ni  Ni18  1  0.247271  0.746799  0.494192  1
  Ni  Ni19  1  0.754495  0.755257  0.005574  1
  Ni  Ni20  1  0.245505  0.255257  0.994426  1
  Ni  Ni21  1  0.752729  0.246799  0.505808  1
  O  O22  1  0.100082  0.899526  0.622817  1
  O  O23  1  0.886611  0.925790  0.894925  1
  O  O24  1  0.595110  0.925345  0.105099  1
  O  O25  1  0.852080  0.753818  0.381926  1
  O  O26  1  0.165098  0.742335  0.120797  1
  O  O27  1  0.415228  0.902375  0.381252  1
  O  O28  1  0.645062  0.758443  0.624802  1
  O  O29  1  0.135853  0.579224  0.609675  1
  O  O30  1  0.859452  0.601024  0.875314  1
  O  O31  1  0.339070  0.747826  0.872936  1
  O  O32  1  0.640049  0.593471  0.132547  1
  O  O33  1  0.113389  0.425790  0.105075  1
  O  O34  1  0.899918  0.399526  0.377183  1
  O  O35  1  0.367487  0.572763  0.383024  1
  O  O36  1  0.147920  0.253818  0.618074  1
  O  O37  1  0.584772  0.402375  0.618748  1
  O  O38  1  0.404890  0.425345  0.894901  1
  O  O39  1  0.834902  0.242335  0.879203  1
  O  O40  1  0.140548  0.101024  0.124686  1
  O  O41  1  0.354938  0.258443  0.375198  1
  O  O42  1  0.660930  0.247826  0.127064  1
  O  O43  1  0.864147  0.079224  0.390325  1
  O  O44  1  0.632513  0.072763  0.616976  1
  O  O45  1  0.359951  0.093471  0.867453  1
