# generated using pymatgen
data_Mn5Fe3O16
_symmetry_space_group_name_H-M   'P 1'
_cell_length_a   5.86271835
_cell_length_b   5.86271835
_cell_length_c   8.89959083
_cell_angle_alpha   89.46367468
_cell_angle_beta   90.53632532
_cell_angle_gamma   120.20941375
_symmetry_Int_Tables_number   1
_chemical_formula_structural   Mn5Fe3O16
_chemical_formula_sum   'Mn5 Fe3 O16'
_cell_volume   264.33404362
_cell_formula_units_Z   1
loop_
 _symmetry_equiv_pos_site_id
 _symmetry_equiv_pos_as_xyz
  1  'x, y, z'
loop_
 _atom_site_type_symbol
 _atom_site_label
 _atom_site_symmetry_multiplicity
 _atom_site_fract_x
 _atom_site_fract_y
 _atom_site_fract_z
 _atom_site_occupancy
  Mn  Mn0  1  0.667739  0.332261  0.512741  1
  Mn  Mn1  1  0.830198  0.169802  0.788605  1
  Mn  Mn2  1  0.332581  0.667419  0.013214  1
  Mn  Mn3  1  0.664699  0.832790  0.289396  1
  Mn  Mn4  1  0.167210  0.335301  0.289396  1
  Fe  Fe5  1  0.831885  0.668901  0.792226  1
  Fe  Fe6  1  0.331099  0.168115  0.792226  1
  Fe  Fe7  1  0.165028  0.834972  0.292951  1
  O  O8  1  0.830695  0.665707  0.399666  1
  O  O9  1  0.522798  0.477202  0.652444  1
  O  O10  1  0.670300  0.329700  0.901362  1
  O  O11  1  0.995362  0.004638  0.684531  1
  O  O12  1  0.996411  0.003589  0.183679  1
  O  O13  1  0.334293  0.169305  0.399666  1
  O  O14  1  0.956445  0.472136  0.656418  1
  O  O15  1  0.527864  0.043555  0.656418  1
  O  O16  1  0.170357  0.829643  0.898776  1
  O  O17  1  0.835113  0.164887  0.399448  1
  O  O18  1  0.481549  0.956861  0.158764  1
  O  O19  1  0.043139  0.518451  0.158764  1
  O  O20  1  0.337168  0.662832  0.399392  1
  O  O21  1  0.662847  0.836196  0.901497  1
  O  O22  1  0.478442  0.521558  0.161419  1
  O  O23  1  0.163804  0.337153  0.901497  1
