# generated using pymatgen
data_Li4NiSn3(PO4)4
_symmetry_space_group_name_H-M   'P 1'
_cell_length_a   4.84534959
_cell_length_b   6.74203580
_cell_length_c   10.98249555
_cell_angle_alpha   90.00000000
_cell_angle_beta   91.10517513
_cell_angle_gamma   90.00000000
_symmetry_Int_Tables_number   1
_chemical_formula_structural   Li4NiSn3(PO4)4
_chemical_formula_sum   'Li4 Ni1 Sn3 P4 O16'
_cell_volume   358.70415677
_cell_formula_units_Z   1
loop_
 _symmetry_equiv_pos_site_id
 _symmetry_equiv_pos_as_xyz
  1  'x, y, z'
loop_
 _atom_site_type_symbol
 _atom_site_label
 _atom_site_symmetry_multiplicity
 _atom_site_fract_x
 _atom_site_fract_y
 _atom_site_fract_z
 _atom_site_occupancy
  Li  Li0  1  0.983172  0.262591  0.990733  1
  Li  Li1  1  0.983172  0.737409  0.990733  1
  Li  Li2  1  0.499398  0.750500  0.509927  1
  Li  Li3  1  0.499398  0.249500  0.509927  1
  Ni  Ni4  1  0.022732  0.000000  0.726721  1
  Sn  Sn5  1  0.475006  0.000000  0.219358  1
  Sn  Sn6  1  0.534096  0.500000  0.783107  1
  Sn  Sn7  1  0.952904  0.500000  0.295198  1
  P  P8  1  0.087297  0.500000  0.587284  1
  P  P9  1  0.386933  0.500000  0.076241  1
  P  P10  1  0.618894  0.000000  0.896123  1
  P  P11  1  0.914410  0.000000  0.439982  1
  O  O12  1  0.235883  0.500000  0.459799  1
  O  O13  1  0.200859  0.312486  0.656901  1
  O  O14  1  0.200859  0.687514  0.656901  1
  O  O15  1  0.231281  0.000000  0.438712  1
  O  O16  1  0.302493  0.000000  0.881323  1
  O  O17  1  0.277238  0.314530  0.147033  1
  O  O18  1  0.277238  0.685470  0.147033  1
  O  O19  1  0.230794  0.500000  0.949636  1
  O  O20  1  0.723927  0.000000  0.031724  1
  O  O21  1  0.763400  0.819700  0.832947  1
  O  O22  1  0.763400  0.180300  0.832947  1
  O  O23  1  0.700703  0.500000  0.059434  1
  O  O24  1  0.771607  0.500000  0.569550  1
  O  O25  1  0.784905  0.817037  0.370109  1
  O  O26  1  0.784905  0.182963  0.370109  1
  O  O27  1  0.793092  0.000000  0.570505  1
