# generated using pymatgen
data_Na3FeO4
_symmetry_space_group_name_H-M   'P 1'
_cell_length_a   7.02791281
_cell_length_b   7.44571282
_cell_length_c   8.21153889
_cell_angle_alpha   90.00000000
_cell_angle_beta   90.00000000
_cell_angle_gamma   90.00000000
_symmetry_Int_Tables_number   1
_chemical_formula_structural   Na3FeO4
_chemical_formula_sum   'Na12 Fe4 O16'
_cell_volume   429.69193312
_cell_formula_units_Z   4
loop_
 _symmetry_equiv_pos_site_id
 _symmetry_equiv_pos_as_xyz
  1  'x, y, z'
loop_
 _atom_site_type_symbol
 _atom_site_label
 _atom_site_symmetry_multiplicity
 _atom_site_fract_x
 _atom_site_fract_y
 _atom_site_fract_z
 _atom_site_occupancy
  Na  Na0  1  0.956624  0.729889  0.036941  1
  Na  Na1  1  0.956624  0.729889  0.463059  1
  Na  Na2  1  0.828181  0.951450  0.750000  1
  Na  Na3  1  0.671819  0.451450  0.250000  1
  Na  Na4  1  0.543376  0.229889  0.536941  1
  Na  Na5  1  0.543376  0.229889  0.963059  1
  Na  Na6  1  0.456624  0.770111  0.036941  1
  Na  Na7  1  0.456624  0.770111  0.463059  1
  Na  Na8  1  0.328181  0.548550  0.750000  1
  Na  Na9  1  0.171819  0.048550  0.250000  1
  Na  Na10  1  0.043376  0.270111  0.536941  1
  Na  Na11  1  0.043376  0.270111  0.963059  1
  Fe  Fe12  1  0.783309  0.496784  0.750000  1
  Fe  Fe13  1  0.716691  0.996784  0.250000  1
  Fe  Fe14  1  0.283309  0.003216  0.750000  1
  Fe  Fe15  1  0.216691  0.503216  0.250000  1
  O  O16  1  0.999902  0.612186  0.750000  1
  O  O17  1  0.820402  0.045237  0.061925  1
  O  O18  1  0.820402  0.045237  0.438075  1
  O  O19  1  0.801427  0.260881  0.750000  1
  O  O20  1  0.698573  0.760881  0.250000  1
  O  O21  1  0.679598  0.545237  0.561925  1
  O  O22  1  0.679598  0.545237  0.938075  1
  O  O23  1  0.500098  0.112186  0.250000  1
  O  O24  1  0.499902  0.887814  0.750000  1
  O  O25  1  0.320402  0.454763  0.061925  1
  O  O26  1  0.320402  0.454763  0.438075  1
  O  O27  1  0.301427  0.239119  0.750000  1
  O  O28  1  0.198573  0.739119  0.250000  1
  O  O29  1  0.179598  0.954763  0.561925  1
  O  O30  1  0.179598  0.954763  0.938075  1
  O  O31  1  0.000098  0.387814  0.250000  1
