# generated using pymatgen
data_Li2TiNi2O5
_symmetry_space_group_name_H-M   'P 1'
_cell_length_a   7.71999625
_cell_length_b   7.71999625
_cell_length_c   5.18299809
_cell_angle_alpha   83.05862264
_cell_angle_beta   96.94137736
_cell_angle_gamma   38.98086068
_symmetry_Int_Tables_number   1
_chemical_formula_structural   Li2TiNi2O5
_chemical_formula_sum   'Li4 Ti2 Ni4 O10'
_cell_volume   181.12037003
_cell_formula_units_Z   2
loop_
 _symmetry_equiv_pos_site_id
 _symmetry_equiv_pos_as_xyz
  1  'x, y, z'
loop_
 _atom_site_type_symbol
 _atom_site_label
 _atom_site_symmetry_multiplicity
 _atom_site_fract_x
 _atom_site_fract_y
 _atom_site_fract_z
 _atom_site_occupancy
  Li  Li0  1  0.301518  0.301518  0.500000  1
  Li  Li1  1  0.201750  0.201750  0.000000  1
  Li  Li2  1  0.897488  0.897488  0.500000  1
  Li  Li3  1  0.599786  0.599786  0.000000  1
  Ti  Ti4  1  0.099797  0.099797  0.500000  1
  Ti  Ti5  1  0.799047  0.799047  0.000000  1
  Ni  Ni6  1  0.400000  0.400000  0.000000  1
  Ni  Ni7  1  0.701553  0.701553  0.500000  1
  Ni  Ni8  1  0.496117  0.496117  0.500000  1
  Ni  Ni9  1  0.000995  0.000995  0.000000  1
  O  O10  1  0.145464  0.648509  0.235142  1
  O  O11  1  0.027537  0.572342  0.773477  1
  O  O12  1  0.334035  0.862982  0.271610  1
  O  O13  1  0.572342  0.027537  0.226523  1
  O  O14  1  0.648509  0.145464  0.764858  1
  O  O15  1  0.246524  0.764302  0.741443  1
  O  O16  1  0.451760  0.948510  0.744182  1
  O  O17  1  0.764302  0.246524  0.258557  1
  O  O18  1  0.948510  0.451760  0.255818  1
  O  O19  1  0.862982  0.334035  0.728390  1
