# generated using pymatgen
data_Na4Sn2C4SO16
_symmetry_space_group_name_H-M   'P 1'
_cell_length_a   10.31555338
_cell_length_b   10.22110500
_cell_length_c   9.94921293
_cell_angle_alpha   61.49975178
_cell_angle_beta   60.54808898
_cell_angle_gamma   57.95215923
_symmetry_Int_Tables_number   1
_chemical_formula_structural   Na4Sn2C4SO16
_chemical_formula_sum   'Na8 Sn4 C8 S2 O32'
_cell_volume   740.25950946
_cell_formula_units_Z   2
loop_
 _symmetry_equiv_pos_site_id
 _symmetry_equiv_pos_as_xyz
  1  'x, y, z'
loop_
 _atom_site_type_symbol
 _atom_site_label
 _atom_site_symmetry_multiplicity
 _atom_site_fract_x
 _atom_site_fract_y
 _atom_site_fract_z
 _atom_site_occupancy
  Na  Na0  1  0.798040  0.201960  0.798040  1
  Na  Na1  1  0.203268  0.796732  0.796732  1
  Na  Na2  1  0.796732  0.203268  0.203268  1
  Na  Na3  1  0.201960  0.798040  0.201960  1
  Na  Na4  1  0.048040  0.451960  0.048040  1
  Na  Na5  1  0.453268  0.046732  0.046732  1
  Na  Na6  1  0.046732  0.453268  0.453268  1
  Na  Na7  1  0.451960  0.048040  0.451960  1
  Sn  Sn8  1  0.125000  0.625000  0.625000  1
  Sn  Sn9  1  0.625000  0.125000  0.625000  1
  Sn  Sn10  1  0.625000  0.625000  0.625000  1
  Sn  Sn11  1  0.625000  0.625000  0.125000  1
  C  C12  1  0.406749  0.416057  0.789692  1
  C  C13  1  0.416057  0.406749  0.387503  1
  C  C14  1  0.789692  0.387503  0.406749  1
  C  C15  1  0.387503  0.789692  0.416057  1
  C  C16  1  0.862497  0.460308  0.833943  1
  C  C17  1  0.460308  0.862497  0.843251  1
  C  C18  1  0.833943  0.843251  0.862497  1
  C  C19  1  0.843251  0.833943  0.460308  1
  S  S20  1  1.000000  1.000000  0.000000  1
  S  S21  1  0.250000  0.250000  0.250000  1
  O  O22  1  0.420489  0.538091  0.783353  1
  O  O23  1  0.529253  0.276673  0.790955  1
  O  O24  1  0.276673  0.529253  0.403119  1
  O  O25  1  0.818488  0.979114  0.747741  1
  O  O26  1  0.538091  0.420489  0.258067  1
  O  O27  1  0.790955  0.403119  0.529253  1
  O  O28  1  0.783353  0.258067  0.420489  1
  O  O29  1  0.979114  0.818488  0.454656  1
  O  O30  1  0.795344  0.502259  0.270886  1
  O  O31  1  0.258067  0.783353  0.538091  1
  O  O32  1  0.819318  0.067896  0.057330  1
  O  O33  1  0.192670  0.194544  0.430682  1
  O  O34  1  0.846881  0.459045  0.973327  1
  O  O35  1  0.747741  0.454656  0.818489  1
  O  O36  1  0.067896  0.819318  0.055456  1
  O  O37  1  0.055456  0.057330  0.067896  1
  O  O38  1  0.194544  0.192670  0.182104  1
  O  O39  1  0.182104  0.430682  0.194544  1
  O  O40  1  0.502259  0.795344  0.431512  1
  O  O41  1  0.403119  0.790955  0.276673  1
  O  O42  1  0.057330  0.055456  0.819318  1
  O  O43  1  0.430682  0.182104  0.192670  1
  O  O44  1  0.991933  0.466647  0.711909  1
  O  O45  1  0.454656  0.747741  0.979114  1
  O  O46  1  0.270886  0.431511  0.795344  1
  O  O47  1  0.466647  0.991933  0.829511  1
  O  O48  1  0.459045  0.846881  0.720747  1
  O  O49  1  0.711909  0.829511  0.991933  1
  O  O50  1  0.431512  0.270886  0.502259  1
  O  O51  1  0.973327  0.720747  0.846881  1
  O  O52  1  0.720747  0.973327  0.459045  1
  O  O53  1  0.829511  0.711909  0.466647  1
