# generated using pymatgen
data_Li3Bi(BO3)2
_symmetry_space_group_name_H-M   'P 1'
_cell_length_a   5.23102866
_cell_length_b   7.39190513
_cell_length_c   8.61792164
_cell_angle_alpha   115.29446229
_cell_angle_beta   91.73996816
_cell_angle_gamma   90.95181898
_symmetry_Int_Tables_number   1
_chemical_formula_structural   Li3Bi(BO3)2
_chemical_formula_sum   'Li6 Bi2 B4 O12'
_cell_volume   300.98219907
_cell_formula_units_Z   2
loop_
 _symmetry_equiv_pos_site_id
 _symmetry_equiv_pos_as_xyz
  1  'x, y, z'
loop_
 _atom_site_type_symbol
 _atom_site_label
 _atom_site_symmetry_multiplicity
 _atom_site_fract_x
 _atom_site_fract_y
 _atom_site_fract_z
 _atom_site_occupancy
  Li  Li0  1  0.906349  0.268516  0.789654  1
  Li  Li1  1  0.672999  0.437386  0.569915  1
  Li  Li2  1  0.828386  0.442684  0.266284  1
  Li  Li3  1  0.171614  0.557316  0.733716  1
  Li  Li4  1  0.327001  0.562614  0.430085  1
  Li  Li5  1  0.093651  0.731484  0.210346  1
  Bi  Bi6  1  0.579699  0.024043  0.220891  1
  Bi  Bi7  1  0.420301  0.975957  0.779109  1
  B  B8  1  0.137303  0.196858  0.425863  1
  B  B9  1  0.693060  0.656059  0.926673  1
  B  B10  1  0.306940  0.343941  0.073327  1
  B  B11  1  0.862697  0.803142  0.574137  1
  O  O12  1  0.783405  0.002023  0.651263  1
  O  O13  1  0.210777  0.267348  0.903877  1
  O  O14  1  0.881607  0.236568  0.400272  1
  O  O15  1  0.308233  0.351115  0.515703  1
  O  O16  1  0.819221  0.516894  0.794644  1
  O  O17  1  0.540094  0.259960  0.098310  1
  O  O18  1  0.459906  0.740040  0.901690  1
  O  O19  1  0.180779  0.483106  0.205356  1
  O  O20  1  0.691767  0.648885  0.484297  1
  O  O21  1  0.118393  0.763432  0.599728  1
  O  O22  1  0.789223  0.732652  0.096123  1
  O  O23  1  0.216595  0.997977  0.348737  1
