# generated using pymatgen
data_LiFePCO7
_symmetry_space_group_name_H-M   'P 1'
_cell_length_a   5.14290047
_cell_length_b   8.41198187
_cell_length_c   12.88410389
_cell_angle_alpha   90.34115398
_cell_angle_beta   90.06582969
_cell_angle_gamma   94.89313589
_symmetry_Int_Tables_number   1
_chemical_formula_structural   LiFePCO7
_chemical_formula_sum   'Li4 Fe4 P4 C4 O28'
_cell_volume   555.34990036
_cell_formula_units_Z   4
loop_
 _symmetry_equiv_pos_site_id
 _symmetry_equiv_pos_as_xyz
  1  'x, y, z'
loop_
 _atom_site_type_symbol
 _atom_site_label
 _atom_site_symmetry_multiplicity
 _atom_site_fract_x
 _atom_site_fract_y
 _atom_site_fract_z
 _atom_site_occupancy
  Li  Li0  1  0.770089  0.891549  0.126282  1
  Li  Li1  1  0.244656  0.718079  0.727062  1
  Li  Li2  1  0.230449  0.109781  0.378066  1
  Li  Li3  1  0.224920  0.109389  0.876153  1
  Fe  Fe4  1  0.805112  0.668279  0.376299  1
  Fe  Fe5  1  0.801837  0.663204  0.878864  1
  Fe  Fe6  1  0.196168  0.334243  0.125686  1
  Fe  Fe7  1  0.200316  0.334461  0.624663  1
  P  P8  1  0.726276  0.577745  0.126316  1
  P  P9  1  0.732673  0.576574  0.626226  1
  P  P10  1  0.276935  0.424871  0.373371  1
  P  P11  1  0.276126  0.420687  0.875022  1
  C  C12  1  0.703681  0.954316  0.869370  1
  C  C13  1  0.707015  0.957213  0.377224  1
  C  C14  1  0.292863  0.042529  0.123988  1
  C  C15  1  0.286226  0.042980  0.628623  1
  O  O16  1  0.949401  0.926294  0.375722  1
  O  O17  1  0.947869  0.925408  0.875046  1
  O  O18  1  0.378513  0.906952  0.123842  1
  O  O19  1  0.334019  0.900247  0.638207  1
  O  O20  1  0.537989  0.825637  0.863965  1
  O  O21  1  0.538490  0.832164  0.377646  1
  O  O22  1  0.793200  0.678562  0.529773  1
  O  O23  1  0.795580  0.688042  0.031680  1
  O  O24  1  0.795223  0.692541  0.218679  1
  O  O25  1  0.833807  0.681219  0.720044  1
  O  O26  1  0.130259  0.576590  0.372521  1
  O  O27  1  0.140007  0.578302  0.868375  1
  O  O28  1  0.431477  0.522905  0.125557  1
  O  O29  1  0.431133  0.534135  0.638967  1
  O  O30  1  0.571534  0.479521  0.369543  1
  O  O31  1  0.572242  0.473255  0.876730  1
  O  O32  1  0.871906  0.425515  0.126653  1
  O  O33  1  0.867002  0.419167  0.623086  1
  O  O34  1  0.204514  0.308878  0.281512  1
  O  O35  1  0.218664  0.317589  0.469322  1
  O  O36  1  0.208602  0.308216  0.781693  1
  O  O37  1  0.196101  0.314562  0.969168  1
  O  O38  1  0.459483  0.168912  0.123503  1
  O  O39  1  0.467175  0.160144  0.623835  1
  O  O40  1  0.624079  0.093389  0.375948  1
  O  O41  1  0.617944  0.089137  0.872097  1
  O  O42  1  0.049695  0.071842  0.124428  1
  O  O43  1  0.053232  0.090789  0.623250  1
