# generated using pymatgen
data_V3O5
_symmetry_space_group_name_H-M   'P 1'
_cell_length_a   5.71089186
_cell_length_b   5.71089186
_cell_length_c   7.09250651
_cell_angle_alpha   70.65682268
_cell_angle_beta   109.34317732
_cell_angle_gamma   125.81071273
_symmetry_Int_Tables_number   1
_chemical_formula_structural   V3O5
_chemical_formula_sum   'V6 O10'
_cell_volume   174.12065924
_cell_formula_units_Z   2
loop_
 _symmetry_equiv_pos_site_id
 _symmetry_equiv_pos_as_xyz
  1  'x, y, z'
loop_
 _atom_site_type_symbol
 _atom_site_label
 _atom_site_symmetry_multiplicity
 _atom_site_fract_x
 _atom_site_fract_y
 _atom_site_fract_z
 _atom_site_occupancy
  V  V0  1  0.130573  0.871605  0.715861  1
  V  V1  1  0.128395  0.869427  0.215861  1
  V  V2  1  0.865918  0.127879  0.775449  1
  V  V3  1  0.872121  0.134082  0.275449  1
  V  V4  1  0.490494  0.497410  0.997265  1
  V  V5  1  0.502590  0.509506  0.497265  1
  O  O6  1  0.150493  0.525249  0.836117  1
  O  O7  1  0.840116  0.446352  0.160312  1
  O  O8  1  0.474751  0.849507  0.336117  1
  O  O9  1  0.553648  0.159884  0.660312  1
  O  O10  1  0.228363  0.074463  0.938187  1
  O  O11  1  0.925537  0.771637  0.438187  1
  O  O12  1  0.764980  0.928370  0.053720  1
  O  O13  1  0.071630  0.235020  0.553720  1
  O  O14  1  0.299587  0.305208  0.251277  1
  O  O15  1  0.694792  0.700413  0.751277  1
