# generated using pymatgen
data_Li2Mn3F8
_symmetry_space_group_name_H-M   'P 1'
_cell_length_a   5.26983863
_cell_length_b   12.36008161
_cell_length_c   5.95545100
_cell_angle_alpha   90.00000000
_cell_angle_beta   114.87828819
_cell_angle_gamma   90.00000000
_symmetry_Int_Tables_number   1
_chemical_formula_structural   Li2Mn3F8
_chemical_formula_sum   'Li4 Mn6 F16'
_cell_volume   351.91520102
_cell_formula_units_Z   2
loop_
 _symmetry_equiv_pos_site_id
 _symmetry_equiv_pos_as_xyz
  1  'x, y, z'
loop_
 _atom_site_type_symbol
 _atom_site_label
 _atom_site_symmetry_multiplicity
 _atom_site_fract_x
 _atom_site_fract_y
 _atom_site_fract_z
 _atom_site_occupancy
  Li  Li0  1  0.133129  0.116316  0.700896  1
  Li  Li1  1  0.366871  0.616316  0.299104  1
  Li  Li2  1  0.633129  0.383684  0.700896  1
  Li  Li3  1  0.866871  0.883684  0.299104  1
  Mn  Mn4  1  0.000000  0.500000  0.500000  1
  Mn  Mn5  1  0.180864  0.846002  0.897405  1
  Mn  Mn6  1  0.319136  0.346002  0.102595  1
  Mn  Mn7  1  0.500000  0.000000  0.500000  1
  Mn  Mn8  1  0.680864  0.653998  0.897405  1
  Mn  Mn9  1  0.819136  0.153998  0.102595  1
  F  F10  1  0.106996  0.695647  0.023695  1
  F  F11  1  0.211950  0.148224  0.409800  1
  F  F12  1  0.284346  0.973684  0.721614  1
  F  F13  1  0.322677  0.412108  0.780207  1
  F  F14  1  0.177323  0.912108  0.219793  1
  F  F15  1  0.215654  0.473684  0.278386  1
  F  F16  1  0.288050  0.648224  0.590200  1
  F  F17  1  0.606996  0.804353  0.023695  1
  F  F18  1  0.393004  0.195647  0.976305  1
  F  F19  1  0.711950  0.351776  0.409800  1
  F  F20  1  0.784346  0.526316  0.721614  1
  F  F21  1  0.822677  0.087892  0.780207  1
  F  F22  1  0.677323  0.587892  0.219793  1
  F  F23  1  0.715654  0.026316  0.278386  1
  F  F24  1  0.788050  0.851776  0.590200  1
  F  F25  1  0.893004  0.304353  0.976305  1
