# generated using pymatgen
data_Ti2Cr3Sb3O16
_symmetry_space_group_name_H-M   'P 1'
_cell_length_a   6.09588359
_cell_length_b   6.09588359
_cell_length_c   9.10620858
_cell_angle_alpha   89.62686196
_cell_angle_beta   90.37313804
_cell_angle_gamma   119.83421364
_symmetry_Int_Tables_number   1
_chemical_formula_structural   Ti2Cr3Sb3O16
_chemical_formula_sum   'Ti2 Cr3 Sb3 O16'
_cell_volume   293.52990557
_cell_formula_units_Z   1
loop_
 _symmetry_equiv_pos_site_id
 _symmetry_equiv_pos_as_xyz
  1  'x, y, z'
loop_
 _atom_site_type_symbol
 _atom_site_label
 _atom_site_symmetry_multiplicity
 _atom_site_fract_x
 _atom_site_fract_y
 _atom_site_fract_z
 _atom_site_occupancy
  Ti  Ti0  1  0.350335  0.649665  0.523591  1
  Ti  Ti1  1  0.677639  0.322361  0.994273  1
  Cr  Cr2  1  0.167365  0.336761  0.790953  1
  Cr  Cr3  1  0.663239  0.832635  0.790953  1
  Cr  Cr4  1  0.828488  0.171512  0.289979  1
  Sb  Sb5  1  0.166990  0.833010  0.789335  1
  Sb  Sb6  1  0.829087  0.667046  0.287634  1
  Sb  Sb7  1  0.332954  0.170913  0.287634  1
  O  O8  1  0.171700  0.336610  0.399700  1
  O  O9  1  0.477281  0.522719  0.661047  1
  O  O10  1  0.331440  0.668560  0.898804  1
  O  O11  1  0.000233  0.999767  0.689112  1
  O  O12  1  0.996419  0.003581  0.179891  1
  O  O13  1  0.663390  0.828300  0.399700  1
  O  O14  1  0.051205  0.525660  0.655728  1
  O  O15  1  0.474340  0.948795  0.655728  1
  O  O16  1  0.827759  0.172241  0.900044  1
  O  O17  1  0.164323  0.835677  0.398400  1
  O  O18  1  0.521227  0.052675  0.161427  1
  O  O19  1  0.947325  0.478773  0.161427  1
  O  O20  1  0.664230  0.335770  0.405910  1
  O  O21  1  0.344715  0.168385  0.901718  1
  O  O22  1  0.516459  0.483541  0.159553  1
  O  O23  1  0.831615  0.655285  0.901718  1
