# generated using pymatgen
data_Li2CrO3
_symmetry_space_group_name_H-M   'P 1'
_cell_length_a   5.01250234
_cell_length_b   5.01250234
_cell_length_c   5.13342509
_cell_angle_alpha   79.75893422
_cell_angle_beta   100.24106578
_cell_angle_gamma   60.99194627
_symmetry_Int_Tables_number   1
_chemical_formula_structural   Li2CrO3
_chemical_formula_sum   'Li4 Cr2 O6'
_cell_volume   105.64923051
_cell_formula_units_Z   2
loop_
 _symmetry_equiv_pos_site_id
 _symmetry_equiv_pos_as_xyz
  1  'x, y, z'
loop_
 _atom_site_type_symbol
 _atom_site_label
 _atom_site_symmetry_multiplicity
 _atom_site_fract_x
 _atom_site_fract_y
 _atom_site_fract_z
 _atom_site_occupancy
  Li  Li0  1  0.500000  0.500000  0.500000  1
  Li  Li1  1  0.159668  0.159668  0.500000  1
  Li  Li2  1  0.840332  0.840332  0.500000  1
  Li  Li3  1  0.000000  0.000000  0.000000  1
  Cr  Cr4  1  0.671335  0.671335  0.000000  1
  Cr  Cr5  1  0.328665  0.328665  0.000000  1
  O  O6  1  0.718205  0.281795  0.227898  1
  O  O7  1  0.931019  0.431484  0.774392  1
  O  O8  1  0.568516  0.068981  0.774392  1
  O  O9  1  0.068981  0.568516  0.225608  1
  O  O10  1  0.431484  0.931019  0.225608  1
  O  O11  1  0.281795  0.718205  0.772102  1
