# generated using pymatgen
data_Li4Mn3Cr3(SnO8)2
_symmetry_space_group_name_H-M   'P 1'
_cell_length_a   5.94013322
_cell_length_b   5.94013322
_cell_length_c   9.71241081
_cell_angle_alpha   89.41522196
_cell_angle_beta   90.58477804
_cell_angle_gamma   119.40890737
_symmetry_Int_Tables_number   1
_chemical_formula_structural   Li4Mn3Cr3(SnO8)2
_chemical_formula_sum   'Li4 Mn3 Cr3 Sn2 O16'
_cell_volume   298.52160821
_cell_formula_units_Z   1
loop_
 _symmetry_equiv_pos_site_id
 _symmetry_equiv_pos_as_xyz
  1  'x, y, z'
loop_
 _atom_site_type_symbol
 _atom_site_label
 _atom_site_symmetry_multiplicity
 _atom_site_fract_x
 _atom_site_fract_y
 _atom_site_fract_z
 _atom_site_occupancy
  Li  Li0  1  0.329257  0.670743  0.892613  1
  Li  Li1  1  0.000160  0.999840  0.994176  1
  Li  Li2  1  0.002772  0.997228  0.494563  1
  Li  Li3  1  0.664019  0.335981  0.389898  1
  Mn  Mn4  1  0.169094  0.830906  0.215179  1
  Mn  Mn5  1  0.828716  0.660224  0.715169  1
  Mn  Mn6  1  0.339776  0.171284  0.715169  1
  Cr  Cr7  1  0.661425  0.831217  0.214820  1
  Cr  Cr8  1  0.168783  0.338575  0.214820  1
  Cr  Cr9  1  0.830957  0.169043  0.715103  1
  Sn  Sn10  1  0.335562  0.664438  0.490870  1
  Sn  Sn11  1  0.666571  0.333429  0.993149  1
  O  O12  1  0.683257  0.837762  0.600934  1
  O  O13  1  0.482186  0.517814  0.338539  1
  O  O14  1  0.327015  0.672985  0.110028  1
  O  O15  1  0.004567  0.995433  0.309210  1
  O  O16  1  0.005589  0.994411  0.807566  1
  O  O17  1  0.162238  0.316743  0.600934  1
  O  O18  1  0.477332  0.967163  0.334524  1
  O  O19  1  0.032837  0.522668  0.334524  1
  O  O20  1  0.840571  0.159429  0.097682  1
  O  O21  1  0.164246  0.835754  0.601610  1
  O  O22  1  0.963216  0.485150  0.834999  1
  O  O23  1  0.514850  0.036784  0.834999  1
  O  O24  1  0.661537  0.338463  0.610115  1
  O  O25  1  0.845918  0.681517  0.101736  1
  O  O26  1  0.513818  0.486182  0.843321  1
  O  O27  1  0.318483  0.154082  0.101736  1
