# generated using pymatgen
data_Si(Ag4S3)2
_symmetry_space_group_name_H-M   'P 1'
_cell_length_a   7.58999448
_cell_length_b   10.69029691
_cell_length_c   15.21322284
_cell_angle_alpha   90.00000000
_cell_angle_beta   90.00000000
_cell_angle_gamma   90.00000000
_symmetry_Int_Tables_number   1
_chemical_formula_structural   Si(Ag4S3)2
_chemical_formula_sum   'Si4 Ag32 S24'
_cell_volume   1234.39016886
_cell_formula_units_Z   4
loop_
 _symmetry_equiv_pos_site_id
 _symmetry_equiv_pos_as_xyz
  1  'x, y, z'
loop_
 _atom_site_type_symbol
 _atom_site_label
 _atom_site_symmetry_multiplicity
 _atom_site_fract_x
 _atom_site_fract_y
 _atom_site_fract_z
 _atom_site_occupancy
  Si  Si0  1  0.263045  0.031924  0.376639  1
  Si  Si1  1  0.736955  0.531924  0.623361  1
  Si  Si2  1  0.236955  0.031924  0.876639  1
  Si  Si3  1  0.763045  0.531924  0.123361  1
  Ag  Ag4  1  0.069049  0.359422  0.933496  1
  Ag  Ag5  1  0.123376  0.479346  0.760667  1
  Ag  Ag6  1  0.876624  0.979346  0.239333  1
  Ag  Ag7  1  0.376624  0.479346  0.260667  1
  Ag  Ag8  1  0.263744  0.545576  0.064048  1
  Ag  Ag9  1  0.736256  0.045576  0.935952  1
  Ag  Ag10  1  0.236256  0.545576  0.564048  1
  Ag  Ag11  1  0.763744  0.045576  0.435952  1
  Ag  Ag12  1  0.379177  0.695322  0.412113  1
  Ag  Ag13  1  0.620823  0.195322  0.587887  1
  Ag  Ag14  1  0.120823  0.695322  0.912113  1
  Ag  Ag15  1  0.879177  0.195322  0.087887  1
  Ag  Ag16  1  0.494482  0.789691  0.228577  1
  Ag  Ag17  1  0.505518  0.289691  0.771423  1
  Ag  Ag18  1  0.005518  0.789691  0.728577  1
  Ag  Ag19  1  0.994482  0.289691  0.271423  1
  Ag  Ag20  1  0.930951  0.859422  0.066504  1
  Ag  Ag21  1  0.623376  0.979346  0.739333  1
  Ag  Ag22  1  0.569049  0.859422  0.566504  1
  Ag  Ag23  1  0.430951  0.359422  0.433496  1
  Ag  Ag24  1  0.115655  0.687932  0.268095  1
  Ag  Ag25  1  0.884345  0.187932  0.731905  1
  Ag  Ag26  1  0.384345  0.687932  0.768095  1
  Ag  Ag27  1  0.615655  0.187932  0.231905  1
  Ag  Ag28  1  0.483581  0.770022  0.014866  1
  Ag  Ag29  1  0.516419  0.270022  0.985134  1
  Ag  Ag30  1  0.016419  0.770022  0.514866  1
  Ag  Ag31  1  0.983581  0.270022  0.485134  1
  Ag  Ag32  1  0.727730  0.514219  0.370740  1
  Ag  Ag33  1  0.272270  0.014219  0.629260  1
  Ag  Ag34  1  0.772270  0.514219  0.870740  1
  Ag  Ag35  1  0.227730  0.014219  0.129260  1
  S  S36  1  0.992115  0.412030  0.120763  1
  S  S37  1  0.007885  0.912030  0.879237  1
  S  S38  1  0.507885  0.412030  0.620763  1
  S  S39  1  0.492115  0.912030  0.379237  1
  S  S40  1  0.768547  0.649813  0.009010  1
  S  S41  1  0.231453  0.149813  0.990990  1
  S  S42  1  0.731453  0.649813  0.509010  1
  S  S43  1  0.268547  0.149813  0.490990  1
  S  S44  1  0.770510  0.650107  0.237303  1
  S  S45  1  0.229490  0.150107  0.762697  1
  S  S46  1  0.729490  0.650107  0.737303  1
  S  S47  1  0.270510  0.150107  0.262697  1
  S  S48  1  0.183585  0.512995  0.387197  1
  S  S49  1  0.816415  0.012995  0.612803  1
  S  S50  1  0.316415  0.512995  0.887197  1
  S  S51  1  0.683585  0.012995  0.112803  1
  S  S52  1  0.233353  0.777102  0.122836  1
  S  S53  1  0.766647  0.277102  0.877164  1
  S  S54  1  0.266647  0.777102  0.622836  1
  S  S55  1  0.733353  0.277102  0.377164  1
  S  S56  1  0.032800  0.912698  0.373795  1
  S  S57  1  0.967200  0.412698  0.626205  1
  S  S58  1  0.467200  0.912698  0.873795  1
  S  S59  1  0.532800  0.412698  0.126205  1
