# generated using pymatgen
data_Dy5(ReO6)2
_symmetry_space_group_name_H-M   'P 1'
_cell_length_a   6.84440711
_cell_length_b   6.84440711
_cell_length_c   7.56613099
_cell_angle_alpha   73.79168574
_cell_angle_beta   106.20831426
_cell_angle_gamma   131.07307636
_symmetry_Int_Tables_number   1
_chemical_formula_structural   Dy5(ReO6)2
_chemical_formula_sum   'Dy5 Re2 O12'
_cell_volume   254.32999005
_cell_formula_units_Z   1
loop_
 _symmetry_equiv_pos_site_id
 _symmetry_equiv_pos_as_xyz
  1  'x, y, z'
loop_
 _atom_site_type_symbol
 _atom_site_label
 _atom_site_symmetry_multiplicity
 _atom_site_fract_x
 _atom_site_fract_y
 _atom_site_fract_z
 _atom_site_occupancy
  Dy  Dy0  1  0.803656  0.196344  0.642706  1
  Dy  Dy1  1  0.814062  0.185938  0.176809  1
  Dy  Dy2  1  0.500000  0.500000  0.500000  1
  Dy  Dy3  1  0.196344  0.803656  0.357294  1
  Dy  Dy4  1  0.185938  0.814062  0.823191  1
  Re  Re5  1  0.713802  0.713802  0.000000  1
  Re  Re6  1  0.286198  0.286198  0.000000  1
  O  O7  1  0.079978  0.410527  0.915595  1
  O  O8  1  0.589473  0.920022  0.915595  1
  O  O9  1  0.597463  0.905275  0.427447  1
  O  O10  1  0.094725  0.402537  0.427447  1
  O  O11  1  0.496984  0.503016  0.204435  1
  O  O12  1  0.000379  0.999621  0.175936  1
  O  O13  1  0.999621  0.000379  0.824064  1
  O  O14  1  0.503016  0.496984  0.795565  1
  O  O15  1  0.410527  0.079978  0.084405  1
  O  O16  1  0.920022  0.589473  0.084405  1
  O  O17  1  0.402537  0.094725  0.572553  1
  O  O18  1  0.905275  0.597463  0.572553  1
