# generated using pymatgen
data_Li3Mn2F7
_symmetry_space_group_name_H-M   'P 1'
_cell_length_a   6.02647218
_cell_length_b   6.02647218
_cell_length_c   10.39465960
_cell_angle_alpha   80.92843671
_cell_angle_beta   99.07156329
_cell_angle_gamma   129.15426437
_symmetry_Int_Tables_number   1
_chemical_formula_structural   Li3Mn2F7
_chemical_formula_sum   'Li6 Mn4 F14'
_cell_volume   288.24981261
_cell_formula_units_Z   2
loop_
 _symmetry_equiv_pos_site_id
 _symmetry_equiv_pos_as_xyz
  1  'x, y, z'
loop_
 _atom_site_type_symbol
 _atom_site_label
 _atom_site_symmetry_multiplicity
 _atom_site_fract_x
 _atom_site_fract_y
 _atom_site_fract_z
 _atom_site_occupancy
  Li  Li0  1  0.293922  0.175048  0.126973  1
  Li  Li1  1  0.824952  0.706078  0.626973  1
  Li  Li2  1  0.505955  0.001262  0.495926  1
  Li  Li3  1  0.998738  0.494045  0.995926  1
  Li  Li4  1  0.177434  0.292265  0.374795  1
  Li  Li5  1  0.707735  0.822566  0.874795  1
  Mn  Mn6  1  0.904176  0.578937  0.341347  1
  Mn  Mn7  1  0.421063  0.095824  0.841347  1
  Mn  Mn8  1  0.579334  0.903115  0.158094  1
  Mn  Mn9  1  0.096885  0.420666  0.658094  1
  F  F10  1  0.585853  0.262454  0.031415  1
  F  F11  1  0.164535  0.767630  0.179170  1
  F  F12  1  0.172952  0.985781  0.402313  1
  F  F13  1  0.737546  0.414147  0.531415  1
  F  F14  1  0.232370  0.835465  0.679170  1
  F  F15  1  0.014219  0.827048  0.902313  1
  F  F16  1  0.987281  0.171977  0.097148  1
  F  F17  1  0.763778  0.160641  0.322887  1
  F  F18  1  0.268441  0.587379  0.467869  1
  F  F19  1  0.828023  0.012719  0.597148  1
  F  F20  1  0.525429  0.524116  0.249229  1
  F  F21  1  0.839359  0.236222  0.822887  1
  F  F22  1  0.412621  0.731559  0.967869  1
  F  F23  1  0.475884  0.474571  0.749229  1
