# generated using pymatgen
data_Li6Fe3Co(PO4)6
_symmetry_space_group_name_H-M   'P 1'
_cell_length_a   8.51501065
_cell_length_b   8.56349157
_cell_length_c   8.56741084
_cell_angle_alpha   61.35398244
_cell_angle_beta   61.45366625
_cell_angle_gamma   61.49145947
_symmetry_Int_Tables_number   1
_chemical_formula_structural   Li6Fe3Co(PO4)6
_chemical_formula_sum   'Li6 Fe3 Co1 P6 O24'
_cell_volume   455.95933323
_cell_formula_units_Z   1
loop_
 _symmetry_equiv_pos_site_id
 _symmetry_equiv_pos_as_xyz
  1  'x, y, z'
loop_
 _atom_site_type_symbol
 _atom_site_label
 _atom_site_symmetry_multiplicity
 _atom_site_fract_x
 _atom_site_fract_y
 _atom_site_fract_z
 _atom_site_occupancy
  Li  Li0  1  0.025724  0.005115  0.992742  1
  Li  Li1  1  0.751192  0.155008  0.347682  1
  Li  Li2  1  0.475041  0.503947  0.492860  1
  Li  Li3  1  0.226191  0.848637  0.655572  1
  Li  Li4  1  0.659124  0.226011  0.847672  1
  Li  Li5  1  0.846002  0.659395  0.225568  1
  Fe  Fe6  1  0.146469  0.144114  0.136095  1
  Fe  Fe7  1  0.352466  0.364257  0.354480  1
  Fe  Fe8  1  0.646455  0.646269  0.647734  1
  Co  Co9  1  0.857122  0.855831  0.855927  1
  P  P10  1  0.047178  0.749289  0.459486  1
  P  P11  1  0.459486  0.047446  0.746989  1
  P  P12  1  0.748289  0.461694  0.045749  1
  P  P13  1  0.244814  0.545771  0.956194  1
  P  P14  1  0.548049  0.961244  0.245626  1
  P  P15  1  0.954209  0.244263  0.541515  1
  O  O16  1  0.125466  0.291352  0.497561  1
  O  O17  1  0.299614  0.512810  0.117331  1
  O  O18  1  0.040097  0.922088  0.276715  1
  O  O19  1  0.533392  0.118783  0.295452  1
  O  O20  1  0.240866  0.594599  0.431509  1
  O  O21  1  0.021900  0.799338  0.624152  1
  O  O22  1  0.268310  0.063498  0.907389  1
  O  O23  1  0.454652  0.232980  0.577854  1
  O  O24  1  0.593519  0.433739  0.241945  1
  O  O25  1  0.196375  0.381300  0.988787  1
  O  O26  1  0.074576  0.736857  0.946340  1
  O  O27  1  0.372258  0.003247  0.207972  1
  O  O28  1  0.623740  0.017890  0.801923  1
  O  O29  1  0.906995  0.267067  0.064207  1
  O  O30  1  0.801716  0.624126  0.018738  1
  O  O31  1  0.398621  0.581274  0.758777  1
  O  O32  1  0.580885  0.763148  0.398598  1
  O  O33  1  0.735169  0.947150  0.071678  1
  O  O34  1  0.967197  0.202132  0.380389  1
  O  O35  1  0.759991  0.399545  0.584294  1
  O  O36  1  0.493828  0.887281  0.687141  1
  O  O37  1  0.949110  0.073260  0.731857  1
  O  O38  1  0.684053  0.496083  0.889439  1
  O  O39  1  0.889857  0.681160  0.499061  1
