# generated using pymatgen
data_V6O13
_symmetry_space_group_name_H-M   'P 1'
_cell_length_a   11.73510849
_cell_length_b   11.73510849
_cell_length_c   3.75843125
_cell_angle_alpha   90.00000000
_cell_angle_beta   90.00000000
_cell_angle_gamma   117.92840276
_symmetry_Int_Tables_number   1
_chemical_formula_structural   V6O13
_chemical_formula_sum   'V12 O26'
_cell_volume   457.30281859
_cell_formula_units_Z   2
loop_
 _symmetry_equiv_pos_site_id
 _symmetry_equiv_pos_as_xyz
  1  'x, y, z'
loop_
 _atom_site_type_symbol
 _atom_site_label
 _atom_site_symmetry_multiplicity
 _atom_site_fract_x
 _atom_site_fract_y
 _atom_site_fract_z
 _atom_site_occupancy
  V  V0  1  0.585045  0.219988  0.750000  1
  V  V1  1  0.710789  0.077749  0.250000  1
  V  V2  1  0.077749  0.710789  0.250000  1
  V  V3  1  0.922251  0.289211  0.750000  1
  V  V4  1  0.414955  0.780012  0.250000  1
  V  V5  1  0.780012  0.414955  0.250000  1
  V  V6  1  0.219988  0.585045  0.750000  1
  V  V7  1  0.289211  0.922251  0.750000  1
  V  V8  1  0.900660  0.900660  0.250000  1
  V  V9  1  0.099340  0.099340  0.750000  1
  V  V10  1  0.397787  0.397787  0.750000  1
  V  V11  1  0.602213  0.602213  0.250000  1
  O  O12  1  0.802521  0.002988  0.250000  1
  O  O13  1  0.002988  0.802521  0.250000  1
  O  O14  1  0.304462  0.501724  0.750000  1
  O  O15  1  0.501724  0.304462  0.750000  1
  O  O16  1  0.197479  0.997012  0.750000  1
  O  O17  1  0.997012  0.197479  0.750000  1
  O  O18  1  0.695538  0.498276  0.250000  1
  O  O19  1  0.498276  0.695538  0.250000  1
  O  O20  1  0.568334  0.568334  0.750000  1
  O  O21  1  0.927133  0.927133  0.750000  1
  O  O22  1  0.072867  0.072867  0.250000  1
  O  O23  1  0.431666  0.431666  0.250000  1
  O  O24  1  0.368287  0.775132  0.750000  1
  O  O25  1  0.871805  0.275244  0.250000  1
  O  O26  1  0.224868  0.631713  0.250000  1
  O  O27  1  0.724756  0.128195  0.750000  1
  O  O28  1  0.128195  0.724756  0.750000  1
  O  O29  1  0.775132  0.368287  0.750000  1
  O  O30  1  0.631713  0.224868  0.250000  1
  O  O31  1  0.275244  0.871805  0.250000  1
  O  O32  1  0.557313  0.952794  0.250000  1
  O  O33  1  0.952794  0.557313  0.250000  1
  O  O34  1  0.442687  0.047206  0.750000  1
  O  O35  1  0.047206  0.442687  0.750000  1
  O  O36  1  0.745351  0.745351  0.250000  1
  O  O37  1  0.254649  0.254649  0.750000  1
