# generated using pymatgen
data_Li6VFeP2(CO7)2
_symmetry_space_group_name_H-M   'P 1'
_cell_length_a   5.02235816
_cell_length_b   6.55296936
_cell_length_c   8.50216038
_cell_angle_alpha   90.00000000
_cell_angle_beta   95.37687383
_cell_angle_gamma   90.00000000
_symmetry_Int_Tables_number   1
_chemical_formula_structural   Li6VFeP2(CO7)2
_chemical_formula_sum   'Li6 V1 Fe1 P2 C2 O14'
_cell_volume   278.58641922
_cell_formula_units_Z   1
loop_
 _symmetry_equiv_pos_site_id
 _symmetry_equiv_pos_as_xyz
  1  'x, y, z'
loop_
 _atom_site_type_symbol
 _atom_site_label
 _atom_site_symmetry_multiplicity
 _atom_site_fract_x
 _atom_site_fract_y
 _atom_site_fract_z
 _atom_site_occupancy
  Li  Li0  1  0.764902  0.500000  0.902407  1
  Li  Li1  1  0.249289  0.278078  0.721757  1
  Li  Li2  1  0.249289  0.721922  0.721757  1
  Li  Li3  1  0.749705  0.769752  0.277371  1
  Li  Li4  1  0.749705  0.230248  0.277371  1
  Li  Li5  1  0.233619  0.000000  0.095226  1
  V  V6  1  0.792514  0.000000  0.671271  1
  Fe  Fe7  1  0.211782  0.500000  0.333029  1
  P  P8  1  0.720949  0.500000  0.588740  1
  P  P9  1  0.279721  0.000000  0.411950  1
  C  C10  1  0.697289  0.000000  0.964600  1
  C  C11  1  0.301136  0.500000  0.034677  1
  O  O12  1  0.942248  0.000000  0.926387  1
  O  O13  1  0.360091  0.500000  0.888915  1
  O  O14  1  0.505295  0.000000  0.849951  1
  O  O15  1  0.827682  0.316792  0.692338  1
  O  O16  1  0.827682  0.683208  0.692338  1
  O  O17  1  0.175835  0.000000  0.577177  1
  O  O18  1  0.407802  0.500000  0.570073  1
  O  O19  1  0.591410  0.000000  0.432096  1
  O  O20  1  0.820853  0.500000  0.422491  1
  O  O21  1  0.175316  0.185971  0.309238  1
  O  O22  1  0.175316  0.814029  0.309238  1
  O  O23  1  0.492604  0.500000  0.149475  1
  O  O24  1  0.642242  0.000000  0.110212  1
  O  O25  1  0.055723  0.500000  0.069911  1
