# generated using pymatgen
data_Li(NiO2)2
_symmetry_space_group_name_H-M   'P 1'
_cell_length_a   8.11274667
_cell_length_b   8.11274667
_cell_length_c   8.11274667
_cell_angle_alpha   90.00000000
_cell_angle_beta   90.00000000
_cell_angle_gamma   90.00000000
_symmetry_Int_Tables_number   1
_chemical_formula_structural   Li(NiO2)2
_chemical_formula_sum   'Li8 Ni16 O32'
_cell_volume   533.95387712
_cell_formula_units_Z   8
loop_
 _symmetry_equiv_pos_site_id
 _symmetry_equiv_pos_as_xyz
  1  'x, y, z'
loop_
 _atom_site_type_symbol
 _atom_site_label
 _atom_site_symmetry_multiplicity
 _atom_site_fract_x
 _atom_site_fract_y
 _atom_site_fract_z
 _atom_site_occupancy
  Li  Li0  1  0.006301  0.006301  0.006301  1
  Li  Li1  1  0.243699  0.243699  0.243699  1
  Li  Li2  1  0.256301  0.756301  0.743699  1
  Li  Li3  1  0.493699  0.993699  0.506301  1
  Li  Li4  1  0.506301  0.493699  0.993699  1
  Li  Li5  1  0.743699  0.256301  0.756301  1
  Li  Li6  1  0.756301  0.743699  0.256301  1
  Li  Li7  1  0.993699  0.506301  0.493699  1
  Ni  Ni8  1  0.115596  0.134404  0.625000  1
  Ni  Ni9  1  0.125000  0.384404  0.865596  1
  Ni  Ni10  1  0.125000  0.875000  0.375000  1
  Ni  Ni11  1  0.134404  0.625000  0.115596  1
  Ni  Ni12  1  0.365596  0.375000  0.615596  1
  Ni  Ni13  1  0.375000  0.125000  0.875000  1
  Ni  Ni14  1  0.375000  0.615596  0.365596  1
  Ni  Ni15  1  0.384404  0.865596  0.125000  1
  Ni  Ni16  1  0.615596  0.365596  0.375000  1
  Ni  Ni17  1  0.625000  0.115596  0.134404  1
  Ni  Ni18  1  0.625000  0.625000  0.625000  1
  Ni  Ni19  1  0.634404  0.875000  0.884404  1
  Ni  Ni20  1  0.865596  0.125000  0.384404  1
  Ni  Ni21  1  0.875000  0.375000  0.125000  1
  Ni  Ni22  1  0.875000  0.884404  0.634404  1
  Ni  Ni23  1  0.884404  0.634404  0.875000  1
  O  O24  1  0.095384  0.126957  0.394601  1
  O  O25  1  0.105399  0.904616  0.626957  1
  O  O26  1  0.116976  0.616976  0.883024  1
  O  O27  1  0.123043  0.154616  0.855399  1
  O  O28  1  0.126957  0.394601  0.095384  1
  O  O29  1  0.133024  0.366976  0.633024  1
  O  O30  1  0.144601  0.623043  0.345384  1
  O  O31  1  0.154616  0.855399  0.123043  1
  O  O32  1  0.345384  0.144601  0.623043  1
  O  O33  1  0.355399  0.376957  0.845384  1
  O  O34  1  0.366976  0.633024  0.133024  1
  O  O35  1  0.373043  0.605399  0.595384  1
  O  O36  1  0.376957  0.845384  0.355399  1
  O  O37  1  0.383024  0.383024  0.383024  1
  O  O38  1  0.394601  0.095384  0.126957  1
  O  O39  1  0.404616  0.873043  0.894601  1
  O  O40  1  0.595384  0.373043  0.605399  1
  O  O41  1  0.605399  0.595384  0.373043  1
  O  O42  1  0.616976  0.883024  0.116976  1
  O  O43  1  0.623043  0.345384  0.144601  1
  O  O44  1  0.626957  0.105399  0.904616  1
  O  O45  1  0.633024  0.133024  0.366976  1
  O  O46  1  0.644601  0.876957  0.654616  1
  O  O47  1  0.654616  0.644601  0.876957  1
  O  O48  1  0.845384  0.355399  0.376957  1
  O  O49  1  0.855399  0.123043  0.154616  1
  O  O50  1  0.866976  0.866976  0.866976  1
  O  O51  1  0.873043  0.894601  0.404616  1
  O  O52  1  0.876957  0.654616  0.644601  1
  O  O53  1  0.883024  0.116976  0.616976  1
  O  O54  1  0.894601  0.404616  0.873043  1
  O  O55  1  0.904616  0.626957  0.105399  1
