# generated using pymatgen
data_Li2P2WO8
_symmetry_space_group_name_H-M   'P 1'
_cell_length_a   4.90575396
_cell_length_b   4.90575396
_cell_length_c   7.73741158
_cell_angle_alpha   90.00000000
_cell_angle_beta   90.00000000
_cell_angle_gamma   120.00000000
_symmetry_Int_Tables_number   1
_chemical_formula_structural   Li2P2WO8
_chemical_formula_sum   'Li2 P2 W1 O8'
_cell_volume   161.26415935
_cell_formula_units_Z   1
loop_
 _symmetry_equiv_pos_site_id
 _symmetry_equiv_pos_as_xyz
  1  'x, y, z'
loop_
 _atom_site_type_symbol
 _atom_site_label
 _atom_site_symmetry_multiplicity
 _atom_site_fract_x
 _atom_site_fract_y
 _atom_site_fract_z
 _atom_site_occupancy
  Li  Li0  1  0.333333  0.666667  0.165781  1
  Li  Li1  1  0.666667  0.333333  0.834219  1
  P  P2  1  0.333333  0.666667  0.731517  1
  P  P3  1  0.666667  0.333333  0.268483  1
  W  W4  1  0.000000  0.000000  0.500000  1
  O  O5  1  0.041463  0.682362  0.661507  1
  O  O6  1  0.333333  0.666667  0.924784  1
  O  O7  1  0.317638  0.359102  0.661507  1
  O  O8  1  0.640898  0.958537  0.661507  1
  O  O9  1  0.359102  0.041463  0.338493  1
  O  O10  1  0.682362  0.640898  0.338493  1
  O  O11  1  0.666667  0.333333  0.075216  1
  O  O12  1  0.958537  0.317638  0.338493  1
