# generated using pymatgen
data_FeOF
_symmetry_space_group_name_H-M   'P 1'
_cell_length_a   6.25934936
_cell_length_b   9.45679095
_cell_length_c   9.46212200
_cell_angle_alpha   90.38816099
_cell_angle_beta   90.21974011
_cell_angle_gamma   90.01875419
_symmetry_Int_Tables_number   1
_chemical_formula_structural   FeOF
_chemical_formula_sum   'Fe16 O16 F16'
_cell_volume   560.07777128
_cell_formula_units_Z   16
loop_
 _symmetry_equiv_pos_site_id
 _symmetry_equiv_pos_as_xyz
  1  'x, y, z'
loop_
 _atom_site_type_symbol
 _atom_site_label
 _atom_site_symmetry_multiplicity
 _atom_site_fract_x
 _atom_site_fract_y
 _atom_site_fract_z
 _atom_site_occupancy
  Fe  Fe0  1  0.480380  0.741603  0.741510  1
  Fe  Fe1  1  0.017149  0.758372  0.758502  1
  Fe  Fe2  1  0.481092  0.250662  0.749199  1
  Fe  Fe3  1  0.018252  0.249687  0.750380  1
  Fe  Fe4  1  0.230215  0.008128  0.989958  1
  Fe  Fe5  1  0.769785  0.991872  0.010042  1
  Fe  Fe6  1  0.274662  0.508885  0.989686  1
  Fe  Fe7  1  0.725338  0.491115  0.010314  1
  Fe  Fe8  1  0.519620  0.258397  0.258490  1
  Fe  Fe9  1  0.982851  0.241628  0.241498  1
  Fe  Fe10  1  0.518908  0.749338  0.250801  1
  Fe  Fe11  1  0.981748  0.750313  0.249620  1
  Fe  Fe12  1  0.274611  0.991119  0.510433  1
  Fe  Fe13  1  0.725389  0.008881  0.489567  1
  Fe  Fe14  1  0.268210  0.491897  0.509601  1
  Fe  Fe15  1  0.731790  0.508103  0.490399  1
  O  O16  1  0.246617  0.152863  0.846448  1
  O  O17  1  0.248148  0.653066  0.846560  1
  O  O18  1  0.995980  0.902569  0.903034  1
  O  O19  1  0.503033  0.400546  0.899563  1
  O  O20  1  0.004020  0.097431  0.096966  1
  O  O21  1  0.496967  0.599454  0.100437  1
  O  O22  1  0.751852  0.346934  0.153440  1
  O  O23  1  0.753383  0.847137  0.153552  1
  O  O24  1  0.752566  0.152623  0.346115  1
  O  O25  1  0.759886  0.652340  0.347203  1
  O  O26  1  0.496318  0.899778  0.400470  1
  O  O27  1  0.496362  0.402816  0.403043  1
  O  O28  1  0.503682  0.100222  0.599530  1
  O  O29  1  0.503638  0.597184  0.596957  1
  O  O30  1  0.247434  0.847377  0.653885  1
  O  O31  1  0.240114  0.347660  0.652797  1
  F  F32  1  0.755020  0.153819  0.846886  1
  F  F33  1  0.753245  0.653281  0.847203  1
  F  F34  1  0.503489  0.903930  0.903376  1
  F  F35  1  0.996302  0.404675  0.904396  1
  F  F36  1  0.496511  0.096070  0.096624  1
  F  F37  1  0.003698  0.595325  0.095604  1
  F  F38  1  0.244980  0.846181  0.153114  1
  F  F39  1  0.246755  0.346719  0.152797  1
  F  F40  1  0.246316  0.153540  0.347317  1
  F  F41  1  0.238536  0.653015  0.347791  1
  F  F42  1  0.003961  0.904841  0.404161  1
  F  F43  1  0.003291  0.403505  0.402963  1
  F  F44  1  0.996039  0.095159  0.595839  1
  F  F45  1  0.996709  0.596495  0.597037  1
  F  F46  1  0.753684  0.846460  0.652683  1
  F  F47  1  0.761464  0.346985  0.652209  1
