# generated using pymatgen
data_Li2MnVP2(HO5)2
_symmetry_space_group_name_H-M   'P 1'
_cell_length_a   5.43506875
_cell_length_b   10.10055952
_cell_length_c   10.35007116
_cell_angle_alpha   79.64856078
_cell_angle_beta   83.65623011
_cell_angle_gamma   79.30865156
_symmetry_Int_Tables_number   1
_chemical_formula_structural   Li2MnVP2(HO5)2
_chemical_formula_sum   'Li6 Mn3 V3 P6 H6 O30'
_cell_volume   547.48720818
_cell_formula_units_Z   3
loop_
 _symmetry_equiv_pos_site_id
 _symmetry_equiv_pos_as_xyz
  1  'x, y, z'
loop_
 _atom_site_type_symbol
 _atom_site_label
 _atom_site_symmetry_multiplicity
 _atom_site_fract_x
 _atom_site_fract_y
 _atom_site_fract_z
 _atom_site_occupancy
  Li  Li0  1  0.206818  0.191746  0.362540  1
  Li  Li1  1  0.127065  0.474769  0.300663  1
  Li  Li2  1  0.463828  0.143676  0.966555  1
  Li  Li3  1  0.536172  0.856324  0.033445  1
  Li  Li4  1  0.872935  0.525231  0.699337  1
  Li  Li5  1  0.793182  0.808254  0.637460  1
  Mn  Mn6  1  0.332593  0.666327  0.665219  1
  Mn  Mn7  1  0.667407  0.333673  0.334781  1
  Mn  Mn8  1  0.500000  0.500000  0.000000  1
  V  V9  1  0.171309  0.831070  0.333480  1
  V  V10  1  0.828691  0.168930  0.666520  1
  V  V11  1  0.000000  0.000000  0.000000  1
  P  P12  1  0.065804  0.304622  0.070116  1
  P  P13  1  0.269045  0.364331  0.595330  1
  P  P14  1  0.612021  0.031376  0.261937  1
  P  P15  1  0.387979  0.968624  0.738063  1
  P  P16  1  0.730955  0.635669  0.404670  1
  P  P17  1  0.934196  0.695378  0.929884  1
  H  H18  1  0.173402  0.764956  0.105459  1
  H  H19  1  0.165349  0.897907  0.562750  1
  H  H20  1  0.500682  0.562986  0.232045  1
  H  H21  1  0.499318  0.437014  0.767955  1
  H  H22  1  0.834651  0.102093  0.437250  1
  H  H23  1  0.826598  0.235044  0.894541  1
  O  O24  1  0.117493  0.147604  0.073356  1
  O  O25  1  0.021274  0.336590  0.211759  1
  O  O26  1  0.022855  0.321635  0.667369  1
  O  O27  1  0.159627  0.035187  0.656276  1
  O  O28  1  0.156605  0.631018  0.014969  1
  O  O29  1  0.320168  0.348220  0.000896  1
  O  O30  1  0.193827  0.853615  0.128932  1
  O  O31  1  0.335220  0.000496  0.882280  1
  O  O32  1  0.313111  0.330146  0.454502  1
  O  O33  1  0.224798  0.522256  0.590150  1
  O  O34  1  0.140239  0.809829  0.540314  1
  O  O35  1  0.563514  0.188490  0.257661  1
  O  O36  1  0.477000  0.474284  0.210365  1
  O  O37  1  0.499088  0.299483  0.677603  1
  O  O38  1  0.364775  0.986268  0.328940  1
  O  O39  1  0.635225  0.013732  0.671060  1
  O  O40  1  0.500912  0.700517  0.322397  1
  O  O41  1  0.523000  0.525716  0.789635  1
  O  O42  1  0.436486  0.811510  0.742339  1
  O  O43  1  0.859761  0.190171  0.459686  1
  O  O44  1  0.775202  0.477744  0.409850  1
  O  O45  1  0.686889  0.669854  0.545498  1
  O  O46  1  0.664780  0.999504  0.117720  1
  O  O47  1  0.806173  0.146385  0.871068  1
  O  O48  1  0.679832  0.651780  0.999104  1
  O  O49  1  0.843395  0.368982  0.985031  1
  O  O50  1  0.840373  0.964813  0.343724  1
  O  O51  1  0.977145  0.678365  0.332631  1
  O  O52  1  0.978726  0.663410  0.788241  1
  O  O53  1  0.882507  0.852396  0.926644  1
