# generated using pymatgen
data_CrPO4
_symmetry_space_group_name_H-M   'P 1'
_cell_length_a   4.72998767
_cell_length_b   6.42292871
_cell_length_c   8.71435996
_cell_angle_alpha   90.00000000
_cell_angle_beta   90.00000000
_cell_angle_gamma   90.00000000
_symmetry_Int_Tables_number   1
_chemical_formula_structural   CrPO4
_chemical_formula_sum   'Cr4 P4 O16'
_cell_volume   264.74551130
_cell_formula_units_Z   4
loop_
 _symmetry_equiv_pos_site_id
 _symmetry_equiv_pos_as_xyz
  1  'x, y, z'
loop_
 _atom_site_type_symbol
 _atom_site_label
 _atom_site_symmetry_multiplicity
 _atom_site_fract_x
 _atom_site_fract_y
 _atom_site_fract_z
 _atom_site_occupancy
  Cr  Cr0  1  0.000000  0.000000  0.000000  1
  Cr  Cr1  1  0.000000  0.500000  0.000000  1
  Cr  Cr2  1  0.500000  0.000000  0.500000  1
  Cr  Cr3  1  0.500000  0.500000  0.500000  1
  P  P4  1  0.524087  0.750000  0.176774  1
  P  P5  1  0.024087  0.250000  0.323226  1
  P  P6  1  0.975913  0.750000  0.676774  1
  P  P7  1  0.475913  0.250000  0.823226  1
  O  O8  1  0.664330  0.950831  0.124672  1
  O  O9  1  0.664330  0.549169  0.124672  1
  O  O10  1  0.056323  0.250000  0.141652  1
  O  O11  1  0.208235  0.750000  0.116892  1
  O  O12  1  0.708235  0.250000  0.383108  1
  O  O13  1  0.556323  0.750000  0.358348  1
  O  O14  1  0.164330  0.450831  0.375328  1
  O  O15  1  0.164330  0.049169  0.375328  1
  O  O16  1  0.835670  0.950831  0.624672  1
  O  O17  1  0.835670  0.549169  0.624672  1
  O  O18  1  0.443677  0.250000  0.641652  1
  O  O19  1  0.291765  0.750000  0.616892  1
  O  O20  1  0.791765  0.250000  0.883108  1
  O  O21  1  0.943677  0.750000  0.858348  1
  O  O22  1  0.335670  0.450831  0.875328  1
  O  O23  1  0.335670  0.049169  0.875328  1
