# generated using pymatgen
data_FeP2(H4O5)2
_symmetry_space_group_name_H-M   'P 1'
_cell_length_a   6.06642768
_cell_length_b   9.74822073
_cell_length_c   8.75109195
_cell_angle_alpha   90.00000000
_cell_angle_beta   125.24447366
_cell_angle_gamma   90.00000000
_symmetry_Int_Tables_number   1
_chemical_formula_structural   FeP2(H4O5)2
_chemical_formula_sum   'Fe2 P4 H16 O20'
_cell_volume   422.65080667
_cell_formula_units_Z   2
loop_
 _symmetry_equiv_pos_site_id
 _symmetry_equiv_pos_as_xyz
  1  'x, y, z'
loop_
 _atom_site_type_symbol
 _atom_site_label
 _atom_site_symmetry_multiplicity
 _atom_site_fract_x
 _atom_site_fract_y
 _atom_site_fract_z
 _atom_site_occupancy
  Fe  Fe0  1  0.000000  0.000000  0.000000  1
  Fe  Fe1  1  0.000000  0.500000  0.500000  1
  P  P2  1  0.524148  0.809058  0.336202  1
  P  P3  1  0.524148  0.690942  0.836202  1
  P  P4  1  0.475852  0.190942  0.663798  1
  P  P5  1  0.475852  0.309058  0.163798  1
  H  H6  1  0.802620  0.563307  0.805708  1
  H  H7  1  0.802620  0.936693  0.305708  1
  H  H8  1  0.197380  0.436693  0.194292  1
  H  H9  1  0.197380  0.063307  0.694292  1
  H  H10  1  0.260078  0.374564  0.462022  1
  H  H11  1  0.260078  0.125436  0.962022  1
  H  H12  1  0.739922  0.625436  0.537978  1
  H  H13  1  0.739922  0.874564  0.037978  1
  H  H14  1  0.632873  0.225443  0.486576  1
  H  H15  1  0.632873  0.274557  0.986576  1
  H  H16  1  0.367127  0.774557  0.513424  1
  H  H17  1  0.367127  0.725443  0.013424  1
  H  H18  1  0.086927  0.572785  0.793930  1
  H  H19  1  0.086927  0.927215  0.293930  1
  H  H20  1  0.913073  0.427215  0.206070  1
  H  H21  1  0.913073  0.072785  0.706070  1
  O  O22  1  0.307681  0.823558  0.126788  1
  O  O23  1  0.307681  0.676442  0.626788  1
  O  O24  1  0.692319  0.176442  0.873212  1
  O  O25  1  0.692319  0.323558  0.373212  1
  O  O26  1  0.622496  0.656568  0.388136  1
  O  O27  1  0.622496  0.843432  0.888136  1
  O  O28  1  0.377504  0.343432  0.611864  1
  O  O29  1  0.377504  0.156568  0.111864  1
  O  O30  1  0.090305  0.040384  0.814716  1
  O  O31  1  0.090305  0.459616  0.314716  1
  O  O32  1  0.909695  0.959616  0.185284  1
  O  O33  1  0.909695  0.540384  0.685284  1
  O  O34  1  0.415821  0.649157  0.955586  1
  O  O35  1  0.415821  0.850843  0.455586  1
  O  O36  1  0.584179  0.350843  0.044414  1
  O  O37  1  0.584179  0.149157  0.544414  1
  O  O38  1  0.767919  0.906370  0.403490  1
  O  O39  1  0.767919  0.593630  0.903490  1
  O  O40  1  0.232081  0.093630  0.596510  1
  O  O41  1  0.232081  0.406370  0.096510  1
