# generated using pymatgen
data_Lu4Al2O9
_symmetry_space_group_name_H-M   'P 1'
_cell_length_a   7.21616103
_cell_length_b   10.30681320
_cell_length_c   11.04983383
_cell_angle_alpha   90.00000000
_cell_angle_beta   108.06756442
_cell_angle_gamma   90.00000000
_symmetry_Int_Tables_number   1
_chemical_formula_structural   Lu4Al2O9
_chemical_formula_sum   'Lu16 Al8 O36'
_cell_volume   781.31463451
_cell_formula_units_Z   4
loop_
 _symmetry_equiv_pos_site_id
 _symmetry_equiv_pos_as_xyz
  1  'x, y, z'
loop_
 _atom_site_type_symbol
 _atom_site_label
 _atom_site_symmetry_multiplicity
 _atom_site_fract_x
 _atom_site_fract_y
 _atom_site_fract_z
 _atom_site_occupancy
  Lu  Lu0  1  0.907382  0.628965  0.059594  1
  Lu  Lu1  1  0.907382  0.871035  0.559594  1
  Lu  Lu2  1  0.775204  0.403942  0.305095  1
  Lu  Lu3  1  0.733450  0.887830  0.215212  1
  Lu  Lu4  1  0.775204  0.096058  0.805095  1
  Lu  Lu5  1  0.584244  0.116817  0.410195  1
  Lu  Lu6  1  0.733450  0.612170  0.715212  1
  Lu  Lu7  1  0.415756  0.616817  0.089805  1
  Lu  Lu8  1  0.584244  0.383183  0.910195  1
  Lu  Lu9  1  0.266550  0.387830  0.284788  1
  Lu  Lu10  1  0.415756  0.883183  0.589805  1
  Lu  Lu11  1  0.224796  0.903942  0.194905  1
  Lu  Lu12  1  0.266550  0.112170  0.784788  1
  Lu  Lu13  1  0.224796  0.596058  0.694905  1
  Lu  Lu14  1  0.092618  0.128965  0.440406  1
  Lu  Lu15  1  0.092618  0.371035  0.940406  1
  Al  Al16  1  0.950232  0.175908  0.124392  1
  Al  Al17  1  0.950232  0.324092  0.624392  1
  Al  Al18  1  0.588207  0.681575  0.387268  1
  Al  Al19  1  0.411793  0.181575  0.112732  1
  Al  Al20  1  0.588207  0.818425  0.887268  1
  Al  Al21  1  0.411793  0.318425  0.612732  1
  Al  Al22  1  0.049768  0.675908  0.375608  1
  Al  Al23  1  0.049768  0.824092  0.875608  1
  O  O24  1  0.933895  0.008259  0.143906  1
  O  O25  1  0.976359  0.258189  0.270208  1
  O  O26  1  0.832595  0.000890  0.391119  1
  O  O27  1  0.822396  0.730628  0.385932  1
  O  O28  1  0.689209  0.493297  0.107204  1
  O  O29  1  0.933895  0.491741  0.643906  1
  O  O30  1  0.976359  0.241811  0.770208  1
  O  O31  1  0.616980  0.760155  0.042302  1
  O  O32  1  0.811862  0.264252  0.475804  1
  O  O33  1  0.533560  0.272203  0.248422  1
  O  O34  1  0.832595  0.499110  0.891119  1
  O  O35  1  0.822396  0.769372  0.885932  1
  O  O36  1  0.473856  0.022826  0.168693  1
  O  O37  1  0.689209  0.006703  0.607204  1
  O  O38  1  0.526144  0.522826  0.331307  1
  O  O39  1  0.616980  0.739845  0.542302  1
  O  O40  1  0.466440  0.772203  0.251578  1
  O  O41  1  0.811862  0.235748  0.975804  1
  O  O42  1  0.188138  0.764252  0.024196  1
  O  O43  1  0.533560  0.227797  0.748422  1
  O  O44  1  0.383020  0.260155  0.457698  1
  O  O45  1  0.473856  0.477174  0.668693  1
  O  O46  1  0.310791  0.993297  0.392796  1
  O  O47  1  0.526144  0.977174  0.831307  1
  O  O48  1  0.177604  0.230628  0.114068  1
  O  O49  1  0.167405  0.500890  0.108881  1
  O  O50  1  0.466440  0.727797  0.751578  1
  O  O51  1  0.188138  0.735748  0.524196  1
  O  O52  1  0.383020  0.239845  0.957698  1
  O  O53  1  0.023641  0.758189  0.229792  1
  O  O54  1  0.066105  0.508259  0.356094  1
  O  O55  1  0.310791  0.506703  0.892796  1
  O  O56  1  0.177604  0.269372  0.614068  1
  O  O57  1  0.167405  0.999110  0.608881  1
  O  O58  1  0.023641  0.741811  0.729792  1
  O  O59  1  0.066105  0.991741  0.856094  1
