# generated using pymatgen
data_Li6TiNi7O16
_symmetry_space_group_name_H-M   'P 1'
_cell_length_a   6.42231032
_cell_length_b   6.55295972
_cell_length_c   7.69150890
_cell_angle_alpha   75.96973539
_cell_angle_beta   65.81840156
_cell_angle_gamma   70.80066554
_symmetry_Int_Tables_number   1
_chemical_formula_structural   Li6TiNi7O16
_chemical_formula_sum   'Li6 Ti1 Ni7 O16'
_cell_volume   276.68133703
_cell_formula_units_Z   1
loop_
 _symmetry_equiv_pos_site_id
 _symmetry_equiv_pos_as_xyz
  1  'x, y, z'
loop_
 _atom_site_type_symbol
 _atom_site_label
 _atom_site_symmetry_multiplicity
 _atom_site_fract_x
 _atom_site_fract_y
 _atom_site_fract_z
 _atom_site_occupancy
  Li  Li0  1  0.176810  0.321297  0.443215  1
  Li  Li1  1  0.942981  0.548536  0.194851  1
  Li  Li2  1  0.561098  0.931933  0.309782  1
  Li  Li3  1  0.451595  0.059716  0.688256  1
  Li  Li4  1  0.057836  0.452204  0.803370  1
  Li  Li5  1  0.667961  0.831279  0.931088  1
  Ti  Ti6  1  0.007066  0.020090  0.994939  1
  Ni  Ni7  1  0.610287  0.372150  0.129803  1
  Ni  Ni8  1  0.249945  0.751774  0.256883  1
  Ni  Ni9  1  0.876359  0.124015  0.375157  1
  Ni  Ni10  1  0.503386  0.497826  0.496687  1
  Ni  Ni11  1  0.123565  0.866607  0.626634  1
  Ni  Ni12  1  0.749857  0.251258  0.751315  1
  Ni  Ni13  1  0.373473  0.618619  0.874677  1
  O  O14  1  0.683379  0.076350  0.031380  1
  O  O15  1  0.289268  0.496759  0.157376  1
  O  O16  1  0.204189  0.000106  0.371324  1
  O  O17  1  0.937660  0.282930  0.097963  1
  O  O18  1  0.567780  0.646801  0.244076  1
  O  O19  1  0.540124  0.243539  0.395142  1
  O  O20  1  0.188018  0.582869  0.529943  1
  O  O21  1  0.075924  0.161803  0.730571  1
  O  O22  1  0.931784  0.866904  0.268190  1
  O  O23  1  0.830866  0.384287  0.460026  1
  O  O24  1  0.449282  0.753570  0.595261  1
  O  O25  1  0.437031  0.355074  0.749329  1
  O  O26  1  0.054852  0.729184  0.892645  1
  O  O27  1  0.799942  0.993331  0.655028  1
  O  O28  1  0.685729  0.505252  0.868577  1
  O  O29  1  0.335814  0.895629  0.958164  1
