# generated using pymatgen
data_Li4TiMn2Ni3(PO4)6
_symmetry_space_group_name_H-M   'P 1'
_cell_length_a   8.50646851
_cell_length_b   8.58803482
_cell_length_c   8.59847196
_cell_angle_alpha   61.75785966
_cell_angle_beta   62.09886432
_cell_angle_gamma   61.98712753
_symmetry_Int_Tables_number   1
_chemical_formula_structural   Li4TiMn2Ni3(PO4)6
_chemical_formula_sum   'Li4 Ti1 Mn2 Ni3 P6 O24'
_cell_volume   463.52230268
_cell_formula_units_Z   1
loop_
 _symmetry_equiv_pos_site_id
 _symmetry_equiv_pos_as_xyz
  1  'x, y, z'
loop_
 _atom_site_type_symbol
 _atom_site_label
 _atom_site_symmetry_multiplicity
 _atom_site_fract_x
 _atom_site_fract_y
 _atom_site_fract_z
 _atom_site_occupancy
  Li  Li0  1  0.252110  0.646858  0.848200  1
  Li  Li1  1  0.708022  0.350060  0.150344  1
  Li  Li2  1  0.351778  0.148382  0.708409  1
  Li  Li3  1  0.148686  0.706059  0.351710  1
  Ti  Ti4  1  0.147921  0.149039  0.154627  1
  Mn  Mn5  1  0.983214  0.002878  0.997758  1
  Mn  Mn6  1  0.512135  0.499279  0.495009  1
  Ni  Ni7  1  0.855675  0.853302  0.851011  1
  Ni  Ni8  1  0.643740  0.647898  0.643855  1
  Ni  Ni9  1  0.355233  0.349991  0.353457  1
  P  P10  1  0.754522  0.042041  0.455259  1
  P  P11  1  0.447225  0.752383  0.040907  1
  P  P12  1  0.050620  0.456775  0.755556  1
  P  P13  1  0.953447  0.552568  0.255228  1
  P  P14  1  0.552470  0.251611  0.954111  1
  P  P15  1  0.252578  0.953468  0.554236  1
  O  O16  1  0.882353  0.496248  0.709546  1
  O  O17  1  0.698461  0.888184  0.477829  1
  O  O18  1  0.949317  0.733445  0.086359  1
  O  O19  1  0.449039  0.701040  0.892047  1
  O  O20  1  0.011881  0.382070  0.191311  1
  O  O21  1  0.761957  0.558121  0.405870  1
  O  O22  1  0.740652  0.096548  0.924997  1
  O  O23  1  0.532312  0.416346  0.772735  1
  O  O24  1  0.825327  0.006945  0.602835  1
  O  O25  1  0.401645  0.758455  0.561688  1
  O  O26  1  0.907721  0.080789  0.250762  1
  O  O27  1  0.608758  0.813317  0.989048  1
  O  O28  1  0.383274  0.180990  0.018960  1
  O  O29  1  0.099279  0.925992  0.746726  1
  O  O30  1  0.596326  0.239659  0.433506  1
  O  O31  1  0.184674  0.011306  0.387766  1
  O  O32  1  0.434872  0.592735  0.236514  1
  O  O33  1  0.246918  0.908601  0.085078  1
  O  O34  1  0.244729  0.428158  0.595137  1
  O  O35  1  0.039925  0.602495  0.816423  1
  O  O36  1  0.529777  0.311937  0.106515  1
  O  O37  1  0.078719  0.254170  0.911672  1
  O  O38  1  0.317300  0.104610  0.526906  1
  O  O39  1  0.105413  0.522246  0.323095  1
