# generated using pymatgen
data_Li4Mn3Co3(NiO8)2
_symmetry_space_group_name_H-M   'P 1'
_cell_length_a   5.73642311
_cell_length_b   5.73642311
_cell_length_c   9.55577970
_cell_angle_alpha   89.94265543
_cell_angle_beta   90.05734457
_cell_angle_gamma   119.82541631
_symmetry_Int_Tables_number   1
_chemical_formula_structural   Li4Mn3Co3(NiO8)2
_chemical_formula_sum   'Li4 Mn3 Co3 Ni2 O16'
_cell_volume   272.79735754
_cell_formula_units_Z   1
loop_
 _symmetry_equiv_pos_site_id
 _symmetry_equiv_pos_as_xyz
  1  'x, y, z'
loop_
 _atom_site_type_symbol
 _atom_site_label
 _atom_site_symmetry_multiplicity
 _atom_site_fract_x
 _atom_site_fract_y
 _atom_site_fract_z
 _atom_site_occupancy
  Li  Li0  1  0.335660  0.664340  0.105241  1
  Li  Li1  1  0.995171  0.004829  0.001133  1
  Li  Li2  1  0.994197  0.005803  0.503903  1
  Li  Li3  1  0.669301  0.330699  0.609147  1
  Mn  Mn4  1  0.170149  0.829851  0.784302  1
  Mn  Mn5  1  0.338112  0.167720  0.284645  1
  Mn  Mn6  1  0.832280  0.661888  0.284645  1
  Co  Co7  1  0.169430  0.335901  0.786669  1
  Co  Co8  1  0.664099  0.830570  0.786669  1
  Co  Co9  1  0.832013  0.167987  0.286580  1
  Ni  Ni10  1  0.332941  0.667059  0.511052  1
  Ni  Ni11  1  0.665701  0.334299  0.009587  1
  O  O12  1  0.154049  0.318901  0.391617  1
  O  O13  1  0.483169  0.516831  0.675725  1
  O  O14  1  0.334343  0.665657  0.891354  1
  O  O15  1  0.999523  0.000477  0.689257  1
  O  O16  1  0.999145  0.000855  0.187397  1
  O  O17  1  0.681099  0.845951  0.391617  1
  O  O18  1  0.036031  0.511903  0.670322  1
  O  O19  1  0.488097  0.963969  0.670322  1
  O  O20  1  0.840272  0.159728  0.887205  1
  O  O21  1  0.157598  0.842402  0.396335  1
  O  O22  1  0.522279  0.033116  0.170228  1
  O  O23  1  0.966884  0.477721  0.170228  1
  O  O24  1  0.666534  0.333466  0.392406  1
  O  O25  1  0.316425  0.162317  0.893090  1
  O  O26  1  0.517363  0.482637  0.168393  1
  O  O27  1  0.837683  0.683575  0.893090  1
