# generated using pymatgen
data_LiFeO3
_symmetry_space_group_name_H-M   'P 1'
_cell_length_a   8.69735608
_cell_length_b   8.69735608
_cell_length_c   9.89540583
_cell_angle_alpha   82.35823598
_cell_angle_beta   97.64176402
_cell_angle_gamma   121.05394811
_symmetry_Int_Tables_number   1
_chemical_formula_structural   LiFeO3
_chemical_formula_sum   'Li12 Fe12 O36'
_cell_volume   633.72575610
_cell_formula_units_Z   12
loop_
 _symmetry_equiv_pos_site_id
 _symmetry_equiv_pos_as_xyz
  1  'x, y, z'
loop_
 _atom_site_type_symbol
 _atom_site_label
 _atom_site_symmetry_multiplicity
 _atom_site_fract_x
 _atom_site_fract_y
 _atom_site_fract_z
 _atom_site_occupancy
  Li  Li0  1  0.994784  0.324502  0.505429  1
  Li  Li1  1  0.868710  0.131290  0.957689  1
  Li  Li2  1  0.722017  0.277983  0.073545  1
  Li  Li3  1  0.675498  0.005216  0.505429  1
  Li  Li4  1  0.648510  0.351490  0.520861  1
  Li  Li5  1  0.536331  0.463669  0.959047  1
  Li  Li6  1  0.436504  0.563496  0.439480  1
  Li  Li7  1  0.387383  0.612617  0.069328  1
  Li  Li8  1  0.201228  0.798772  0.960188  1
  Li  Li9  1  0.227809  0.772191  0.567433  1
  Li  Li10  1  0.053995  0.946005  0.070812  1
  Li  Li11  1  0.013531  0.986469  0.486039  1
  Fe  Fe12  1  0.918601  0.419696  0.751831  1
  Fe  Fe13  1  0.911484  0.747938  0.748275  1
  Fe  Fe14  1  0.743730  0.918421  0.250157  1
  Fe  Fe15  1  0.750441  0.589804  0.253243  1
  Fe  Fe16  1  0.580304  0.081399  0.751831  1
  Fe  Fe17  1  0.585204  0.751473  0.750157  1
  Fe  Fe18  1  0.410196  0.249559  0.253243  1
  Fe  Fe19  1  0.413476  0.922224  0.252489  1
  Fe  Fe20  1  0.248527  0.414796  0.750157  1
  Fe  Fe21  1  0.252062  0.088516  0.748275  1
  Fe  Fe22  1  0.081579  0.256270  0.250157  1
  Fe  Fe23  1  0.077776  0.586524  0.252489  1
  O  O24  1  0.982268  0.387007  0.145523  1
  O  O25  1  0.940095  0.059905  0.138975  1
  O  O26  1  0.947296  0.684850  0.145332  1
  O  O27  1  0.881797  0.489862  0.359579  1
  O  O28  1  0.888541  0.111459  0.369092  1
  O  O29  1  0.841943  0.787789  0.356330  1
  O  O30  1  0.819535  0.549014  0.644385  1
  O  O31  1  0.774810  0.225190  0.633245  1
  O  O32  1  0.781377  0.849544  0.640453  1
  O  O33  1  0.648148  0.719006  0.145411  1
  O  O34  1  0.729567  0.270433  0.868868  1
  O  O35  1  0.719821  0.659148  0.856069  1
  O  O36  1  0.607883  0.392117  0.141680  1
  O  O37  1  0.612993  0.017732  0.145523  1
  O  O38  1  0.674003  0.946370  0.856300  1
  O  O39  1  0.551671  0.448329  0.362984  1
  O  O40  1  0.549018  0.825068  0.360382  1
  O  O41  1  0.510138  0.118203  0.359579  1
  O  O42  1  0.486624  0.885333  0.641217  1
  O  O43  1  0.450986  0.180465  0.644385  1
  O  O44  1  0.443929  0.556071  0.641027  1
  O  O45  1  0.315150  0.052704  0.145332  1
  O  O46  1  0.385114  0.991948  0.855600  1
  O  O47  1  0.395173  0.604827  0.867492  1
  O  O48  1  0.280994  0.351852  0.145411  1
  O  O49  1  0.275045  0.724955  0.140710  1
  O  O50  1  0.340852  0.280179  0.856069  1
  O  O51  1  0.212211  0.158057  0.356330  1
  O  O52  1  0.219417  0.780583  0.362128  1
  O  O53  1  0.174932  0.450982  0.360382  1
  O  O54  1  0.150456  0.218623  0.640453  1
  O  O55  1  0.111693  0.888307  0.639521  1
  O  O56  1  0.114667  0.513376  0.641217  1
  O  O57  1  0.053630  0.325997  0.856300  1
  O  O58  1  0.061633  0.938367  0.865871  1
  O  O59  1  0.008052  0.614886  0.855600  1
