# generated using pymatgen
data_Mn13Fe11O32
_symmetry_space_group_name_H-M   'P 1'
_cell_length_a   6.06801790
_cell_length_b   6.16525083
_cell_length_c   20.35504052
_cell_angle_alpha   97.06893228
_cell_angle_beta   89.75329984
_cell_angle_gamma   119.30268410
_symmetry_Int_Tables_number   1
_chemical_formula_structural   Mn13Fe11O32
_chemical_formula_sum   'Mn13 Fe11 O32'
_cell_volume   657.63768651
_cell_formula_units_Z   1
loop_
 _symmetry_equiv_pos_site_id
 _symmetry_equiv_pos_as_xyz
  1  'x, y, z'
loop_
 _atom_site_type_symbol
 _atom_site_label
 _atom_site_symmetry_multiplicity
 _atom_site_fract_x
 _atom_site_fract_y
 _atom_site_fract_z
 _atom_site_occupancy
  Mn  Mn0  1  0.094470  0.906637  0.281288  1
  Mn  Mn1  1  0.746005  0.243620  0.249846  1
  Mn  Mn2  1  0.125499  0.380040  0.375225  1
  Mn  Mn3  1  0.155468  0.848626  0.469716  1
  Mn  Mn4  1  0.404229  0.590137  0.219261  1
  Mn  Mn5  1  0.844532  0.151374  0.530284  1
  Mn  Mn6  1  0.253995  0.756380  0.750154  1
  Mn  Mn7  1  0.874501  0.619960  0.624775  1
  Mn  Mn8  1  0.905530  0.093363  0.718712  1
  Mn  Mn9  1  0.348614  0.663174  0.031011  1
  Mn  Mn10  1  0.595771  0.409863  0.780739  1
  Mn  Mn11  1  0.000000  0.000000  0.000000  1
  Mn  Mn12  1  0.651386  0.336826  0.968989  1
  Fe  Fe13  1  0.624044  0.875524  0.375558  1
  Fe  Fe14  1  0.627312  0.378598  0.374984  1
  Fe  Fe15  1  0.375956  0.124476  0.624442  1
  Fe  Fe16  1  0.372688  0.621402  0.625016  1
  Fe  Fe17  1  0.500000  0.500000  0.500000  1
  Fe  Fe18  1  0.122622  0.872796  0.874587  1
  Fe  Fe19  1  0.121870  0.372985  0.874847  1
  Fe  Fe20  1  0.624557  0.873372  0.874945  1
  Fe  Fe21  1  0.375443  0.126628  0.125055  1
  Fe  Fe22  1  0.878130  0.627015  0.125153  1
  Fe  Fe23  1  0.877378  0.127204  0.125413  1
  O  O24  1  0.322886  0.229241  0.433822  1
  O  O25  1  0.346915  0.692046  0.438372  1
  O  O26  1  0.902387  0.066283  0.310872  1
  O  O27  1  0.931779  0.534460  0.319575  1
  O  O28  1  0.473650  0.089424  0.316423  1
  O  O29  1  0.221293  0.332899  0.566694  1
  O  O30  1  0.816826  0.188455  0.426894  1
  O  O31  1  0.778707  0.667101  0.433306  1
  O  O32  1  0.183174  0.811545  0.573106  1
  O  O33  1  0.434172  0.564008  0.323114  1
  O  O34  1  0.068221  0.465540  0.680425  1
  O  O35  1  0.097613  0.933717  0.689128  1
  O  O36  1  0.653085  0.307954  0.561628  1
  O  O37  1  0.677114  0.770759  0.566178  1
  O  O38  1  0.304029  0.677764  0.927716  1
  O  O39  1  0.565828  0.435992  0.676886  1
  O  O40  1  0.976980  0.586888  0.814915  1
  O  O41  1  0.944512  0.070153  0.821962  1
  O  O42  1  0.526350  0.910576  0.683577  1
  O  O43  1  0.268822  0.160620  0.935308  1
  O  O44  1  0.818171  0.707722  0.929394  1
  O  O45  1  0.825603  0.161013  0.935470  1
  O  O46  1  0.420115  0.585554  0.813426  1
  O  O47  1  0.429358  0.038796  0.820215  1
  O  O48  1  0.181829  0.292278  0.070606  1
  O  O49  1  0.174397  0.838987  0.064530  1
  O  O50  1  0.731178  0.839380  0.064692  1
  O  O51  1  0.055488  0.929847  0.178038  1
  O  O52  1  0.023020  0.413112  0.185085  1
  O  O53  1  0.695971  0.322236  0.072284  1
  O  O54  1  0.570642  0.961204  0.179785  1
  O  O55  1  0.579885  0.414446  0.186574  1
