# generated using pymatgen
data_Hg2P2H4O9
_symmetry_space_group_name_H-M   'P 1'
_cell_length_a   7.04463560
_cell_length_b   7.54475697
_cell_length_c   8.10762844
_cell_angle_alpha   84.91394206
_cell_angle_beta   75.12871854
_cell_angle_gamma   73.57107492
_symmetry_Int_Tables_number   1
_chemical_formula_structural   Hg2P2H4O9
_chemical_formula_sum   'Hg4 P4 H8 O18'
_cell_volume   399.42258726
_cell_formula_units_Z   2
loop_
 _symmetry_equiv_pos_site_id
 _symmetry_equiv_pos_as_xyz
  1  'x, y, z'
loop_
 _atom_site_type_symbol
 _atom_site_label
 _atom_site_symmetry_multiplicity
 _atom_site_fract_x
 _atom_site_fract_y
 _atom_site_fract_z
 _atom_site_occupancy
  Hg  Hg0  1  0.189319  0.230936  0.521327  1
  Hg  Hg1  1  0.263737  0.635798  0.754699  1
  Hg  Hg2  1  0.736263  0.364202  0.245301  1
  Hg  Hg3  1  0.810681  0.769064  0.478673  1
  P  P4  1  0.222621  0.536451  0.188077  1
  P  P5  1  0.330797  0.795542  0.361578  1
  P  P6  1  0.669203  0.204458  0.638422  1
  P  P7  1  0.777379  0.463549  0.811923  1
  H  H8  1  0.177572  0.103034  0.144486  1
  H  H9  1  0.166630  0.270398  0.014143  1
  H  H10  1  0.201342  0.029611  0.870209  1
  H  H11  1  0.583065  0.024810  0.261266  1
  H  H12  1  0.416935  0.975190  0.738734  1
  H  H13  1  0.798658  0.970389  0.129791  1
  H  H14  1  0.833370  0.729602  0.985857  1
  H  H15  1  0.822428  0.896966  0.855514  1
  O  O16  1  0.110517  0.163222  0.053033  1
  O  O17  1  0.007689  0.430931  0.727586  1
  O  O18  1  0.312225  0.004107  0.322482  1
  O  O19  1  0.164416  0.759343  0.518004  1
  O  O20  1  0.275848  0.732456  0.195827  1
  O  O21  1  0.357305  0.390201  0.283947  1
  O  O22  1  0.269028  0.486538  0.000472  1
  O  O23  1  0.453868  0.312564  0.630637  1
  O  O24  1  0.727827  0.025004  0.245055  1
  O  O25  1  0.272173  0.974996  0.754945  1
  O  O26  1  0.546132  0.687436  0.369363  1
  O  O27  1  0.730972  0.513462  0.999528  1
  O  O28  1  0.642695  0.609799  0.716053  1
  O  O29  1  0.724152  0.267544  0.804173  1
  O  O30  1  0.835584  0.240657  0.481996  1
  O  O31  1  0.687775  0.995893  0.677518  1
  O  O32  1  0.992311  0.569069  0.272414  1
  O  O33  1  0.889483  0.836778  0.946967  1
