# generated using pymatgen
data_Sn8P2O13
_symmetry_space_group_name_H-M   'P 1'
_cell_length_a   7.31873655
_cell_length_b   7.31873655
_cell_length_c   14.34080626
_cell_angle_alpha   84.25657381
_cell_angle_beta   95.74342619
_cell_angle_gamma   91.97285374
_symmetry_Int_Tables_number   1
_chemical_formula_structural   Sn8P2O13
_chemical_formula_sum   'Sn16 P4 O26'
_cell_volume   760.22550290
_cell_formula_units_Z   2
loop_
 _symmetry_equiv_pos_site_id
 _symmetry_equiv_pos_as_xyz
  1  'x, y, z'
loop_
 _atom_site_type_symbol
 _atom_site_label
 _atom_site_symmetry_multiplicity
 _atom_site_fract_x
 _atom_site_fract_y
 _atom_site_fract_z
 _atom_site_occupancy
  Sn  Sn0  1  0.925741  0.074259  0.305566  1
  Sn  Sn1  1  0.737007  0.262993  0.487562  1
  Sn  Sn2  1  0.672470  0.327530  0.109123  1
  Sn  Sn3  1  0.451904  0.075780  0.294123  1
  Sn  Sn4  1  0.924220  0.548096  0.294123  1
  Sn  Sn5  1  0.574339  0.425661  0.715504  1
  Sn  Sn6  1  0.329223  0.162033  0.903597  1
  Sn  Sn7  1  0.837967  0.670777  0.903597  1
  Sn  Sn8  1  0.670777  0.837967  0.096403  1
  Sn  Sn9  1  0.162033  0.329223  0.096403  1
  Sn  Sn10  1  0.425661  0.574339  0.284496  1
  Sn  Sn11  1  0.548096  0.924220  0.705877  1
  Sn  Sn12  1  0.075780  0.451904  0.705877  1
  Sn  Sn13  1  0.327530  0.672470  0.890877  1
  Sn  Sn14  1  0.262993  0.737007  0.512438  1
  Sn  Sn15  1  0.074259  0.925741  0.694434  1
  P  P16  1  0.844311  0.155689  0.901308  1
  P  P17  1  0.746604  0.746604  0.500000  1
  P  P18  1  0.253396  0.253396  0.500000  1
  P  P19  1  0.155689  0.844311  0.098692  1
  O  O20  1  0.851984  0.148016  0.010047  1
  O  O21  1  0.665293  0.051676  0.190625  1
  O  O22  1  0.948324  0.334707  0.190625  1
  O  O23  1  0.730572  0.269428  0.338027  1
  O  O24  1  0.217062  0.034203  0.134606  1
  O  O25  1  0.965797  0.782938  0.134606  1
  O  O26  1  0.700820  0.299180  0.856421  1
  O  O27  1  0.422109  0.264191  0.439573  1
  O  O28  1  0.735809  0.577891  0.439573  1
  O  O29  1  0.670516  0.618715  0.212521  1
  O  O30  1  0.381285  0.329484  0.212521  1
  O  O31  1  0.260996  0.073094  0.567474  1
  O  O32  1  0.926906  0.739004  0.567474  1
  O  O33  1  0.739004  0.926906  0.432526  1
  O  O34  1  0.073094  0.260996  0.432526  1
  O  O35  1  0.618715  0.670516  0.787479  1
  O  O36  1  0.329484  0.381285  0.787479  1
  O  O37  1  0.577891  0.735809  0.560427  1
  O  O38  1  0.264191  0.422109  0.560427  1
  O  O39  1  0.299180  0.700820  0.143579  1
  O  O40  1  0.782938  0.965797  0.865394  1
  O  O41  1  0.034203  0.217062  0.865394  1
  O  O42  1  0.269428  0.730572  0.661973  1
  O  O43  1  0.334707  0.948324  0.809375  1
  O  O44  1  0.051676  0.665293  0.809375  1
  O  O45  1  0.148016  0.851984  0.989953  1
