# generated using pymatgen
data_Th(MoO4)2
_symmetry_space_group_name_H-M   'P 1'
_cell_length_a   18.68800830
_cell_length_b   18.68800830
_cell_length_c   6.20651573
_cell_angle_alpha   90.00000000
_cell_angle_beta   90.00000000
_cell_angle_gamma   120.00000000
_symmetry_Int_Tables_number   1
_chemical_formula_structural   Th(MoO4)2
_chemical_formula_sum   'Th9 Mo18 O72'
_cell_volume   1877.17399287
_cell_formula_units_Z   9
loop_
 _symmetry_equiv_pos_site_id
 _symmetry_equiv_pos_as_xyz
  1  'x, y, z'
loop_
 _atom_site_type_symbol
 _atom_site_label
 _atom_site_symmetry_multiplicity
 _atom_site_fract_x
 _atom_site_fract_y
 _atom_site_fract_z
 _atom_site_occupancy
  Th  Th0  1  0.000000  0.000000  0.000000  1
  Th  Th1  1  0.001636  0.648240  0.500000  1
  Th  Th2  1  0.314576  0.996764  0.500000  1
  Th  Th3  1  0.351760  0.353395  0.500000  1
  Th  Th4  1  0.333333  0.666667  0.000000  1
  Th  Th5  1  0.003236  0.317812  0.500000  1
  Th  Th6  1  0.682188  0.685424  0.500000  1
  Th  Th7  1  0.646605  0.998364  0.500000  1
  Th  Th8  1  0.666667  0.333333  0.000000  1
  Mo  Mo9  1  0.106582  0.254578  0.000000  1
  Mo  Mo10  1  0.188300  0.677112  0.500000  1
  Mo  Mo11  1  0.147995  0.893418  0.000000  1
  Mo  Mo12  1  0.758300  0.590703  0.000000  1
  Mo  Mo13  1  0.409297  0.167598  0.000000  1
  Mo  Mo14  1  0.488811  0.811700  0.500000  1
  Mo  Mo15  1  0.511473  0.597795  0.000000  1
  Mo  Mo16  1  0.885606  0.058487  0.500000  1
  Mo  Mo17  1  0.745422  0.852005  0.000000  1
  Mo  Mo18  1  0.535277  0.363414  0.500000  1
  Mo  Mo19  1  0.832402  0.241700  0.000000  1
  Mo  Mo20  1  0.636586  0.171863  0.500000  1
  Mo  Mo21  1  0.941513  0.827119  0.500000  1
  Mo  Mo22  1  0.402205  0.913678  0.000000  1
  Mo  Mo23  1  0.086322  0.488527  0.000000  1
  Mo  Mo24  1  0.172881  0.114394  0.500000  1
  Mo  Mo25  1  0.322888  0.511189  0.500000  1
  Mo  Mo26  1  0.828137  0.464723  0.500000  1
  O  O27  1  0.640711  0.228774  0.266795  1
  O  O28  1  0.244257  0.679433  0.267839  1
  O  O29  1  0.713877  0.136997  0.500000  1
  O  O30  1  0.107530  0.080425  0.271966  1
  O  O31  1  0.588063  0.359289  0.733205  1
  O  O32  1  0.897034  0.271394  0.758916  1
  O  O33  1  0.210411  0.918955  0.756739  1
  O  O34  1  0.919575  0.027105  0.728034  1
  O  O35  1  0.453834  0.651301  0.000000  1
  O  O36  1  0.728606  0.625640  0.758916  1
  O  O37  1  0.374360  0.102966  0.241084  1
  O  O38  1  0.210411  0.918955  0.243261  1
  O  O39  1  0.081045  0.291456  0.756739  1
  O  O40  1  0.243554  0.229992  0.500000  1
  O  O41  1  0.372972  0.945782  0.245534  1
  O  O42  1  0.713159  0.925702  0.000000  1
  O  O43  1  0.771226  0.411937  0.266795  1
  O  O44  1  0.520467  0.449687  0.500000  1
  O  O45  1  0.929220  0.479533  0.500000  1
  O  O46  1  0.519777  0.223554  0.000000  1
  O  O47  1  0.776446  0.296223  0.000000  1
  O  O48  1  0.197467  0.546166  0.000000  1
  O  O49  1  0.602133  0.858139  0.500000  1
  O  O50  1  0.412925  0.499789  0.500000  1
  O  O51  1  0.212543  0.286841  0.000000  1
  O  O52  1  0.934242  0.167108  0.500000  1
  O  O53  1  0.043353  0.143906  0.000000  1
  O  O54  1  0.572810  0.627028  0.754466  1
  O  O55  1  0.074298  0.787457  0.000000  1
  O  O56  1  0.320567  0.564824  0.732161  1
  O  O57  1  0.703777  0.480223  0.000000  1
  O  O58  1  0.443524  0.490229  0.000000  1
  O  O59  1  0.856094  0.899446  0.000000  1
  O  O60  1  0.081045  0.291456  0.243261  1
  O  O61  1  0.919575  0.027105  0.271966  1
  O  O62  1  0.374360  0.102966  0.758916  1
  O  O63  1  0.865115  0.626726  0.000000  1
  O  O64  1  0.256006  0.397867  0.500000  1
  O  O65  1  0.986438  0.756446  0.500000  1
  O  O66  1  0.107530  0.080425  0.728034  1
  O  O67  1  0.708544  0.789589  0.756739  1
  O  O68  1  0.572810  0.627028  0.245534  1
  O  O69  1  0.761611  0.134885  0.000000  1
  O  O70  1  0.435176  0.755743  0.732161  1
  O  O71  1  0.509771  0.953295  0.000000  1
  O  O72  1  0.897034  0.271394  0.241084  1
  O  O73  1  0.435176  0.755743  0.267839  1
  O  O74  1  0.863003  0.576880  0.500000  1
  O  O75  1  0.046705  0.556476  0.000000  1
  O  O76  1  0.054218  0.427190  0.245534  1
  O  O77  1  0.141861  0.743994  0.500000  1
  O  O78  1  0.348699  0.802533  0.000000  1
  O  O79  1  0.640711  0.228774  0.733205  1
  O  O80  1  0.372972  0.945782  0.754466  1
  O  O81  1  0.373274  0.238389  0.000000  1
  O  O82  1  0.588063  0.359289  0.266795  1
  O  O83  1  0.728606  0.625640  0.241084  1
  O  O84  1  0.500211  0.913136  0.500000  1
  O  O85  1  0.244257  0.679433  0.732161  1
  O  O86  1  0.832892  0.767134  0.500000  1
  O  O87  1  0.100554  0.956647  0.000000  1
  O  O88  1  0.972895  0.892470  0.271966  1
  O  O89  1  0.232866  0.065758  0.500000  1
  O  O90  1  0.054218  0.427190  0.754466  1
  O  O91  1  0.708544  0.789589  0.243261  1
  O  O92  1  0.320567  0.564824  0.267839  1
  O  O93  1  0.423120  0.286123  0.500000  1
  O  O94  1  0.770008  0.013562  0.500000  1
  O  O95  1  0.086864  0.587075  0.500000  1
  O  O96  1  0.972895  0.892470  0.728034  1
  O  O97  1  0.550313  0.070780  0.500000  1
  O  O98  1  0.771226  0.411937  0.733205  1
