# generated using pymatgen
data_Li2Bi2B2O7
_symmetry_space_group_name_H-M   'P 1'
_cell_length_a   8.60232390
_cell_length_b   8.60232390
_cell_length_c   7.77646278
_cell_angle_alpha   89.48537941
_cell_angle_beta   90.51462059
_cell_angle_gamma   118.36322560
_symmetry_Int_Tables_number   1
_chemical_formula_structural   Li2Bi2B2O7
_chemical_formula_sum   'Li6 Bi6 B6 O21'
_cell_volume   506.34873588
_cell_formula_units_Z   3
loop_
 _symmetry_equiv_pos_site_id
 _symmetry_equiv_pos_as_xyz
  1  'x, y, z'
loop_
 _atom_site_type_symbol
 _atom_site_label
 _atom_site_symmetry_multiplicity
 _atom_site_fract_x
 _atom_site_fract_y
 _atom_site_fract_z
 _atom_site_occupancy
  Li  Li0  1  0.334473  0.671032  0.725880  1
  Li  Li1  1  0.016027  0.010576  0.745703  1
  Li  Li2  1  0.010576  0.016027  0.254297  1
  Li  Li3  1  0.314859  0.655401  0.191721  1
  Li  Li4  1  0.671032  0.334473  0.274120  1
  Li  Li5  1  0.655401  0.314859  0.808279  1
  Bi  Bi6  1  0.620946  0.937744  0.005600  1
  Bi  Bi7  1  0.740057  0.010389  0.503354  1
  Bi  Bi8  1  0.937744  0.620946  0.994400  1
  Bi  Bi9  1  0.010389  0.740057  0.496646  1
  Bi  Bi10  1  0.308613  0.308613  0.500000  1
  Bi  Bi11  1  0.404991  0.404991  0.000000  1
  B  B12  1  0.338123  0.998004  0.258824  1
  B  B13  1  0.646124  0.651924  0.301063  1
  B  B14  1  0.006781  0.337518  0.238598  1
  B  B15  1  0.998004  0.338123  0.741176  1
  B  B16  1  0.651924  0.646124  0.698937  1
  B  B17  1  0.337518  0.006781  0.761402  1
  O  O18  1  0.731277  0.827800  0.241063  1
  O  O19  1  0.431595  0.912761  0.199987  1
  O  O20  1  0.577874  0.741936  0.626356  1
  O  O21  1  0.154287  0.899068  0.254646  1
  O  O22  1  0.236458  0.834589  0.707070  1
  O  O23  1  0.463442  0.546386  0.282307  1
  O  O24  1  0.425562  0.667603  0.958501  1
  O  O25  1  0.984415  0.984415  0.500000  1
  O  O26  1  0.064225  0.512219  0.186317  1
  O  O27  1  0.166624  0.425658  0.677361  1
  O  O28  1  0.827800  0.731277  0.758937  1
  O  O29  1  0.912761  0.431595  0.800013  1
  O  O30  1  0.741936  0.577874  0.373644  1
  O  O31  1  0.124201  0.268535  0.236894  1
  O  O32  1  0.899068  0.154287  0.745354  1
  O  O33  1  0.834589  0.236458  0.292930  1
  O  O34  1  0.546386  0.463442  0.717693  1
  O  O35  1  0.667603  0.425562  0.041499  1
  O  O36  1  0.512219  0.064225  0.813683  1
  O  O37  1  0.425658  0.166624  0.322639  1
  O  O38  1  0.268535  0.124201  0.763106  1
