# generated using pymatgen
data_Y15TmO24
_symmetry_space_group_name_H-M   'P 1'
_cell_length_a   9.25781350
_cell_length_b   9.25781350
_cell_length_c   10.69036420
_cell_angle_alpha   54.76146977
_cell_angle_beta   125.23853023
_cell_angle_gamma   109.44380954
_symmetry_Int_Tables_number   1
_chemical_formula_structural   Y15TmO24
_chemical_formula_sum   'Y15 Tm1 O24'
_cell_volume   611.21663539
_cell_formula_units_Z   1
loop_
 _symmetry_equiv_pos_site_id
 _symmetry_equiv_pos_as_xyz
  1  'x, y, z'
loop_
 _atom_site_type_symbol
 _atom_site_label
 _atom_site_symmetry_multiplicity
 _atom_site_fract_x
 _atom_site_fract_y
 _atom_site_fract_z
 _atom_site_occupancy
  Y  Y0  1  0.499610  0.499650  0.749540  1
  Y  Y1  1  0.716857  0.716857  0.000000  1
  Y  Y2  1  0.750823  0.250076  0.283374  1
  Y  Y3  1  0.250076  0.750823  0.716626  1
  Y  Y4  1  0.967298  0.532687  0.967596  1
  Y  Y5  1  0.466588  0.033662  0.466961  1
  Y  Y6  1  0.499650  0.499610  0.250460  1
  Y  Y7  1  0.783029  0.783029  0.500000  1
  Y  Y8  1  0.000258  0.000589  0.250220  1
  Y  Y9  1  0.216951  0.216951  0.000000  1
  Y  Y10  1  0.000589  0.000258  0.749780  1
  Y  Y11  1  0.532687  0.967298  0.032404  1
  Y  Y12  1  0.033662  0.466588  0.533039  1
  Y  Y13  1  0.250020  0.749239  0.217455  1
  Y  Y14  1  0.749239  0.250020  0.782545  1
  Tm  Tm15  1  0.283684  0.283684  0.500000  1
  O  O16  1  0.729424  0.989499  0.522033  1
  O  O17  1  0.510641  0.770889  0.717776  1
  O  O18  1  0.261686  0.540186  0.479465  1
  O  O19  1  0.457096  0.738671  0.979322  1
  O  O20  1  0.042872  0.760922  0.761059  1
  O  O21  1  0.238875  0.956891  0.261267  1
  O  O22  1  0.989499  0.729424  0.477967  1
  O  O23  1  0.770889  0.510641  0.282224  1
  O  O24  1  0.468173  0.271944  0.207276  1
  O  O25  1  0.968169  0.772033  0.988808  1
  O  O26  1  0.228493  0.035318  0.488986  1
  O  O27  1  0.728147  0.531943  0.707359  1
  O  O28  1  0.772033  0.968169  0.011192  1
  O  O29  1  0.531943  0.728147  0.292641  1
  O  O30  1  0.035318  0.228493  0.511014  1
  O  O31  1  0.271944  0.468173  0.792724  1
  O  O32  1  0.010761  0.270802  0.021858  1
  O  O33  1  0.229195  0.486349  0.221372  1
  O  O34  1  0.760922  0.042872  0.238941  1
  O  O35  1  0.956891  0.238875  0.738733  1
  O  O36  1  0.738671  0.457096  0.020678  1
  O  O37  1  0.540186  0.261686  0.520535  1
  O  O38  1  0.270802  0.010761  0.978142  1
  O  O39  1  0.486349  0.229195  0.778628  1
