# generated using pymatgen
data_Ba3LaZnReWO12
_symmetry_space_group_name_H-M   'P 1'
_cell_length_a   9.82892857
_cell_length_b   9.82892857
_cell_length_c   9.82892857
_cell_angle_alpha   33.95260532
_cell_angle_beta   33.95260532
_cell_angle_gamma   33.95260532
_symmetry_Int_Tables_number   1
_chemical_formula_structural   Ba3LaZnReWO12
_chemical_formula_sum   'Ba3 La1 Zn1 Re1 W1 O12'
_cell_volume   263.99910087
_cell_formula_units_Z   1
loop_
 _symmetry_equiv_pos_site_id
 _symmetry_equiv_pos_as_xyz
  1  'x, y, z'
loop_
 _atom_site_type_symbol
 _atom_site_label
 _atom_site_symmetry_multiplicity
 _atom_site_fract_x
 _atom_site_fract_y
 _atom_site_fract_z
 _atom_site_occupancy
  Ba  Ba0  1  0.708454  0.708454  0.708454  1
  Ba  Ba1  1  0.291170  0.291170  0.291170  1
  Ba  Ba2  1  0.130965  0.130965  0.130965  1
  La  La3  1  0.872672  0.872672  0.872672  1
  Zn  Zn4  1  0.999316  0.999316  0.999316  1
  Re  Re5  1  0.422049  0.422049  0.422049  1
  W  W6  1  0.577849  0.577849  0.577849  1
  O  O7  1  0.289947  0.784799  0.784799  1
  O  O8  1  0.784799  0.289947  0.784799  1
  O  O9  1  0.784799  0.784799  0.289947  1
  O  O10  1  0.378990  0.378990  0.869296  1
  O  O11  1  0.378990  0.869296  0.378990  1
  O  O12  1  0.869296  0.378990  0.378990  1
  O  O13  1  0.140076  0.616485  0.616485  1
  O  O14  1  0.616485  0.140076  0.616485  1
  O  O15  1  0.616485  0.616485  0.140076  1
  O  O16  1  0.222282  0.222282  0.693094  1
  O  O17  1  0.222282  0.693094  0.222282  1
  O  O18  1  0.693094  0.222282  0.222282  1
