# generated using pymatgen
data_PH7N2O3
_symmetry_space_group_name_H-M   'P 1'
_cell_length_a   6.53480143
_cell_length_b   11.21165396
_cell_length_c   13.71252127
_cell_angle_alpha   90.00000000
_cell_angle_beta   115.35931199
_cell_angle_gamma   90.00000000
_symmetry_Int_Tables_number   1
_chemical_formula_structural   PH7N2O3
_chemical_formula_sum   'P8 H56 N16 O24'
_cell_volume   907.85122173
_cell_formula_units_Z   8
loop_
 _symmetry_equiv_pos_site_id
 _symmetry_equiv_pos_as_xyz
  1  'x, y, z'
loop_
 _atom_site_type_symbol
 _atom_site_label
 _atom_site_symmetry_multiplicity
 _atom_site_fract_x
 _atom_site_fract_y
 _atom_site_fract_z
 _atom_site_occupancy
  P  P0  1  0.797455  0.645945  0.042375  1
  P  P1  1  0.797455  0.854055  0.542375  1
  P  P2  1  0.202545  0.354055  0.957625  1
  P  P3  1  0.202545  0.145945  0.457625  1
  P  P4  1  0.831112  0.540057  0.845337  1
  P  P5  1  0.831112  0.959943  0.345337  1
  P  P6  1  0.168888  0.459943  0.154663  1
  P  P7  1  0.168888  0.040057  0.654663  1
  H  H8  1  0.610461  0.487224  0.935479  1
  H  H9  1  0.610461  0.012776  0.435479  1
  H  H10  1  0.389539  0.512776  0.064521  1
  H  H11  1  0.389539  0.987224  0.564521  1
  H  H12  1  0.146211  0.660604  0.189154  1
  H  H13  1  0.146211  0.839396  0.689154  1
  H  H14  1  0.853789  0.339396  0.810846  1
  H  H15  1  0.853789  0.160604  0.310846  1
  H  H16  1  0.904942  0.947196  0.843257  1
  H  H17  1  0.904942  0.552804  0.343257  1
  H  H18  1  0.095058  0.052804  0.156743  1
  H  H19  1  0.095058  0.447196  0.656743  1
  H  H20  1  0.614407  0.945260  0.801744  1
  H  H21  1  0.614407  0.554740  0.301744  1
  H  H22  1  0.385593  0.054740  0.198256  1
  H  H23  1  0.385593  0.445260  0.698256  1
  H  H24  1  0.779814  0.823936  0.863294  1
  H  H25  1  0.779814  0.676064  0.363294  1
  H  H26  1  0.220186  0.176064  0.136706  1
  H  H27  1  0.220186  0.323936  0.636706  1
  H  H28  1  0.731008  0.866584  0.734034  1
  H  H29  1  0.731008  0.633416  0.234034  1
  H  H30  1  0.268992  0.133416  0.265966  1
  H  H31  1  0.268992  0.366584  0.765966  1
  H  H32  1  0.415005  0.745025  0.055022  1
  H  H33  1  0.415005  0.754975  0.555022  1
  H  H34  1  0.584995  0.254975  0.944978  1
  H  H35  1  0.584995  0.245025  0.444978  1
  H  H36  1  0.290977  0.883194  0.004915  1
  H  H37  1  0.290977  0.616806  0.504915  1
  H  H38  1  0.709023  0.116806  0.995085  1
  H  H39  1  0.709023  0.383194  0.495085  1
  H  H40  1  0.146014  0.777854  0.037851  1
  H  H41  1  0.146014  0.722146  0.537851  1
  H  H42  1  0.853986  0.222146  0.962149  1
  H  H43  1  0.853986  0.277854  0.462149  1
  H  H44  1  0.370867  0.846913  0.134817  1
  H  H45  1  0.370867  0.653087  0.634817  1
  H  H46  1  0.629133  0.153087  0.865183  1
  H  H47  1  0.629133  0.346913  0.365183  1
  H  H48  1  0.167747  0.828075  0.303371  1
  H  H49  1  0.167747  0.671925  0.803371  1
  H  H50  1  0.832253  0.171925  0.696629  1
  H  H51  1  0.832253  0.328075  0.196629  1
  H  H52  1  0.409010  0.843974  0.306309  1
  H  H53  1  0.409010  0.656026  0.806309  1
  H  H54  1  0.590990  0.156026  0.693691  1
  H  H55  1  0.590990  0.343974  0.193691  1
  H  H56  1  0.731710  0.513903  0.632708  1
  H  H57  1  0.731710  0.986097  0.132708  1
  H  H58  1  0.268290  0.486097  0.367292  1
  H  H59  1  0.268290  0.013903  0.867292  1
  H  H60  1  0.809276  0.589846  0.556239  1
  H  H61  1  0.809276  0.910154  0.056239  1
  H  H62  1  0.190724  0.410154  0.443761  1
  H  H63  1  0.190724  0.089846  0.943761  1
  N  N64  1  0.716579  0.555309  0.935218  1
  N  N65  1  0.716579  0.944691  0.435218  1
  N  N66  1  0.283421  0.444691  0.064782  1
  N  N67  1  0.283421  0.055309  0.564782  1
  N  N68  1  0.050400  0.596381  0.134777  1
  N  N69  1  0.050400  0.903619  0.634777  1
  N  N70  1  0.949600  0.403619  0.865223  1
  N  N71  1  0.949600  0.096381  0.365223  1
  N  N72  1  0.757583  0.895046  0.811159  1
  N  N73  1  0.757583  0.604954  0.311159  1
  N  N74  1  0.242417  0.104954  0.188841  1
  N  N75  1  0.242417  0.395046  0.688841  1
  N  N76  1  0.306402  0.812571  0.057643  1
  N  N77  1  0.306402  0.687429  0.557643  1
  N  N78  1  0.693598  0.187429  0.942357  1
  N  N79  1  0.693598  0.312571  0.442357  1
  O  O80  1  0.619748  0.633588  0.086473  1
  O  O81  1  0.619748  0.866412  0.586473  1
  O  O82  1  0.380252  0.366412  0.913527  1
  O  O83  1  0.380252  0.133588  0.413527  1
  O  O84  1  0.835590  0.771556  0.011870  1
  O  O85  1  0.835590  0.728444  0.511870  1
  O  O86  1  0.164410  0.228444  0.988130  1
  O  O87  1  0.164410  0.271556  0.488130  1
  O  O88  1  0.631176  0.532517  0.733247  1
  O  O89  1  0.631176  0.967483  0.233247  1
  O  O90  1  0.368824  0.467483  0.266753  1
  O  O91  1  0.368824  0.032517  0.766753  1
  O  O92  1  0.000989  0.638324  0.867206  1
  O  O93  1  0.000989  0.861676  0.367206  1
  O  O94  1  0.999011  0.361676  0.132794  1
  O  O95  1  0.999011  0.138324  0.632794  1
  O  O96  1  0.264451  0.803095  0.266837  1
  O  O97  1  0.264451  0.696905  0.766837  1
  O  O98  1  0.735549  0.196905  0.733163  1
  O  O99  1  0.735549  0.303095  0.233163  1
  O  O100  1  0.803614  0.506733  0.582040  1
  O  O101  1  0.803614  0.993267  0.082040  1
  O  O102  1  0.196386  0.493267  0.417960  1
  O  O103  1  0.196386  0.006733  0.917960  1
