# generated using pymatgen
data_Li3CoO2F
_symmetry_space_group_name_H-M   'P 1'
_cell_length_a   5.18730197
_cell_length_b   5.35511268
_cell_length_c   5.91487659
_cell_angle_alpha   63.13854405
_cell_angle_beta   88.22154403
_cell_angle_gamma   86.46898792
_symmetry_Int_Tables_number   1
_chemical_formula_structural   Li3CoO2F
_chemical_formula_sum   'Li6 Co2 O4 F2'
_cell_volume   146.29926076
_cell_formula_units_Z   2
loop_
 _symmetry_equiv_pos_site_id
 _symmetry_equiv_pos_as_xyz
  1  'x, y, z'
loop_
 _atom_site_type_symbol
 _atom_site_label
 _atom_site_symmetry_multiplicity
 _atom_site_fract_x
 _atom_site_fract_y
 _atom_site_fract_z
 _atom_site_occupancy
  Li  Li0  1  0.931839  0.233447  0.488418  1
  Li  Li1  1  0.850942  0.799465  0.996421  1
  Li  Li2  1  0.597264  0.984644  0.302072  1
  Li  Li3  1  0.402736  0.015356  0.697928  1
  Li  Li4  1  0.149058  0.200535  0.003579  1
  Li  Li5  1  0.068161  0.766553  0.511582  1
  Co  Co6  1  0.616521  0.524758  0.695281  1
  Co  Co7  1  0.383479  0.475242  0.304719  1
  O  O8  1  0.749453  0.872674  0.658472  1
  O  O9  1  0.724780  0.589347  0.340746  1
  O  O10  1  0.275220  0.410653  0.659254  1
  O  O11  1  0.250547  0.127326  0.341528  1
  F  F12  1  0.778656  0.182863  0.995706  1
  F  F13  1  0.221344  0.817137  0.004294  1
