# generated using pymatgen
data_Mn3FeSn2(PO4)6
_symmetry_space_group_name_H-M   'P 1'
_cell_length_a   8.58728092
_cell_length_b   8.58728092
_cell_length_c   8.58728092
_cell_angle_alpha   61.73452987
_cell_angle_beta   61.73452987
_cell_angle_gamma   61.73452987
_symmetry_Int_Tables_number   1
_chemical_formula_structural   Mn3FeSn2(PO4)6
_chemical_formula_sum   'Mn3 Fe1 Sn2 P6 O24'
_cell_volume   465.17220768
_cell_formula_units_Z   1
loop_
 _symmetry_equiv_pos_site_id
 _symmetry_equiv_pos_as_xyz
  1  'x, y, z'
loop_
 _atom_site_type_symbol
 _atom_site_label
 _atom_site_symmetry_multiplicity
 _atom_site_fract_x
 _atom_site_fract_y
 _atom_site_fract_z
 _atom_site_occupancy
  Mn  Mn0  1  0.847637  0.847637  0.847637  1
  Mn  Mn1  1  0.653262  0.653262  0.653262  1
  Mn  Mn2  1  0.348860  0.348860  0.348860  1
  Fe  Fe3  1  0.150601  0.150601  0.150601  1
  Sn  Sn4  1  0.999246  0.999246  0.999246  1
  Sn  Sn5  1  0.499885  0.499885  0.499885  1
  P  P6  1  0.950536  0.249089  0.549589  1
  P  P7  1  0.549589  0.950536  0.249089  1
  P  P8  1  0.751025  0.444554  0.055057  1
  P  P9  1  0.444554  0.055057  0.751025  1
  P  P10  1  0.055057  0.751025  0.444554  1
  P  P11  1  0.249089  0.549589  0.950536  1
  O  O12  1  0.909138  0.680038  0.476454  1
  O  O13  1  0.680038  0.476454  0.909138  1
  O  O14  1  0.930430  0.096884  0.752270  1
  O  O15  1  0.476454  0.909138  0.680038  1
  O  O16  1  0.002665  0.171584  0.397600  1
  O  O17  1  0.748183  0.397262  0.562580  1
  O  O18  1  0.752270  0.930430  0.096884  1
  O  O19  1  0.562580  0.748183  0.397262  1
  O  O20  1  0.821831  0.594345  0.017001  1
  O  O21  1  0.397262  0.562580  0.748183  1
  O  O22  1  0.907355  0.241956  0.075093  1
  O  O23  1  0.594345  0.017001  0.821831  1
  O  O24  1  0.397600  0.002665  0.171584  1
  O  O25  1  0.096884  0.752270  0.930430  1
  O  O26  1  0.601731  0.422604  0.258869  1
  O  O27  1  0.171584  0.397600  0.002665  1
  O  O28  1  0.422604  0.258869  0.601731  1
  O  O29  1  0.241956  0.075093  0.907355  1
  O  O30  1  0.258869  0.601731  0.422604  1
  O  O31  1  0.017001  0.821831  0.594345  1
  O  O32  1  0.515886  0.094109  0.324791  1
  O  O33  1  0.075093  0.907355  0.241956  1
  O  O34  1  0.324791  0.515886  0.094109  1
  O  O35  1  0.094109  0.324791  0.515886  1
