# generated using pymatgen
data_Li2CrNiO4
_symmetry_space_group_name_H-M   'P 1'
_cell_length_a   5.84814761
_cell_length_b   5.84814761
_cell_length_c   5.84814761
_cell_angle_alpha   120.21645794
_cell_angle_beta   119.99762630
_cell_angle_gamma   89.81480219
_symmetry_Int_Tables_number   1
_chemical_formula_structural   Li2CrNiO4
_chemical_formula_sum   'Li4 Cr2 Ni2 O8'
_cell_volume   141.19922117
_cell_formula_units_Z   2
loop_
 _symmetry_equiv_pos_site_id
 _symmetry_equiv_pos_as_xyz
  1  'x, y, z'
loop_
 _atom_site_type_symbol
 _atom_site_label
 _atom_site_symmetry_multiplicity
 _atom_site_fract_x
 _atom_site_fract_y
 _atom_site_fract_z
 _atom_site_occupancy
  Li  Li0  1  0.500000  1.000000  0.500000  1
  Li  Li1  1  0.500000  0.000000  0.000000  1
  Li  Li2  1  0.500000  0.500000  0.000000  1
  Li  Li3  1  0.000000  0.000000  0.500000  1
  Cr  Cr4  1  0.000000  0.500000  0.000000  1
  Cr  Cr5  1  0.500000  0.500000  0.500000  1
  Ni  Ni6  1  0.000000  0.000000  0.000000  1
  Ni  Ni7  1  0.000000  0.500000  0.500000  1
  O  O8  1  0.753365  0.737529  0.515836  1
  O  O9  1  0.749137  0.267986  0.518849  1
  O  O10  1  0.221694  0.737529  0.984164  1
  O  O11  1  0.749137  0.730288  0.981151  1
  O  O12  1  0.250863  0.269712  0.018849  1
  O  O13  1  0.778306  0.262471  0.015836  1
  O  O14  1  0.250863  0.732014  0.481151  1
  O  O15  1  0.246635  0.262471  0.484164  1
