# generated using pymatgen
data_LiMnPO4
_symmetry_space_group_name_H-M   'P 1'
_cell_length_a   5.09864118
_cell_length_b   5.09864118
_cell_length_c   6.40963665
_cell_angle_alpha   90.00000000
_cell_angle_beta   90.00000000
_cell_angle_gamma   112.88193013
_symmetry_Int_Tables_number   1
_chemical_formula_structural   LiMnPO4
_chemical_formula_sum   'Li2 Mn2 P2 O8'
_cell_volume   153.51371821
_cell_formula_units_Z   2
loop_
 _symmetry_equiv_pos_site_id
 _symmetry_equiv_pos_as_xyz
  1  'x, y, z'
loop_
 _atom_site_type_symbol
 _atom_site_label
 _atom_site_symmetry_multiplicity
 _atom_site_fract_x
 _atom_site_fract_y
 _atom_site_fract_z
 _atom_site_occupancy
  Li  Li0  1  0.500000  0.500000  0.000000  1
  Li  Li1  1  0.500000  0.500000  0.500000  1
  Mn  Mn2  1  0.819463  0.180537  0.250000  1
  Mn  Mn3  1  0.180537  0.819463  0.750000  1
  P  P4  1  0.851420  0.148580  0.750000  1
  P  P5  1  0.148580  0.851420  0.250000  1
  O  O6  1  0.259646  0.184572  0.250000  1
  O  O7  1  0.184572  0.259646  0.750000  1
  O  O8  1  0.742809  0.257191  0.556279  1
  O  O9  1  0.742809  0.257191  0.943721  1
  O  O10  1  0.257191  0.742809  0.056279  1
  O  O11  1  0.257191  0.742809  0.443721  1
  O  O12  1  0.815428  0.740354  0.250000  1
  O  O13  1  0.740354  0.815428  0.750000  1
