# generated using pymatgen
data_Li2GeF6
_symmetry_space_group_name_H-M   'P 1'
_cell_length_a   4.66459700
_cell_length_b   4.66459700
_cell_length_c   8.96727607
_cell_angle_alpha   90.00000000
_cell_angle_beta   90.00000000
_cell_angle_gamma   90.00000000
_symmetry_Int_Tables_number   1
_chemical_formula_structural   Li2GeF6
_chemical_formula_sum   'Li4 Ge2 F12'
_cell_volume   195.11416406
_cell_formula_units_Z   2
loop_
 _symmetry_equiv_pos_site_id
 _symmetry_equiv_pos_as_xyz
  1  'x, y, z'
loop_
 _atom_site_type_symbol
 _atom_site_label
 _atom_site_symmetry_multiplicity
 _atom_site_fract_x
 _atom_site_fract_y
 _atom_site_fract_z
 _atom_site_occupancy
  Li  Li0  1  0.000000  0.000000  0.338129  1
  Li  Li1  1  0.500000  0.500000  0.838129  1
  Li  Li2  1  0.500000  0.500000  0.161871  1
  Li  Li3  1  0.000000  0.000000  0.661871  1
  Ge  Ge4  1  0.000000  0.000000  0.000000  1
  Ge  Ge5  1  0.500000  0.500000  0.500000  1
  F  F6  1  0.220883  0.779117  0.500000  1
  F  F7  1  0.688945  0.688945  0.649838  1
  F  F8  1  0.279117  0.279117  0.000000  1
  F  F9  1  0.720883  0.720883  0.000000  1
  F  F10  1  0.779117  0.220883  0.500000  1
  F  F11  1  0.188945  0.811055  0.850162  1
  F  F12  1  0.311055  0.311055  0.350162  1
  F  F13  1  0.688945  0.688945  0.350162  1
  F  F14  1  0.811055  0.188945  0.850162  1
  F  F15  1  0.811055  0.188945  0.149838  1
  F  F16  1  0.188945  0.811055  0.149838  1
  F  F17  1  0.311055  0.311055  0.649838  1
