# generated using pymatgen
data_Ce5O9
_symmetry_space_group_name_H-M   'P 1'
_cell_length_a   6.75123881
_cell_length_b   6.75123881
_cell_length_c   6.75123881
_cell_angle_alpha   99.82619794
_cell_angle_beta   99.82619794
_cell_angle_gamma   131.19927206
_symmetry_Int_Tables_number   1
_chemical_formula_structural   Ce5O9
_chemical_formula_sum   'Ce5 O9'
_cell_volume   210.85258366
_cell_formula_units_Z   1
loop_
 _symmetry_equiv_pos_site_id
 _symmetry_equiv_pos_as_xyz
  1  'x, y, z'
loop_
 _atom_site_type_symbol
 _atom_site_label
 _atom_site_symmetry_multiplicity
 _atom_site_fract_x
 _atom_site_fract_y
 _atom_site_fract_z
 _atom_site_occupancy
  Ce  Ce0  1  0.736905  0.914139  0.601158  1
  Ce  Ce1  1  0.864253  0.263095  0.177233  1
  Ce  Ce2  1  0.312981  0.135747  0.398842  1
  Ce  Ce3  1  0.085861  0.687019  0.822767  1
  Ce  Ce4  1  0.500000  0.500000  0.000000  1
  O  O5  1  0.750000  0.250000  0.500000  1
  O  O6  1  0.843871  0.944120  0.277875  1
  O  O7  1  0.055880  0.333755  0.899751  1
  O  O8  1  0.434004  0.156129  0.100249  1
  O  O9  1  0.345158  0.482713  0.327876  1
  O  O10  1  0.517287  0.845163  0.862445  1
  O  O11  1  0.982718  0.654842  0.137555  1
  O  O12  1  0.666245  0.565996  0.722125  1
  O  O13  1  0.154837  0.017282  0.672124  1
