# generated using pymatgen
data_LiFePO4F
_symmetry_space_group_name_H-M   'P 1'
_cell_length_a   6.32243451
_cell_length_b   10.70229185
_cell_length_c   12.89288986
_cell_angle_alpha   90.00000000
_cell_angle_beta   90.00000000
_cell_angle_gamma   90.00000000
_symmetry_Int_Tables_number   1
_chemical_formula_structural   LiFePO4F
_chemical_formula_sum   'Li8 Fe8 P8 O32 F8'
_cell_volume   872.39145299
_cell_formula_units_Z   8
loop_
 _symmetry_equiv_pos_site_id
 _symmetry_equiv_pos_as_xyz
  1  'x, y, z'
loop_
 _atom_site_type_symbol
 _atom_site_label
 _atom_site_symmetry_multiplicity
 _atom_site_fract_x
 _atom_site_fract_y
 _atom_site_fract_z
 _atom_site_occupancy
  Li  Li0  1  0.952074  0.977917  0.104930  1
  Li  Li1  1  0.239190  0.229109  0.219675  1
  Li  Li2  1  0.739190  0.729109  0.280325  1
  Li  Li3  1  0.452074  0.477917  0.395070  1
  Li  Li4  1  0.547926  0.977917  0.604930  1
  Li  Li5  1  0.260810  0.229109  0.719675  1
  Li  Li6  1  0.760810  0.729109  0.780325  1
  Li  Li7  1  0.047926  0.477917  0.895070  1
  Fe  Fe8  1  0.998187  0.494955  0.113664  1
  Fe  Fe9  1  0.247339  0.746611  0.248028  1
  Fe  Fe10  1  0.747339  0.246611  0.251972  1
  Fe  Fe11  1  0.498187  0.994955  0.386336  1
  Fe  Fe12  1  0.501813  0.494955  0.613664  1
  Fe  Fe13  1  0.252661  0.746611  0.748028  1
  Fe  Fe14  1  0.752661  0.246611  0.751972  1
  Fe  Fe15  1  0.001813  0.994955  0.886336  1
  P  P16  1  0.834852  0.241431  0.002937  1
  P  P17  1  0.501783  0.497351  0.187567  1
  P  P18  1  0.001783  0.997351  0.312433  1
  P  P19  1  0.334852  0.741431  0.497063  1
  P  P20  1  0.665148  0.241431  0.502937  1
  P  P21  1  0.998217  0.497351  0.687567  1
  P  P22  1  0.498217  0.997351  0.812433  1
  P  P23  1  0.165148  0.741431  0.997063  1
  O  O24  1  0.030073  0.618194  0.998485  1
  O  O25  1  0.988551  0.356563  0.008323  1
  O  O26  1  0.296644  0.751810  0.097270  1
  O  O27  1  0.692602  0.238084  0.100030  1
  O  O28  1  0.303685  0.476848  0.122802  1
  O  O29  1  0.694632  0.515996  0.118534  1
  O  O30  1  0.975406  0.111513  0.236332  1
  O  O31  1  0.029169  0.884041  0.235759  1
  O  O32  1  0.529169  0.384041  0.264241  1
  O  O33  1  0.475406  0.611513  0.263668  1
  O  O34  1  0.194632  0.015996  0.381466  1
  O  O35  1  0.803685  0.976848  0.377198  1
  O  O36  1  0.192602  0.738084  0.399970  1
  O  O37  1  0.796644  0.251810  0.402730  1
  O  O38  1  0.488551  0.856563  0.491677  1
  O  O39  1  0.530073  0.118194  0.501515  1
  O  O40  1  0.469927  0.618194  0.498485  1
  O  O41  1  0.511449  0.356563  0.508323  1
  O  O42  1  0.203356  0.751810  0.597270  1
  O  O43  1  0.807398  0.238084  0.600030  1
  O  O44  1  0.196315  0.476848  0.622802  1
  O  O45  1  0.805368  0.515996  0.618534  1
  O  O46  1  0.524594  0.111513  0.736332  1
  O  O47  1  0.470831  0.884041  0.735759  1
  O  O48  1  0.970831  0.384041  0.764241  1
  O  O49  1  0.024594  0.611513  0.763668  1
  O  O50  1  0.305368  0.015996  0.881466  1
  O  O51  1  0.696315  0.976848  0.877198  1
  O  O52  1  0.307398  0.738084  0.899970  1
  O  O53  1  0.703356  0.251810  0.902730  1
  O  O54  1  0.011449  0.856563  0.991677  1
  O  O55  1  0.969927  0.118194  0.001515  1
  F  F56  1  0.999660  0.359041  0.228435  1
  F  F57  1  0.995639  0.630812  0.230775  1
  F  F58  1  0.495639  0.130812  0.269225  1
  F  F59  1  0.499660  0.859041  0.271565  1
  F  F60  1  0.500340  0.359041  0.728435  1
  F  F61  1  0.504361  0.630812  0.730775  1
  F  F62  1  0.004361  0.130812  0.769225  1
  F  F63  1  0.000340  0.859041  0.771565  1
