# generated using pymatgen
data_Li8MnFe7(BO3)8
_symmetry_space_group_name_H-M   'P 1'
_cell_length_a   6.02617473
_cell_length_b   9.71531343
_cell_length_c   9.72073755
_cell_angle_alpha   65.09720037
_cell_angle_beta   79.67351646
_cell_angle_gamma   78.52291087
_symmetry_Int_Tables_number   1
_chemical_formula_structural   Li8MnFe7(BO3)8
_chemical_formula_sum   'Li8 Mn1 Fe7 B8 O24'
_cell_volume   502.94983319
_cell_formula_units_Z   1
loop_
 _symmetry_equiv_pos_site_id
 _symmetry_equiv_pos_as_xyz
  1  'x, y, z'
loop_
 _atom_site_type_symbol
 _atom_site_label
 _atom_site_symmetry_multiplicity
 _atom_site_fract_x
 _atom_site_fract_y
 _atom_site_fract_z
 _atom_site_occupancy
  Li  Li0  1  0.044550  0.465872  0.814989  1
  Li  Li1  1  0.044895  0.966765  0.314474  1
  Li  Li2  1  0.455166  0.033557  0.184444  1
  Li  Li3  1  0.544308  0.466339  0.315388  1
  Li  Li4  1  0.453409  0.532637  0.684498  1
  Li  Li5  1  0.545196  0.966889  0.816865  1
  Li  Li6  1  0.955165  0.035311  0.685046  1
  Li  Li7  1  0.954236  0.533325  0.184697  1
  Mn  Mn8  1  0.814330  0.794174  0.625093  1
  Fe  Fe9  1  0.183828  0.209701  0.374901  1
  Fe  Fe10  1  0.315244  0.292499  0.628295  1
  Fe  Fe11  1  0.315077  0.793239  0.122151  1
  Fe  Fe12  1  0.187506  0.704654  0.872511  1
  Fe  Fe13  1  0.816445  0.289743  0.127525  1
  Fe  Fe14  1  0.684772  0.209679  0.872277  1
  Fe  Fe15  1  0.681061  0.708975  0.370847  1
  B  B16  1  0.335771  0.367131  0.038408  1
  B  B17  1  0.164910  0.132099  0.962515  1
  B  B18  1  0.166257  0.632203  0.460015  1
  B  B19  1  0.333283  0.867930  0.537369  1
  B  B20  1  0.663190  0.133620  0.462782  1
  B  B21  1  0.835107  0.368407  0.537065  1
  B  B22  1  0.835530  0.867971  0.037181  1
  B  B23  1  0.667986  0.629918  0.964935  1
  O  O24  1  0.178183  0.012873  0.104398  1
  O  O25  1  0.016783  0.246968  0.561940  1
  O  O26  1  0.016000  0.746970  0.062494  1
  O  O27  1  0.163781  0.361379  0.156607  1
  O  O28  1  0.176910  0.513147  0.603030  1
  O  O29  1  0.516509  0.245827  0.062160  1
  O  O30  1  0.163920  0.863287  0.657794  1
  O  O31  1  0.335716  0.137979  0.843028  1
  O  O32  1  0.340701  0.637906  0.343394  1
  O  O33  1  0.482394  0.254584  0.436707  1
  O  O34  1  0.323291  0.486774  0.896566  1
  O  O35  1  0.320983  0.987283  0.395628  1
  O  O36  1  0.676572  0.016494  0.605964  1
  O  O37  1  0.676301  0.511491  0.106692  1
  O  O38  1  0.512819  0.745727  0.561533  1
  O  O39  1  0.663970  0.362073  0.656921  1
  O  O40  1  0.662617  0.862339  0.155895  1
  O  O41  1  0.834865  0.137179  0.344324  1
  O  O42  1  0.486153  0.751931  0.938779  1
  O  O43  1  0.821883  0.486453  0.396064  1
  O  O44  1  0.840867  0.634734  0.847445  1
  O  O45  1  0.984004  0.253374  0.938471  1
  O  O46  1  0.985084  0.752987  0.433985  1
  O  O47  1  0.822475  0.987601  0.895905  1
