# generated using pymatgen
data_Mg8V5O16
_symmetry_space_group_name_H-M   'P 1'
_cell_length_a   6.03811681
_cell_length_b   6.05324398
_cell_length_c   10.29576192
_cell_angle_alpha   73.80162106
_cell_angle_beta   73.57799739
_cell_angle_gamma   60.09268126
_symmetry_Int_Tables_number   1
_chemical_formula_structural   Mg8V5O16
_chemical_formula_sum   'Mg8 V5 O16'
_cell_volume   308.55265715
_cell_formula_units_Z   1
loop_
 _symmetry_equiv_pos_site_id
 _symmetry_equiv_pos_as_xyz
  1  'x, y, z'
loop_
 _atom_site_type_symbol
 _atom_site_label
 _atom_site_symmetry_multiplicity
 _atom_site_fract_x
 _atom_site_fract_y
 _atom_site_fract_z
 _atom_site_occupancy
  Mg  Mg0  1  0.683940  0.189820  0.925885  1
  Mg  Mg1  1  0.500457  0.997279  0.501084  1
  Mg  Mg2  1  0.751992  0.247011  0.246055  1
  Mg  Mg3  1  0.249596  0.753589  0.753641  1
  Mg  Mg4  1  0.995480  0.500548  0.501554  1
  Mg  Mg5  1  0.503539  0.497915  0.505962  1
  Mg  Mg6  1  0.997128  0.001071  0.501753  1
  Mg  Mg7  1  0.318294  0.811178  0.070185  1
  V  V8  1  0.734965  0.753331  0.753616  1
  V  V9  1  0.246457  0.245066  0.750480  1
  V  V10  1  0.998513  0.504630  0.998191  1
  V  V11  1  0.750730  0.754677  0.249745  1
  V  V12  1  0.264731  0.248143  0.246008  1
  O  O13  1  0.889539  0.383198  0.867194  1
  O  O14  1  0.884501  0.843879  0.869994  1
  O  O15  1  0.385021  0.876425  0.865221  1
  O  O16  1  0.610610  0.126250  0.622275  1
  O  O17  1  0.340220  0.386200  0.870508  1
  O  O18  1  0.854922  0.881167  0.375758  1
  O  O19  1  0.366186  0.354265  0.368921  1
  O  O20  1  0.122849  0.629821  0.620232  1
  O  O21  1  0.877528  0.371072  0.376324  1
  O  O22  1  0.622664  0.642329  0.621344  1
  O  O23  1  0.658864  0.611319  0.130780  1
  O  O24  1  0.143233  0.122742  0.620298  1
  O  O25  1  0.384027  0.886086  0.369628  1
  O  O26  1  0.607532  0.128032  0.135149  1
  O  O27  1  0.124357  0.155612  0.136974  1
  O  O28  1  0.115468  0.608098  0.137464  1
