# generated using pymatgen
data_HfZrO4
_symmetry_space_group_name_H-M   'P 1'
_cell_length_a   6.35415867
_cell_length_b   6.35415867
_cell_length_c   6.35415867
_cell_angle_alpha   132.59500568
_cell_angle_beta   132.59500568
_cell_angle_gamma   69.29088801
_symmetry_Int_Tables_number   1
_chemical_formula_structural   HfZrO4
_chemical_formula_sum   'Hf2 Zr2 O8'
_cell_volume   136.42489106
_cell_formula_units_Z   2
loop_
 _symmetry_equiv_pos_site_id
 _symmetry_equiv_pos_as_xyz
  1  'x, y, z'
loop_
 _atom_site_type_symbol
 _atom_site_label
 _atom_site_symmetry_multiplicity
 _atom_site_fract_x
 _atom_site_fract_y
 _atom_site_fract_z
 _atom_site_occupancy
  Hf  Hf0  1  0.750000  0.250000  0.500000  1
  Hf  Hf1  1  0.000000  0.000000  0.000000  1
  Zr  Zr2  1  0.250000  0.750000  0.500000  1
  Zr  Zr3  1  0.500000  0.500000  0.000000  1
  O  O4  1  0.886689  0.399567  0.987947  1
  O  O5  1  0.338380  0.351258  0.487947  1
  O  O6  1  0.600433  0.588380  0.487122  1
  O  O7  1  0.648742  0.136689  0.987122  1
  O  O8  1  0.101258  0.113311  0.512878  1
  O  O9  1  0.149567  0.661620  0.012878  1
  O  O10  1  0.863311  0.850433  0.512053  1
  O  O11  1  0.411620  0.898742  0.012053  1
