# generated using pymatgen
data_Hf2N2O
_symmetry_space_group_name_H-M   'P 1'
_cell_length_a   8.72904092
_cell_length_b   8.73031533
_cell_length_c   8.73374714
_cell_angle_alpha   109.39131216
_cell_angle_beta   109.58789192
_cell_angle_gamma   109.40362563
_symmetry_Int_Tables_number   1
_chemical_formula_structural   Hf2N2O
_chemical_formula_sum   'Hf16 N16 O8'
_cell_volume   512.55340494
_cell_formula_units_Z   8
loop_
 _symmetry_equiv_pos_site_id
 _symmetry_equiv_pos_as_xyz
  1  'x, y, z'
loop_
 _atom_site_type_symbol
 _atom_site_label
 _atom_site_symmetry_multiplicity
 _atom_site_fract_x
 _atom_site_fract_y
 _atom_site_fract_z
 _atom_site_occupancy
  Hf  Hf0  1  0.468977  0.223563  0.255659  1
  Hf  Hf1  1  0.000661  0.010781  0.006933  1
  Hf  Hf2  1  0.502773  0.508505  0.011676  1
  Hf  Hf3  1  0.994572  0.508602  0.498230  1
  Hf  Hf4  1  0.750195  0.464525  0.708849  1
  Hf  Hf5  1  0.249605  0.037115  0.787708  1
  Hf  Hf6  1  0.710793  0.247901  0.969617  1
  Hf  Hf7  1  0.218175  0.242293  0.453315  1
  Hf  Hf8  1  0.970733  0.716045  0.256790  1
  Hf  Hf9  1  0.037731  0.286033  0.754831  1
  Hf  Hf10  1  0.785361  0.752984  0.531376  1
  Hf  Hf11  1  0.279077  0.736780  0.026930  1
  Hf  Hf12  1  0.487400  0.987967  0.497043  1
  Hf  Hf13  1  0.750068  0.958680  0.208670  1
  Hf  Hf14  1  0.249736  0.536455  0.282036  1
  Hf  Hf15  1  0.535189  0.793878  0.752895  1
  N  N16  1  0.467168  0.237917  0.515397  1
  N  N17  1  0.032125  0.543850  0.771997  1
  N  N18  1  0.510175  0.272268  0.043556  1
  N  N19  1  0.011539  0.967363  0.238812  1
  N  N20  1  0.988764  0.035612  0.763217  1
  N  N21  1  0.229831  0.775751  0.258907  1
  N  N22  1  0.727692  0.467495  0.456068  1
  N  N23  1  0.487812  0.725492  0.952612  1
  N  N24  1  0.772541  0.042927  0.006885  1
  N  N25  1  0.964677  0.453601  0.227538  1
  N  N26  1  0.261095  0.483773  0.031685  1
  N  N27  1  0.050915  0.773814  0.537069  1
  N  N28  1  0.239549  0.271645  0.226512  1
  N  N29  1  0.453108  0.988793  0.724778  1
  N  N30  1  0.726919  0.736228  0.270256  1
  N  N31  1  0.533824  0.760104  0.492233  1
  O  O32  1  0.268159  0.260676  0.723887  1
  O  O33  1  0.764329  0.724573  0.777858  1
  O  O34  1  0.551364  0.017143  0.274284  1
  O  O35  1  0.954983  0.225651  0.468232  1
  O  O36  1  0.736637  0.509201  0.960338  1
  O  O37  1  0.230051  0.953626  0.988751  1
  O  O38  1  0.775024  0.231263  0.740303  1
  O  O39  1  0.270671  0.529128  0.546267  1
