# generated using pymatgen
data_LiCrCSO7
_symmetry_space_group_name_H-M   'P 1'
_cell_length_a   5.13096734
_cell_length_b   6.37376013
_cell_length_c   8.87521809
_cell_angle_alpha   90.00000000
_cell_angle_beta   94.24329953
_cell_angle_gamma   90.00000000
_symmetry_Int_Tables_number   1
_chemical_formula_structural   LiCrCSO7
_chemical_formula_sum   'Li2 Cr2 C2 S2 O14'
_cell_volume   289.45556025
_cell_formula_units_Z   2
loop_
 _symmetry_equiv_pos_site_id
 _symmetry_equiv_pos_as_xyz
  1  'x, y, z'
loop_
 _atom_site_type_symbol
 _atom_site_label
 _atom_site_symmetry_multiplicity
 _atom_site_fract_x
 _atom_site_fract_y
 _atom_site_fract_z
 _atom_site_occupancy
  Li  Li0  1  0.769878  0.465523  0.163305  1
  Li  Li1  1  0.230122  0.965523  0.836695  1
  Cr  Cr2  1  0.215451  0.256269  0.341114  1
  Cr  Cr3  1  0.784549  0.756269  0.658886  1
  C  C4  1  0.275709  0.253183  0.073438  1
  C  C5  1  0.724291  0.753183  0.926562  1
  S  S6  1  0.270563  0.755563  0.422456  1
  S  S7  1  0.729437  0.255563  0.577544  1
  O  O8  1  0.690632  0.721879  0.061083  1
  O  O9  1  0.044058  0.259229  0.131839  1
  O  O10  1  0.467648  0.276576  0.182114  1
  O  O11  1  0.209401  0.940067  0.326266  1
  O  O12  1  0.176246  0.572582  0.330002  1
  O  O13  1  0.859330  0.263559  0.433715  1
  O  O14  1  0.558316  0.737720  0.459623  1
  O  O15  1  0.441684  0.237720  0.540377  1
  O  O16  1  0.140670  0.763559  0.566285  1
  O  O17  1  0.823754  0.072582  0.669998  1
  O  O18  1  0.790599  0.440067  0.673734  1
  O  O19  1  0.532352  0.776576  0.817886  1
  O  O20  1  0.955942  0.759229  0.868161  1
  O  O21  1  0.309368  0.221879  0.938917  1
