# generated using pymatgen
data_InH7N2OF4
_symmetry_space_group_name_H-M   'P 1'
_cell_length_a   6.88678071
_cell_length_b   8.75493591
_cell_length_c   9.29824651
_cell_angle_alpha   90.00000000
_cell_angle_beta   90.00000000
_cell_angle_gamma   90.00000000
_symmetry_Int_Tables_number   1
_chemical_formula_structural   InH7N2OF4
_chemical_formula_sum   'In4 H28 N8 O4 F16'
_cell_volume   560.62218706
_cell_formula_units_Z   4
loop_
 _symmetry_equiv_pos_site_id
 _symmetry_equiv_pos_as_xyz
  1  'x, y, z'
loop_
 _atom_site_type_symbol
 _atom_site_label
 _atom_site_symmetry_multiplicity
 _atom_site_fract_x
 _atom_site_fract_y
 _atom_site_fract_z
 _atom_site_occupancy
  In  In0  1  0.864786  0.215168  0.447037  1
  In  In1  1  0.635214  0.784832  0.947037  1
  In  In2  1  0.364786  0.284832  0.552963  1
  In  In3  1  0.135214  0.715168  0.052963  1
  H  H4  1  0.000101  0.998149  0.238394  1
  H  H5  1  0.499899  0.001851  0.738394  1
  H  H6  1  0.500101  0.501851  0.761606  1
  H  H7  1  0.999899  0.498149  0.261606  1
  H  H8  1  0.769839  0.016156  0.203484  1
  H  H9  1  0.730161  0.983844  0.703484  1
  H  H10  1  0.269839  0.483844  0.796516  1
  H  H11  1  0.230161  0.516156  0.296516  1
  H  H12  1  0.931838  0.071645  0.919016  1
  H  H13  1  0.568162  0.928355  0.419016  1
  H  H14  1  0.431838  0.428355  0.080984  1
  H  H15  1  0.068162  0.571645  0.580984  1
  H  H16  1  0.064392  0.161772  0.800050  1
  H  H17  1  0.435608  0.838228  0.300050  1
  H  H18  1  0.564392  0.338228  0.199950  1
  H  H19  1  0.935608  0.661772  0.699950  1
  H  H20  1  0.779010  0.290551  0.786564  1
  H  H21  1  0.720990  0.709449  0.286564  1
  H  H22  1  0.279010  0.209449  0.213436  1
  H  H23  1  0.220990  0.790551  0.713436  1
  H  H24  1  0.754513  0.287309  0.968492  1
  H  H25  1  0.745487  0.712691  0.468492  1
  H  H26  1  0.254513  0.212691  0.031508  1
  H  H27  1  0.245487  0.787309  0.531508  1
  H  H28  1  0.930388  0.396163  0.891737  1
  H  H29  1  0.569612  0.603837  0.391737  1
  H  H30  1  0.430388  0.103837  0.108263  1
  H  H31  1  0.069612  0.896163  0.608263  1
  N  N32  1  0.000640  0.173253  0.899821  1
  N  N33  1  0.499360  0.826747  0.399821  1
  N  N34  1  0.500640  0.326747  0.100179  1
  N  N35  1  0.999360  0.673253  0.600179  1
  N  N36  1  0.855340  0.292302  0.884791  1
  N  N37  1  0.644660  0.707698  0.384791  1
  N  N38  1  0.355340  0.207698  0.115209  1
  N  N39  1  0.144660  0.792302  0.615209  1
  O  O40  1  0.876545  0.050451  0.267889  1
  O  O41  1  0.623455  0.949549  0.767889  1
  O  O42  1  0.376545  0.449549  0.732111  1
  O  O43  1  0.123455  0.550451  0.232111  1
  F  F44  1  0.556400  0.164904  0.398173  1
  F  F45  1  0.943600  0.835096  0.898173  1
  F  F46  1  0.056400  0.335096  0.601827  1
  F  F47  1  0.443600  0.664904  0.101827  1
  F  F48  1  0.821639  0.410186  0.323874  1
  F  F49  1  0.678361  0.589814  0.823874  1
  F  F50  1  0.321639  0.089814  0.676126  1
  F  F51  1  0.178361  0.910186  0.176126  1
  F  F52  1  0.888933  0.023407  0.582386  1
  F  F53  1  0.611067  0.976593  0.082386  1
  F  F54  1  0.388933  0.476593  0.417614  1
  F  F55  1  0.111067  0.523407  0.917614  1
  F  F56  1  0.672667  0.300239  0.620627  1
  F  F57  1  0.827333  0.699761  0.120627  1
  F  F58  1  0.172667  0.199761  0.379373  1
  F  F59  1  0.327333  0.800239  0.879373  1
