# generated using pymatgen
data_Li5TiV3O8
_symmetry_space_group_name_H-M   'P 1'
_cell_length_a   6.59122920
_cell_length_b   6.59122920
_cell_length_c   6.74913707
_cell_angle_alpha   72.85805912
_cell_angle_beta   107.14194088
_cell_angle_gamma   142.84571778
_symmetry_Int_Tables_number   1
_chemical_formula_structural   Li5TiV3O8
_chemical_formula_sum   'Li5 Ti1 V3 O8'
_cell_volume   168.31057106
_cell_formula_units_Z   1
loop_
 _symmetry_equiv_pos_site_id
 _symmetry_equiv_pos_as_xyz
  1  'x, y, z'
loop_
 _atom_site_type_symbol
 _atom_site_label
 _atom_site_symmetry_multiplicity
 _atom_site_fract_x
 _atom_site_fract_y
 _atom_site_fract_z
 _atom_site_occupancy
  Li  Li0  1  0.938477  0.061523  0.633800  1
  Li  Li1  1  0.808668  0.191332  0.006116  1
  Li  Li2  1  0.172854  0.827146  0.001726  1
  Li  Li3  1  0.498065  0.501935  0.010258  1
  Li  Li4  1  0.052688  0.947312  0.369030  1
  Ti  Ti5  1  0.279236  0.720764  0.689013  1
  V  V6  1  0.383463  0.616537  0.320776  1
  V  V7  1  0.712599  0.287401  0.326995  1
  V  V8  1  0.604158  0.395842  0.681951  1
  O  O9  1  0.882721  0.117279  0.320195  1
  O  O10  1  0.430668  0.569332  0.659043  1
  O  O11  1  0.776625  0.223375  0.675078  1
  O  O12  1  0.334835  0.665165  0.985880  1
  O  O13  1  0.221573  0.778427  0.352575  1
  O  O14  1  0.546373  0.453627  0.340172  1
  O  O15  1  0.649522  0.350478  0.007250  1
  O  O16  1  0.117647  0.882353  0.680585  1
