# generated using pymatgen
data_Li8Mn3V(PO4)6
_symmetry_space_group_name_H-M   'P 1'
_cell_length_a   8.39469117
_cell_length_b   8.50505409
_cell_length_c   9.26895098
_cell_angle_alpha   91.53629359
_cell_angle_beta   116.39693687
_cell_angle_gamma   119.03919585
_symmetry_Int_Tables_number   1
_chemical_formula_structural   Li8Mn3V(PO4)6
_chemical_formula_sum   'Li8 Mn3 V1 P6 O24'
_cell_volume   492.76078532
_cell_formula_units_Z   1
loop_
 _symmetry_equiv_pos_site_id
 _symmetry_equiv_pos_as_xyz
  1  'x, y, z'
loop_
 _atom_site_type_symbol
 _atom_site_label
 _atom_site_symmetry_multiplicity
 _atom_site_fract_x
 _atom_site_fract_y
 _atom_site_fract_z
 _atom_site_occupancy
  Li  Li0  1  0.196609  0.270843  0.864422  1
  Li  Li1  1  0.626712  0.939013  0.900476  1
  Li  Li2  1  0.930782  0.657759  0.850000  1
  Li  Li3  1  0.321580  0.798477  0.588156  1
  Li  Li4  1  0.671278  0.213516  0.409319  1
  Li  Li5  1  0.066710  0.334361  0.145999  1
  Li  Li6  1  0.371206  0.063144  0.100465  1
  Li  Li7  1  0.809040  0.733711  0.136050  1
  Mn  Mn8  1  0.312837  0.649124  0.968176  1
  Mn  Mn9  1  0.289350  0.150445  0.437802  1
  Mn  Mn10  1  0.688176  0.350744  0.033778  1
  V  V11  1  0.707826  0.850797  0.559306  1
  P  P12  1  0.202984  0.947862  0.746088  1
  P  P13  1  0.500105  0.553850  0.753093  1
  P  P14  1  0.803918  0.245566  0.758882  1
  P  P15  1  0.204109  0.747333  0.242057  1
  P  P16  1  0.507861  0.458907  0.250526  1
  P  P17  1  0.784471  0.044297  0.251398  1
  O  O18  1  0.338633  0.139145  0.890311  1
  O  O19  1  0.340647  0.512457  0.816018  1
  O  O20  1  0.306012  0.831608  0.807567  1
  O  O21  1  0.703736  0.573684  0.899222  1
  O  O22  1  0.751749  0.198926  0.900311  1
  O  O23  1  0.571682  0.751383  0.719170  1
  O  O24  1  0.200531  0.969206  0.582247  1
  O  O25  1  0.382339  0.395239  0.594559  1
  O  O26  1  0.984181  0.459921  0.818741  1
  O  O27  1  0.883481  0.119648  0.734701  1
  O  O28  1  0.612422  0.202314  0.590103  1
  O  O29  1  0.975546  0.843202  0.721634  1
  O  O30  1  0.001333  0.147562  0.263559  1
  O  O31  1  0.406610  0.808148  0.414292  1
  O  O32  1  0.120352  0.870236  0.253091  1
  O  O33  1  0.035042  0.535968  0.190116  1
  O  O34  1  0.601837  0.609853  0.412602  1
  O  O35  1  0.799348  0.011434  0.417918  1
  O  O36  1  0.437970  0.262181  0.279796  1
  O  O37  1  0.256442  0.788902  0.095517  1
  O  O38  1  0.302222  0.438373  0.102139  1
  O  O39  1  0.679267  0.157836  0.200678  1
  O  O40  1  0.671569  0.512950  0.196748  1
  O  O41  1  0.641493  0.850071  0.102969  1
