# generated using pymatgen
data_Li2TiSn3(PO4)6
_symmetry_space_group_name_H-M   'P 1'
_cell_length_a   8.86718538
_cell_length_b   8.86718538
_cell_length_c   8.86718538
_cell_angle_alpha   58.91086104
_cell_angle_beta   58.91086104
_cell_angle_gamma   58.91086104
_symmetry_Int_Tables_number   1
_chemical_formula_structural   Li2TiSn3(PO4)6
_chemical_formula_sum   'Li2 Ti1 Sn3 P6 O24'
_cell_volume   480.74062654
_cell_formula_units_Z   1
loop_
 _symmetry_equiv_pos_site_id
 _symmetry_equiv_pos_as_xyz
  1  'x, y, z'
loop_
 _atom_site_type_symbol
 _atom_site_label
 _atom_site_symmetry_multiplicity
 _atom_site_fract_x
 _atom_site_fract_y
 _atom_site_fract_z
 _atom_site_occupancy
  Li  Li0  1  0.003173  0.003173  0.003173  1
  Li  Li1  1  0.499737  0.499737  0.499737  1
  Ti  Ti2  1  0.144482  0.144482  0.144482  1
  Sn  Sn3  1  0.854863  0.854863  0.854863  1
  Sn  Sn4  1  0.643483  0.643483  0.643483  1
  Sn  Sn5  1  0.354785  0.354785  0.354785  1
  P  P6  1  0.249413  0.540952  0.956889  1
  P  P7  1  0.956889  0.249413  0.540952  1
  P  P8  1  0.540952  0.956889  0.249413  1
  P  P9  1  0.452830  0.045384  0.752119  1
  P  P10  1  0.045384  0.752119  0.452830  1
  P  P11  1  0.752119  0.452830  0.045384  1
  O  O12  1  0.714859  0.479153  0.880263  1
  O  O13  1  0.479153  0.880263  0.714859  1
  O  O14  1  0.084715  0.729056  0.935295  1
  O  O15  1  0.880263  0.714859  0.479153  1
  O  O16  1  0.418456  0.550216  0.770390  1
  O  O17  1  0.198275  0.375601  0.004791  1
  O  O18  1  0.935295  0.084715  0.729056  1
  O  O19  1  0.770390  0.418456  0.550216  1
  O  O20  1  0.550216  0.770390  0.418456  1
  O  O21  1  0.619720  0.015579  0.787438  1
  O  O22  1  0.269178  0.069501  0.921714  1
  O  O23  1  0.015579  0.787438  0.619720  1
  O  O24  1  0.004791  0.198275  0.375601  1
  O  O25  1  0.729056  0.935295  0.084715  1
  O  O26  1  0.375601  0.004791  0.198275  1
  O  O27  1  0.431851  0.232614  0.585923  1
  O  O28  1  0.232614  0.585923  0.431851  1
  O  O29  1  0.069501  0.921714  0.269178  1
  O  O30  1  0.787438  0.619720  0.015579  1
  O  O31  1  0.585923  0.431851  0.232614  1
  O  O32  1  0.113582  0.296622  0.517101  1
  O  O33  1  0.921714  0.269178  0.069501  1
  O  O34  1  0.517101  0.113582  0.296622  1
  O  O35  1  0.296622  0.517101  0.113582  1
