# generated using pymatgen
data_Li2CrP3O10
_symmetry_space_group_name_H-M   'P 1'
_cell_length_a   7.98241994
_cell_length_b   7.98241994
_cell_length_c   9.57119111
_cell_angle_alpha   57.59559698
_cell_angle_beta   122.40440302
_cell_angle_gamma   126.43751637
_symmetry_Int_Tables_number   1
_chemical_formula_structural   Li2CrP3O10
_chemical_formula_sum   'Li4 Cr2 P6 O20'
_cell_volume   392.40910256
_cell_formula_units_Z   2
loop_
 _symmetry_equiv_pos_site_id
 _symmetry_equiv_pos_as_xyz
  1  'x, y, z'
loop_
 _atom_site_type_symbol
 _atom_site_label
 _atom_site_symmetry_multiplicity
 _atom_site_fract_x
 _atom_site_fract_y
 _atom_site_fract_z
 _atom_site_occupancy
  Li  Li0  1  0.716545  0.257626  0.040919  1
  Li  Li1  1  0.742374  0.283455  0.540919  1
  Li  Li2  1  0.257626  0.716545  0.459081  1
  Li  Li3  1  0.283455  0.742374  0.959081  1
  Cr  Cr4  1  0.336297  0.336297  0.250000  1
  Cr  Cr5  1  0.663703  0.663703  0.750000  1
  P  P6  1  0.802817  0.566760  0.183630  1
  P  P7  1  0.433240  0.197183  0.683630  1
  P  P8  1  0.957235  0.957235  0.250000  1
  P  P9  1  0.042765  0.042765  0.750000  1
  P  P10  1  0.566760  0.802817  0.316370  1
  P  P11  1  0.197183  0.433240  0.816370  1
  O  O12  1  0.978736  0.192385  0.156461  1
  O  O13  1  0.807615  0.021264  0.656461  1
  O  O14  1  0.557080  0.017640  0.195634  1
  O  O15  1  0.716140  0.533788  0.009966  1
  O  O16  1  0.632696  0.405222  0.283354  1
  O  O17  1  0.982360  0.442920  0.695634  1
  O  O18  1  0.825297  0.817446  0.122220  1
  O  O19  1  0.466212  0.283860  0.509966  1
  O  O20  1  0.594778  0.367304  0.783354  1
  O  O21  1  0.817446  0.825297  0.377780  1
  O  O22  1  0.182554  0.174703  0.622220  1
  O  O23  1  0.405222  0.632696  0.216646  1
  O  O24  1  0.533788  0.716140  0.490034  1
  O  O25  1  0.174703  0.182554  0.877780  1
  O  O26  1  0.017640  0.557080  0.304366  1
  O  O27  1  0.367304  0.594778  0.716646  1
  O  O28  1  0.283860  0.466212  0.990034  1
  O  O29  1  0.442920  0.982360  0.804366  1
  O  O30  1  0.192385  0.978736  0.343539  1
  O  O31  1  0.021264  0.807615  0.843539  1
