# generated using pymatgen
data_Li2VCr(P2O7)2
_symmetry_space_group_name_H-M   'P 1'
_cell_length_a   7.02351843
_cell_length_b   8.22076035
_cell_length_c   9.73732554
_cell_angle_alpha   90.00000000
_cell_angle_beta   108.73316832
_cell_angle_gamma   90.00000000
_symmetry_Int_Tables_number   1
_chemical_formula_structural   Li2VCr(P2O7)2
_chemical_formula_sum   'Li4 V2 Cr2 P8 O28'
_cell_volume   532.43626261
_cell_formula_units_Z   2
loop_
 _symmetry_equiv_pos_site_id
 _symmetry_equiv_pos_as_xyz
  1  'x, y, z'
loop_
 _atom_site_type_symbol
 _atom_site_label
 _atom_site_symmetry_multiplicity
 _atom_site_fract_x
 _atom_site_fract_y
 _atom_site_fract_z
 _atom_site_occupancy
  Li  Li0  1  0.676719  0.863099  0.088522  1
  Li  Li1  1  0.322840  0.363055  0.411895  1
  Li  Li2  1  0.677160  0.863055  0.588105  1
  Li  Li3  1  0.323281  0.363099  0.911478  1
  V  V4  1  0.271138  0.999488  0.391905  1
  V  V5  1  0.728862  0.499488  0.608095  1
  Cr  Cr6  1  0.727994  0.500000  0.107059  1
  Cr  Cr7  1  0.272006  1.000000  0.892941  1
  P  P8  1  0.522939  0.180607  0.199561  1
  P  P9  1  0.085593  0.783056  0.105463  1
  P  P10  1  0.914143  0.284753  0.393154  1
  P  P11  1  0.478735  0.679735  0.299506  1
  P  P12  1  0.521265  0.179735  0.700494  1
  P  P13  1  0.085857  0.784753  0.606846  1
  P  P14  1  0.914407  0.283056  0.894537  1
  P  P15  1  0.477061  0.680607  0.800439  1
  O  O16  1  0.854370  0.323269  0.026971  1
  O  O17  1  0.883955  0.693152  0.065434  1
  O  O18  1  0.481570  0.037969  0.092894  1
  O  O19  1  0.509255  0.346296  0.123850  1
  O  O20  1  0.606668  0.678365  0.198531  1
  O  O21  1  0.916189  0.434785  0.300170  1
  O  O22  1  0.753451  0.151778  0.297321  1
  O  O23  1  0.246456  0.651740  0.202716  1
  O  O24  1  0.080487  0.933652  0.197911  1
  O  O25  1  0.394295  0.179715  0.300522  1
  O  O26  1  0.494935  0.844135  0.376010  1
  O  O27  1  0.517683  0.537098  0.406699  1
  O  O28  1  0.851261  0.323192  0.525305  1
  O  O29  1  0.884623  0.696638  0.564917  1
  O  O30  1  0.115377  0.196638  0.435083  1
  O  O31  1  0.148739  0.823192  0.474695  1
  O  O32  1  0.482317  0.037098  0.593301  1
  O  O33  1  0.505065  0.344135  0.623990  1
  O  O34  1  0.605705  0.679715  0.699478  1
  O  O35  1  0.919513  0.433652  0.802089  1
  O  O36  1  0.753544  0.151740  0.797284  1
  O  O37  1  0.246549  0.651778  0.702679  1
  O  O38  1  0.083811  0.934785  0.699830  1
  O  O39  1  0.393332  0.178365  0.801469  1
  O  O40  1  0.490745  0.846296  0.876150  1
  O  O41  1  0.518430  0.537969  0.907106  1
  O  O42  1  0.116045  0.193152  0.934566  1
  O  O43  1  0.145630  0.823269  0.973029  1
