# generated using pymatgen
data_Na2Te(H5O4)2
_symmetry_space_group_name_H-M   'P 1'
_cell_length_a   7.74235445
_cell_length_b   7.74235445
_cell_length_c   17.74250394
_cell_angle_alpha   83.56978884
_cell_angle_beta   96.43021116
_cell_angle_gamma   121.96206748
_symmetry_Int_Tables_number   1
_chemical_formula_structural   Na2Te(H5O4)2
_chemical_formula_sum   'Na8 Te4 H40 O32'
_cell_volume   894.89029995
_cell_formula_units_Z   4
loop_
 _symmetry_equiv_pos_site_id
 _symmetry_equiv_pos_as_xyz
  1  'x, y, z'
loop_
 _atom_site_type_symbol
 _atom_site_label
 _atom_site_symmetry_multiplicity
 _atom_site_fract_x
 _atom_site_fract_y
 _atom_site_fract_z
 _atom_site_occupancy
  Na  Na0  1  0.431524  0.528718  0.574723  1
  Na  Na1  1  0.528718  0.431524  0.925277  1
  Na  Na2  1  0.568476  0.471282  0.425277  1
  Na  Na3  1  0.471282  0.568476  0.074723  1
  Na  Na4  1  0.470452  0.470452  0.750000  1
  Na  Na5  1  0.529548  0.529548  0.250000  1
  Na  Na6  1  0.500000  0.000000  0.500000  1
  Na  Na7  1  1.000000  0.500000  0.000000  1
  Te  Te8  1  0.137433  0.822721  0.674339  1
  Te  Te9  1  0.822721  0.137433  0.825661  1
  Te  Te10  1  0.862567  0.177279  0.325661  1
  Te  Te11  1  0.177279  0.862567  0.174339  1
  H  H12  1  0.527974  0.225298  0.644699  1
  H  H13  1  0.225298  0.527974  0.855301  1
  H  H14  1  0.472026  0.774702  0.355301  1
  H  H15  1  0.774702  0.472026  0.144699  1
  H  H16  1  0.741506  0.437116  0.644329  1
  H  H17  1  0.437116  0.741506  0.855671  1
  H  H18  1  0.258494  0.562884  0.355671  1
  H  H19  1  0.562884  0.258494  0.144329  1
  H  H20  1  0.162569  0.569125  0.460874  1
  H  H21  1  0.569125  0.162569  0.039126  1
  H  H22  1  0.837431  0.430875  0.539126  1
  H  H23  1  0.430875  0.837431  0.960874  1
  H  H24  1  0.151398  0.645672  0.539030  1
  H  H25  1  0.645672  0.151398  0.960970  1
  H  H26  1  0.848602  0.354328  0.460970  1
  H  H27  1  0.354328  0.848602  0.039030  1
  H  H28  1  0.557298  0.871296  0.660887  1
  H  H29  1  0.871296  0.557298  0.839113  1
  H  H30  1  0.442702  0.128704  0.339113  1
  H  H31  1  0.128704  0.442702  0.160887  1
  H  H32  1  0.755651  0.853547  0.658657  1
  H  H33  1  0.853547  0.755651  0.841343  1
  H  H34  1  0.244349  0.146453  0.341343  1
  H  H35  1  0.146453  0.244349  0.158657  1
  H  H36  1  0.171489  0.169422  0.454602  1
  H  H37  1  0.169422  0.171489  0.045398  1
  H  H38  1  0.828511  0.830578  0.545398  1
  H  H39  1  0.830578  0.828511  0.954602  1
  H  H40  1  0.211911  0.130156  0.541021  1
  H  H41  1  0.130156  0.211911  0.958979  1
  H  H42  1  0.788089  0.869844  0.458979  1
  H  H43  1  0.869844  0.788089  0.041021  1
  H  H44  1  0.095322  0.204011  0.646049  1
  H  H45  1  0.204011  0.095322  0.853951  1
  H  H46  1  0.904678  0.795989  0.353951  1
  H  H47  1  0.795989  0.904678  0.146049  1
  H  H48  1  0.093135  0.409704  0.654003  1
  H  H49  1  0.409704  0.093135  0.845998  1
  H  H50  1  0.906865  0.590296  0.345997  1
  H  H51  1  0.590296  0.906865  0.154003  1
  O  O52  1  0.006089  0.952554  0.620059  1
  O  O53  1  0.952554  0.006089  0.879941  1
  O  O54  1  0.993911  0.047446  0.379941  1
  O  O55  1  0.047446  0.993911  0.120059  1
  O  O56  1  0.006560  0.579690  0.621020  1
  O  O57  1  0.579690  0.006560  0.878980  1
  O  O58  1  0.993440  0.420310  0.378980  1
  O  O59  1  0.420310  0.993440  0.121020  1
  O  O60  1  0.391001  0.968646  0.629695  1
  O  O61  1  0.968646  0.391001  0.870305  1
  O  O62  1  0.608999  0.031354  0.370305  1
  O  O63  1  0.031354  0.608999  0.129695  1
  O  O64  1  0.610672  0.778411  0.671118  1
  O  O65  1  0.778411  0.610672  0.828882  1
  O  O66  1  0.389328  0.221589  0.328882  1
  O  O67  1  0.221589  0.389328  0.171118  1
  O  O68  1  0.279474  0.223742  0.497206  1
  O  O69  1  0.223742  0.279474  0.002794  1
  O  O70  1  0.720526  0.776258  0.502794  1
  O  O71  1  0.776258  0.720526  0.997206  1
  O  O72  1  0.174743  0.343846  0.665199  1
  O  O73  1  0.343846  0.174743  0.834801  1
  O  O74  1  0.825257  0.656154  0.334801  1
  O  O75  1  0.656154  0.825257  0.165199  1
  O  O76  1  0.595253  0.373797  0.653270  1
  O  O77  1  0.373797  0.595253  0.846730  1
  O  O78  1  0.404747  0.626203  0.346730  1
  O  O79  1  0.626203  0.404747  0.153270  1
  O  O80  1  0.246295  0.664483  0.500709  1
  O  O81  1  0.664483  0.246295  0.999291  1
  O  O82  1  0.753705  0.335517  0.499291  1
  O  O83  1  0.335517  0.753705  0.000709  1
