# generated using pymatgen
data_Mn2V3Sb(PO4)6
_symmetry_space_group_name_H-M   'P 1'
_cell_length_a   8.72948475
_cell_length_b   8.72948475
_cell_length_c   8.72948475
_cell_angle_alpha   59.75848815
_cell_angle_beta   59.75848815
_cell_angle_gamma   59.75848815
_symmetry_Int_Tables_number   1
_chemical_formula_structural   Mn2V3Sb(PO4)6
_chemical_formula_sum   'Mn2 V3 Sb1 P6 O24'
_cell_volume   467.80260546
_cell_formula_units_Z   1
loop_
 _symmetry_equiv_pos_site_id
 _symmetry_equiv_pos_as_xyz
  1  'x, y, z'
loop_
 _atom_site_type_symbol
 _atom_site_label
 _atom_site_symmetry_multiplicity
 _atom_site_fract_x
 _atom_site_fract_y
 _atom_site_fract_z
 _atom_site_occupancy
  Mn  Mn0  1  0.994461  0.994461  0.994461  1
  Mn  Mn1  1  0.500553  0.500553  0.500553  1
  V  V2  1  0.644154  0.644154  0.644154  1
  V  V3  1  0.855737  0.855737  0.855737  1
  V  V4  1  0.357300  0.357300  0.357300  1
  Sb  Sb5  1  0.144205  0.144205  0.144205  1
  P  P6  1  0.253128  0.545096  0.956462  1
  P  P7  1  0.956462  0.253128  0.545096  1
  P  P8  1  0.545096  0.956462  0.253128  1
  P  P9  1  0.461390  0.043259  0.748099  1
  P  P10  1  0.043259  0.748099  0.461390  1
  P  P11  1  0.748099  0.461390  0.043259  1
  O  O12  1  0.115965  0.308516  0.501217  1
  O  O13  1  0.501217  0.115965  0.308516  1
  O  O14  1  0.308516  0.501217  0.115965  1
  O  O15  1  0.087019  0.734035  0.940712  1
  O  O16  1  0.193090  0.384719  0.988616  1
  O  O17  1  0.413866  0.557325  0.763808  1
  O  O18  1  0.940712  0.087019  0.734035  1
  O  O19  1  0.763808  0.413866  0.557325  1
  O  O20  1  0.612246  0.007454  0.810914  1
  O  O21  1  0.557325  0.763808  0.413866  1
  O  O22  1  0.260790  0.059732  0.918532  1
  O  O23  1  0.007454  0.810914  0.612246  1
  O  O24  1  0.988616  0.193090  0.384719  1
  O  O25  1  0.734035  0.940712  0.087019  1
  O  O26  1  0.435842  0.238476  0.591372  1
  O  O27  1  0.384719  0.988616  0.193090  1
  O  O28  1  0.238476  0.591372  0.435842  1
  O  O29  1  0.059732  0.918532  0.260790  1
  O  O30  1  0.591372  0.435842  0.238476  1
  O  O31  1  0.810914  0.612247  0.007454  1
  O  O32  1  0.918532  0.260790  0.059732  1
  O  O33  1  0.697578  0.488813  0.885539  1
  O  O34  1  0.488813  0.885539  0.697578  1
  O  O35  1  0.885539  0.697578  0.488813  1
