# generated using pymatgen
data_Li4Co3Ni3(SbO8)2
_symmetry_space_group_name_H-M   'P 1'
_cell_length_a   5.81685922
_cell_length_b   5.81685922
_cell_length_c   9.50161015
_cell_angle_alpha   88.43054727
_cell_angle_beta   91.56945273
_cell_angle_gamma   120.53732196
_symmetry_Int_Tables_number   1
_chemical_formula_structural   Li4Co3Ni3(SbO8)2
_chemical_formula_sum   'Li4 Co3 Ni3 Sb2 O16'
_cell_volume   276.76541012
_cell_formula_units_Z   1
loop_
 _symmetry_equiv_pos_site_id
 _symmetry_equiv_pos_as_xyz
  1  'x, y, z'
loop_
 _atom_site_type_symbol
 _atom_site_label
 _atom_site_symmetry_multiplicity
 _atom_site_fract_x
 _atom_site_fract_y
 _atom_site_fract_z
 _atom_site_occupancy
  Li  Li0  1  0.662962  0.337038  0.900822  1
  Li  Li1  1  0.002753  0.997247  0.991790  1
  Li  Li2  1  0.004581  0.995419  0.491957  1
  Li  Li3  1  0.333381  0.666619  0.400489  1
  Co  Co4  1  0.340021  0.168951  0.214837  1
  Co  Co5  1  0.831049  0.659979  0.214837  1
  Co  Co6  1  0.171276  0.828724  0.715176  1
  Ni  Ni7  1  0.831907  0.168093  0.213210  1
  Ni  Ni8  1  0.168702  0.336577  0.714102  1
  Ni  Ni9  1  0.663423  0.831298  0.714102  1
  Sb  Sb10  1  0.669273  0.330727  0.486336  1
  Sb  Sb11  1  0.329593  0.670407  0.989533  1
  O  O12  1  0.332145  0.156646  0.594755  1
  O  O13  1  0.516634  0.483366  0.333631  1
  O  O14  1  0.666128  0.333872  0.116936  1
  O  O15  1  0.001421  0.998579  0.303060  1
  O  O16  1  0.006411  0.993589  0.802079  1
  O  O17  1  0.843354  0.667855  0.594755  1
  O  O18  1  0.509121  0.030393  0.341737  1
  O  O19  1  0.969607  0.490879  0.341737  1
  O  O20  1  0.162202  0.837798  0.103046  1
  O  O21  1  0.843960  0.156040  0.594079  1
  O  O22  1  0.025318  0.527055  0.843907  1
  O  O23  1  0.472945  0.974682  0.843907  1
  O  O24  1  0.328798  0.671202  0.618191  1
  O  O25  1  0.164500  0.321851  0.093624  1
  O  O26  1  0.480021  0.519979  0.841391  1
  O  O27  1  0.678149  0.835500  0.093624  1
