# generated using pymatgen
data_Ho3Fe5O12
_symmetry_space_group_name_H-M   'P 1'
_cell_length_a   10.81686039
_cell_length_b   10.81686039
_cell_length_c   10.81686039
_cell_angle_alpha   109.47122063
_cell_angle_beta   109.47122063
_cell_angle_gamma   109.47122063
_symmetry_Int_Tables_number   1
_chemical_formula_structural   Ho3Fe5O12
_chemical_formula_sum   'Ho12 Fe20 O48'
_cell_volume   974.27550325
_cell_formula_units_Z   4
loop_
 _symmetry_equiv_pos_site_id
 _symmetry_equiv_pos_as_xyz
  1  'x, y, z'
loop_
 _atom_site_type_symbol
 _atom_site_label
 _atom_site_symmetry_multiplicity
 _atom_site_fract_x
 _atom_site_fract_y
 _atom_site_fract_z
 _atom_site_occupancy
  Ho  Ho0  1  0.750000  0.125000  0.375000  1
  Ho  Ho1  1  0.375000  0.125000  0.250000  1
  Ho  Ho2  1  0.875000  0.625000  0.250000  1
  Ho  Ho3  1  0.250000  0.375000  0.125000  1
  Ho  Ho4  1  0.625000  0.250000  0.875000  1
  Ho  Ho5  1  0.375000  0.750000  0.125000  1
  Ho  Ho6  1  0.125000  0.250000  0.375000  1
  Ho  Ho7  1  0.875000  0.750000  0.625000  1
  Ho  Ho8  1  0.750000  0.625000  0.875000  1
  Ho  Ho9  1  0.625000  0.875000  0.750000  1
  Ho  Ho10  1  0.125000  0.375000  0.750000  1
  Ho  Ho11  1  0.250000  0.875000  0.625000  1
  Fe  Fe12  1  0.875000  0.250000  0.125000  1
  Fe  Fe13  1  0.500000  1.000000  0.000000  1
  Fe  Fe14  1  0.000000  0.000000  0.000000  1
  Fe  Fe15  1  0.625000  0.375000  0.250000  1
  Fe  Fe16  1  0.500000  1.000000  0.500000  1
  Fe  Fe17  1  0.500000  0.500000  0.000000  1
  Fe  Fe18  1  0.875000  0.125000  0.750000  1
  Fe  Fe19  1  0.750000  0.875000  0.125000  1
  Fe  Fe20  1  0.750000  0.375000  0.625000  1
  Fe  Fe21  1  0.625000  0.750000  0.375000  1
  Fe  Fe22  1  0.500000  0.500000  0.500000  1
  Fe  Fe23  1  1.000000  0.500000  0.000000  1
  Fe  Fe24  1  1.000000  1.000000  0.500000  1
  Fe  Fe25  1  0.375000  0.250000  0.625000  1
  Fe  Fe26  1  0.250000  0.625000  0.375000  1
  Fe  Fe27  1  0.250000  0.125000  0.875000  1
  Fe  Fe28  1  0.375000  0.625000  0.750000  1
  Fe  Fe29  1  0.125000  0.875000  0.250000  1
  Fe  Fe30  1  1.000000  0.500000  0.500000  1
  Fe  Fe31  1  0.125000  0.750000  0.875000  1
  O  O32  1  0.907035  0.032614  0.323033  1
  O  O33  1  0.874421  0.407035  0.084003  1
  O  O34  1  0.915997  0.290418  0.323033  1
  O  O35  1  0.915997  0.125579  0.592965  1
  O  O36  1  0.967386  0.676967  0.092965  1
  O  O37  1  0.584003  0.176967  0.209582  1
  O  O38  1  0.625579  0.415997  0.092965  1
  O  O39  1  0.209582  0.125579  0.032614  1
  O  O40  1  0.709582  0.676967  0.084003  1
  O  O41  1  0.592965  0.176967  0.467386  1
  O  O42  1  0.907035  0.374421  0.584003  1
  O  O43  1  0.125579  0.032614  0.209582  1
  O  O44  1  0.823032  0.532614  0.407035  1
  O  O45  1  0.676967  0.084003  0.709582  1
  O  O46  1  0.467386  0.374421  0.290418  1
  O  O47  1  0.467386  0.592965  0.176968  1
  O  O48  1  0.415997  0.092965  0.625579  1
  O  O49  1  0.032614  0.209582  0.125579  1
  O  O50  1  0.823032  0.790418  0.415997  1
  O  O51  1  0.374421  0.290418  0.467386  1
  O  O52  1  0.676967  0.092965  0.967386  1
  O  O53  1  0.709582  0.532614  0.625579  1
  O  O54  1  0.790418  0.415997  0.823033  1
  O  O55  1  0.592965  0.915997  0.125579  1
  O  O56  1  0.290418  0.467386  0.374421  1
  O  O57  1  0.407035  0.084003  0.874421  1
  O  O58  1  0.209582  0.584003  0.176967  1
  O  O59  1  0.176967  0.209582  0.584003  1
  O  O60  1  0.625579  0.709582  0.532614  1
  O  O61  1  0.323032  0.907035  0.032614  1
  O  O62  1  0.584003  0.907035  0.374421  1
  O  O63  1  0.532614  0.407035  0.823033  1
  O  O64  1  0.967386  0.790418  0.874421  1
  O  O65  1  0.532614  0.625579  0.709582  1
  O  O66  1  0.323032  0.915997  0.290418  1
  O  O67  1  0.176967  0.467386  0.592965  1
  O  O68  1  0.874421  0.967386  0.790418  1
  O  O69  1  0.407035  0.823032  0.532614  1
  O  O70  1  0.290418  0.323032  0.915997  1
  O  O71  1  0.092965  0.625579  0.415997  1
  O  O72  1  0.790418  0.874421  0.967386  1
  O  O73  1  0.374421  0.584003  0.907035  1
  O  O74  1  0.415997  0.823032  0.790418  1
  O  O75  1  0.032614  0.323032  0.907035  1
  O  O76  1  0.084003  0.874421  0.407035  1
  O  O77  1  0.084003  0.709582  0.676968  1
  O  O78  1  0.125579  0.592965  0.915997  1
  O  O79  1  0.092965  0.967386  0.676967  1
