# generated using pymatgen
data_Li2MnVP2(O4F)2
_symmetry_space_group_name_H-M   'P 1'
_cell_length_a   5.31218279
_cell_length_b   7.57746702
_cell_length_c   10.52811339
_cell_angle_alpha   105.08366345
_cell_angle_beta   97.28915782
_cell_angle_gamma   109.73884984
_symmetry_Int_Tables_number   1
_chemical_formula_structural   Li2MnVP2(O4F)2
_chemical_formula_sum   'Li4 Mn2 V2 P4 O16 F4'
_cell_volume   374.23465040
_cell_formula_units_Z   2
loop_
 _symmetry_equiv_pos_site_id
 _symmetry_equiv_pos_as_xyz
  1  'x, y, z'
loop_
 _atom_site_type_symbol
 _atom_site_label
 _atom_site_symmetry_multiplicity
 _atom_site_fract_x
 _atom_site_fract_y
 _atom_site_fract_z
 _atom_site_occupancy
  Li  Li0  1  0.537459  0.620958  0.809765  1
  Li  Li1  1  0.034342  0.116917  0.306845  1
  Li  Li2  1  0.965658  0.883083  0.693155  1
  Li  Li3  1  0.462541  0.379042  0.190235  1
  Mn  Mn4  1  0.000000  0.000000  0.000000  1
  Mn  Mn5  1  0.500000  0.000000  0.500000  1
  V  V6  1  0.500000  0.500000  0.500000  1
  V  V7  1  0.000000  0.500000  0.000000  1
  P  P8  1  0.502018  0.052934  0.820927  1
  P  P9  1  0.003306  0.558991  0.321617  1
  P  P10  1  0.996694  0.441009  0.678383  1
  P  P11  1  0.497982  0.947066  0.179073  1
  O  O12  1  0.700674  0.944359  0.830895  1
  O  O13  1  0.203400  0.450470  0.331768  1
  O  O14  1  0.656544  0.280778  0.897300  1
  O  O15  1  0.368329  0.013083  0.670833  1
  O  O16  1  0.142104  0.782150  0.392844  1
  O  O17  1  0.874807  0.512535  0.166358  1
  O  O18  1  0.249075  0.967198  0.875363  1
  O  O19  1  0.744904  0.465374  0.372431  1
  O  O20  1  0.255096  0.534626  0.627569  1
  O  O21  1  0.750925  0.032802  0.124637  1
  O  O22  1  0.125193  0.487465  0.833642  1
  O  O23  1  0.857896  0.217850  0.607156  1
  O  O24  1  0.631671  0.986917  0.329167  1
  O  O25  1  0.343456  0.719222  0.102700  1
  O  O26  1  0.796600  0.549530  0.668232  1
  O  O27  1  0.299326  0.055641  0.169105  1
  F  F28  1  0.832546  0.677592  0.963000  1
  F  F29  1  0.331997  0.212183  0.461791  1
  F  F30  1  0.668003  0.787817  0.538209  1
  F  F31  1  0.167454  0.322408  0.037000  1
