# generated using pymatgen
data_LaNb3O9
_symmetry_space_group_name_H-M   'P 1'
_cell_length_a   8.90359772
_cell_length_b   8.90359772
_cell_length_c   9.81733034
_cell_angle_alpha   57.00949170
_cell_angle_beta   122.99050830
_cell_angle_gamma   143.18229885
_symmetry_Int_Tables_number   1
_chemical_formula_structural   LaNb3O9
_chemical_formula_sum   'La2 Nb6 O18'
_cell_volume   381.94823199
_cell_formula_units_Z   2
loop_
 _symmetry_equiv_pos_site_id
 _symmetry_equiv_pos_as_xyz
  1  'x, y, z'
loop_
 _atom_site_type_symbol
 _atom_site_label
 _atom_site_symmetry_multiplicity
 _atom_site_fract_x
 _atom_site_fract_y
 _atom_site_fract_z
 _atom_site_occupancy
  La  La0  1  0.333719  0.666281  0.001132  1
  La  La1  1  0.673226  0.326774  0.001858  1
  Nb  Nb2  1  0.588997  0.411003  0.252586  1
  Nb  Nb3  1  0.750264  0.249736  0.735807  1
  Nb  Nb4  1  0.078681  0.921319  0.742840  1
  Nb  Nb5  1  0.928925  0.071075  0.260543  1
  Nb  Nb6  1  0.257182  0.742818  0.267801  1
  Nb  Nb7  1  0.418229  0.581771  0.751789  1
  O  O8  1  0.503715  0.496285  0.000428  1
  O  O9  1  0.579391  0.897852  0.770281  1
  O  O10  1  0.102148  0.420609  0.770281  1
  O  O11  1  0.178864  0.821136  0.998633  1
  O  O12  1  0.830580  0.169420  0.002034  1
  O  O13  1  0.005171  0.994829  0.500892  1
  O  O14  1  0.669244  0.330756  0.497587  1
  O  O15  1  0.924497  0.563521  0.776359  1
  O  O16  1  0.730466  0.741388  0.233427  1
  O  O17  1  0.750302  0.721786  0.767545  1
  O  O18  1  0.258612  0.269534  0.233427  1
  O  O19  1  0.436479  0.075503  0.776359  1
  O  O20  1  0.573960  0.916909  0.225074  1
  O  O21  1  0.339025  0.660975  0.503399  1
  O  O22  1  0.083091  0.426040  0.225074  1
  O  O23  1  0.278214  0.249698  0.767545  1
  O  O24  1  0.907487  0.571839  0.230970  1
  O  O25  1  0.428161  0.092513  0.230970  1
