# generated using pymatgen
data_MgSO4
_symmetry_space_group_name_H-M   'P 1'
_cell_length_a   4.78043996
_cell_length_b   4.78043996
_cell_length_c   6.61218410
_cell_angle_alpha   90.00000000
_cell_angle_beta   90.00000000
_cell_angle_gamma   113.82326596
_symmetry_Int_Tables_number   1
_chemical_formula_structural   MgSO4
_chemical_formula_sum   'Mg2 S2 O8'
_cell_volume   138.23079305
_cell_formula_units_Z   2
loop_
 _symmetry_equiv_pos_site_id
 _symmetry_equiv_pos_as_xyz
  1  'x, y, z'
loop_
 _atom_site_type_symbol
 _atom_site_label
 _atom_site_symmetry_multiplicity
 _atom_site_fract_x
 _atom_site_fract_y
 _atom_site_fract_z
 _atom_site_occupancy
  Mg  Mg0  1  0.000000  0.000000  0.000000  1
  Mg  Mg1  1  0.000000  0.000000  0.500000  1
  S  S2  1  0.651591  0.348409  0.250000  1
  S  S3  1  0.348409  0.651591  0.750000  1
  O  O4  1  0.306389  0.224244  0.250000  1
  O  O5  1  0.693611  0.775756  0.750000  1
  O  O6  1  0.224244  0.306389  0.750000  1
  O  O7  1  0.775756  0.693611  0.250000  1
  O  O8  1  0.752580  0.247420  0.065243  1
  O  O9  1  0.247420  0.752580  0.565243  1
  O  O10  1  0.247420  0.752580  0.934757  1
  O  O11  1  0.752580  0.247420  0.434757  1
