# generated using pymatgen
data_Li3V3O5F3
_symmetry_space_group_name_H-M   'P 1'
_cell_length_a   5.97215978
_cell_length_b   5.97215978
_cell_length_c   5.85999290
_cell_angle_alpha   60.76074331
_cell_angle_beta   119.23925669
_cell_angle_gamma   119.02753518
_symmetry_Int_Tables_number   1
_chemical_formula_structural   Li3V3O5F3
_chemical_formula_sum   'Li3 V3 O5 F3'
_cell_volume   150.55917639
_cell_formula_units_Z   1
loop_
 _symmetry_equiv_pos_site_id
 _symmetry_equiv_pos_as_xyz
  1  'x, y, z'
loop_
 _atom_site_type_symbol
 _atom_site_label
 _atom_site_symmetry_multiplicity
 _atom_site_fract_x
 _atom_site_fract_y
 _atom_site_fract_z
 _atom_site_occupancy
  Li  Li0  1  0.753498  0.246502  0.269831  1
  Li  Li1  1  0.379549  0.620451  0.128395  1
  Li  Li2  1  0.374613  0.625387  0.623390  1
  V  V3  1  0.993981  0.006019  0.988862  1
  V  V4  1  0.385269  0.122659  0.618814  1
  V  V5  1  0.877341  0.614731  0.618814  1
  O  O6  1  0.615544  0.384456  0.394972  1
  O  O7  1  0.102472  0.376123  0.863394  1
  O  O8  1  0.623877  0.897528  0.863394  1
  O  O9  1  0.118750  0.881250  0.850390  1
  O  O10  1  0.123201  0.876799  0.375217  1
  F  F11  1  0.620377  0.379623  0.863163  1
  F  F12  1  0.152247  0.370719  0.395683  1
  F  F13  1  0.629281  0.847753  0.395683  1
