# generated using pymatgen
data_Li3TiFe3O8
_symmetry_space_group_name_H-M   'P 1'
_cell_length_a   6.03300198
_cell_length_b   6.03300198
_cell_length_c   6.03300198
_cell_angle_alpha   59.51336461
_cell_angle_beta   59.51336461
_cell_angle_gamma   59.51336461
_symmetry_Int_Tables_number   1
_chemical_formula_structural   Li3TiFe3O8
_chemical_formula_sum   'Li3 Ti1 Fe3 O8'
_cell_volume   153.55094575
_cell_formula_units_Z   1
loop_
 _symmetry_equiv_pos_site_id
 _symmetry_equiv_pos_as_xyz
  1  'x, y, z'
loop_
 _atom_site_type_symbol
 _atom_site_label
 _atom_site_symmetry_multiplicity
 _atom_site_fract_x
 _atom_site_fract_y
 _atom_site_fract_z
 _atom_site_occupancy
  Li  Li0  1  0.000000  0.000000  0.500000  1
  Li  Li1  1  0.500000  0.000000  0.000000  1
  Li  Li2  1  1.000000  0.500000  0.000000  1
  Ti  Ti3  1  0.000000  0.000000  0.000000  1
  Fe  Fe4  1  0.500000  0.500000  0.000000  1
  Fe  Fe5  1  0.000000  0.500000  0.500000  1
  Fe  Fe6  1  0.500000  0.000000  0.500000  1
  O  O7  1  0.258315  0.258315  0.258315  1
  O  O8  1  0.767248  0.767248  0.247294  1
  O  O9  1  0.247294  0.767248  0.767248  1
  O  O10  1  0.741685  0.741685  0.741685  1
  O  O11  1  0.767248  0.247294  0.767248  1
  O  O12  1  0.232752  0.232752  0.752706  1
  O  O13  1  0.752706  0.232752  0.232752  1
  O  O14  1  0.232752  0.752706  0.232752  1
