# generated using pymatgen
data_Na5Fe2P2(CO7)2
_symmetry_space_group_name_H-M   'P 1'
_cell_length_a   10.37815234
_cell_length_b   6.61312805
_cell_length_c   10.50173561
_cell_angle_alpha   90.00000000
_cell_angle_beta   120.06017298
_cell_angle_gamma   90.00000000
_symmetry_Int_Tables_number   1
_chemical_formula_structural   Na5Fe2P2(CO7)2
_chemical_formula_sum   'Na10 Fe4 P4 C4 O28'
_cell_volume   623.81388140
_cell_formula_units_Z   2
loop_
 _symmetry_equiv_pos_site_id
 _symmetry_equiv_pos_as_xyz
  1  'x, y, z'
loop_
 _atom_site_type_symbol
 _atom_site_label
 _atom_site_symmetry_multiplicity
 _atom_site_fract_x
 _atom_site_fract_y
 _atom_site_fract_z
 _atom_site_occupancy
  Na  Na0  1  0.087194  0.498666  0.427824  1
  Na  Na1  1  0.087194  0.501334  0.927824  1
  Na  Na2  1  0.266490  0.266410  0.258797  1
  Na  Na3  1  0.266490  0.733590  0.758797  1
  Na  Na4  1  0.739261  0.748876  0.243707  1
  Na  Na5  1  0.739428  0.251177  0.243544  1
  Na  Na6  1  0.739428  0.748823  0.743544  1
  Na  Na7  1  0.739261  0.251124  0.743707  1
  Na  Na8  1  0.925970  0.991268  0.083838  1
  Na  Na9  1  0.925970  0.008732  0.583838  1
  Fe  Fe10  1  0.346970  0.996064  0.066992  1
  Fe  Fe11  1  0.346970  0.003936  0.566992  1
  Fe  Fe12  1  0.646422  0.500568  0.434318  1
  Fe  Fe13  1  0.646422  0.499432  0.934318  1
  P  P14  1  0.418219  0.498389  0.059745  1
  P  P15  1  0.418219  0.501611  0.559745  1
  P  P16  1  0.579822  0.000142  0.434361  1
  P  P17  1  0.579822  0.999858  0.934361  1
  C  C18  1  0.062349  0.998680  0.396684  1
  C  C19  1  0.062349  0.001320  0.896684  1
  C  C20  1  0.937027  0.495564  0.104766  1
  C  C21  1  0.937027  0.504436  0.604766  1
  O  O22  1  0.077688  0.484735  0.185201  1
  O  O23  1  0.077688  0.515265  0.685201  1
  O  O24  1  0.126563  0.016217  0.039543  1
  O  O25  1  0.126563  0.983783  0.539543  1
  O  O26  1  0.150297  0.012147  0.342644  1
  O  O27  1  0.150297  0.987853  0.842644  1
  O  O28  1  0.322986  0.310325  0.053683  1
  O  O29  1  0.321922  0.691283  0.042471  1
  O  O30  1  0.321922  0.308717  0.542471  1
  O  O31  1  0.322986  0.689675  0.553683  1
  O  O32  1  0.433130  0.006555  0.283869  1
  O  O33  1  0.433130  0.993445  0.783869  1
  O  O34  1  0.447278  0.501935  0.429672  1
  O  O35  1  0.447278  0.498065  0.929672  1
  O  O36  1  0.539187  0.000667  0.060878  1
  O  O37  1  0.539187  0.999333  0.560878  1
  O  O38  1  0.567590  0.500807  0.206139  1
  O  O39  1  0.567590  0.499193  0.706139  1
  O  O40  1  0.677489  0.814575  0.451923  1
  O  O41  1  0.680853  0.184002  0.455242  1
  O  O42  1  0.677489  0.185425  0.951923  1
  O  O43  1  0.680853  0.815998  0.955242  1
  O  O44  1  0.850587  0.501765  0.162882  1
  O  O45  1  0.850587  0.498235  0.662882  1
  O  O46  1  0.872838  0.497908  0.460200  1
  O  O47  1  0.872838  0.502092  0.960200  1
  O  O48  1  0.918961  0.000305  0.314547  1
  O  O49  1  0.918961  0.999695  0.814547  1
