# generated using pymatgen
data_V2P2H4O11
_symmetry_space_group_name_H-M   'P 1'
_cell_length_a   11.04509404
_cell_length_b   7.49466996
_cell_length_c   11.43068010
_cell_angle_alpha   90.00000000
_cell_angle_beta   119.54949139
_cell_angle_gamma   90.00000000
_symmetry_Int_Tables_number   1
_chemical_formula_structural   V2P2H4O11
_chemical_formula_sum   'V8 P8 H16 O44'
_cell_volume   823.14874462
_cell_formula_units_Z   4
loop_
 _symmetry_equiv_pos_site_id
 _symmetry_equiv_pos_as_xyz
  1  'x, y, z'
loop_
 _atom_site_type_symbol
 _atom_site_label
 _atom_site_symmetry_multiplicity
 _atom_site_fract_x
 _atom_site_fract_y
 _atom_site_fract_z
 _atom_site_occupancy
  V  V0  1  0.741132  0.437448  0.377323  1
  V  V1  1  0.258868  0.937448  0.122677  1
  V  V2  1  0.258868  0.562552  0.622677  1
  V  V3  1  0.741132  0.062552  0.877323  1
  V  V4  1  0.755546  0.032119  0.372851  1
  V  V5  1  0.244454  0.532119  0.127149  1
  V  V6  1  0.244454  0.967881  0.627149  1
  V  V7  1  0.755546  0.467881  0.872851  1
  P  P8  1  0.964621  0.739646  0.599682  1
  P  P9  1  0.035379  0.239646  0.900318  1
  P  P10  1  0.035379  0.260354  0.400318  1
  P  P11  1  0.964621  0.760354  0.099682  1
  P  P12  1  0.526356  0.737000  0.381707  1
  P  P13  1  0.473644  0.237000  0.118293  1
  P  P14  1  0.473644  0.263000  0.618293  1
  P  P15  1  0.526356  0.763000  0.881707  1
  H  H16  1  0.828437  0.243911  0.590488  1
  H  H17  1  0.171563  0.743911  0.909512  1
  H  H18  1  0.171563  0.756089  0.409512  1
  H  H19  1  0.828437  0.256089  0.090488  1
  H  H20  1  0.603255  0.241503  0.511327  1
  H  H21  1  0.396745  0.741503  0.988673  1
  H  H22  1  0.396745  0.758497  0.488673  1
  H  H23  1  0.603255  0.258497  0.011327  1
  H  H24  1  0.624024  0.894175  0.644677  1
  H  H25  1  0.375976  0.394175  0.855323  1
  H  H26  1  0.375976  0.105825  0.355323  1
  H  H27  1  0.624024  0.605825  0.144677  1
  H  H28  1  0.911069  0.662112  0.755851  1
  H  H29  1  0.088931  0.162112  0.744149  1
  H  H30  1  0.088931  0.337888  0.244149  1
  H  H31  1  0.911069  0.837888  0.255851  1
  O  O32  1  0.741430  0.245577  0.502709  1
  O  O33  1  0.258570  0.745577  0.997291  1
  O  O34  1  0.258570  0.754423  0.497291  1
  O  O35  1  0.741430  0.254423  0.002709  1
  O  O36  1  0.494611  0.776943  0.499526  1
  O  O37  1  0.505389  0.276943  0.000474  1
  O  O38  1  0.505389  0.223057  0.500474  1
  O  O39  1  0.494611  0.723057  0.999526  1
  O  O40  1  0.991868  0.716454  0.747688  1
  O  O41  1  0.008132  0.216454  0.752312  1
  O  O42  1  0.008132  0.283546  0.252312  1
  O  O43  1  0.991868  0.783546  0.247688  1
  O  O44  1  0.700303  0.552711  0.228779  1
  O  O45  1  0.299697  0.052711  0.271221  1
  O  O46  1  0.299697  0.447289  0.771221  1
  O  O47  1  0.700303  0.947289  0.728779  1
  O  O48  1  0.788023  0.928274  0.263642  1
  O  O49  1  0.211977  0.428274  0.236358  1
  O  O50  1  0.211977  0.071726  0.736358  1
  O  O51  1  0.788023  0.571726  0.763642  1
  O  O52  1  0.886423  0.575951  0.516517  1
  O  O53  1  0.113577  0.075951  0.983483  1
  O  O54  1  0.113577  0.424049  0.483483  1
  O  O55  1  0.886423  0.924049  0.016517  1
  O  O56  1  0.600936  0.557660  0.407390  1
  O  O57  1  0.399064  0.057660  0.092610  1
  O  O58  1  0.399064  0.442340  0.592610  1
  O  O59  1  0.600936  0.942340  0.907390  1
  O  O60  1  0.892197  0.916956  0.542672  1
  O  O61  1  0.107803  0.416956  0.957328  1
  O  O62  1  0.107803  0.083044  0.457328  1
  O  O63  1  0.892197  0.583044  0.042672  1
  O  O64  1  0.606652  0.898119  0.376612  1
  O  O65  1  0.393348  0.398119  0.123388  1
  O  O66  1  0.393348  0.101881  0.623388  1
  O  O67  1  0.606652  0.601881  0.876612  1
  O  O68  1  0.112985  0.744602  0.613978  1
  O  O69  1  0.887015  0.244602  0.886022  1
  O  O70  1  0.887015  0.255398  0.386022  1
  O  O71  1  0.112985  0.755398  0.113978  1
  O  O72  1  0.385974  0.725643  0.245784  1
  O  O73  1  0.614026  0.225643  0.254216  1
  O  O74  1  0.614026  0.274357  0.754216  1
  O  O75  1  0.385974  0.774357  0.745784  1
