# generated using pymatgen
data_Li2Cr3P4(HO4)4
_symmetry_space_group_name_H-M   'P 1'
_cell_length_a   9.08917358
_cell_length_b   8.20884418
_cell_length_c   9.28352205
_cell_angle_alpha   90.00000000
_cell_angle_beta   103.50791571
_cell_angle_gamma   90.00000000
_symmetry_Int_Tables_number   1
_chemical_formula_structural   Li2Cr3P4(HO4)4
_chemical_formula_sum   'Li4 Cr6 P8 H8 O32'
_cell_volume   673.49796732
_cell_formula_units_Z   2
loop_
 _symmetry_equiv_pos_site_id
 _symmetry_equiv_pos_as_xyz
  1  'x, y, z'
loop_
 _atom_site_type_symbol
 _atom_site_label
 _atom_site_symmetry_multiplicity
 _atom_site_fract_x
 _atom_site_fract_y
 _atom_site_fract_z
 _atom_site_occupancy
  Li  Li0  1  0.016009  0.334382  0.978021  1
  Li  Li1  1  0.016009  0.165618  0.478021  1
  Li  Li2  1  0.983991  0.834382  0.521979  1
  Li  Li3  1  0.983991  0.665618  0.021979  1
  Cr  Cr4  1  0.500000  0.500000  0.000000  1
  Cr  Cr5  1  0.640322  0.147634  0.996271  1
  Cr  Cr6  1  0.359678  0.647634  0.503729  1
  Cr  Cr7  1  0.500000  0.000000  0.500000  1
  Cr  Cr8  1  0.640322  0.352366  0.496271  1
  Cr  Cr9  1  0.359678  0.852366  0.003729  1
  P  P10  1  0.169571  0.569372  0.771549  1
  P  P11  1  0.627122  0.810365  0.796433  1
  P  P12  1  0.372878  0.310365  0.703567  1
  P  P13  1  0.830429  0.069372  0.728451  1
  P  P14  1  0.169571  0.930628  0.271549  1
  P  P15  1  0.627122  0.689635  0.296433  1
  P  P16  1  0.372878  0.189635  0.203567  1
  P  P17  1  0.830429  0.430628  0.228451  1
  H  H18  1  0.116162  0.991560  0.791193  1
  H  H19  1  0.276637  0.040403  0.771964  1
  H  H20  1  0.723363  0.540403  0.728036  1
  H  H21  1  0.883838  0.491560  0.708807  1
  H  H22  1  0.116162  0.508440  0.291193  1
  H  H23  1  0.276637  0.459597  0.271964  1
  H  H24  1  0.723363  0.959597  0.228036  1
  H  H25  1  0.883838  0.008440  0.208807  1
  O  O26  1  0.315480  0.634682  0.879352  1
  O  O27  1  0.223260  0.996253  0.846389  1
  O  O28  1  0.561422  0.933768  0.887225  1
  O  O29  1  0.043926  0.538577  0.853380  1
  O  O30  1  0.479647  0.299880  0.860840  1
  O  O31  1  0.668501  0.644798  0.865085  1
  O  O32  1  0.874210  0.169549  0.869359  1
  O  O33  1  0.213716  0.385749  0.727337  1
  O  O34  1  0.786284  0.885749  0.772663  1
  O  O35  1  0.125790  0.669549  0.630641  1
  O  O36  1  0.331499  0.144798  0.634915  1
  O  O37  1  0.520353  0.799880  0.639160  1
  O  O38  1  0.956074  0.038577  0.646620  1
  O  O39  1  0.438578  0.433768  0.612775  1
  O  O40  1  0.776740  0.496253  0.653611  1
  O  O41  1  0.684520  0.134682  0.620648  1
  O  O42  1  0.315480  0.865318  0.379352  1
  O  O43  1  0.223260  0.503747  0.346389  1
  O  O44  1  0.561422  0.566232  0.387225  1
  O  O45  1  0.043926  0.961423  0.353380  1
  O  O46  1  0.479647  0.200120  0.360840  1
  O  O47  1  0.668501  0.855202  0.365085  1
  O  O48  1  0.874210  0.330451  0.369359  1
  O  O49  1  0.213716  0.114251  0.227337  1
  O  O50  1  0.786284  0.614251  0.272663  1
  O  O51  1  0.125790  0.830451  0.130641  1
  O  O52  1  0.331499  0.355202  0.134915  1
  O  O53  1  0.520353  0.700120  0.139160  1
  O  O54  1  0.956074  0.461423  0.146620  1
  O  O55  1  0.438578  0.066232  0.112775  1
  O  O56  1  0.776740  0.003747  0.153611  1
  O  O57  1  0.684520  0.365318  0.120648  1
