# generated using pymatgen
data_Ni(PO3)3
_symmetry_space_group_name_H-M   'P 1'
_cell_length_a   6.96507493
_cell_length_b   7.00855951
_cell_length_c   7.35158178
_cell_angle_alpha   76.84019868
_cell_angle_beta   85.10444257
_cell_angle_gamma   84.47457292
_symmetry_Int_Tables_number   1
_chemical_formula_structural   Ni(PO3)3
_chemical_formula_sum   'Ni2 P6 O18'
_cell_volume   347.07516901
_cell_formula_units_Z   2
loop_
 _symmetry_equiv_pos_site_id
 _symmetry_equiv_pos_as_xyz
  1  'x, y, z'
loop_
 _atom_site_type_symbol
 _atom_site_label
 _atom_site_symmetry_multiplicity
 _atom_site_fract_x
 _atom_site_fract_y
 _atom_site_fract_z
 _atom_site_occupancy
  Ni  Ni0  1  0.155893  0.566347  0.144919  1
  Ni  Ni1  1  0.844107  0.433653  0.855081  1
  P  P2  1  0.141506  0.252406  0.548868  1
  P  P3  1  0.288592  0.860677  0.766616  1
  P  P4  1  0.361518  0.445485  0.781714  1
  P  P5  1  0.638482  0.554515  0.218286  1
  P  P6  1  0.711408  0.139323  0.233384  1
  P  P7  1  0.858494  0.747594  0.451132  1
  O  O8  1  0.040335  0.711061  0.336534  1
  O  O9  1  0.145595  0.309246  0.339554  1
  O  O10  1  0.146577  0.819126  0.936263  1
  O  O11  1  0.201102  0.413119  0.935789  1
  O  O12  1  0.202057  0.016412  0.593624  1
  O  O13  1  0.322174  0.340261  0.617330  1
  O  O14  1  0.332630  0.677271  0.670989  1
  O  O15  1  0.432541  0.603673  0.176154  1
  O  O16  1  0.530519  0.071279  0.173868  1
  O  O17  1  0.469481  0.928721  0.826132  1
  O  O18  1  0.567459  0.396327  0.823846  1
  O  O19  1  0.667370  0.322729  0.329011  1
  O  O20  1  0.677826  0.659739  0.382670  1
  O  O21  1  0.797943  0.983588  0.406376  1
  O  O22  1  0.798898  0.586881  0.064211  1
  O  O23  1  0.853423  0.180874  0.063737  1
  O  O24  1  0.854405  0.690754  0.660446  1
  O  O25  1  0.959665  0.288939  0.663466  1
