# generated using pymatgen
data_Na3CoBPO7
_symmetry_space_group_name_H-M   'P 1'
_cell_length_a   5.14927741
_cell_length_b   6.90542722
_cell_length_c   8.77651859
_cell_angle_alpha   90.00000000
_cell_angle_beta   91.92821289
_cell_angle_gamma   90.00000000
_symmetry_Int_Tables_number   1
_chemical_formula_structural   Na3CoBPO7
_chemical_formula_sum   'Na6 Co2 B2 P2 O14'
_cell_volume   311.89839416
_cell_formula_units_Z   2
loop_
 _symmetry_equiv_pos_site_id
 _symmetry_equiv_pos_as_xyz
  1  'x, y, z'
loop_
 _atom_site_type_symbol
 _atom_site_label
 _atom_site_symmetry_multiplicity
 _atom_site_fract_x
 _atom_site_fract_y
 _atom_site_fract_z
 _atom_site_occupancy
  Na  Na0  1  0.235857  0.750000  0.080843  1
  Na  Na1  1  0.745701  0.992317  0.265393  1
  Na  Na2  1  0.745701  0.507683  0.265393  1
  Na  Na3  1  0.254299  0.492317  0.734607  1
  Na  Na4  1  0.254299  0.007683  0.734607  1
  Na  Na5  1  0.764143  0.250000  0.919157  1
  Co  Co6  1  0.216403  0.250000  0.338021  1
  Co  Co7  1  0.783597  0.750000  0.661979  1
  B  B8  1  0.268379  0.250000  0.070349  1
  B  B9  1  0.731621  0.750000  0.929651  1
  P  P10  1  0.283277  0.750000  0.420248  1
  P  P11  1  0.716723  0.250000  0.579752  1
  O  O12  1  0.707496  0.750000  0.081063  1
  O  O13  1  0.031990  0.250000  0.145118  1
  O  O14  1  0.469925  0.250000  0.181289  1
  O  O15  1  0.225529  0.930080  0.319711  1
  O  O16  1  0.225529  0.569920  0.319711  1
  O  O17  1  0.580616  0.750000  0.468972  1
  O  O18  1  0.874976  0.250000  0.432327  1
  O  O19  1  0.125024  0.750000  0.567673  1
  O  O20  1  0.419384  0.250000  0.531028  1
  O  O21  1  0.774471  0.430080  0.680289  1
  O  O22  1  0.774471  0.069920  0.680289  1
  O  O23  1  0.530075  0.750000  0.818711  1
  O  O24  1  0.968010  0.750000  0.854882  1
  O  O25  1  0.292504  0.250000  0.918937  1
