# generated using pymatgen
data_LiFeBO3
_symmetry_space_group_name_H-M   'P 1'
_cell_length_a   5.23118485
_cell_length_b   5.23118485
_cell_length_c   10.33810890
_cell_angle_alpha   89.30614420
_cell_angle_beta   90.69385580
_cell_angle_gamma   59.56321483
_symmetry_Int_Tables_number   1
_chemical_formula_structural   LiFeBO3
_chemical_formula_sum   'Li4 Fe4 B4 O12'
_cell_volume   243.84530660
_cell_formula_units_Z   4
loop_
 _symmetry_equiv_pos_site_id
 _symmetry_equiv_pos_as_xyz
  1  'x, y, z'
loop_
 _atom_site_type_symbol
 _atom_site_label
 _atom_site_symmetry_multiplicity
 _atom_site_fract_x
 _atom_site_fract_y
 _atom_site_fract_z
 _atom_site_occupancy
  Li  Li0  1  0.347229  0.670205  0.333540  1
  Li  Li1  1  0.329795  0.652771  0.833540  1
  Li  Li2  1  0.658218  0.357440  0.583549  1
  Li  Li3  1  0.642560  0.341782  0.083549  1
  Fe  Fe4  1  0.994534  0.666455  0.115838  1
  Fe  Fe5  1  0.003956  0.317831  0.866119  1
  Fe  Fe6  1  0.682169  0.996044  0.366119  1
  Fe  Fe7  1  0.333545  0.005466  0.615838  1
  B  B8  1  0.672481  0.992356  0.874185  1
  B  B9  1  0.991084  0.676780  0.624484  1
  B  B10  1  0.007644  0.327519  0.374185  1
  B  B11  1  0.323220  0.008916  0.124484  1
  O  O12  1  0.740839  0.942704  0.583459  1
  O  O13  1  0.941718  0.737395  0.904356  1
  O  O14  1  0.425977  0.973066  0.836964  1
  O  O15  1  0.966327  0.428111  0.652259  1
  O  O16  1  0.338727  0.738562  0.139863  1
  O  O17  1  0.261438  0.661273  0.639863  1
  O  O18  1  0.730564  0.351349  0.383485  1
  O  O19  1  0.648651  0.269436  0.883485  1
  O  O20  1  0.026934  0.574023  0.336964  1
  O  O21  1  0.571889  0.033673  0.152259  1
  O  O22  1  0.057296  0.259161  0.083459  1
  O  O23  1  0.262605  0.058282  0.404356  1
