# generated using pymatgen
data_Na5Li3V8O24
_symmetry_space_group_name_H-M   'P 1'
_cell_length_a   7.03230970
_cell_length_b   7.03230970
_cell_length_c   11.82896050
_cell_angle_alpha   75.68210510
_cell_angle_beta   104.31789490
_cell_angle_gamma   96.90376237
_symmetry_Int_Tables_number   1
_chemical_formula_structural   Na5Li3V8O24
_chemical_formula_sum   'Na5 Li3 V8 O24'
_cell_volume   548.11850232
_cell_formula_units_Z   1
loop_
 _symmetry_equiv_pos_site_id
 _symmetry_equiv_pos_as_xyz
  1  'x, y, z'
loop_
 _atom_site_type_symbol
 _atom_site_label
 _atom_site_symmetry_multiplicity
 _atom_site_fract_x
 _atom_site_fract_y
 _atom_site_fract_z
 _atom_site_occupancy
  Na  Na0  1  0.287279  0.287279  0.500000  1
  Na  Na1  1  0.711734  0.710701  0.748747  1
  Na  Na2  1  0.289908  0.289908  0.000000  1
  Na  Na3  1  0.916772  0.916772  0.000000  1
  Na  Na4  1  0.710701  0.711734  0.251253  1
  Li  Li5  1  0.912555  0.912555  0.500000  1
  Li  Li6  1  0.088368  0.088639  0.748325  1
  Li  Li7  1  0.088639  0.088368  0.251675  1
  V  V8  1  0.803323  0.380814  0.501034  1
  V  V9  1  0.616155  0.198113  0.748065  1
  V  V10  1  0.802808  0.377990  0.001694  1
  V  V11  1  0.619313  0.196733  0.251354  1
  V  V12  1  0.380814  0.803323  0.498966  1
  V  V13  1  0.196733  0.619313  0.748646  1
  V  V14  1  0.377990  0.802808  0.998306  1
  V  V15  1  0.198113  0.616155  0.251935  1
  O  O16  1  0.976421  0.213518  0.550712  1
  O  O17  1  0.782398  0.025364  0.791216  1
  O  O18  1  0.982440  0.218776  0.056337  1
  O  O19  1  0.904062  0.610613  0.474229  1
  O  O20  1  0.645770  0.358791  0.606158  1
  O  O21  1  0.786253  0.023511  0.300677  1
  O  O22  1  0.386337  0.097287  0.721682  1
  O  O23  1  0.644705  0.346009  0.858957  1
  O  O24  1  0.905070  0.604711  0.968857  1
  O  O25  1  0.647677  0.357090  0.108293  1
  O  O26  1  0.358791  0.645770  0.393842  1
  O  O27  1  0.389390  0.095871  0.224294  1
  O  O28  1  0.610613  0.904062  0.525771  1
  O  O29  1  0.644699  0.352035  0.357949  1
  O  O30  1  0.352035  0.644699  0.642051  1
  O  O31  1  0.095871  0.389390  0.775706  1
  O  O32  1  0.357090  0.647677  0.891707  1
  O  O33  1  0.604711  0.905070  0.031143  1
  O  O34  1  0.213518  0.976421  0.449288  1
  O  O35  1  0.346009  0.644705  0.141043  1
  O  O36  1  0.097287  0.386337  0.278318  1
  O  O37  1  0.023511  0.786253  0.699323  1
  O  O38  1  0.218776  0.982440  0.943663  1
  O  O39  1  0.025364  0.782398  0.208784  1
