# generated using pymatgen
data_Li2Cr3CuO8
_symmetry_space_group_name_H-M   'P 1'
_cell_length_a   5.90868695
_cell_length_b   5.90868695
_cell_length_c   5.90868695
_cell_angle_alpha   59.47817080
_cell_angle_beta   59.47817080
_cell_angle_gamma   59.47817080
_symmetry_Int_Tables_number   1
_chemical_formula_structural   Li2Cr3CuO8
_chemical_formula_sum   'Li2 Cr3 Cu1 O8'
_cell_volume   144.13594805
_cell_formula_units_Z   1
loop_
 _symmetry_equiv_pos_site_id
 _symmetry_equiv_pos_as_xyz
  1  'x, y, z'
loop_
 _atom_site_type_symbol
 _atom_site_label
 _atom_site_symmetry_multiplicity
 _atom_site_fract_x
 _atom_site_fract_y
 _atom_site_fract_z
 _atom_site_occupancy
  Li  Li0  1  0.876169  0.876169  0.876169  1
  Li  Li1  1  0.500201  0.500201  0.500201  1
  Cr  Cr2  1  0.501520  0.501520  0.992964  1
  Cr  Cr3  1  0.992964  0.501520  0.501520  1
  Cr  Cr4  1  0.501520  0.992964  0.501520  1
  Cu  Cu5  1  0.120999  0.120999  0.120999  1
  O  O6  1  0.740004  0.740004  0.740004  1
  O  O7  1  0.751748  0.289495  0.751748  1
  O  O8  1  0.289495  0.751748  0.751748  1
  O  O9  1  0.751748  0.751748  0.289495  1
  O  O10  1  0.251784  0.251784  0.711757  1
  O  O11  1  0.711757  0.251784  0.251784  1
  O  O12  1  0.251784  0.711757  0.251784  1
  O  O13  1  0.258307  0.258307  0.258307  1
