# generated using pymatgen
data_Li2Fe3P5O18
_symmetry_space_group_name_H-M   'P 1'
_cell_length_a   13.07149514
_cell_length_b   13.07149514
_cell_length_c   12.56987868
_cell_angle_alpha   88.26907129
_cell_angle_beta   91.73092871
_cell_angle_gamma   158.20870184
_symmetry_Int_Tables_number   1
_chemical_formula_structural   Li2Fe3P5O18
_chemical_formula_sum   'Li4 Fe6 P10 O36'
_cell_volume   796.92123179
_cell_formula_units_Z   2
loop_
 _symmetry_equiv_pos_site_id
 _symmetry_equiv_pos_as_xyz
  1  'x, y, z'
loop_
 _atom_site_type_symbol
 _atom_site_label
 _atom_site_symmetry_multiplicity
 _atom_site_fract_x
 _atom_site_fract_y
 _atom_site_fract_z
 _atom_site_occupancy
  Li  Li0  1  0.816800  0.486768  0.363881  1
  Li  Li1  1  0.513232  0.183200  0.863881  1
  Li  Li2  1  0.486768  0.816800  0.136119  1
  Li  Li3  1  0.183200  0.513232  0.636119  1
  Fe  Fe4  1  0.276095  0.878579  0.120636  1
  Fe  Fe5  1  0.121421  0.723905  0.620636  1
  Fe  Fe6  1  0.878579  0.276095  0.379364  1
  Fe  Fe7  1  0.723905  0.121421  0.879364  1
  Fe  Fe8  1  0.500000  0.500000  0.000000  1
  Fe  Fe9  1  0.500000  0.500000  0.500000  1
  P  P10  1  0.070404  0.932984  0.092203  1
  P  P11  1  0.067016  0.929596  0.592203  1
  P  P12  1  0.299796  0.847575  0.371635  1
  P  P13  1  0.152425  0.700204  0.871635  1
  P  P14  1  0.847575  0.299796  0.128365  1
  P  P15  1  0.700204  0.152425  0.628365  1
  P  P16  1  0.932984  0.070404  0.407797  1
  P  P17  1  0.929596  0.067016  0.907797  1
  P  P18  1  0.269602  0.269602  0.250000  1
  P  P19  1  0.730398  0.730398  0.750000  1
  O  O20  1  0.447519  0.397489  0.342800  1
  O  O21  1  0.862756  0.772012  0.505681  1
  O  O22  1  0.602511  0.552481  0.842800  1
  O  O23  1  0.101757  0.017267  0.205623  1
  O  O24  1  0.227988  0.137244  0.005681  1
  O  O25  1  0.982733  0.898243  0.705623  1
  O  O26  1  0.765328  0.639333  0.068441  1
  O  O27  1  0.360667  0.234672  0.568441  1
  O  O28  1  0.208782  0.957465  0.116124  1
  O  O29  1  0.042535  0.791218  0.616124  1
  O  O30  1  0.149876  0.761158  0.463379  1
  O  O31  1  0.164045  0.774579  0.272403  1
  O  O32  1  0.238842  0.850124  0.963379  1
  O  O33  1  0.225421  0.835955  0.772403  1
  O  O34  1  0.675456  0.238559  0.128255  1
  O  O35  1  0.616040  0.158099  0.376440  1
  O  O36  1  0.761441  0.324544  0.628255  1
  O  O37  1  0.841901  0.383960  0.876440  1
  O  O38  1  0.158099  0.616040  0.123560  1
  O  O39  1  0.238559  0.675456  0.371745  1
  O  O40  1  0.383960  0.841901  0.623560  1
  O  O41  1  0.324544  0.761441  0.871745  1
  O  O42  1  0.774579  0.164045  0.227597  1
  O  O43  1  0.761158  0.149876  0.036621  1
  O  O44  1  0.835955  0.225421  0.727597  1
  O  O45  1  0.850124  0.238842  0.536621  1
  O  O46  1  0.957465  0.208782  0.383876  1
  O  O47  1  0.791218  0.042535  0.883876  1
  O  O48  1  0.639333  0.765328  0.431559  1
  O  O49  1  0.234672  0.360667  0.931559  1
  O  O50  1  0.017267  0.101757  0.294377  1
  O  O51  1  0.772012  0.862756  0.994319  1
  O  O52  1  0.898243  0.982733  0.794377  1
  O  O53  1  0.397489  0.447519  0.157200  1
  O  O54  1  0.137244  0.227988  0.494319  1
  O  O55  1  0.552481  0.602511  0.657200  1
