# generated using pymatgen
data_Fe7(OF3)3
_symmetry_space_group_name_H-M   'P 1'
_cell_length_a   5.49466782
_cell_length_b   5.70534924
_cell_length_c   9.13027376
_cell_angle_alpha   104.57634657
_cell_angle_beta   89.50847682
_cell_angle_gamma   117.85925292
_symmetry_Int_Tables_number   1
_chemical_formula_structural   Fe7(OF3)3
_chemical_formula_sum   'Fe7 O3 F9'
_cell_volume   242.90973074
_cell_formula_units_Z   1
loop_
 _symmetry_equiv_pos_site_id
 _symmetry_equiv_pos_as_xyz
  1  'x, y, z'
loop_
 _atom_site_type_symbol
 _atom_site_label
 _atom_site_symmetry_multiplicity
 _atom_site_fract_x
 _atom_site_fract_y
 _atom_site_fract_z
 _atom_site_occupancy
  Fe  Fe0  1  0.211817  0.362631  0.071045  1
  Fe  Fe1  1  0.035936  0.377406  0.665047  1
  Fe  Fe2  1  0.477902  0.135784  0.814589  1
  Fe  Fe3  1  0.320509  0.140413  0.431535  1
  Fe  Fe4  1  0.490204  0.897169  0.174244  1
  Fe  Fe5  1  0.949516  0.626847  0.315946  1
  Fe  Fe6  1  0.780046  0.911099  0.585127  1
  O  O7  1  0.181676  0.103430  0.621496  1
  O  O8  1  0.249914  0.016726  0.235053  1
  O  O9  1  0.754595  0.275714  0.475675  1
  F  F10  1  0.197753  0.466199  0.276936  1
  F  F11  1  0.248241  0.776388  0.969345  1
  F  F12  1  0.351482  0.726362  0.548305  1
  F  F13  1  0.280094  0.345902  0.867917  1
  F  F14  1  0.632426  0.629114  0.143247  1
  F  F15  1  0.720292  0.971830  0.770511  1
  F  F16  1  0.768194  0.202158  0.019738  1
  F  F17  1  0.778625  0.533560  0.699711  1
  F  F18  1  0.787187  0.864522  0.384484  1
