# generated using pymatgen
data_TaFeO4
_symmetry_space_group_name_H-M   'P 1'
_cell_length_a   6.64095740
_cell_length_b   6.64095740
_cell_length_c   6.73438944
_cell_angle_alpha   73.23279472
_cell_angle_beta   106.76720528
_cell_angle_gamma   145.95819307
_symmetry_Int_Tables_number   1
_chemical_formula_structural   TaFeO4
_chemical_formula_sum   'Ta2 Fe2 O8'
_cell_volume   158.51390100
_cell_formula_units_Z   2
loop_
 _symmetry_equiv_pos_site_id
 _symmetry_equiv_pos_as_xyz
  1  'x, y, z'
loop_
 _atom_site_type_symbol
 _atom_site_label
 _atom_site_symmetry_multiplicity
 _atom_site_fract_x
 _atom_site_fract_y
 _atom_site_fract_z
 _atom_site_occupancy
  Ta  Ta0  1  0.895905  0.104095  0.776679  1
  Ta  Ta1  1  0.104095  0.895905  0.223321  1
  Fe  Fe2  1  0.803250  0.196750  0.192923  1
  Fe  Fe3  1  0.196750  0.803250  0.807077  1
  O  O4  1  0.945516  0.054484  0.131069  1
  O  O5  1  0.864041  0.135959  0.491819  1
  O  O6  1  0.634108  0.365892  0.202669  1
  O  O7  1  0.744356  0.255644  0.852395  1
  O  O8  1  0.255644  0.744356  0.147605  1
  O  O9  1  0.365892  0.634108  0.797331  1
  O  O10  1  0.135959  0.864041  0.508181  1
  O  O11  1  0.054484  0.945516  0.868931  1
