# generated using pymatgen
data_LiVF3
_symmetry_space_group_name_H-M   'P 1'
_cell_length_a   3.26982943
_cell_length_b   5.61968420
_cell_length_c   6.70127762
_cell_angle_alpha   90.00000000
_cell_angle_beta   104.07812708
_cell_angle_gamma   90.00000000
_symmetry_Int_Tables_number   1
_chemical_formula_structural   LiVF3
_chemical_formula_sum   'Li2 V2 F6'
_cell_volume   119.44023748
_cell_formula_units_Z   2
loop_
 _symmetry_equiv_pos_site_id
 _symmetry_equiv_pos_as_xyz
  1  'x, y, z'
loop_
 _atom_site_type_symbol
 _atom_site_label
 _atom_site_symmetry_multiplicity
 _atom_site_fract_x
 _atom_site_fract_y
 _atom_site_fract_z
 _atom_site_occupancy
  Li  Li0  1  0.055675  0.750000  0.127676  1
  Li  Li1  1  0.944325  0.250000  0.872324  1
  V  V2  1  0.331882  0.750000  0.666860  1
  V  V3  1  0.668118  0.250000  0.333140  1
  F  F4  1  0.165866  0.002981  0.329213  1
  F  F5  1  0.165866  0.497019  0.329213  1
  F  F6  1  0.484199  0.750000  0.984526  1
  F  F7  1  0.515801  0.250000  0.015474  1
  F  F8  1  0.834134  0.502981  0.670787  1
  F  F9  1  0.834134  0.997019  0.670787  1
