# generated using pymatgen
data_Fe3OF5
_symmetry_space_group_name_H-M   'P 1'
_cell_length_a   4.81103384
_cell_length_b   5.76691339
_cell_length_c   8.12226853
_cell_angle_alpha   86.50016122
_cell_angle_beta   89.55797327
_cell_angle_gamma   89.17233919
_symmetry_Int_Tables_number   1
_chemical_formula_structural   Fe3OF5
_chemical_formula_sum   'Fe6 O2 F10'
_cell_volume   224.90181661
_cell_formula_units_Z   2
loop_
 _symmetry_equiv_pos_site_id
 _symmetry_equiv_pos_as_xyz
  1  'x, y, z'
loop_
 _atom_site_type_symbol
 _atom_site_label
 _atom_site_symmetry_multiplicity
 _atom_site_fract_x
 _atom_site_fract_y
 _atom_site_fract_z
 _atom_site_occupancy
  Fe  Fe0  1  0.530667  0.662788  0.308124  1
  Fe  Fe1  1  0.469333  0.337212  0.691876  1
  Fe  Fe2  1  0.500000  0.000000  0.000000  1
  Fe  Fe3  1  0.996559  0.168991  0.337505  1
  Fe  Fe4  1  0.000000  0.500000  0.000000  1
  Fe  Fe5  1  0.003441  0.831009  0.662495  1
  O  O6  1  0.700029  0.698729  0.106234  1
  O  O7  1  0.299971  0.301271  0.893766  1
  F  F8  1  0.794792  0.198573  0.110703  1
  F  F9  1  0.792188  0.860698  0.433500  1
  F  F10  1  0.793116  0.529399  0.752774  1
  F  F11  1  0.699964  0.045249  0.747920  1
  F  F12  1  0.689980  0.375193  0.436561  1
  F  F13  1  0.300036  0.954751  0.252080  1
  F  F14  1  0.310020  0.624807  0.563439  1
  F  F15  1  0.205208  0.801427  0.889297  1
  F  F16  1  0.206884  0.470601  0.247226  1
  F  F17  1  0.207812  0.139302  0.566500  1
