# generated using pymatgen
data_Y2GeO5
_symmetry_space_group_name_H-M   'P 1'
_cell_length_a   3.72970300
_cell_length_b   10.36176926
_cell_length_c   11.14398957
_cell_angle_alpha   90.00000000
_cell_angle_beta   90.00000000
_cell_angle_gamma   90.00000000
_symmetry_Int_Tables_number   1
_chemical_formula_structural   Y2GeO5
_chemical_formula_sum   'Y8 Ge4 O20'
_cell_volume   430.67420811
_cell_formula_units_Z   4
loop_
 _symmetry_equiv_pos_site_id
 _symmetry_equiv_pos_as_xyz
  1  'x, y, z'
loop_
 _atom_site_type_symbol
 _atom_site_label
 _atom_site_symmetry_multiplicity
 _atom_site_fract_x
 _atom_site_fract_y
 _atom_site_fract_z
 _atom_site_occupancy
  Y  Y0  1  0.750000  0.889879  0.223229  1
  Y  Y1  1  0.750000  0.864190  0.557177  1
  Y  Y2  1  0.250000  0.635810  0.057177  1
  Y  Y3  1  0.250000  0.610121  0.723229  1
  Y  Y4  1  0.750000  0.389879  0.276771  1
  Y  Y5  1  0.750000  0.364190  0.942823  1
  Y  Y6  1  0.250000  0.135810  0.442823  1
  Y  Y7  1  0.250000  0.110121  0.776771  1
  Ge  Ge8  1  0.750000  0.825393  0.880910  1
  Ge  Ge9  1  0.250000  0.674607  0.380910  1
  Ge  Ge10  1  0.750000  0.325393  0.619090  1
  Ge  Ge11  1  0.250000  0.174607  0.119090  1
  O  O12  1  0.250000  0.992753  0.603527  1
  O  O13  1  0.750000  0.990738  0.842030  1
  O  O14  1  0.750000  0.777223  0.038700  1
  O  O15  1  0.250000  0.768989  0.883925  1
  O  O16  1  0.250000  0.758043  0.233960  1
  O  O17  1  0.750000  0.741957  0.733960  1
  O  O18  1  0.750000  0.731011  0.383925  1
  O  O19  1  0.250000  0.722777  0.538700  1
  O  O20  1  0.250000  0.509262  0.342030  1
  O  O21  1  0.750000  0.507247  0.103527  1
  O  O22  1  0.250000  0.492753  0.896473  1
  O  O23  1  0.750000  0.490738  0.657970  1
  O  O24  1  0.750000  0.277223  0.461300  1
  O  O25  1  0.250000  0.268989  0.616075  1
  O  O26  1  0.250000  0.258043  0.266040  1
  O  O27  1  0.750000  0.241957  0.766040  1
  O  O28  1  0.750000  0.231011  0.116075  1
  O  O29  1  0.250000  0.222777  0.961300  1
  O  O30  1  0.250000  0.009262  0.157970  1
  O  O31  1  0.750000  0.007247  0.396473  1
