# generated using pymatgen
data_Na11Mn13O32
_symmetry_space_group_name_H-M   'P 1'
_cell_length_a   6.06473024
_cell_length_b   6.06473024
_cell_length_c   21.27492397
_cell_angle_alpha   80.08620286
_cell_angle_beta   99.91379714
_cell_angle_gamma   120.76451084
_symmetry_Int_Tables_number   1
_chemical_formula_structural   Na11Mn13O32
_chemical_formula_sum   'Na11 Mn13 O32'
_cell_volume   659.07668527
_cell_formula_units_Z   1
loop_
 _symmetry_equiv_pos_site_id
 _symmetry_equiv_pos_as_xyz
  1  'x, y, z'
loop_
 _atom_site_type_symbol
 _atom_site_label
 _atom_site_symmetry_multiplicity
 _atom_site_fract_x
 _atom_site_fract_y
 _atom_site_fract_z
 _atom_site_occupancy
  Na  Na0  1  0.500000  0.500000  0.500000  1
  Na  Na1  1  0.291027  0.708973  0.352241  1
  Na  Na2  1  0.976290  0.023710  0.409958  1
  Na  Na3  1  0.708973  0.291027  0.647759  1
  Na  Na4  1  0.023710  0.976290  0.590042  1
  Na  Na5  1  0.463115  0.536885  0.904053  1
  Na  Na6  1  0.123094  0.876906  0.870090  1
  Na  Na7  1  0.785160  0.214840  0.840907  1
  Na  Na8  1  0.536885  0.463115  0.095947  1
  Na  Na9  1  0.214840  0.785160  0.159093  1
  Na  Na10  1  0.876906  0.123094  0.129910  1
  Mn  Mn11  1  0.637924  0.362076  0.379686  1
  Mn  Mn12  1  0.500000  0.000000  0.500000  1
  Mn  Mn13  1  1.000000  0.500000  0.500000  1
  Mn  Mn14  1  0.362076  0.637924  0.620314  1
  Mn  Mn15  1  0.242853  0.252121  0.740418  1
  Mn  Mn16  1  1.000000  0.500000  0.000000  1
  Mn  Mn17  1  0.747879  0.757147  0.740418  1
  Mn  Mn18  1  0.243347  0.756653  0.741240  1
  Mn  Mn19  1  0.000000  0.000000  0.000000  1
  Mn  Mn20  1  0.252121  0.242853  0.259582  1
  Mn  Mn21  1  0.500000  0.000000  0.000000  1
  Mn  Mn22  1  0.756653  0.243347  0.258760  1
  Mn  Mn23  1  0.757147  0.747879  0.259582  1
  O  O24  1  0.816906  0.622802  0.433863  1
  O  O25  1  0.701482  0.298518  0.545156  1
  O  O26  1  0.801597  0.198403  0.447474  1
  O  O27  1  0.298518  0.701482  0.454844  1
  O  O28  1  0.622802  0.816906  0.566137  1
  O  O29  1  0.183094  0.377198  0.566137  1
  O  O30  1  0.941707  0.601452  0.786239  1
  O  O31  1  0.108875  0.471753  0.687075  1
  O  O32  1  0.377198  0.183094  0.433863  1
  O  O33  1  0.526922  0.473078  0.684076  1
  O  O34  1  0.431276  0.568724  0.789015  1
  O  O35  1  0.296901  0.703099  0.953065  1
  O  O36  1  0.945095  0.054905  0.785965  1
  O  O37  1  0.198403  0.801597  0.552526  1
  O  O38  1  0.060563  0.939437  0.693736  1
  O  O39  1  0.398548  0.058293  0.786239  1
  O  O40  1  0.145319  0.295393  0.047328  1
  O  O41  1  0.528247  0.891125  0.687075  1
  O  O42  1  0.854681  0.704607  0.952672  1
  O  O43  1  0.295393  0.145319  0.952672  1
  O  O44  1  0.186277  0.813723  0.049935  1
  O  O45  1  0.703099  0.296901  0.046935  1
  O  O46  1  0.568724  0.431276  0.210985  1
  O  O47  1  0.473078  0.526922  0.315924  1
  O  O48  1  0.813723  0.186277  0.950065  1
  O  O49  1  0.891125  0.528247  0.312925  1
  O  O50  1  0.471753  0.108875  0.312925  1
  O  O51  1  0.704607  0.854681  0.047328  1
  O  O52  1  0.058293  0.398548  0.213761  1
  O  O53  1  0.601452  0.941707  0.213761  1
  O  O54  1  0.054905  0.945095  0.214035  1
  O  O55  1  0.939437  0.060563  0.306264  1
