# generated using pymatgen
data_Li4V3Sb5O16
_symmetry_space_group_name_H-M   'P 1'
_cell_length_a   6.22209009
_cell_length_b   6.30786617
_cell_length_c   10.37564522
_cell_angle_alpha   91.34498515
_cell_angle_beta   90.03913925
_cell_angle_gamma   117.43778027
_symmetry_Int_Tables_number   1
_chemical_formula_structural   Li4V3Sb5O16
_chemical_formula_sum   'Li4 V3 Sb5 O16'
_cell_volume   361.28659019
_cell_formula_units_Z   1
loop_
 _symmetry_equiv_pos_site_id
 _symmetry_equiv_pos_as_xyz
  1  'x, y, z'
loop_
 _atom_site_type_symbol
 _atom_site_label
 _atom_site_symmetry_multiplicity
 _atom_site_fract_x
 _atom_site_fract_y
 _atom_site_fract_z
 _atom_site_occupancy
  Li  Li0  1  0.338574  0.662402  0.119919  1
  Li  Li1  1  0.000895  0.988735  0.006017  1
  Li  Li2  1  0.991731  0.991716  0.499194  1
  Li  Li3  1  0.683933  0.347986  0.597712  1
  V  V4  1  0.170911  0.839352  0.780228  1
  V  V5  1  0.825752  0.661156  0.282280  1
  V  V6  1  0.339650  0.177464  0.287314  1
  Sb  Sb7  1  0.668768  0.831310  0.783788  1
  Sb  Sb8  1  0.311302  0.677301  0.494268  1
  Sb  Sb9  1  0.175487  0.355023  0.780976  1
  Sb  Sb10  1  0.838642  0.173994  0.284029  1
  Sb  Sb11  1  0.632261  0.296712  0.007825  1
  O  O12  1  0.707693  0.869417  0.382051  1
  O  O13  1  0.503701  0.512224  0.682546  1
  O  O14  1  0.357627  0.684973  0.890389  1
  O  O15  1  0.970007  0.971727  0.676115  1
  O  O16  1  0.006287  0.010136  0.186009  1
  O  O17  1  0.138167  0.300155  0.401624  1
  O  O18  1  0.489768  0.969436  0.676861  1
  O  O19  1  0.051039  0.558328  0.645424  1
  O  O20  1  0.789376  0.103230  0.916142  1
  O  O21  1  0.155274  0.851045  0.391736  1
  O  O22  1  0.976178  0.479115  0.185730  1
  O  O23  1  0.527261  0.043306  0.166831  1
  O  O24  1  0.669080  0.326921  0.390827  1
  O  O25  1  0.868483  0.711953  0.881709  1
  O  O26  1  0.505429  0.477373  0.188404  1
  O  O27  1  0.307028  0.127813  0.906213  1
