# generated using pymatgen
data_Li2Mn3CuO8
_symmetry_space_group_name_H-M   'P 1'
_cell_length_a   5.95459430
_cell_length_b   5.95459430
_cell_length_c   5.95459430
_cell_angle_alpha   59.08037061
_cell_angle_beta   59.08037061
_cell_angle_gamma   59.08037061
_symmetry_Int_Tables_number   1
_chemical_formula_structural   Li2Mn3CuO8
_chemical_formula_sum   'Li2 Mn3 Cu1 O8'
_cell_volume   146.16343088
_cell_formula_units_Z   1
loop_
 _symmetry_equiv_pos_site_id
 _symmetry_equiv_pos_as_xyz
  1  'x, y, z'
loop_
 _atom_site_type_symbol
 _atom_site_label
 _atom_site_symmetry_multiplicity
 _atom_site_fract_x
 _atom_site_fract_y
 _atom_site_fract_z
 _atom_site_occupancy
  Li  Li0  1  0.880196  0.880196  0.880196  1
  Li  Li1  1  0.119804  0.119804  0.119804  1
  Mn  Mn2  1  0.500000  0.000000  0.500000  1
  Mn  Mn3  1  1.000000  0.500000  0.500000  1
  Mn  Mn4  1  0.500000  0.500000  1.000000  1
  Cu  Cu5  1  0.500000  0.500000  0.500000  1
  O  O6  1  0.736924  0.736924  0.736924  1
  O  O7  1  0.746417  0.746417  0.291880  1
  O  O8  1  0.291880  0.746417  0.746417  1
  O  O9  1  0.746417  0.291880  0.746417  1
  O  O10  1  0.253583  0.708120  0.253583  1
  O  O11  1  0.708120  0.253583  0.253583  1
  O  O12  1  0.253583  0.253583  0.708120  1
  O  O13  1  0.263076  0.263076  0.263076  1
