# generated using pymatgen
data_Na2Li2CoO4
_symmetry_space_group_name_H-M   'P 1'
_cell_length_a   6.49693393
_cell_length_b   8.39200690
_cell_length_c   10.26099596
_cell_angle_alpha   90.00000000
_cell_angle_beta   128.85084820
_cell_angle_gamma   90.00000000
_symmetry_Int_Tables_number   1
_chemical_formula_structural   Na2Li2CoO4
_chemical_formula_sum   'Na8 Li8 Co4 O16'
_cell_volume   435.69187673
_cell_formula_units_Z   4
loop_
 _symmetry_equiv_pos_site_id
 _symmetry_equiv_pos_as_xyz
  1  'x, y, z'
loop_
 _atom_site_type_symbol
 _atom_site_label
 _atom_site_symmetry_multiplicity
 _atom_site_fract_x
 _atom_site_fract_y
 _atom_site_fract_z
 _atom_site_occupancy
  Na  Na0  1  0.242842  0.978045  0.498462  1
  Na  Na1  1  0.757158  0.021955  0.501538  1
  Na  Na2  1  0.263960  0.738812  0.751380  1
  Na  Na3  1  0.263960  0.761188  0.251380  1
  Na  Na4  1  0.242842  0.521955  0.998462  1
  Na  Na5  1  0.757158  0.478045  0.001538  1
  Na  Na6  1  0.736040  0.238812  0.748620  1
  Na  Na7  1  0.736040  0.261188  0.248620  1
  Li  Li8  1  0.690068  0.910052  0.210941  1
  Li  Li9  1  0.761306  0.863208  0.007198  1
  Li  Li10  1  0.761306  0.636792  0.507198  1
  Li  Li11  1  0.690068  0.589948  0.710941  1
  Li  Li12  1  0.309932  0.410052  0.289059  1
  Li  Li13  1  0.238694  0.363208  0.492802  1
  Li  Li14  1  0.238694  0.136792  0.992802  1
  Li  Li15  1  0.309932  0.089948  0.789059  1
  Co  Co16  1  0.794280  0.872546  0.776984  1
  Co  Co17  1  0.794280  0.627454  0.276984  1
  Co  Co18  1  0.205720  0.372546  0.723016  1
  Co  Co19  1  0.205720  0.127454  0.223016  1
  O  O20  1  0.558237  0.971124  0.790167  1
  O  O21  1  0.026342  0.006351  0.794161  1
  O  O22  1  0.600188  0.783516  0.570221  1
  O  O23  1  0.922747  0.782171  0.433501  1
  O  O24  1  0.922747  0.717829  0.933501  1
  O  O25  1  0.600188  0.716484  0.070221  1
  O  O26  1  0.026342  0.493649  0.294161  1
  O  O27  1  0.558237  0.528876  0.290167  1
  O  O28  1  0.441763  0.471124  0.709833  1
  O  O29  1  0.973658  0.506351  0.705839  1
  O  O30  1  0.399812  0.283516  0.929779  1
  O  O31  1  0.077253  0.282171  0.066499  1
  O  O32  1  0.077253  0.217829  0.566499  1
  O  O33  1  0.399812  0.216484  0.429779  1
  O  O34  1  0.973658  0.993649  0.205839  1
  O  O35  1  0.441763  0.028876  0.209833  1
