# generated using pymatgen
data_YbPrO2
_symmetry_space_group_name_H-M   'P 1'
_cell_length_a   6.04704618
_cell_length_b   6.04704618
_cell_length_c   6.04704618
_cell_angle_alpha   131.82372685
_cell_angle_beta   131.82372685
_cell_angle_gamma   70.50757403
_symmetry_Int_Tables_number   1
_chemical_formula_structural   YbPrO2
_chemical_formula_sum   'Yb2 Pr2 O4'
_cell_volume   120.31573479
_cell_formula_units_Z   2
loop_
 _symmetry_equiv_pos_site_id
 _symmetry_equiv_pos_as_xyz
  1  'x, y, z'
loop_
 _atom_site_type_symbol
 _atom_site_label
 _atom_site_symmetry_multiplicity
 _atom_site_fract_x
 _atom_site_fract_y
 _atom_site_fract_z
 _atom_site_occupancy
  Yb  Yb0  1  0.250000  0.750000  0.500000  1
  Yb  Yb1  1  0.500000  0.500000  0.000000  1
  Pr  Pr2  1  0.000000  0.000000  0.000000  1
  Pr  Pr3  1  0.750000  0.250000  0.500000  1
  O  O4  1  0.740172  0.740172  0.000000  1
  O  O5  1  0.009828  0.509828  0.500000  1
  O  O6  1  0.490172  0.990172  0.500000  1
  O  O7  1  0.259828  0.259828  0.000000  1
