# generated using pymatgen
data_LiVF5
_symmetry_space_group_name_H-M   'P 1'
_cell_length_a   10.63432241
_cell_length_b   10.63432241
_cell_length_c   10.63432241
_cell_angle_alpha   95.83809551
_cell_angle_beta   95.83809551
_cell_angle_gamma   142.80327484
_symmetry_Int_Tables_number   1
_chemical_formula_structural   LiVF5
_chemical_formula_sum   'Li8 V8 F40'
_cell_volume   689.08163681
_cell_formula_units_Z   8
loop_
 _symmetry_equiv_pos_site_id
 _symmetry_equiv_pos_as_xyz
  1  'x, y, z'
loop_
 _atom_site_type_symbol
 _atom_site_label
 _atom_site_symmetry_multiplicity
 _atom_site_fract_x
 _atom_site_fract_y
 _atom_site_fract_z
 _atom_site_occupancy
  Li  Li0  1  0.264307  0.463084  0.029599  1
  Li  Li1  1  0.816515  0.515291  0.529599  1
  Li  Li2  1  0.713084  0.183485  0.698777  1
  Li  Li3  1  0.765291  0.735693  0.198777  1
  Li  Li4  1  0.484709  0.014307  0.301223  1
  Li  Li5  1  0.536916  0.566515  0.801223  1
  Li  Li6  1  0.433485  0.234709  0.970401  1
  Li  Li7  1  0.985693  0.286916  0.470401  1
  V  V8  1  0.944722  0.049093  0.708269  1
  V  V9  1  0.486452  0.694722  0.395628  1
  V  V10  1  0.299093  0.090824  0.604372  1
  V  V11  1  0.340824  0.236452  0.291731  1
  V  V12  1  0.909176  0.513548  0.208269  1
  V  V13  1  0.950907  0.659176  0.895628  1
  V  V14  1  0.763548  0.055278  0.104372  1
  V  V15  1  0.305278  0.700907  0.791731  1
  F  F16  1  0.034485  0.191574  0.583156  1
  F  F17  1  0.656714  0.789390  0.572488  1
  F  F18  1  0.039390  0.966902  0.632676  1
  F  F19  1  0.441574  0.358418  0.657089  1
  F  F20  1  0.701329  0.784485  0.342911  1
  F  F21  1  0.334226  0.406714  0.367324  1
  F  F22  1  0.342739  0.597506  0.220920  1
  F  F23  1  0.873414  0.628180  0.720920  1
  F  F24  1  0.216902  0.084226  0.427512  1
  F  F25  1  0.057359  0.021617  0.193951  1
  F  F26  1  0.422334  0.886591  0.693951  1
  F  F27  1  0.627778  0.783537  0.069724  1
  F  F28  1  0.536187  0.191946  0.569724  1
  F  F29  1  0.608418  0.451329  0.416844  1
  F  F30  1  0.978383  0.172334  0.035743  1
  F  F31  1  0.113409  0.807359  0.535743  1
  F  F32  1  0.441946  0.372222  0.155760  1
  F  F33  1  0.033537  0.463813  0.655760  1
  F  F34  1  0.878180  0.657261  0.254767  1
  F  F35  1  0.847506  0.126586  0.754767  1
  F  F36  1  0.402494  0.623414  0.745233  1
  F  F37  1  0.371820  0.092739  0.245233  1
  F  F38  1  0.216463  0.286187  0.844240  1
  F  F39  1  0.808054  0.377778  0.344240  1
  F  F40  1  0.136591  0.942641  0.964257  1
  F  F41  1  0.271617  0.577666  0.464257  1
  F  F42  1  0.641582  0.298671  0.083156  1
  F  F43  1  0.622222  0.966463  0.430276  1
  F  F44  1  0.713813  0.558054  0.930276  1
  F  F45  1  0.827666  0.863409  0.806049  1
  F  F46  1  0.192640  0.728383  0.306049  1
  F  F47  1  0.033098  0.665774  0.072488  1
  F  F48  1  0.376586  0.121820  0.779080  1
  F  F49  1  0.907261  0.152494  0.279080  1
  F  F50  1  0.915774  0.343286  0.132676  1
  F  F51  1  0.548671  0.965515  0.157089  1
  F  F52  1  0.808426  0.391582  0.842911  1
  F  F53  1  0.210610  0.783098  0.867324  1
  F  F54  1  0.593286  0.960610  0.927512  1
  F  F55  1  0.215515  0.558426  0.916844  1
