# generated using pymatgen
data_MgSO3
_symmetry_space_group_name_H-M   'P 1'
_cell_length_a   4.35494870
_cell_length_b   8.76764154
_cell_length_c   6.50973797
_cell_angle_alpha   90.00000000
_cell_angle_beta   92.66468042
_cell_angle_gamma   90.00000000
_symmetry_Int_Tables_number   1
_chemical_formula_structural   MgSO3
_chemical_formula_sum   'Mg4 S4 O12'
_cell_volume   248.29014979
_cell_formula_units_Z   4
loop_
 _symmetry_equiv_pos_site_id
 _symmetry_equiv_pos_as_xyz
  1  'x, y, z'
loop_
 _atom_site_type_symbol
 _atom_site_label
 _atom_site_symmetry_multiplicity
 _atom_site_fract_x
 _atom_site_fract_y
 _atom_site_fract_z
 _atom_site_occupancy
  Mg  Mg0  1  0.235576  0.224337  0.974762  1
  Mg  Mg1  1  0.235576  0.275663  0.474762  1
  Mg  Mg2  1  0.764424  0.724337  0.525238  1
  Mg  Mg3  1  0.764424  0.775663  0.025238  1
  S  S4  1  0.255707  0.573593  0.786429  1
  S  S5  1  0.255707  0.926407  0.286429  1
  S  S6  1  0.744293  0.073593  0.713571  1
  S  S7  1  0.744293  0.426407  0.213571  1
  O  O8  1  0.089884  0.116111  0.692761  1
  O  O9  1  0.089884  0.383889  0.192761  1
  O  O10  1  0.251045  0.398714  0.749532  1
  O  O11  1  0.314629  0.644932  0.574882  1
  O  O12  1  0.251045  0.101286  0.249532  1
  O  O13  1  0.314629  0.855068  0.074882  1
  O  O14  1  0.685371  0.144932  0.925118  1
  O  O15  1  0.748955  0.898714  0.750468  1
  O  O16  1  0.685371  0.355068  0.425118  1
  O  O17  1  0.748955  0.601286  0.250468  1
  O  O18  1  0.910116  0.616111  0.807239  1
  O  O19  1  0.910116  0.883889  0.307239  1
