# generated using pymatgen
data_Li4MnSi2O7
_symmetry_space_group_name_H-M   'P 1'
_cell_length_a   5.28022627
_cell_length_b   5.28022627
_cell_length_c   6.90845519
_cell_angle_alpha   79.55097563
_cell_angle_beta   100.44902437
_cell_angle_gamma   128.61395186
_symmetry_Int_Tables_number   1
_chemical_formula_structural   Li4MnSi2O7
_chemical_formula_sum   'Li4 Mn1 Si2 O7'
_cell_volume   147.42231476
_cell_formula_units_Z   1
loop_
 _symmetry_equiv_pos_site_id
 _symmetry_equiv_pos_as_xyz
  1  'x, y, z'
loop_
 _atom_site_type_symbol
 _atom_site_label
 _atom_site_symmetry_multiplicity
 _atom_site_fract_x
 _atom_site_fract_y
 _atom_site_fract_z
 _atom_site_occupancy
  Li  Li0  1  0.130217  0.829780  0.439504  1
  Li  Li1  1  0.707437  0.282566  0.149883  1
  Li  Li2  1  0.282566  0.707437  0.850117  1
  Li  Li3  1  0.829780  0.130217  0.560496  1
  Mn  Mn4  1  0.002174  0.002174  0.000000  1
  Si  Si5  1  0.586168  0.433457  0.708446  1
  Si  Si6  1  0.433457  0.586168  0.291554  1
  O  O7  1  0.761855  0.655514  0.233079  1
  O  O8  1  0.414984  0.139395  0.886927  1
  O  O9  1  0.912830  0.500856  0.657126  1
  O  O10  1  0.500856  0.912830  0.342874  1
  O  O11  1  0.139395  0.414984  0.113073  1
  O  O12  1  0.655514  0.761855  0.766921  1
  O  O13  1  0.315766  0.315766  0.500000  1
