# generated using pymatgen
data_Ni5Sb(PO4)6
_symmetry_space_group_name_H-M   'P 1'
_cell_length_a   8.52701478
_cell_length_b   8.52701478
_cell_length_c   8.52701478
_cell_angle_alpha   60.97894937
_cell_angle_beta   60.97894937
_cell_angle_gamma   60.97894937
_symmetry_Int_Tables_number   1
_chemical_formula_structural   Ni5Sb(PO4)6
_chemical_formula_sum   'Ni5 Sb1 P6 O24'
_cell_volume   448.07408762
_cell_formula_units_Z   1
loop_
 _symmetry_equiv_pos_site_id
 _symmetry_equiv_pos_as_xyz
  1  'x, y, z'
loop_
 _atom_site_type_symbol
 _atom_site_label
 _atom_site_symmetry_multiplicity
 _atom_site_fract_x
 _atom_site_fract_y
 _atom_site_fract_z
 _atom_site_occupancy
  Ni  Ni0  1  0.994654  0.994654  0.994654  1
  Ni  Ni1  1  0.642290  0.642290  0.642290  1
  Ni  Ni2  1  0.500846  0.500846  0.500846  1
  Ni  Ni3  1  0.856508  0.856508  0.856508  1
  Ni  Ni4  1  0.358861  0.358861  0.358861  1
  Sb  Sb5  1  0.142619  0.142619  0.142619  1
  P  P6  1  0.952830  0.253092  0.548117  1
  P  P7  1  0.548117  0.952830  0.253092  1
  P  P8  1  0.253092  0.548117  0.952830  1
  P  P9  1  0.744694  0.457613  0.048327  1
  P  P10  1  0.457613  0.048327  0.744694  1
  P  P11  1  0.048327  0.744694  0.457613  1
  O  O12  1  0.504382  0.109193  0.319864  1
  O  O13  1  0.319864  0.504382  0.109193  1
  O  O14  1  0.109193  0.319864  0.504382  1
  O  O15  1  0.940672  0.091675  0.742520  1
  O  O16  1  0.992597  0.181418  0.388963  1
  O  O17  1  0.754897  0.406034  0.558698  1
  O  O18  1  0.742520  0.940672  0.091675  1
  O  O19  1  0.558698  0.754897  0.406034  1
  O  O20  1  0.813830  0.609495  0.012781  1
  O  O21  1  0.406034  0.558698  0.754897  1
  O  O22  1  0.911652  0.252556  0.063230  1
  O  O23  1  0.609495  0.012781  0.813830  1
  O  O24  1  0.388963  0.992597  0.181418  1
  O  O25  1  0.091675  0.742520  0.940672  1
  O  O26  1  0.592513  0.438701  0.248353  1
  O  O27  1  0.181418  0.388963  0.992597  1
  O  O28  1  0.438701  0.248353  0.592513  1
  O  O29  1  0.252556  0.063230  0.911652  1
  O  O30  1  0.248353  0.592513  0.438701  1
  O  O31  1  0.012781  0.813830  0.609495  1
  O  O32  1  0.063230  0.911652  0.252556  1
  O  O33  1  0.893650  0.684247  0.487643  1
  O  O34  1  0.684247  0.487643  0.893650  1
  O  O35  1  0.487643  0.893650  0.684247  1
