# generated using pymatgen
data_SrLu2O4
_symmetry_space_group_name_H-M   'P 1'
_cell_length_a   3.34598846
_cell_length_b   10.01134634
_cell_length_c   11.78099859
_cell_angle_alpha   90.00000000
_cell_angle_beta   90.00000000
_cell_angle_gamma   90.00000000
_symmetry_Int_Tables_number   1
_chemical_formula_structural   SrLu2O4
_chemical_formula_sum   'Sr4 Lu8 O16'
_cell_volume   394.63811564
_cell_formula_units_Z   4
loop_
 _symmetry_equiv_pos_site_id
 _symmetry_equiv_pos_as_xyz
  1  'x, y, z'
loop_
 _atom_site_type_symbol
 _atom_site_label
 _atom_site_symmetry_multiplicity
 _atom_site_fract_x
 _atom_site_fract_y
 _atom_site_fract_z
 _atom_site_occupancy
  Sr  Sr0  1  0.750000  0.745841  0.649720  1
  Sr  Sr1  1  0.250000  0.754159  0.149720  1
  Sr  Sr2  1  0.750000  0.245841  0.850280  1
  Sr  Sr3  1  0.250000  0.254159  0.350280  1
  Lu  Lu4  1  0.750000  0.573042  0.887699  1
  Lu  Lu5  1  0.750000  0.578847  0.390792  1
  Lu  Lu6  1  0.250000  0.921153  0.890792  1
  Lu  Lu7  1  0.250000  0.926958  0.387699  1
  Lu  Lu8  1  0.750000  0.073042  0.612301  1
  Lu  Lu9  1  0.750000  0.078847  0.109208  1
  Lu  Lu10  1  0.250000  0.421153  0.609208  1
  Lu  Lu11  1  0.250000  0.426958  0.112301  1
  O  O12  1  0.250000  0.519295  0.282982  1
  O  O13  1  0.750000  0.574800  0.075387  1
  O  O14  1  0.250000  0.621328  0.519659  1
  O  O15  1  0.250000  0.709242  0.830366  1
  O  O16  1  0.750000  0.790758  0.330366  1
  O  O17  1  0.750000  0.878672  0.019659  1
  O  O18  1  0.250000  0.925200  0.575387  1
  O  O19  1  0.750000  0.980705  0.782982  1
  O  O20  1  0.250000  0.019295  0.217018  1
  O  O21  1  0.750000  0.074800  0.424613  1
  O  O22  1  0.250000  0.121328  0.980341  1
  O  O23  1  0.250000  0.209242  0.669634  1
  O  O24  1  0.750000  0.290758  0.169634  1
  O  O25  1  0.750000  0.378672  0.480341  1
  O  O26  1  0.250000  0.425200  0.924613  1
  O  O27  1  0.750000  0.480705  0.717018  1
