# generated using pymatgen
data_Li4Cr3Fe3(WO8)2
_symmetry_space_group_name_H-M   'P 1'
_cell_length_a   5.98297515
_cell_length_b   5.98667587
_cell_length_c   9.70920276
_cell_angle_alpha   89.32963121
_cell_angle_beta   89.44446872
_cell_angle_gamma   60.05092750
_symmetry_Int_Tables_number   1
_chemical_formula_structural   Li4Cr3Fe3(WO8)2
_chemical_formula_sum   'Li4 Cr3 Fe3 W2 O16'
_cell_volume   301.30460116
_cell_formula_units_Z   1
loop_
 _symmetry_equiv_pos_site_id
 _symmetry_equiv_pos_as_xyz
  1  'x, y, z'
loop_
 _atom_site_type_symbol
 _atom_site_label
 _atom_site_symmetry_multiplicity
 _atom_site_fract_x
 _atom_site_fract_y
 _atom_site_fract_z
 _atom_site_occupancy
  Li  Li0  1  0.668230  0.667918  0.091515  1
  Li  Li1  1  0.998584  0.996353  0.010999  1
  Li  Li2  1  0.995484  0.004349  0.509629  1
  Li  Li3  1  0.333594  0.331716  0.595284  1
  Cr  Cr4  1  0.832434  0.340423  0.785056  1
  Cr  Cr5  1  0.340960  0.829892  0.785230  1
  Cr  Cr6  1  0.169619  0.172435  0.286094  1
  Fe  Fe7  1  0.832147  0.830696  0.788567  1
  Fe  Fe8  1  0.660587  0.171179  0.289689  1
  Fe  Fe9  1  0.184383  0.655455  0.282053  1
  W  W10  1  0.670708  0.669321  0.514661  1
  W  W11  1  0.338497  0.328847  0.012494  1
  O  O12  1  0.831920  0.352121  0.411308  1
  O  O13  1  0.519831  0.520065  0.656878  1
  O  O14  1  0.664995  0.662650  0.890144  1
  O  O15  1  0.002037  0.002807  0.695325  1
  O  O16  1  0.004855  0.994011  0.198299  1
  O  O17  1  0.343328  0.830680  0.409273  1
  O  O18  1  0.959392  0.509859  0.648983  1
  O  O19  1  0.506972  0.959203  0.647997  1
  O  O20  1  0.170934  0.170444  0.906738  1
  O  O21  1  0.825750  0.830763  0.415113  1
  O  O22  1  0.465460  0.040204  0.148291  1
  O  O23  1  0.041021  0.475348  0.152121  1
  O  O24  1  0.323244  0.343408  0.391731  1
  O  O25  1  0.656158  0.176619  0.911625  1
  O  O26  1  0.478170  0.482609  0.144809  1
  O  O27  1  0.181006  0.650327  0.912254  1
