# generated using pymatgen
data_Tm6WO12
_symmetry_space_group_name_H-M   'P 1'
_cell_length_a   6.39377569
_cell_length_b   6.39377569
_cell_length_c   6.39377569
_cell_angle_alpha   98.71375582
_cell_angle_beta   98.71375582
_cell_angle_gamma   98.71375582
_symmetry_Int_Tables_number   1
_chemical_formula_structural   Tm6WO12
_chemical_formula_sum   'Tm6 W1 O12'
_cell_volume   251.27713843
_cell_formula_units_Z   1
loop_
 _symmetry_equiv_pos_site_id
 _symmetry_equiv_pos_as_xyz
  1  'x, y, z'
loop_
 _atom_site_type_symbol
 _atom_site_label
 _atom_site_symmetry_multiplicity
 _atom_site_fract_x
 _atom_site_fract_y
 _atom_site_fract_z
 _atom_site_occupancy
  Tm  Tm0  1  0.681212  0.855591  0.388882  1
  Tm  Tm1  1  0.144409  0.611118  0.318788  1
  Tm  Tm2  1  0.611118  0.318788  0.144409  1
  Tm  Tm3  1  0.388882  0.681212  0.855591  1
  Tm  Tm4  1  0.855591  0.388882  0.681212  1
  Tm  Tm5  1  0.318788  0.144409  0.611118  1
  W  W6  1  0.000000  0.000000  0.000000  1
  O  O7  1  0.699783  0.920729  0.035727  1
  O  O8  1  0.079271  0.964273  0.300217  1
  O  O9  1  0.429825  0.590145  0.177370  1
  O  O10  1  0.409855  0.822630  0.570175  1
  O  O11  1  0.964273  0.300217  0.079271  1
  O  O12  1  0.822630  0.570175  0.409855  1
  O  O13  1  0.177370  0.429825  0.590145  1
  O  O14  1  0.035727  0.699783  0.920729  1
  O  O15  1  0.590145  0.177370  0.429825  1
  O  O16  1  0.570175  0.409855  0.822630  1
  O  O17  1  0.920729  0.035727  0.699783  1
  O  O18  1  0.300217  0.079271  0.964273  1
