# generated using pymatgen
data_SnP2O7
_symmetry_space_group_name_H-M   'P 1'
_cell_length_a   8.74975813
_cell_length_b   5.17490277
_cell_length_c   13.75994441
_cell_angle_alpha   90.00000000
_cell_angle_beta   115.62778267
_cell_angle_gamma   90.00000000
_symmetry_Int_Tables_number   1
_chemical_formula_structural   SnP2O7
_chemical_formula_sum   'Sn4 P8 O28'
_cell_volume   561.74582938
_cell_formula_units_Z   4
loop_
 _symmetry_equiv_pos_site_id
 _symmetry_equiv_pos_as_xyz
  1  'x, y, z'
loop_
 _atom_site_type_symbol
 _atom_site_label
 _atom_site_symmetry_multiplicity
 _atom_site_fract_x
 _atom_site_fract_y
 _atom_site_fract_z
 _atom_site_occupancy
  Sn  Sn0  1  0.264700  0.745718  0.025976  1
  Sn  Sn1  1  0.264700  0.754282  0.525976  1
  Sn  Sn2  1  0.735300  0.245718  0.474024  1
  Sn  Sn3  1  0.735300  0.254282  0.974024  1
  P  P4  1  0.691262  0.748609  0.117510  1
  P  P5  1  0.170125  0.242430  0.139489  1
  P  P6  1  0.308738  0.248609  0.382490  1
  P  P7  1  0.829875  0.742430  0.360511  1
  P  P8  1  0.170125  0.257570  0.639489  1
  P  P9  1  0.691262  0.751391  0.617510  1
  P  P10  1  0.829875  0.757570  0.860511  1
  P  P11  1  0.308738  0.251391  0.882490  1
  O  O12  1  0.771841  0.918489  0.061901  1
  O  O13  1  0.691742  0.462836  0.087988  1
  O  O14  1  0.988971  0.312352  0.065194  1
  O  O15  1  0.218602  0.958300  0.137141  1
  O  O16  1  0.517646  0.840158  0.104798  1
  O  O17  1  0.294924  0.429232  0.124228  1
  O  O18  1  0.818954  0.782945  0.242190  1
  O  O19  1  0.181046  0.282945  0.257810  1
  O  O20  1  0.705076  0.929232  0.375772  1
  O  O21  1  0.011029  0.812352  0.434806  1
  O  O22  1  0.308258  0.962836  0.412012  1
  O  O23  1  0.482354  0.340158  0.395202  1
  O  O24  1  0.228159  0.418489  0.438099  1
  O  O25  1  0.781398  0.458300  0.362859  1
  O  O26  1  0.218602  0.541700  0.637141  1
  O  O27  1  0.771841  0.581511  0.561901  1
  O  O28  1  0.517646  0.659842  0.604798  1
  O  O29  1  0.691742  0.037164  0.587988  1
  O  O30  1  0.988971  0.187648  0.565194  1
  O  O31  1  0.294924  0.070768  0.624228  1
  O  O32  1  0.818954  0.717055  0.742190  1
  O  O33  1  0.181046  0.217055  0.757810  1
  O  O34  1  0.705076  0.570768  0.875772  1
  O  O35  1  0.482354  0.159842  0.895202  1
  O  O36  1  0.781398  0.041700  0.862859  1
  O  O37  1  0.011029  0.687648  0.934806  1
  O  O38  1  0.308258  0.537164  0.912012  1
  O  O39  1  0.228159  0.081511  0.938099  1
