# generated using pymatgen
data_LiSi2NiO6
_symmetry_space_group_name_H-M   'P 1'
_cell_length_a   5.36528162
_cell_length_b   5.36528162
_cell_length_c   5.54674032
_cell_angle_alpha   90.00000000
_cell_angle_beta   90.00000000
_cell_angle_gamma   120.27115767
_symmetry_Int_Tables_number   1
_chemical_formula_structural   LiSi2NiO6
_chemical_formula_sum   'Li1 Si2 Ni1 O6'
_cell_volume   137.89876081
_cell_formula_units_Z   1
loop_
 _symmetry_equiv_pos_site_id
 _symmetry_equiv_pos_as_xyz
  1  'x, y, z'
loop_
 _atom_site_type_symbol
 _atom_site_label
 _atom_site_symmetry_multiplicity
 _atom_site_fract_x
 _atom_site_fract_y
 _atom_site_fract_z
 _atom_site_occupancy
  Li  Li0  1  0.500000  0.500000  0.500000  1
  Si  Si1  1  0.500000  1.000000  0.833927  1
  Si  Si2  1  0.000000  0.500000  0.166073  1
  Ni  Ni3  1  0.000000  0.000000  0.500000  1
  O  O4  1  0.658661  0.869488  0.667168  1
  O  O5  1  0.737085  0.262915  0.000000  1
  O  O6  1  0.130512  0.341339  0.332832  1
  O  O7  1  0.869488  0.658661  0.332832  1
  O  O8  1  0.262915  0.737085  0.000000  1
  O  O9  1  0.341339  0.130512  0.667168  1
