# generated using pymatgen
data_K2Zr2ZnH12(OF2)6
_symmetry_space_group_name_H-M   'P 1'
_cell_length_a   6.72787448
_cell_length_b   10.11817277
_cell_length_c   13.12904441
_cell_angle_alpha   90.00000000
_cell_angle_beta   114.15771469
_cell_angle_gamma   90.00000000
_symmetry_Int_Tables_number   1
_chemical_formula_structural   K2Zr2ZnH12(OF2)6
_chemical_formula_sum   'K4 Zr4 Zn2 H24 O12 F24'
_cell_volume   815.47194829
_cell_formula_units_Z   2
loop_
 _symmetry_equiv_pos_site_id
 _symmetry_equiv_pos_as_xyz
  1  'x, y, z'
loop_
 _atom_site_type_symbol
 _atom_site_label
 _atom_site_symmetry_multiplicity
 _atom_site_fract_x
 _atom_site_fract_y
 _atom_site_fract_z
 _atom_site_occupancy
  K  K0  1  0.605250  0.283806  0.083856  1
  K  K1  1  0.394750  0.783806  0.416144  1
  K  K2  1  0.394750  0.716194  0.916144  1
  K  K3  1  0.605250  0.216194  0.583856  1
  Zr  Zr4  1  0.813477  0.015224  0.351310  1
  Zr  Zr5  1  0.186523  0.515224  0.148690  1
  Zr  Zr6  1  0.186523  0.984776  0.648690  1
  Zr  Zr7  1  0.813477  0.484776  0.851310  1
  Zn  Zn8  1  0.000000  0.500000  0.500000  1
  Zn  Zn9  1  0.000000  0.000000  0.000000  1
  H  H10  1  0.588805  0.431445  0.389802  1
  H  H11  1  0.411195  0.931445  0.110198  1
  H  H12  1  0.411195  0.568555  0.610198  1
  H  H13  1  0.588805  0.068555  0.889802  1
  H  H14  1  0.739011  0.314198  0.382381  1
  H  H15  1  0.260989  0.814198  0.117619  1
  H  H16  1  0.260989  0.685802  0.617619  1
  H  H17  1  0.739011  0.185802  0.882381  1
  H  H18  1  0.133327  0.068447  0.221927  1
  H  H19  1  0.866673  0.568447  0.278073  1
  H  H20  1  0.866673  0.931553  0.778073  1
  H  H21  1  0.133327  0.431553  0.721927  1
  H  H22  1  0.198912  0.192273  0.166399  1
  H  H23  1  0.801088  0.692273  0.333601  1
  H  H24  1  0.801088  0.807727  0.833601  1
  H  H25  1  0.198912  0.307727  0.666399  1
  H  H26  1  0.079678  0.303969  0.390018  1
  H  H27  1  0.920322  0.803969  0.109982  1
  H  H28  1  0.920322  0.696031  0.609982  1
  H  H29  1  0.079678  0.196031  0.890018  1
  H  H30  1  0.226412  0.426375  0.387242  1
  H  H31  1  0.773588  0.926375  0.112758  1
  H  H32  1  0.773588  0.573625  0.612758  1
  H  H33  1  0.226412  0.073625  0.887242  1
  O  O34  1  0.720866  0.379657  0.434425  1
  O  O35  1  0.279134  0.879657  0.065575  1
  O  O36  1  0.279134  0.620343  0.565575  1
  O  O37  1  0.720866  0.120343  0.934425  1
  O  O38  1  0.103797  0.113015  0.150797  1
  O  O39  1  0.896203  0.613015  0.349203  1
  O  O40  1  0.896203  0.886985  0.849203  1
  O  O41  1  0.103797  0.386985  0.650797  1
  O  O42  1  0.178831  0.373297  0.436638  1
  O  O43  1  0.821169  0.873297  0.063362  1
  O  O44  1  0.821169  0.626703  0.563362  1
  O  O45  1  0.178831  0.126703  0.936638  1
  F  F46  1  0.922306  0.466329  0.180884  1
  F  F47  1  0.077694  0.966329  0.319116  1
  F  F48  1  0.077694  0.533671  0.819116  1
  F  F49  1  0.922306  0.033671  0.680884  1
  F  F50  1  0.639244  0.025616  0.175013  1
  F  F51  1  0.360756  0.525616  0.324987  1
  F  F52  1  0.360756  0.974384  0.824987  1
  F  F53  1  0.639244  0.474384  0.675013  1
  F  F54  1  0.574852  0.068975  0.398283  1
  F  F55  1  0.425148  0.568975  0.101717  1
  F  F56  1  0.425148  0.931025  0.601717  1
  F  F57  1  0.574852  0.431025  0.898283  1
  F  F58  1  0.043474  0.113288  0.503795  1
  F  F59  1  0.956526  0.613288  0.996205  1
  F  F60  1  0.956526  0.886712  0.496205  1
  F  F61  1  0.043474  0.386712  0.003795  1
  F  F62  1  0.341334  0.334715  0.194098  1
  F  F63  1  0.658666  0.834715  0.305902  1
  F  F64  1  0.658666  0.665285  0.805902  1
  F  F65  1  0.341334  0.165285  0.694098  1
  F  F66  1  0.840653  0.214306  0.312464  1
  F  F67  1  0.159347  0.714306  0.187536  1
  F  F68  1  0.159347  0.785694  0.687536  1
  F  F69  1  0.840653  0.285694  0.812464  1
