# generated using pymatgen
data_Na2Fe2C4SO16
_symmetry_space_group_name_H-M   'P 1'
_cell_length_a   9.92589943
_cell_length_b   9.87591001
_cell_length_c   9.86701272
_cell_angle_alpha   60.36516564
_cell_angle_beta   59.86181269
_cell_angle_gamma   59.77302167
_symmetry_Int_Tables_number   1
_chemical_formula_structural   Na2Fe2C4SO16
_chemical_formula_sum   'Na4 Fe4 C8 S2 O32'
_cell_volume   683.89685902
_cell_formula_units_Z   2
loop_
 _symmetry_equiv_pos_site_id
 _symmetry_equiv_pos_as_xyz
  1  'x, y, z'
loop_
 _atom_site_type_symbol
 _atom_site_label
 _atom_site_symmetry_multiplicity
 _atom_site_fract_x
 _atom_site_fract_y
 _atom_site_fract_z
 _atom_site_occupancy
  Na  Na0  1  0.539167  0.960833  0.539167  1
  Na  Na1  1  0.960832  0.539168  0.960832  1
  Na  Na2  1  0.289167  0.710832  0.289168  1
  Na  Na3  1  0.710832  0.289167  0.710833  1
  Fe  Fe4  1  0.125000  0.125000  0.625000  1
  Fe  Fe5  1  0.125000  0.125000  0.125000  1
  Fe  Fe6  1  0.125000  0.625000  0.125000  1
  Fe  Fe7  1  0.625000  0.125000  0.125000  1
  C  C8  1  0.341795  0.987704  0.334144  1
  C  C9  1  0.987704  0.341795  0.336357  1
  C  C10  1  0.336357  0.334144  0.987704  1
  C  C11  1  0.334144  0.336357  0.341795  1
  C  C12  1  0.915856  0.913643  0.908205  1
  C  C13  1  0.913643  0.915856  0.262296  1
  C  C14  1  0.262296  0.908205  0.913643  1
  C  C15  1  0.908205  0.262296  0.915856  1
  S  S16  1  0.750000  0.750000  0.750000  1
  S  S17  1  0.500000  0.500000  0.500000  1
  O  O18  1  0.314405  0.991236  0.475658  1
  O  O19  1  0.482562  0.989962  0.218176  1
  O  O20  1  0.991236  0.314405  0.218701  1
  O  O21  1  0.989962  0.482562  0.309299  1
  O  O22  1  0.272528  0.018997  0.768564  1
  O  O23  1  0.309299  0.218176  0.989962  1
  O  O24  1  0.018997  0.272528  0.939911  1
  O  O25  1  0.481436  0.310089  0.977472  1
  O  O26  1  0.218701  0.475658  0.991236  1
  O  O27  1  0.687119  0.689477  0.934246  1
  O  O28  1  0.939911  0.768564  0.018997  1
  O  O29  1  0.560842  0.315754  0.560523  1
  O  O30  1  0.218176  0.309299  0.482562  1
  O  O31  1  0.475658  0.218701  0.314405  1
  O  O32  1  0.689477  0.687119  0.689158  1
  O  O33  1  0.934246  0.689158  0.687119  1
  O  O34  1  0.315754  0.560842  0.562881  1
  O  O35  1  0.560523  0.562881  0.560842  1
  O  O36  1  0.774342  0.031299  0.935595  1
  O  O37  1  0.031824  0.940701  0.767438  1
  O  O38  1  0.689158  0.934246  0.689477  1
  O  O39  1  0.310089  0.481436  0.231003  1
  O  O40  1  0.562881  0.560523  0.315754  1
  O  O41  1  0.031299  0.774342  0.258764  1
  O  O42  1  0.768564  0.939911  0.272528  1
  O  O43  1  0.231003  0.977472  0.310089  1
  O  O44  1  0.940701  0.031824  0.260038  1
  O  O45  1  0.977472  0.231003  0.481436  1
  O  O46  1  0.260038  0.767438  0.940701  1
  O  O47  1  0.258764  0.935595  0.031299  1
  O  O48  1  0.767438  0.260038  0.031824  1
  O  O49  1  0.935595  0.258764  0.774342  1
