# generated using pymatgen
data_Li2CeO3
_symmetry_space_group_name_H-M   'P 1'
_cell_length_a   5.32967235
_cell_length_b   5.32967235
_cell_length_c   3.55472777
_cell_angle_alpha   90.00000000
_cell_angle_beta   90.00000000
_cell_angle_gamma   130.16852962
_symmetry_Int_Tables_number   1
_chemical_formula_structural   Li2CeO3
_chemical_formula_sum   'Li2 Ce1 O3'
_cell_volume   77.15893682
_cell_formula_units_Z   1
loop_
 _symmetry_equiv_pos_site_id
 _symmetry_equiv_pos_as_xyz
  1  'x, y, z'
loop_
 _atom_site_type_symbol
 _atom_site_label
 _atom_site_symmetry_multiplicity
 _atom_site_fract_x
 _atom_site_fract_y
 _atom_site_fract_z
 _atom_site_occupancy
  Li  Li0  1  0.656605  0.343395  0.500000  1
  Li  Li1  1  0.343395  0.656605  0.500000  1
  Ce  Ce2  1  0.000000  0.000000  0.000000  1
  O  O3  1  0.143357  0.856643  0.500000  1
  O  O4  1  0.856643  0.143357  0.500000  1
  O  O5  1  0.500000  0.500000  1.000000  1
