# generated using pymatgen
data_LiMnOF2
_symmetry_space_group_name_H-M   'P 1'
_cell_length_a   5.24271752
_cell_length_b   8.95343556
_cell_length_c   10.44455558
_cell_angle_alpha   90.00000000
_cell_angle_beta   103.31204629
_cell_angle_gamma   90.00000000
_symmetry_Int_Tables_number   1
_chemical_formula_structural   LiMnOF2
_chemical_formula_sum   'Li8 Mn8 O8 F16'
_cell_volume   477.09757940
_cell_formula_units_Z   8
loop_
 _symmetry_equiv_pos_site_id
 _symmetry_equiv_pos_as_xyz
  1  'x, y, z'
loop_
 _atom_site_type_symbol
 _atom_site_label
 _atom_site_symmetry_multiplicity
 _atom_site_fract_x
 _atom_site_fract_y
 _atom_site_fract_z
 _atom_site_occupancy
  Li  Li0  1  0.252127  0.414614  0.058531  1
  Li  Li1  1  0.752127  0.585386  0.058531  1
  Li  Li2  1  0.144057  0.589854  0.423887  1
  Li  Li3  1  0.644057  0.410146  0.423887  1
  Li  Li4  1  0.326720  0.089452  0.543353  1
  Li  Li5  1  0.826720  0.910548  0.543353  1
  Li  Li6  1  0.260071  0.905326  0.967829  1
  Li  Li7  1  0.760071  0.094674  0.967829  1
  Mn  Mn8  1  0.066812  0.906903  0.254722  1
  Mn  Mn9  1  0.068638  0.241749  0.254716  1
  Mn  Mn10  1  0.566812  0.093097  0.254722  1
  Mn  Mn11  1  0.568638  0.758251  0.254716  1
  Mn  Mn12  1  0.444602  0.802880  0.743786  1
  Mn  Mn13  1  0.450532  0.410039  0.742572  1
  Mn  Mn14  1  0.944602  0.197120  0.743786  1
  Mn  Mn15  1  0.950532  0.589961  0.742572  1
  O  O16  1  0.334607  0.228249  0.156883  1
  O  O17  1  0.352312  0.915035  0.160011  1
  O  O18  1  0.834607  0.771751  0.156883  1
  O  O19  1  0.852312  0.084965  0.160011  1
  O  O20  1  0.291583  0.761587  0.346591  1
  O  O21  1  0.275188  0.081769  0.349954  1
  O  O22  1  0.791583  0.238413  0.346591  1
  O  O23  1  0.775188  0.918231  0.349954  1
  F  F24  1  0.433255  0.595649  0.133969  1
  F  F25  1  0.933255  0.404351  0.133969  1
  F  F26  1  0.261967  0.392169  0.374965  1
  F  F27  1  0.761967  0.607831  0.374965  1
  F  F28  1  0.183539  0.923971  0.608153  1
  F  F29  1  0.238907  0.588029  0.624130  1
  F  F30  1  0.216897  0.246332  0.635257  1
  F  F31  1  0.683539  0.076029  0.608153  1
  F  F32  1  0.738907  0.411971  0.624130  1
  F  F33  1  0.716897  0.753668  0.635257  1
  F  F34  1  0.035042  0.047594  0.890086  1
  F  F35  1  0.170514  0.407147  0.863163  1
  F  F36  1  0.192629  0.729777  0.867442  1
  F  F37  1  0.535042  0.952406  0.890086  1
  F  F38  1  0.670514  0.592853  0.863163  1
  F  F39  1  0.692629  0.270223  0.867442  1
