# generated using pymatgen
data_Li2CrCo3O8
_symmetry_space_group_name_H-M   'P 1'
_cell_length_a   5.78540458
_cell_length_b   5.78540458
_cell_length_c   5.78540458
_cell_angle_alpha   59.20348810
_cell_angle_beta   59.20348810
_cell_angle_gamma   59.20348810
_symmetry_Int_Tables_number   1
_chemical_formula_structural   Li2CrCo3O8
_chemical_formula_sum   'Li2 Cr1 Co3 O8'
_cell_volume   134.44128347
_cell_formula_units_Z   1
loop_
 _symmetry_equiv_pos_site_id
 _symmetry_equiv_pos_as_xyz
  1  'x, y, z'
loop_
 _atom_site_type_symbol
 _atom_site_label
 _atom_site_symmetry_multiplicity
 _atom_site_fract_x
 _atom_site_fract_y
 _atom_site_fract_z
 _atom_site_occupancy
  Li  Li0  1  0.123055  0.123055  0.123055  1
  Li  Li1  1  0.876945  0.876945  0.876945  1
  Cr  Cr2  1  0.500000  0.500000  0.500000  1
  Co  Co3  1  0.500000  0.500000  0.000000  1
  Co  Co4  1  0.000000  0.500000  0.500000  1
  Co  Co5  1  0.500000  0.000000  0.500000  1
  O  O6  1  0.707437  0.255370  0.255370  1
  O  O7  1  0.255370  0.255370  0.707436  1
  O  O8  1  0.737052  0.737052  0.737052  1
  O  O9  1  0.255370  0.707436  0.255370  1
  O  O10  1  0.744630  0.292564  0.744630  1
  O  O11  1  0.262948  0.262948  0.262948  1
  O  O12  1  0.744630  0.744630  0.292564  1
  O  O13  1  0.292564  0.744630  0.744630  1
