# generated using pymatgen
data_MnV(P2O7)2
_symmetry_space_group_name_H-M   'P 1'
_cell_length_a   4.82467347
_cell_length_b   7.01138066
_cell_length_c   8.09355276
_cell_angle_alpha   87.52554129
_cell_angle_beta   88.75126414
_cell_angle_gamma   71.70413314
_symmetry_Int_Tables_number   1
_chemical_formula_structural   MnV(P2O7)2
_chemical_formula_sum   'Mn1 V1 P4 O14'
_cell_volume   259.69308845
_cell_formula_units_Z   1
loop_
 _symmetry_equiv_pos_site_id
 _symmetry_equiv_pos_as_xyz
  1  'x, y, z'
loop_
 _atom_site_type_symbol
 _atom_site_label
 _atom_site_symmetry_multiplicity
 _atom_site_fract_x
 _atom_site_fract_y
 _atom_site_fract_z
 _atom_site_occupancy
  Mn  Mn0  1  0.788369  0.727641  0.003447  1
  V  V1  1  0.207809  0.282145  0.503742  1
  P  P2  1  0.403396  0.480373  0.173176  1
  P  P3  1  0.223798  0.906852  0.780054  1
  P  P4  1  0.786375  0.088478  0.285093  1
  P  P5  1  0.600388  0.516196  0.684402  1
  O  O6  1  0.042131  0.158623  0.341241  1
  O  O7  1  0.150589  0.105206  0.672942  1
  O  O8  1  0.173939  0.527463  0.040699  1
  O  O9  1  0.264342  0.471043  0.348903  1
  O  O10  1  0.386884  0.392717  0.665101  1
  O  O11  1  0.575210  0.102935  0.437612  1
  O  O12  1  0.604651  0.251197  0.148095  1
  O  O13  1  0.407749  0.747494  0.646938  1
  O  O14  1  0.406063  0.908937  0.930060  1
  O  O15  1  0.597395  0.612732  0.179148  1
  O  O16  1  0.731406  0.493819  0.851981  1
  O  O17  1  0.829905  0.468053  0.542213  1
  O  O18  1  0.883186  0.890913  0.205947  1
  O  O19  1  0.941717  0.862578  0.822767  1
