# generated using pymatgen
data_Cu2NiO4
_symmetry_space_group_name_H-M   'P 1'
_cell_length_a   6.20436145
_cell_length_b   6.20436145
_cell_length_c   6.20436145
_cell_angle_alpha   129.19280301
_cell_angle_beta   129.19280301
_cell_angle_gamma   74.70054280
_symmetry_Int_Tables_number   1
_chemical_formula_structural   Cu2NiO4
_chemical_formula_sum   'Cu4 Ni2 O8'
_cell_volume   139.76053024
_cell_formula_units_Z   2
loop_
 _symmetry_equiv_pos_site_id
 _symmetry_equiv_pos_as_xyz
  1  'x, y, z'
loop_
 _atom_site_type_symbol
 _atom_site_label
 _atom_site_symmetry_multiplicity
 _atom_site_fract_x
 _atom_site_fract_y
 _atom_site_fract_z
 _atom_site_occupancy
  Cu  Cu0  1  0.875000  0.625000  0.750000  1
  Cu  Cu1  1  0.875000  0.125000  0.750000  1
  Cu  Cu2  1  0.375000  0.125000  0.250000  1
  Cu  Cu3  1  0.875000  0.125000  0.250000  1
  Ni  Ni4  1  0.250000  0.750000  0.500000  1
  Ni  Ni5  1  0.500000  0.500000  0.000000  1
  O  O6  1  0.667029  0.150487  0.888158  1
  O  O7  1  0.487672  0.471129  0.388158  1
  O  O8  1  0.900487  0.512328  0.983457  1
  O  O9  1  0.221129  0.332971  0.483457  1
  O  O10  1  0.528871  0.917029  0.016543  1
  O  O11  1  0.849513  0.737672  0.516543  1
  O  O12  1  0.262328  0.778871  0.111842  1
  O  O13  1  0.082971  0.099513  0.611842  1
