# generated using pymatgen
data_LiVF6
_symmetry_space_group_name_H-M   'P 1'
_cell_length_a   5.43574060
_cell_length_b   5.43574060
_cell_length_c   9.86627641
_cell_angle_alpha   89.21483874
_cell_angle_beta   90.78516126
_cell_angle_gamma   120.33198337
_symmetry_Int_Tables_number   1
_chemical_formula_structural   LiVF6
_chemical_formula_sum   'Li2 V2 F12'
_cell_volume   251.58490717
_cell_formula_units_Z   2
loop_
 _symmetry_equiv_pos_site_id
 _symmetry_equiv_pos_as_xyz
  1  'x, y, z'
loop_
 _atom_site_type_symbol
 _atom_site_label
 _atom_site_symmetry_multiplicity
 _atom_site_fract_x
 _atom_site_fract_y
 _atom_site_fract_z
 _atom_site_occupancy
  Li  Li0  1  0.011754  0.659137  0.825673  1
  Li  Li1  1  0.340863  0.988246  0.325673  1
  V  V2  1  0.032017  0.326844  0.146869  1
  V  V3  1  0.673156  0.967983  0.646869  1
  F  F4  1  0.392544  0.550439  0.099293  1
  F  F5  1  0.542428  0.078011  0.499158  1
  F  F6  1  0.066828  0.617629  0.255653  1
  F  F7  1  0.382371  0.933172  0.755653  1
  F  F8  1  0.140645  0.193340  0.293826  1
  F  F9  1  0.999140  0.034631  0.054301  1
  F  F10  1  0.965369  0.000860  0.554301  1
  F  F11  1  0.806660  0.859355  0.793826  1
  F  F12  1  0.656946  0.124759  0.199873  1
  F  F13  1  0.875241  0.343054  0.699873  1
  F  F14  1  0.921989  0.457572  0.999158  1
  F  F15  1  0.449561  0.607456  0.599293  1
