# generated using pymatgen
data_Li2Co3WO8
_symmetry_space_group_name_H-M   'P 1'
_cell_length_a   5.91839732
_cell_length_b   5.91839732
_cell_length_c   9.65509320
_cell_angle_alpha   89.88078664
_cell_angle_beta   90.11921336
_cell_angle_gamma   59.47454892
_symmetry_Int_Tables_number   1
_chemical_formula_structural   Li2Co3WO8
_chemical_formula_sum   'Li4 Co6 W2 O16'
_cell_volume   291.31817372
_cell_formula_units_Z   2
loop_
 _symmetry_equiv_pos_site_id
 _symmetry_equiv_pos_as_xyz
  1  'x, y, z'
loop_
 _atom_site_type_symbol
 _atom_site_label
 _atom_site_symmetry_multiplicity
 _atom_site_fract_x
 _atom_site_fract_y
 _atom_site_fract_z
 _atom_site_occupancy
  Li  Li0  1  0.660758  0.666080  0.094387  1
  Li  Li1  1  0.001257  0.996653  0.009865  1
  Li  Li2  1  0.003347  0.998743  0.509865  1
  Li  Li3  1  0.333920  0.339242  0.594387  1
  Co  Co4  1  0.344463  0.829284  0.780120  1
  Co  Co5  1  0.827969  0.335986  0.785449  1
  Co  Co6  1  0.826240  0.825367  0.786696  1
  Co  Co7  1  0.174633  0.173760  0.286696  1
  Co  Co8  1  0.170716  0.655537  0.280120  1
  Co  Co9  1  0.664014  0.172031  0.285449  1
  W  W10  1  0.675289  0.668817  0.510797  1
  W  W11  1  0.331183  0.324711  0.010797  1
  O  O12  1  0.346847  0.853528  0.410617  1
  O  O13  1  0.515748  0.527475  0.639783  1
  O  O14  1  0.652297  0.675572  0.887605  1
  O  O15  1  0.007723  0.980327  0.701571  1
  O  O16  1  0.019673  0.992277  0.201571  1
  O  O17  1  0.855245  0.344942  0.412311  1
  O  O18  1  0.532533  0.966325  0.657818  1
  O  O19  1  0.961895  0.540214  0.656463  1
  O  O20  1  0.168535  0.166529  0.912598  1
  O  O21  1  0.833471  0.831465  0.412598  1
  O  O22  1  0.033675  0.467467  0.157818  1
  O  O23  1  0.459786  0.038105  0.156463  1
  O  O24  1  0.324428  0.347703  0.387605  1
  O  O25  1  0.146472  0.653153  0.910617  1
  O  O26  1  0.472525  0.484252  0.139783  1
  O  O27  1  0.655058  0.144755  0.912311  1
