# generated using pymatgen
data_LiMnV(PO4)3
_symmetry_space_group_name_H-M   'P 1'
_cell_length_a   8.25435026
_cell_length_b   8.28599863
_cell_length_c   8.83210510
_cell_angle_alpha   89.79863145
_cell_angle_beta   116.47683737
_cell_angle_gamma   119.16992788
_symmetry_Int_Tables_number   1
_chemical_formula_structural   LiMnV(PO4)3
_chemical_formula_sum   'Li2 Mn2 V2 P6 O24'
_cell_volume   454.13750083
_cell_formula_units_Z   2
loop_
 _symmetry_equiv_pos_site_id
 _symmetry_equiv_pos_as_xyz
  1  'x, y, z'
loop_
 _atom_site_type_symbol
 _atom_site_label
 _atom_site_symmetry_multiplicity
 _atom_site_fract_x
 _atom_site_fract_y
 _atom_site_fract_z
 _atom_site_occupancy
  Li  Li0  1  0.055848  0.738224  0.130180  1
  Li  Li1  1  0.819225  0.061287  0.117802  1
  Mn  Mn2  1  0.296624  0.158155  0.436419  1
  Mn  Mn3  1  0.713927  0.850696  0.571297  1
  V  V4  1  0.296457  0.645123  0.945778  1
  V  V5  1  0.683336  0.342687  0.045751  1
  P  P6  1  0.212002  0.254998  0.748849  1
  P  P7  1  0.501812  0.966696  0.749191  1
  P  P8  1  0.794837  0.546654  0.752382  1
  P  P9  1  0.204796  0.459011  0.246318  1
  P  P10  1  0.499615  0.030572  0.255741  1
  P  P11  1  0.776896  0.739211  0.247882  1
  O  O12  1  0.394767  0.228435  0.892745  1
  O  O13  1  0.005175  0.126776  0.744226  1
  O  O14  1  0.296170  0.473609  0.814121  1
  O  O15  1  0.355532  0.826653  0.820203  1
  O  O16  1  0.681092  0.158774  0.904502  1
  O  O17  1  0.749803  0.522221  0.910028  1
  O  O18  1  0.202174  0.227744  0.574019  1
  O  O19  1  0.616812  0.878184  0.729401  1
  O  O20  1  0.362826  0.994522  0.582997  1
  O  O21  1  0.007132  0.543813  0.821372  1
  O  O22  1  0.861051  0.751186  0.743713  1
  O  O23  1  0.617199  0.388848  0.587365  1
  O  O24  1  0.386524  0.608677  0.416477  1
  O  O25  1  0.130375  0.249725  0.253510  1
  O  O26  1  0.999760  0.471655  0.180001  1
  O  O27  1  0.643603  0.010893  0.425732  1
  O  O28  1  0.383305  0.119247  0.275337  1
  O  O29  1  0.794311  0.768729  0.424432  1
  O  O30  1  0.266741  0.489317  0.098325  1
  O  O31  1  0.317395  0.833859  0.111225  1
  O  O32  1  0.649925  0.164779  0.184110  1
  O  O33  1  0.696139  0.521413  0.182311  1
  O  O34  1  0.989916  0.865473  0.253651  1
  O  O35  1  0.615813  0.784227  0.105760  1
