# generated using pymatgen
data_Li2AlVO4
_symmetry_space_group_name_H-M   'P 1'
_cell_length_a   5.12523526
_cell_length_b   11.03472049
_cell_length_c   8.23192554
_cell_angle_alpha   90.00000000
_cell_angle_beta   128.18024576
_cell_angle_gamma   90.00000000
_symmetry_Int_Tables_number   1
_chemical_formula_structural   Li2AlVO4
_chemical_formula_sum   'Li8 Al4 V4 O16'
_cell_volume   365.96354892
_cell_formula_units_Z   4
loop_
 _symmetry_equiv_pos_site_id
 _symmetry_equiv_pos_as_xyz
  1  'x, y, z'
loop_
 _atom_site_type_symbol
 _atom_site_label
 _atom_site_symmetry_multiplicity
 _atom_site_fract_x
 _atom_site_fract_y
 _atom_site_fract_z
 _atom_site_occupancy
  Li  Li0  1  0.816069  0.164150  0.505922  1
  Li  Li1  1  0.034529  0.922756  0.738221  1
  Li  Li2  1  0.965471  0.422756  0.761779  1
  Li  Li3  1  0.183931  0.664150  0.994078  1
  Li  Li4  1  0.816069  0.335850  0.005922  1
  Li  Li5  1  0.034529  0.577244  0.238221  1
  Li  Li6  1  0.965471  0.077244  0.261779  1
  Li  Li7  1  0.183931  0.835850  0.494078  1
  Al  Al8  1  0.432619  0.585721  0.746063  1
  Al  Al9  1  0.567381  0.085721  0.753937  1
  Al  Al10  1  0.432619  0.914279  0.246063  1
  Al  Al11  1  0.567381  0.414279  0.253937  1
  V  V12  1  0.315597  0.333684  0.503725  1
  V  V13  1  0.684403  0.833684  0.996275  1
  V  V14  1  0.315597  0.166316  0.003725  1
  V  V15  1  0.684403  0.666316  0.496275  1
  O  O16  1  0.324805  0.662143  0.520433  1
  O  O17  1  0.238231  0.166262  0.530183  1
  O  O18  1  0.455746  0.933106  0.749481  1
  O  O19  1  0.075746  0.590402  0.738031  1
  O  O20  1  0.924254  0.090402  0.761969  1
  O  O21  1  0.544254  0.433106  0.750519  1
  O  O22  1  0.761769  0.666262  0.969817  1
  O  O23  1  0.675195  0.162143  0.979567  1
  O  O24  1  0.324805  0.837857  0.020433  1
  O  O25  1  0.238231  0.333738  0.030183  1
  O  O26  1  0.455746  0.566894  0.249481  1
  O  O27  1  0.075746  0.909598  0.238031  1
  O  O28  1  0.924254  0.409598  0.261969  1
  O  O29  1  0.544254  0.066894  0.250519  1
  O  O30  1  0.761769  0.833738  0.469817  1
  O  O31  1  0.675195  0.337857  0.479567  1
