# generated using pymatgen
data_Li2CrS4
_symmetry_space_group_name_H-M   'P 1'
_cell_length_a   6.78227720
_cell_length_b   6.78227720
_cell_length_c   5.89422552
_cell_angle_alpha   65.12850902
_cell_angle_beta   114.87149098
_cell_angle_gamma   150.71772251
_symmetry_Int_Tables_number   1
_chemical_formula_structural   Li2CrS4
_chemical_formula_sum   'Li2 Cr1 S4'
_cell_volume   119.42816944
_cell_formula_units_Z   1
loop_
 _symmetry_equiv_pos_site_id
 _symmetry_equiv_pos_as_xyz
  1  'x, y, z'
loop_
 _atom_site_type_symbol
 _atom_site_label
 _atom_site_symmetry_multiplicity
 _atom_site_fract_x
 _atom_site_fract_y
 _atom_site_fract_z
 _atom_site_occupancy
  Li  Li0  1  0.708390  0.291610  0.235790  1
  Li  Li1  1  0.291610  0.708390  0.764210  1
  Cr  Cr2  1  0.000000  0.000000  0.500000  1
  S  S3  1  0.634651  0.365349  0.560975  1
  S  S4  1  0.063152  0.936848  0.945637  1
  S  S5  1  0.936848  0.063152  0.054363  1
  S  S6  1  0.365349  0.634651  0.439025  1
