# generated using pymatgen
data_Li6V2O5F2
_symmetry_space_group_name_H-M   'P 1'
_cell_length_a   5.20524601
_cell_length_b   5.95996536
_cell_length_c   10.11934431
_cell_angle_alpha   90.00000000
_cell_angle_beta   109.69284149
_cell_angle_gamma   90.00000000
_symmetry_Int_Tables_number   1
_chemical_formula_structural   Li6V2O5F2
_chemical_formula_sum   'Li12 V4 O10 F4'
_cell_volume   295.57216326
_cell_formula_units_Z   2
loop_
 _symmetry_equiv_pos_site_id
 _symmetry_equiv_pos_as_xyz
  1  'x, y, z'
loop_
 _atom_site_type_symbol
 _atom_site_label
 _atom_site_symmetry_multiplicity
 _atom_site_fract_x
 _atom_site_fract_y
 _atom_site_fract_z
 _atom_site_occupancy
  Li  Li0  1  0.199631  0.036723  0.864869  1
  Li  Li1  1  0.236152  0.486717  0.852320  1
  Li  Li2  1  0.825278  0.761183  0.869281  1
  Li  Li3  1  0.791796  0.977441  0.631523  1
  Li  Li4  1  0.768754  0.536003  0.652538  1
  Li  Li5  1  0.166406  0.235643  0.628797  1
  Li  Li6  1  0.825278  0.238817  0.369281  1
  Li  Li7  1  0.199631  0.963277  0.364869  1
  Li  Li8  1  0.236152  0.513283  0.352320  1
  Li  Li9  1  0.166406  0.764357  0.128797  1
  Li  Li10  1  0.791796  0.022559  0.131523  1
  Li  Li11  1  0.768754  0.463997  0.152538  1
  V  V12  1  0.734462  0.267369  0.871141  1
  V  V13  1  0.267153  0.752024  0.629417  1
  V  V14  1  0.734462  0.732631  0.371141  1
  V  V15  1  0.267153  0.247976  0.129417  1
  O  O16  1  0.499815  0.254344  0.000191  1
  O  O17  1  0.991714  0.027604  0.996214  1
  O  O18  1  0.948491  0.260148  0.745744  1
  O  O19  1  0.050573  0.760639  0.753320  1
  O  O20  1  0.523306  0.534525  0.766063  1
  O  O21  1  0.991714  0.972396  0.496214  1
  O  O22  1  0.499815  0.745656  0.500191  1
  O  O23  1  0.523306  0.465475  0.266063  1
  O  O24  1  0.948491  0.739852  0.245744  1
  O  O25  1  0.050573  0.239361  0.253320  1
  F  F26  1  0.478576  0.034940  0.734345  1
  F  F27  1  0.017891  0.490536  0.504239  1
  F  F28  1  0.478576  0.965060  0.234345  1
  F  F29  1  0.017891  0.509464  0.004239  1
