# generated using pymatgen
data_RbInBP2HO9
_symmetry_space_group_name_H-M   'P 1'
_cell_length_a   5.41669497
_cell_length_b   8.45356738
_cell_length_c   8.60066133
_cell_angle_alpha   87.38846900
_cell_angle_beta   80.51740151
_cell_angle_gamma   86.71324411
_symmetry_Int_Tables_number   1
_chemical_formula_structural   RbInBP2HO9
_chemical_formula_sum   'Rb2 In2 B2 P4 H2 O18'
_cell_volume   387.54638555
_cell_formula_units_Z   2
loop_
 _symmetry_equiv_pos_site_id
 _symmetry_equiv_pos_as_xyz
  1  'x, y, z'
loop_
 _atom_site_type_symbol
 _atom_site_label
 _atom_site_symmetry_multiplicity
 _atom_site_fract_x
 _atom_site_fract_y
 _atom_site_fract_z
 _atom_site_occupancy
  Rb  Rb0  1  0.278164  0.169636  0.382644  1
  Rb  Rb1  1  0.721836  0.830364  0.617356  1
  In  In2  1  0.274939  0.688971  0.300065  1
  In  In3  1  0.725061  0.311029  0.699935  1
  B  B4  1  0.108891  0.771352  0.941164  1
  B  B5  1  0.891109  0.228648  0.058836  1
  P  P6  1  0.192804  0.081203  0.808998  1
  P  P7  1  0.218078  0.568651  0.692119  1
  P  P8  1  0.781922  0.431349  0.307881  1
  P  P9  1  0.807196  0.918797  0.191002  1
  H  H10  1  0.412248  0.629382  0.983232  1
  H  H11  1  0.587752  0.370618  0.016768  1
  O  O12  1  0.025966  0.903031  0.285517  1
  O  O13  1  0.078194  0.428221  0.652701  1
  O  O14  1  0.045126  0.658539  0.830312  1
  O  O15  1  0.274603  0.690499  0.044654  1
  O  O16  1  0.128125  0.172594  0.966120  1
  O  O17  1  0.265567  0.691105  0.551398  1
  O  O18  1  0.249023  0.902302  0.851675  1
  O  O19  1  0.529657  0.481898  0.250786  1
  O  O20  1  0.437577  0.137398  0.713228  1
  O  O21  1  0.562423  0.862602  0.286772  1
  O  O22  1  0.470343  0.518102  0.749214  1
  O  O23  1  0.750977  0.097698  0.148325  1
  O  O24  1  0.734433  0.308895  0.448602  1
  O  O25  1  0.871875  0.827406  0.033880  1
  O  O26  1  0.725397  0.309501  0.955346  1
  O  O27  1  0.954874  0.341461  0.169688  1
  O  O28  1  0.921806  0.571779  0.347299  1
  O  O29  1  0.974034  0.096969  0.714483  1
