# generated using pymatgen
data_Li2Mn2P4H3O16
_symmetry_space_group_name_H-M   'P 1'
_cell_length_a   4.88022956
_cell_length_b   7.52185201
_cell_length_c   8.10879534
_cell_angle_alpha   88.83554391
_cell_angle_beta   87.60116903
_cell_angle_gamma   75.33258442
_symmetry_Int_Tables_number   1
_chemical_formula_structural   Li2Mn2P4H3O16
_chemical_formula_sum   'Li2 Mn2 P4 H3 O16'
_cell_volume   287.69351966
_cell_formula_units_Z   1
loop_
 _symmetry_equiv_pos_site_id
 _symmetry_equiv_pos_as_xyz
  1  'x, y, z'
loop_
 _atom_site_type_symbol
 _atom_site_label
 _atom_site_symmetry_multiplicity
 _atom_site_fract_x
 _atom_site_fract_y
 _atom_site_fract_z
 _atom_site_occupancy
  Li  Li0  1  0.396315  0.149283  0.876671  1
  Li  Li1  1  0.591152  0.848377  0.121069  1
  Mn  Mn2  1  0.497636  0.999043  0.500079  1
  Mn  Mn3  1  0.000218  0.501807  0.997669  1
  P  P4  1  0.108945  0.747492  0.330916  1
  P  P5  1  0.376952  0.760866  0.842493  1
  P  P6  1  0.620442  0.246046  0.158971  1
  P  P7  1  0.887069  0.251123  0.668813  1
  H  H8  1  0.463236  0.526715  0.398051  1
  H  H9  1  0.538204  0.480307  0.616052  1
  H  H10  1  0.960194  0.018783  0.012369  1
  O  O11  1  0.999075  0.304399  0.834043  1
  O  O12  1  0.136387  0.157137  0.556245  1
  O  O13  1  0.178453  0.629138  0.831249  1
  O  O14  1  0.257943  0.562202  0.422087  1
  O  O15  1  0.366546  0.338256  0.051279  1
  O  O16  1  0.250540  0.937590  0.941169  1
  O  O17  1  0.323693  0.862768  0.302103  1
  O  O18  1  0.540470  0.191876  0.331835  1
  O  O19  1  0.458259  0.804072  0.664941  1
  O  O20  1  0.673395  0.135353  0.698777  1
  O  O21  1  0.750844  0.061555  0.058922  1
  O  O22  1  0.636317  0.660484  0.947040  1
  O  O23  1  0.736315  0.435821  0.576494  1
  O  O24  1  0.828157  0.368677  0.166918  1
  O  O25  1  0.860345  0.843161  0.443622  1
  O  O26  1  0.992912  0.696085  0.166396  1
