# generated using pymatgen
data_Ge2N2O
_symmetry_space_group_name_H-M   'P 1'
_cell_length_a   5.57286213
_cell_length_b   5.57286213
_cell_length_c   5.35834907
_cell_angle_alpha   81.21231910
_cell_angle_beta   98.78768090
_cell_angle_gamma   57.80310977
_symmetry_Int_Tables_number   1
_chemical_formula_structural   Ge2N2O
_chemical_formula_sum   'Ge4 N4 O2'
_cell_volume   133.60189386
_cell_formula_units_Z   2
loop_
 _symmetry_equiv_pos_site_id
 _symmetry_equiv_pos_as_xyz
  1  'x, y, z'
loop_
 _atom_site_type_symbol
 _atom_site_label
 _atom_site_symmetry_multiplicity
 _atom_site_fract_x
 _atom_site_fract_y
 _atom_site_fract_z
 _atom_site_occupancy
  Ge  Ge0  1  0.822666  0.666629  0.494708  1
  Ge  Ge1  1  0.503982  0.332009  0.498320  1
  Ge  Ge2  1  0.333371  0.177334  0.994708  1
  Ge  Ge3  1  0.667991  0.496018  0.998320  1
  N  N4  1  0.586798  0.572885  0.636740  1
  N  N5  1  0.212803  0.335975  0.629526  1
  N  N6  1  0.427115  0.413202  0.136740  1
  N  N7  1  0.664025  0.787197  0.129526  1
  O  O8  1  0.049679  0.185099  0.115706  1
  O  O9  1  0.814901  0.950321  0.615706  1
