# generated using pymatgen
data_Na2CuH4(C2O5)2
_symmetry_space_group_name_H-M   'P 1'
_cell_length_a   3.60778656
_cell_length_b   7.59403358
_cell_length_c   9.56351306
_cell_angle_alpha   71.91852994
_cell_angle_beta   81.75813391
_cell_angle_gamma   76.25555630
_symmetry_Int_Tables_number   1
_chemical_formula_structural   Na2CuH4(C2O5)2
_chemical_formula_sum   'Na2 Cu1 H4 C4 O10'
_cell_volume   241.25755504
_cell_formula_units_Z   1
loop_
 _symmetry_equiv_pos_site_id
 _symmetry_equiv_pos_as_xyz
  1  'x, y, z'
loop_
 _atom_site_type_symbol
 _atom_site_label
 _atom_site_symmetry_multiplicity
 _atom_site_fract_x
 _atom_site_fract_y
 _atom_site_fract_z
 _atom_site_occupancy
  Na  Na0  1  0.309864  0.701265  0.573423  1
  Na  Na1  1  0.690136  0.298735  0.426577  1
  Cu  Cu2  1  0.000000  0.000000  0.000000  1
  H  H3  1  0.559800  0.470959  0.807648  1
  H  H4  1  0.440200  0.529041  0.192352  1
  H  H5  1  0.674275  0.676275  0.827702  1
  H  H6  1  0.325725  0.323725  0.172298  1
  C  C7  1  0.959657  0.780291  0.275720  1
  C  C8  1  0.040343  0.219709  0.724280  1
  C  C9  1  0.265666  0.971702  0.254510  1
  C  C10  1  0.734334  0.028298  0.745490  1
  O  O11  1  0.808233  0.765440  0.162788  1
  O  O12  1  0.191767  0.234560  0.837212  1
  O  O13  1  0.336646  0.093322  0.125173  1
  O  O14  1  0.663354  0.906678  0.874827  1
  O  O15  1  0.874844  0.655133  0.396410  1
  O  O16  1  0.125156  0.344867  0.603590  1
  O  O17  1  0.425797  0.998648  0.357370  1
  O  O18  1  0.574203  0.001352  0.642630  1
  O  O19  1  0.709412  0.603405  0.757424  1
  O  O20  1  0.290588  0.396595  0.242576  1
