# generated using pymatgen
data_LiTiCoO4
_symmetry_space_group_name_H-M   'P 1'
_cell_length_a   5.96638784
_cell_length_b   5.96638784
_cell_length_c   8.17972067
_cell_angle_alpha   90.00000000
_cell_angle_beta   90.00000000
_cell_angle_gamma   90.00000000
_symmetry_Int_Tables_number   1
_chemical_formula_structural   LiTiCoO4
_chemical_formula_sum   'Li4 Ti4 Co4 O16'
_cell_volume   291.17992850
_cell_formula_units_Z   4
loop_
 _symmetry_equiv_pos_site_id
 _symmetry_equiv_pos_as_xyz
  1  'x, y, z'
loop_
 _atom_site_type_symbol
 _atom_site_label
 _atom_site_symmetry_multiplicity
 _atom_site_fract_x
 _atom_site_fract_y
 _atom_site_fract_z
 _atom_site_occupancy
  Li  Li0  1  0.500000  0.727348  0.000000  1
  Li  Li1  1  0.500000  0.272652  0.500000  1
  Li  Li2  1  0.727348  0.500000  0.250000  1
  Li  Li3  1  0.272652  0.500000  0.750000  1
  Ti  Ti4  1  0.721427  0.000000  0.250000  1
  Ti  Ti5  1  0.000000  0.721427  0.000000  1
  Ti  Ti6  1  0.000000  0.278573  0.500000  1
  Ti  Ti7  1  0.278573  0.000000  0.750000  1
  Co  Co8  1  0.757470  0.757470  0.625000  1
  Co  Co9  1  0.757470  0.242530  0.875000  1
  Co  Co10  1  0.242530  0.757470  0.375000  1
  Co  Co11  1  0.242530  0.242530  0.125000  1
  O  O12  1  0.511641  0.767587  0.259428  1
  O  O13  1  0.511641  0.232413  0.240572  1
  O  O14  1  0.767587  0.511641  0.990572  1
  O  O15  1  0.767587  0.488359  0.509428  1
  O  O16  1  0.764300  0.983481  0.010615  1
  O  O17  1  0.764300  0.016519  0.489385  1
  O  O18  1  0.983481  0.764300  0.239385  1
  O  O19  1  0.983481  0.235700  0.260615  1
  O  O20  1  0.016519  0.764300  0.760615  1
  O  O21  1  0.016519  0.235700  0.739385  1
  O  O22  1  0.235700  0.016519  0.510615  1
  O  O23  1  0.235700  0.983481  0.989385  1
  O  O24  1  0.232413  0.511641  0.009428  1
  O  O25  1  0.232413  0.488359  0.490572  1
  O  O26  1  0.488359  0.767587  0.740572  1
  O  O27  1  0.488359  0.232413  0.759428  1
