# generated using pymatgen
data_LiCrPO4F
_symmetry_space_group_name_H-M   'P 1'
_cell_length_a   6.29672553
_cell_length_b   10.57567771
_cell_length_c   12.70753585
_cell_angle_alpha   90.00000000
_cell_angle_beta   90.00000000
_cell_angle_gamma   90.00000000
_symmetry_Int_Tables_number   1
_chemical_formula_structural   LiCrPO4F
_chemical_formula_sum   'Li8 Cr8 P8 O32 F8'
_cell_volume   846.22200426
_cell_formula_units_Z   8
loop_
 _symmetry_equiv_pos_site_id
 _symmetry_equiv_pos_as_xyz
  1  'x, y, z'
loop_
 _atom_site_type_symbol
 _atom_site_label
 _atom_site_symmetry_multiplicity
 _atom_site_fract_x
 _atom_site_fract_y
 _atom_site_fract_z
 _atom_site_occupancy
  Li  Li0  1  0.407510  0.705128  0.401285  1
  Li  Li1  1  0.305691  0.447973  0.641001  1
  Li  Li2  1  0.194309  0.447973  0.141001  1
  Li  Li3  1  0.092490  0.705128  0.901285  1
  Li  Li4  1  0.907510  0.205128  0.098715  1
  Li  Li5  1  0.805691  0.947973  0.858999  1
  Li  Li6  1  0.694309  0.947973  0.358999  1
  Li  Li7  1  0.592490  0.205128  0.598715  1
  Cr  Cr8  1  0.003530  0.247174  0.880840  1
  Cr  Cr9  1  0.257518  0.001316  0.745417  1
  Cr  Cr10  1  0.242482  0.001316  0.245417  1
  Cr  Cr11  1  0.496470  0.247174  0.380840  1
  Cr  Cr12  1  0.503530  0.747174  0.619160  1
  Cr  Cr13  1  0.757518  0.501316  0.754583  1
  Cr  Cr14  1  0.742482  0.501316  0.254583  1
  Cr  Cr15  1  0.996470  0.747174  0.119160  1
  P  P16  1  0.001681  0.251817  0.312577  1
  P  P17  1  0.169743  0.988576  0.992574  1
  P  P18  1  0.330257  0.988576  0.492574  1
  P  P19  1  0.498319  0.251817  0.812577  1
  P  P20  1  0.501681  0.751817  0.187423  1
  P  P21  1  0.669743  0.488576  0.507426  1
  P  P22  1  0.830257  0.488576  0.007426  1
  P  P23  1  0.998319  0.751817  0.687423  1
  O  O24  1  0.999328  0.096679  0.979268  1
  O  O25  1  0.031891  0.863363  0.992806  1
  O  O26  1  0.031187  0.868164  0.762942  1
  O  O27  1  0.035931  0.142609  0.230751  1
  O  O28  1  0.202806  0.006306  0.593053  1
  O  O29  1  0.194245  0.724075  0.620490  1
  O  O30  1  0.189601  0.271037  0.386644  1
  O  O31  1  0.178237  0.985793  0.398139  1
  O  O32  1  0.321763  0.985793  0.898139  1
  O  O33  1  0.310399  0.271037  0.886644  1
  O  O34  1  0.305755  0.724075  0.120490  1
  O  O35  1  0.297194  0.006306  0.093053  1
  O  O36  1  0.464069  0.142609  0.730751  1
  O  O37  1  0.468813  0.868164  0.262942  1
  O  O38  1  0.468109  0.863363  0.492806  1
  O  O39  1  0.500672  0.096679  0.479268  1
  O  O40  1  0.499328  0.596679  0.520732  1
  O  O41  1  0.531891  0.363363  0.507194  1
  O  O42  1  0.531187  0.368164  0.737058  1
  O  O43  1  0.535931  0.642609  0.269249  1
  O  O44  1  0.702806  0.506306  0.906947  1
  O  O45  1  0.694245  0.224075  0.879510  1
  O  O46  1  0.689601  0.771037  0.113356  1
  O  O47  1  0.678237  0.485793  0.101861  1
  O  O48  1  0.821763  0.485793  0.601861  1
  O  O49  1  0.810399  0.771037  0.613356  1
  O  O50  1  0.805755  0.224075  0.379510  1
  O  O51  1  0.797194  0.506306  0.406947  1
  O  O52  1  0.964069  0.642609  0.769249  1
  O  O53  1  0.968813  0.368164  0.237058  1
  O  O54  1  0.968109  0.363363  0.007194  1
  O  O55  1  0.000672  0.596679  0.020732  1
  F  F56  1  0.020498  0.121761  0.765432  1
  F  F57  1  0.003324  0.881998  0.227929  1
  F  F58  1  0.496676  0.881998  0.727929  1
  F  F59  1  0.479502  0.121761  0.265432  1
  F  F60  1  0.520498  0.621761  0.734568  1
  F  F61  1  0.503324  0.381998  0.272071  1
  F  F62  1  0.996676  0.381998  0.772071  1
  F  F63  1  0.979502  0.621761  0.234568  1
