# generated using pymatgen
data_LiV2(CO3)4
_symmetry_space_group_name_H-M   'P 1'
_cell_length_a   8.20888202
_cell_length_b   5.87772939
_cell_length_c   12.25676503
_cell_angle_alpha   90.00000000
_cell_angle_beta   131.60094134
_cell_angle_gamma   90.00000000
_symmetry_Int_Tables_number   1
_chemical_formula_structural   LiV2(CO3)4
_chemical_formula_sum   'Li2 V4 C8 O24'
_cell_volume   442.22926432
_cell_formula_units_Z   2
loop_
 _symmetry_equiv_pos_site_id
 _symmetry_equiv_pos_as_xyz
  1  'x, y, z'
loop_
 _atom_site_type_symbol
 _atom_site_label
 _atom_site_symmetry_multiplicity
 _atom_site_fract_x
 _atom_site_fract_y
 _atom_site_fract_z
 _atom_site_occupancy
  Li  Li0  1  0.528080  0.567304  0.673238  1
  Li  Li1  1  0.528080  0.432696  0.173238  1
  V  V2  1  0.540363  0.001243  0.999057  1
  V  V3  1  0.955568  0.957631  0.998017  1
  V  V4  1  0.955568  0.042369  0.498017  1
  V  V5  1  0.540363  0.998757  0.499057  1
  C  C6  1  0.540819  0.567572  0.994401  1
  C  C7  1  0.055835  0.472844  0.006806  1
  C  C8  1  0.026519  0.001890  0.779525  1
  C  C9  1  0.462051  0.004562  0.718043  1
  C  C10  1  0.055835  0.527156  0.506806  1
  C  C11  1  0.540819  0.432428  0.494401  1
  C  C12  1  0.026519  0.998110  0.279525  1
  C  C13  1  0.462051  0.995438  0.218043  1
  O  O14  1  0.571609  0.354473  0.002887  1
  O  O15  1  0.222268  0.508718  0.027100  1
  O  O16  1  0.923752  0.631114  0.986425  1
  O  O17  1  0.990499  0.264183  0.002761  1
  O  O18  1  0.438880  0.689220  0.877890  1
  O  O19  1  0.620270  0.019000  0.862310  1
  O  O20  1  0.217071  0.068478  0.851800  1
  O  O21  1  0.942587  0.922379  0.830947  1
  O  O22  1  0.276991  0.090225  0.661365  1
  O  O23  1  0.503941  0.901842  0.648153  1
  O  O24  1  0.888843  0.014768  0.633127  1
  O  O25  1  0.617337  0.313052  0.611518  1
  O  O26  1  0.923752  0.368886  0.486425  1
  O  O27  1  0.990499  0.735817  0.502761  1
  O  O28  1  0.222268  0.491282  0.527100  1
  O  O29  1  0.571609  0.645527  0.502887  1
  O  O30  1  0.438880  0.310780  0.377890  1
  O  O31  1  0.620270  0.981000  0.362310  1
  O  O32  1  0.217071  0.931522  0.351800  1
  O  O33  1  0.942587  0.077621  0.330947  1
  O  O34  1  0.276991  0.909775  0.161365  1
  O  O35  1  0.503941  0.098158  0.148153  1
  O  O36  1  0.888843  0.985232  0.133127  1
  O  O37  1  0.617337  0.686948  0.111518  1
