# generated using pymatgen
data_Li5CoO3F
_symmetry_space_group_name_H-M   'P 1'
_cell_length_a   6.54263723
_cell_length_b   6.54263723
_cell_length_c   4.75479959
_cell_angle_alpha   80.23566996
_cell_angle_beta   99.76433004
_cell_angle_gamma   91.10002320
_symmetry_Int_Tables_number   1
_chemical_formula_structural   Li5CoO3F
_chemical_formula_sum   'Li10 Co2 O6 F2'
_cell_volume   197.67062867
_cell_formula_units_Z   2
loop_
 _symmetry_equiv_pos_site_id
 _symmetry_equiv_pos_as_xyz
  1  'x, y, z'
loop_
 _atom_site_type_symbol
 _atom_site_label
 _atom_site_symmetry_multiplicity
 _atom_site_fract_x
 _atom_site_fract_y
 _atom_site_fract_z
 _atom_site_occupancy
  Li  Li0  1  0.170237  0.431434  0.626272  1
  Li  Li1  1  0.829763  0.568566  0.373728  1
  Li  Li2  1  0.568566  0.829763  0.626272  1
  Li  Li3  1  0.431434  0.170237  0.373728  1
  Li  Li4  1  0.859916  0.140084  0.618406  1
  Li  Li5  1  0.140084  0.859916  0.381594  1
  Li  Li6  1  0.341380  0.084016  0.883838  1
  Li  Li7  1  0.915984  0.658620  0.883838  1
  Li  Li8  1  0.658620  0.915984  0.116162  1
  Li  Li9  1  0.084016  0.341380  0.116162  1
  Co  Co10  1  0.371811  0.628189  0.123641  1
  Co  Co11  1  0.628189  0.371811  0.876359  1
  O  O12  1  0.893480  0.398753  0.753511  1
  O  O13  1  0.363433  0.363433  0.000000  1
  O  O14  1  0.601247  0.106520  0.753511  1
  O  O15  1  0.636567  0.636567  0.000000  1
  O  O16  1  0.398753  0.893480  0.246489  1
  O  O17  1  0.106520  0.601247  0.246489  1
  F  F18  1  0.147960  0.147960  0.500000  1
  F  F19  1  0.852040  0.852040  0.500000  1
