# generated using pymatgen
data_Rb3TmO3
_symmetry_space_group_name_H-M   'P 1'
_cell_length_a   7.96150265
_cell_length_b   7.36131071
_cell_length_c   11.71309098
_cell_angle_alpha   90.00000000
_cell_angle_beta   94.24887983
_cell_angle_gamma   90.00000000
_symmetry_Int_Tables_number   1
_chemical_formula_structural   Rb3TmO3
_chemical_formula_sum   'Rb12 Tm4 O12'
_cell_volume   684.58356092
_cell_formula_units_Z   4
loop_
 _symmetry_equiv_pos_site_id
 _symmetry_equiv_pos_as_xyz
  1  'x, y, z'
loop_
 _atom_site_type_symbol
 _atom_site_label
 _atom_site_symmetry_multiplicity
 _atom_site_fract_x
 _atom_site_fract_y
 _atom_site_fract_z
 _atom_site_occupancy
  Rb  Rb0  1  0.358031  0.331248  0.921073  1
  Rb  Rb1  1  0.932761  0.620779  0.844999  1
  Rb  Rb2  1  0.375063  0.804145  0.807558  1
  Rb  Rb3  1  0.624937  0.304145  0.692442  1
  Rb  Rb4  1  0.067239  0.120779  0.655001  1
  Rb  Rb5  1  0.641969  0.831248  0.578927  1
  Rb  Rb6  1  0.358031  0.168752  0.421073  1
  Rb  Rb7  1  0.932761  0.879221  0.344999  1
  Rb  Rb8  1  0.375063  0.695855  0.307558  1
  Rb  Rb9  1  0.624937  0.195855  0.192442  1
  Rb  Rb10  1  0.067239  0.379221  0.155001  1
  Rb  Rb11  1  0.641969  0.668752  0.078927  1
  Tm  Tm12  1  0.839990  0.087566  0.933441  1
  Tm  Tm13  1  0.160010  0.587566  0.566559  1
  Tm  Tm14  1  0.839990  0.412434  0.433441  1
  Tm  Tm15  1  0.160010  0.912434  0.066559  1
  O  O16  1  0.748226  0.351604  0.957047  1
  O  O17  1  0.105353  0.050799  0.905259  1
  O  O18  1  0.691269  0.941028  0.812056  1
  O  O19  1  0.308731  0.441028  0.687944  1
  O  O20  1  0.894647  0.550799  0.594741  1
  O  O21  1  0.251774  0.851604  0.542953  1
  O  O22  1  0.748226  0.148396  0.457047  1
  O  O23  1  0.105353  0.449201  0.405259  1
  O  O24  1  0.691269  0.558972  0.312056  1
  O  O25  1  0.308731  0.058972  0.187944  1
  O  O26  1  0.894647  0.949201  0.094741  1
  O  O27  1  0.251774  0.648396  0.042953  1
