# generated using pymatgen
data_LiMn2F7
_symmetry_space_group_name_H-M   'P 1'
_cell_length_a   5.26015887
_cell_length_b   5.53262487
_cell_length_c   9.83247171
_cell_angle_alpha   90.00000000
_cell_angle_beta   100.37816061
_cell_angle_gamma   90.00000000
_symmetry_Int_Tables_number   1
_chemical_formula_structural   LiMn2F7
_chemical_formula_sum   'Li2 Mn4 F14'
_cell_volume   281.46802383
_cell_formula_units_Z   2
loop_
 _symmetry_equiv_pos_site_id
 _symmetry_equiv_pos_as_xyz
  1  'x, y, z'
loop_
 _atom_site_type_symbol
 _atom_site_label
 _atom_site_symmetry_multiplicity
 _atom_site_fract_x
 _atom_site_fract_y
 _atom_site_fract_z
 _atom_site_occupancy
  Li  Li0  1  0.500000  0.083911  0.250000  1
  Li  Li1  1  0.500000  0.916089  0.750000  1
  Mn  Mn2  1  0.932950  0.745332  0.070691  1
  Mn  Mn3  1  0.932950  0.254668  0.570691  1
  Mn  Mn4  1  0.067050  0.745332  0.429309  1
  Mn  Mn5  1  0.067050  0.254668  0.929309  1
  F  F6  1  0.000000  0.586264  0.250000  1
  F  F7  1  0.000000  0.413736  0.750000  1
  F  F8  1  0.836659  0.102646  0.394827  1
  F  F9  1  0.836659  0.897354  0.894827  1
  F  F10  1  0.777744  0.595429  0.480874  1
  F  F11  1  0.777744  0.404571  0.980874  1
  F  F12  1  0.670581  0.899402  0.134977  1
  F  F13  1  0.670581  0.100598  0.634977  1
  F  F14  1  0.329419  0.899402  0.365023  1
  F  F15  1  0.329419  0.100598  0.865023  1
  F  F16  1  0.222256  0.595429  0.019126  1
  F  F17  1  0.222256  0.404571  0.519126  1
  F  F18  1  0.163341  0.102646  0.105173  1
  F  F19  1  0.163341  0.897354  0.605173  1
