# generated using pymatgen
data_LiFeF3
_symmetry_space_group_name_H-M   'P 1'
_cell_length_a   4.99072648
_cell_length_b   8.71973808
_cell_length_c   10.58953546
_cell_angle_alpha   90.00000000
_cell_angle_beta   90.00000000
_cell_angle_gamma   90.00000000
_symmetry_Int_Tables_number   1
_chemical_formula_structural   LiFeF3
_chemical_formula_sum   'Li8 Fe8 F24'
_cell_volume   460.83357975
_cell_formula_units_Z   8
loop_
 _symmetry_equiv_pos_site_id
 _symmetry_equiv_pos_as_xyz
  1  'x, y, z'
loop_
 _atom_site_type_symbol
 _atom_site_label
 _atom_site_symmetry_multiplicity
 _atom_site_fract_x
 _atom_site_fract_y
 _atom_site_fract_z
 _atom_site_occupancy
  Li  Li0  1  0.003594  0.285310  0.899856  1
  Li  Li1  1  0.496406  0.285310  0.399856  1
  Li  Li2  1  0.496406  0.214690  0.899856  1
  Li  Li3  1  0.003594  0.214690  0.399856  1
  Li  Li4  1  0.996406  0.785310  0.600144  1
  Li  Li5  1  0.503594  0.785310  0.100144  1
  Li  Li6  1  0.503594  0.714690  0.600144  1
  Li  Li7  1  0.996406  0.714690  0.100144  1
  Fe  Fe8  1  0.006852  0.413880  0.637091  1
  Fe  Fe9  1  0.493148  0.413880  0.137091  1
  Fe  Fe10  1  0.006852  0.086120  0.137091  1
  Fe  Fe11  1  0.493148  0.086120  0.637091  1
  Fe  Fe12  1  0.993148  0.913880  0.862909  1
  Fe  Fe13  1  0.506852  0.913880  0.362909  1
  Fe  Fe14  1  0.993148  0.586120  0.362909  1
  Fe  Fe15  1  0.506852  0.586120  0.862909  1
  F  F16  1  0.773634  0.416110  0.803603  1
  F  F17  1  0.726366  0.416110  0.303603  1
  F  F18  1  0.196272  0.404785  0.455720  1
  F  F19  1  0.303728  0.404785  0.955720  1
  F  F20  1  0.250000  0.250000  0.723567  1
  F  F21  1  0.250000  0.250000  0.223567  1
  F  F22  1  0.750000  0.250000  0.546645  1
  F  F23  1  0.750000  0.250000  0.046645  1
  F  F24  1  0.303728  0.095215  0.455720  1
  F  F25  1  0.196272  0.095215  0.955720  1
  F  F26  1  0.773634  0.083890  0.303603  1
  F  F27  1  0.726366  0.083890  0.803603  1
  F  F28  1  0.226366  0.916110  0.696397  1
  F  F29  1  0.273634  0.916110  0.196397  1
  F  F30  1  0.696272  0.904785  0.544280  1
  F  F31  1  0.803728  0.904785  0.044280  1
  F  F32  1  0.250000  0.750000  0.953355  1
  F  F33  1  0.250000  0.750000  0.453355  1
  F  F34  1  0.750000  0.750000  0.776433  1
  F  F35  1  0.750000  0.750000  0.276433  1
  F  F36  1  0.696272  0.595215  0.044280  1
  F  F37  1  0.803728  0.595215  0.544280  1
  F  F38  1  0.226366  0.583890  0.196397  1
  F  F39  1  0.273634  0.583890  0.696397  1
