# generated using pymatgen
data_Li3Co5OF11
_symmetry_space_group_name_H-M   'P 1'
_cell_length_a   5.23416560
_cell_length_b   5.57849398
_cell_length_c   9.07155545
_cell_angle_alpha   105.96628153
_cell_angle_beta   89.96304229
_cell_angle_gamma   117.42631730
_symmetry_Int_Tables_number   1
_chemical_formula_structural   Li3Co5OF11
_chemical_formula_sum   'Li3 Co5 O1 F11'
_cell_volume   223.55771132
_cell_formula_units_Z   1
loop_
 _symmetry_equiv_pos_site_id
 _symmetry_equiv_pos_as_xyz
  1  'x, y, z'
loop_
 _atom_site_type_symbol
 _atom_site_label
 _atom_site_symmetry_multiplicity
 _atom_site_fract_x
 _atom_site_fract_y
 _atom_site_fract_z
 _atom_site_occupancy
  Li  Li0  1  0.790179  0.635970  0.941654  1
  Li  Li1  1  0.278054  0.132965  0.422996  1
  Li  Li2  1  0.211907  0.350068  0.072881  1
  Co  Co3  1  0.478825  0.126487  0.826243  1
  Co  Co4  1  0.968584  0.633804  0.335000  1
  Co  Co5  1  0.022583  0.399883  0.668815  1
  Co  Co6  1  0.518313  0.865368  0.172038  1
  Co  Co7  1  0.743854  0.860805  0.573458  1
  O  O8  1  0.971594  0.718527  0.524315  1
  F  F9  1  0.028473  0.981543  0.779017  1
  F  F10  1  0.519945  0.470325  0.271408  1
  F  F11  1  0.570500  0.110631  0.628950  1
  F  F12  1  0.924556  0.373488  0.876545  1
  F  F13  1  0.465243  0.211966  0.026733  1
  F  F14  1  0.523267  0.779169  0.967477  1
  F  F15  1  0.041697  0.281062  0.470671  1
  F  F16  1  0.069283  0.637549  0.133521  1
  F  F17  1  0.445997  0.882315  0.374773  1
  F  F18  1  0.469147  0.518866  0.721649  1
  F  F19  1  0.957999  0.029211  0.211855  1
