# generated using pymatgen
data_Li3Cu4SnO8
_symmetry_space_group_name_H-M   'P 1'
_cell_length_a   6.24745262
_cell_length_b   6.24745262
_cell_length_c   5.82704493
_cell_angle_alpha   62.74898970
_cell_angle_beta   117.25101030
_cell_angle_gamma   124.52210743
_symmetry_Int_Tables_number   1
_chemical_formula_structural   Li3Cu4SnO8
_chemical_formula_sum   'Li3 Cu4 Sn1 O8'
_cell_volume   160.35911828
_cell_formula_units_Z   1
loop_
 _symmetry_equiv_pos_site_id
 _symmetry_equiv_pos_as_xyz
  1  'x, y, z'
loop_
 _atom_site_type_symbol
 _atom_site_label
 _atom_site_symmetry_multiplicity
 _atom_site_fract_x
 _atom_site_fract_y
 _atom_site_fract_z
 _atom_site_occupancy
  Li  Li0  1  0.000000  0.500000  0.500000  1
  Li  Li1  1  0.000000  0.000000  0.000000  1
  Li  Li2  1  0.500000  0.000000  0.500000  1
  Cu  Cu3  1  0.500000  0.500000  0.000000  1
  Cu  Cu4  1  0.000000  0.000000  0.500000  1
  Cu  Cu5  1  0.000000  0.500000  0.000000  1
  Cu  Cu6  1  0.500000  0.000000  0.000000  1
  Sn  Sn7  1  0.500000  0.500000  0.500000  1
  O  O8  1  0.274176  0.725824  0.243827  1
  O  O9  1  0.241220  0.291400  0.740646  1
  O  O10  1  0.708600  0.758780  0.740646  1
  O  O11  1  0.795581  0.204419  0.258486  1
  O  O12  1  0.204419  0.795581  0.741514  1
  O  O13  1  0.291400  0.241220  0.259354  1
  O  O14  1  0.758780  0.708600  0.259354  1
  O  O15  1  0.725824  0.274176  0.756173  1
