# generated using pymatgen
data_Li3Fe4(BO3)4
_symmetry_space_group_name_H-M   'P 1'
_cell_length_a   5.24471855
_cell_length_b   9.01189844
_cell_length_c   11.39454495
_cell_angle_alpha   112.66539339
_cell_angle_beta   102.77153975
_cell_angle_gamma   89.66994885
_symmetry_Int_Tables_number   1
_chemical_formula_structural   Li3Fe4(BO3)4
_chemical_formula_sum   'Li6 Fe8 B8 O24'
_cell_volume   482.78241097
_cell_formula_units_Z   2
loop_
 _symmetry_equiv_pos_site_id
 _symmetry_equiv_pos_as_xyz
  1  'x, y, z'
loop_
 _atom_site_type_symbol
 _atom_site_label
 _atom_site_symmetry_multiplicity
 _atom_site_fract_x
 _atom_site_fract_y
 _atom_site_fract_z
 _atom_site_occupancy
  Li  Li0  1  0.029624  0.037629  0.414732  1
  Li  Li1  1  0.292608  0.276671  0.903160  1
  Li  Li2  1  0.484006  0.510003  0.666352  1
  Li  Li3  1  0.259795  0.240016  0.159159  1
  Li  Li4  1  0.528300  0.538177  0.410852  1
  Li  Li5  1  0.769370  0.745585  0.162832  1
  Fe  Fe6  1  0.013542  0.352962  0.379769  1
  Fe  Fe7  1  0.262893  0.930455  0.880355  1
  Fe  Fe8  1  0.494012  0.150382  0.631731  1
  Fe  Fe9  1  0.245036  0.567325  0.131432  1
  Fe  Fe10  1  0.774530  0.453501  0.887843  1
  Fe  Fe11  1  0.526771  0.849982  0.381044  1
  Fe  Fe12  1  0.964677  0.663493  0.634532  1
  Fe  Fe13  1  0.745246  0.056733  0.123620  1
  B  B14  1  0.019908  0.686053  0.375185  1
  B  B15  1  0.265366  0.600069  0.874066  1
  B  B16  1  0.465202  0.813577  0.629953  1
  B  B17  1  0.238163  0.893915  0.127822  1
  B  B18  1  0.525624  0.189791  0.381634  1
  B  B19  1  0.764124  0.105388  0.876100  1
  B  B20  1  0.989987  0.318137  0.626451  1
  B  B21  1  0.732758  0.392931  0.126418  1
  O  O22  1  0.029625  0.101967  0.883793  1
  O  O23  1  0.112999  0.718850  0.850895  1
  O  O24  1  0.164688  0.490276  0.914932  1
  O  O25  1  0.129468  0.186443  0.623882  1
  O  O26  1  0.094458  0.436546  0.597231  1
  O  O27  1  0.253176  0.843348  0.687081  1
  O  O28  1  0.263578  0.657467  0.343779  1
  O  O29  1  0.511574  0.591862  0.853501  1
  O  O30  1  0.617588  0.211873  0.829920  1
  O  O31  1  0.415826  0.087127  0.428325  1
  O  O32  1  0.392988  0.312865  0.361658  1
  O  O33  1  0.632606  0.010505  0.918423  1
  O  O34  1  0.338510  0.002859  0.084193  1
  O  O35  1  0.578578  0.669807  0.606666  1
  O  O36  1  0.557752  0.926326  0.590122  1
  O  O37  1  0.404455  0.789617  0.164667  1
  O  O38  1  0.464367  0.373748  0.110734  1
  O  O39  1  0.741401  0.330134  0.655145  1
  O  O40  1  0.769840  0.161459  0.351442  1
  O  O41  1  0.906158  0.583810  0.417970  1
  O  O42  1  0.893899  0.815728  0.362548  1
  O  O43  1  0.841088  0.511705  0.096633  1
  O  O44  1  0.895049  0.290188  0.166804  1
  O  O45  1  0.984516  0.893383  0.137654  1
