# generated using pymatgen
data_NaBiAsCO7
_symmetry_space_group_name_H-M   'P 1'
_cell_length_a   5.63077454
_cell_length_b   7.21278357
_cell_length_c   9.72474091
_cell_angle_alpha   90.00000000
_cell_angle_beta   90.61930277
_cell_angle_gamma   90.00000000
_symmetry_Int_Tables_number   1
_chemical_formula_structural   NaBiAsCO7
_chemical_formula_sum   'Na2 Bi2 As2 C2 O14'
_cell_volume   394.93325844
_cell_formula_units_Z   2
loop_
 _symmetry_equiv_pos_site_id
 _symmetry_equiv_pos_as_xyz
  1  'x, y, z'
loop_
 _atom_site_type_symbol
 _atom_site_label
 _atom_site_symmetry_multiplicity
 _atom_site_fract_x
 _atom_site_fract_y
 _atom_site_fract_z
 _atom_site_occupancy
  Na  Na0  1  0.767899  0.509376  0.210825  1
  Na  Na1  1  0.232101  0.009376  0.789175  1
  Bi  Bi2  1  0.210861  0.235040  0.355494  1
  Bi  Bi3  1  0.789139  0.735040  0.644506  1
  As  As4  1  0.280675  0.741983  0.420122  1
  As  As5  1  0.719325  0.241983  0.579878  1
  C  C6  1  0.277615  0.264729  0.071672  1
  C  C7  1  0.722385  0.764729  0.928328  1
  O  O8  1  0.693977  0.740813  0.055671  1
  O  O9  1  0.065435  0.264666  0.126405  1
  O  O10  1  0.459988  0.286767  0.154993  1
  O  O11  1  0.194577  0.926384  0.319310  1
  O  O12  1  0.156130  0.554635  0.337206  1
  O  O13  1  0.821158  0.262989  0.411922  1
  O  O14  1  0.584343  0.714768  0.432526  1
  O  O15  1  0.415657  0.214768  0.567474  1
  O  O16  1  0.178842  0.762989  0.588078  1
  O  O17  1  0.843870  0.054635  0.662794  1
  O  O18  1  0.805423  0.426384  0.680690  1
  O  O19  1  0.540012  0.786767  0.845007  1
  O  O20  1  0.934565  0.764666  0.873595  1
  O  O21  1  0.306023  0.240813  0.944329  1
