# generated using pymatgen
data_Li6Bi2O7
_symmetry_space_group_name_H-M   'P 1'
_cell_length_a   5.59324790
_cell_length_b   6.30793280
_cell_length_c   10.89085519
_cell_angle_alpha   90.00000000
_cell_angle_beta   109.36570024
_cell_angle_gamma   90.00000000
_symmetry_Int_Tables_number   1
_chemical_formula_structural   Li6Bi2O7
_chemical_formula_sum   'Li12 Bi4 O14'
_cell_volume   362.50900868
_cell_formula_units_Z   2
loop_
 _symmetry_equiv_pos_site_id
 _symmetry_equiv_pos_as_xyz
  1  'x, y, z'
loop_
 _atom_site_type_symbol
 _atom_site_label
 _atom_site_symmetry_multiplicity
 _atom_site_fract_x
 _atom_site_fract_y
 _atom_site_fract_z
 _atom_site_occupancy
  Li  Li0  1  0.202069  0.785234  0.850699  1
  Li  Li1  1  0.214151  0.240120  0.859902  1
  Li  Li2  1  0.844763  0.491467  0.879017  1
  Li  Li3  1  0.785849  0.740120  0.640098  1
  Li  Li4  1  0.797931  0.285234  0.649301  1
  Li  Li5  1  0.155237  0.991467  0.620983  1
  Li  Li6  1  0.844763  0.008533  0.379017  1
  Li  Li7  1  0.202069  0.714766  0.350699  1
  Li  Li8  1  0.214151  0.259880  0.359902  1
  Li  Li9  1  0.155237  0.508533  0.120983  1
  Li  Li10  1  0.785849  0.759880  0.140098  1
  Li  Li11  1  0.797931  0.214766  0.149301  1
  Bi  Bi12  1  0.729745  0.009811  0.867543  1
  Bi  Bi13  1  0.270255  0.509811  0.632457  1
  Bi  Bi14  1  0.729745  0.490189  0.367543  1
  Bi  Bi15  1  0.270255  0.990189  0.132457  1
  O  O16  1  0.500000  0.000000  0.000000  1
  O  O17  1  0.980245  0.751724  0.994131  1
  O  O18  1  0.969727  0.013819  0.746304  1
  O  O19  1  0.030273  0.513819  0.753696  1
  O  O20  1  0.536008  0.302314  0.774593  1
  O  O21  1  0.463992  0.802314  0.725407  1
  O  O22  1  0.019755  0.251724  0.505869  1
  O  O23  1  0.980245  0.748276  0.494131  1
  O  O24  1  0.500000  0.500000  0.500000  1
  O  O25  1  0.536008  0.197686  0.274593  1
  O  O26  1  0.463992  0.697686  0.225407  1
  O  O27  1  0.969727  0.486181  0.246304  1
  O  O28  1  0.030273  0.986181  0.253696  1
  O  O29  1  0.019755  0.248276  0.005869  1
