# generated using pymatgen
data_Li9(CoO4)2
_symmetry_space_group_name_H-M   'P 1'
_cell_length_a   9.11957232
_cell_length_b   9.27685084
_cell_length_c   9.30084720
_cell_angle_alpha   90.00000000
_cell_angle_beta   90.00000000
_cell_angle_gamma   90.00000000
_symmetry_Int_Tables_number   1
_chemical_formula_structural   Li9(CoO4)2
_chemical_formula_sum   'Li36 Co8 O32'
_cell_volume   786.86015677
_cell_formula_units_Z   4
loop_
 _symmetry_equiv_pos_site_id
 _symmetry_equiv_pos_as_xyz
  1  'x, y, z'
loop_
 _atom_site_type_symbol
 _atom_site_label
 _atom_site_symmetry_multiplicity
 _atom_site_fract_x
 _atom_site_fract_y
 _atom_site_fract_z
 _atom_site_occupancy
  Li  Li0  1  0.862269  0.368564  0.646575  1
  Li  Li1  1  0.362269  0.131436  0.646575  1
  Li  Li2  1  0.165399  0.891051  0.633678  1
  Li  Li3  1  0.665399  0.608949  0.633678  1
  Li  Li4  1  0.640447  0.150649  0.633329  1
  Li  Li5  1  0.140447  0.349351  0.633329  1
  Li  Li6  1  0.584520  0.878557  0.588909  1
  Li  Li7  1  0.084520  0.621443  0.588909  1
  Li  Li8  1  0.084520  0.121443  0.411091  1
  Li  Li9  1  0.584520  0.378557  0.411091  1
  Li  Li10  1  0.140447  0.849351  0.366671  1
  Li  Li11  1  0.640447  0.650649  0.366671  1
  Li  Li12  1  0.165399  0.391051  0.366322  1
  Li  Li13  1  0.665399  0.108949  0.366322  1
  Li  Li14  1  0.862269  0.868564  0.353425  1
  Li  Li15  1  0.362269  0.631436  0.353425  1
  Li  Li16  1  0.642250  0.384669  0.134485  1
  Li  Li17  1  0.142250  0.115331  0.134485  1
  Li  Li18  1  0.345613  0.884816  0.139607  1
  Li  Li19  1  0.845613  0.615184  0.139607  1
  Li  Li20  1  0.371775  0.351244  0.128044  1
  Li  Li21  1  0.871775  0.148756  0.128044  1
  Li  Li22  1  0.104303  0.380033  0.098752  1
  Li  Li23  1  0.604303  0.119967  0.098752  1
  Li  Li24  1  0.895635  0.885875  0.087041  1
  Li  Li25  1  0.395635  0.614125  0.087041  1
  Li  Li26  1  0.895635  0.385875  0.912959  1
  Li  Li27  1  0.395635  0.114125  0.912959  1
  Li  Li28  1  0.604303  0.619967  0.901248  1
  Li  Li29  1  0.104303  0.880033  0.901248  1
  Li  Li30  1  0.371775  0.851244  0.871956  1
  Li  Li31  1  0.871775  0.648756  0.871956  1
  Li  Li32  1  0.345613  0.384816  0.860393  1
  Li  Li33  1  0.845613  0.115184  0.860393  1
  Li  Li34  1  0.642250  0.884669  0.865515  1
  Li  Li35  1  0.142250  0.615331  0.865515  1
  Co  Co36  1  0.878057  0.868946  0.627307  1
  Co  Co37  1  0.378057  0.631054  0.627307  1
  Co  Co38  1  0.878057  0.368946  0.372693  1
  Co  Co39  1  0.378057  0.131054  0.372693  1
  Co  Co40  1  0.620445  0.850566  0.137898  1
  Co  Co41  1  0.120445  0.649434  0.137898  1
  Co  Co42  1  0.620445  0.350566  0.862102  1
  Co  Co43  1  0.120445  0.149434  0.862102  1
  O  O44  1  0.502780  0.738897  0.741145  1
  O  O45  1  0.002780  0.761103  0.741145  1
  O  O46  1  0.751290  0.985843  0.719557  1
  O  O47  1  0.251290  0.514157  0.719557  1
  O  O48  1  0.001258  0.951507  0.502076  1
  O  O49  1  0.501258  0.548493  0.502076  1
  O  O50  1  0.754910  0.764160  0.513563  1
  O  O51  1  0.254910  0.735840  0.513563  1
  O  O52  1  0.754910  0.264160  0.486437  1
  O  O53  1  0.254910  0.235840  0.486437  1
  O  O54  1  0.001258  0.451507  0.497924  1
  O  O55  1  0.501258  0.048493  0.497924  1
  O  O56  1  0.751290  0.485843  0.280443  1
  O  O57  1  0.251290  0.014157  0.280443  1
  O  O58  1  0.502780  0.238897  0.258855  1
  O  O59  1  0.002780  0.261103  0.258855  1
  O  O60  1  0.994038  0.762650  0.230636  1
  O  O61  1  0.494038  0.737350  0.230636  1
  O  O62  1  0.747139  0.990124  0.215269  1
  O  O63  1  0.247139  0.509876  0.215269  1
  O  O64  1  0.500448  0.962170  0.006658  1
  O  O65  1  0.000448  0.537830  0.006658  1
  O  O66  1  0.742034  0.751429  0.001588  1
  O  O67  1  0.242034  0.748571  0.001588  1
  O  O68  1  0.742034  0.251429  0.998412  1
  O  O69  1  0.242034  0.248571  0.998412  1
  O  O70  1  0.500448  0.462170  0.993342  1
  O  O71  1  0.000448  0.037830  0.993342  1
  O  O72  1  0.247139  0.009876  0.784731  1
  O  O73  1  0.747139  0.490124  0.784731  1
  O  O74  1  0.994038  0.262650  0.769364  1
  O  O75  1  0.494038  0.237350  0.769364  1
