# generated using pymatgen
data_Li4CrO5
_symmetry_space_group_name_H-M   'P 1'
_cell_length_a   5.00994190
_cell_length_b   8.86936963
_cell_length_c   8.91559469
_cell_angle_alpha   113.35526801
_cell_angle_beta   96.74589125
_cell_angle_gamma   96.45095975
_symmetry_Int_Tables_number   1
_chemical_formula_structural   Li4CrO5
_chemical_formula_sum   'Li16 Cr4 O20'
_cell_volume   355.65725014
_cell_formula_units_Z   4
loop_
 _symmetry_equiv_pos_site_id
 _symmetry_equiv_pos_as_xyz
  1  'x, y, z'
loop_
 _atom_site_type_symbol
 _atom_site_label
 _atom_site_symmetry_multiplicity
 _atom_site_fract_x
 _atom_site_fract_y
 _atom_site_fract_z
 _atom_site_occupancy
  Li  Li0  1  0.515873  0.104456  0.914628  1
  Li  Li1  1  0.976822  0.199692  0.802360  1
  Li  Li2  1  0.745674  0.047931  0.461780  1
  Li  Li3  1  0.284371  0.156778  0.356584  1
  Li  Li4  1  0.000000  0.000000  0.000000  1
  Li  Li5  1  0.003479  0.395955  0.594935  1
  Li  Li6  1  0.214584  0.549763  0.934975  1
  Li  Li7  1  0.742287  0.642942  0.839564  1
  Li  Li8  1  0.500000  0.500000  0.500000  1
  Li  Li9  1  0.257713  0.357058  0.160436  1
  Li  Li10  1  0.785416  0.450237  0.065025  1
  Li  Li11  1  0.996521  0.604045  0.405065  1
  Li  Li12  1  0.715629  0.843222  0.643416  1
  Li  Li13  1  0.254326  0.952069  0.538220  1
  Li  Li14  1  0.023178  0.800308  0.197640  1
  Li  Li15  1  0.484127  0.895544  0.085372  1
  Cr  Cr16  1  0.477160  0.298987  0.739435  1
  Cr  Cr17  1  0.787451  0.213647  0.246535  1
  Cr  Cr18  1  0.212549  0.786353  0.753465  1
  Cr  Cr19  1  0.522840  0.701013  0.260565  1
  O  O20  1  0.608823  0.103180  0.681058  1
  O  O21  1  0.894787  0.031332  0.222958  1
  O  O22  1  0.367857  0.319782  0.917933  1
  O  O23  1  0.178154  0.181212  0.585309  1
  O  O24  1  0.829594  0.405045  0.817652  1
  O  O25  1  0.659610  0.272401  0.436175  1
  O  O26  1  0.436197  0.143070  0.140530  1
  O  O27  1  0.870313  0.228933  0.056587  1
  O  O28  1  0.398113  0.479048  0.714506  1
  O  O29  1  0.086326  0.364381  0.357219  1
  O  O30  1  0.913674  0.635619  0.642781  1
  O  O31  1  0.601887  0.520952  0.285494  1
  O  O32  1  0.129687  0.771067  0.943413  1
  O  O33  1  0.563803  0.856930  0.859470  1
  O  O34  1  0.340390  0.727599  0.563825  1
  O  O35  1  0.170406  0.594955  0.182348  1
  O  O36  1  0.821846  0.818788  0.414691  1
  O  O37  1  0.632143  0.680218  0.082067  1
  O  O38  1  0.105213  0.968668  0.777042  1
  O  O39  1  0.391177  0.896820  0.318942  1
