# generated using pymatgen
data_Li4Ti3Fe3(CuO8)2
_symmetry_space_group_name_H-M   'P 1'
_cell_length_a   5.93973421
_cell_length_b   5.93973421
_cell_length_c   9.61446644
_cell_angle_alpha   89.17020366
_cell_angle_beta   90.82979634
_cell_angle_gamma   120.43523962
_symmetry_Int_Tables_number   1
_chemical_formula_structural   Li4Ti3Fe3(CuO8)2
_chemical_formula_sum   'Li4 Ti3 Fe3 Cu2 O16'
_cell_volume   292.42056070
_cell_formula_units_Z   1
loop_
 _symmetry_equiv_pos_site_id
 _symmetry_equiv_pos_as_xyz
  1  'x, y, z'
loop_
 _atom_site_type_symbol
 _atom_site_label
 _atom_site_symmetry_multiplicity
 _atom_site_fract_x
 _atom_site_fract_y
 _atom_site_fract_z
 _atom_site_occupancy
  Li  Li0  1  0.665295  0.334705  0.896016  1
  Li  Li1  1  0.994502  0.005498  0.994941  1
  Li  Li2  1  0.996558  0.003442  0.495739  1
  Li  Li3  1  0.330464  0.669536  0.397031  1
  Ti  Ti4  1  0.339093  0.175153  0.211432  1
  Ti  Ti5  1  0.824847  0.660907  0.211432  1
  Ti  Ti6  1  0.168804  0.831196  0.713585  1
  Fe  Fe7  1  0.829265  0.170735  0.212252  1
  Fe  Fe8  1  0.170173  0.341519  0.711462  1
  Fe  Fe9  1  0.658481  0.829827  0.711462  1
  Cu  Cu10  1  0.664924  0.335076  0.486696  1
  Cu  Cu11  1  0.335009  0.664991  0.985472  1
  O  O12  1  0.331608  0.164811  0.602831  1
  O  O13  1  0.516412  0.483588  0.334515  1
  O  O14  1  0.658572  0.341428  0.102269  1
  O  O15  1  0.000267  0.999733  0.310285  1
  O  O16  1  0.000488  0.999512  0.808899  1
  O  O17  1  0.835189  0.668392  0.602831  1
  O  O18  1  0.514518  0.046116  0.339755  1
  O  O19  1  0.953884  0.485482  0.339755  1
  O  O20  1  0.161180  0.838820  0.106321  1
  O  O21  1  0.833755  0.166245  0.601737  1
  O  O22  1  0.042392  0.530425  0.841456  1
  O  O23  1  0.469575  0.957608  0.841456  1
  O  O24  1  0.326610  0.673390  0.601908  1
  O  O25  1  0.168447  0.332162  0.102614  1
  O  O26  1  0.477835  0.522165  0.838493  1
  O  O27  1  0.667838  0.831553  0.102614  1
