# generated using pymatgen
data_Ti2Mn3Te3O16
_symmetry_space_group_name_H-M   'P 1'
_cell_length_a   6.40029407
_cell_length_b   6.40029407
_cell_length_c   9.34028395
_cell_angle_alpha   86.63328546
_cell_angle_beta   93.36671454
_cell_angle_gamma   122.41129636
_symmetry_Int_Tables_number   1
_chemical_formula_structural   Ti2Mn3Te3O16
_chemical_formula_sum   'Ti2 Mn3 Te3 O16'
_cell_volume   322.28449520
_cell_formula_units_Z   1
loop_
 _symmetry_equiv_pos_site_id
 _symmetry_equiv_pos_as_xyz
  1  'x, y, z'
loop_
 _atom_site_type_symbol
 _atom_site_label
 _atom_site_symmetry_multiplicity
 _atom_site_fract_x
 _atom_site_fract_y
 _atom_site_fract_z
 _atom_site_occupancy
  Ti  Ti0  1  0.678374  0.321626  0.510345  1
  Ti  Ti1  1  0.362654  0.637346  0.964648  1
  Mn  Mn2  1  0.822990  0.177010  0.203185  1
  Mn  Mn3  1  0.175513  0.324348  0.693849  1
  Mn  Mn4  1  0.675652  0.824487  0.693849  1
  Te  Te5  1  0.326038  0.175356  0.216814  1
  Te  Te6  1  0.824644  0.673962  0.216814  1
  Te  Te7  1  0.176501  0.823499  0.715776  1
  O  O8  1  0.360205  0.149654  0.600649  1
  O  O9  1  0.517016  0.482984  0.339089  1
  O  O10  1  0.637319  0.362681  0.099051  1
  O  O11  1  0.005334  0.994666  0.323930  1
  O  O12  1  0.023786  0.976214  0.798253  1
  O  O13  1  0.850346  0.639795  0.600649  1
  O  O14  1  0.498218  0.060975  0.337581  1
  O  O15  1  0.939025  0.501782  0.337581  1
  O  O16  1  0.143797  0.856203  0.110788  1
  O  O17  1  0.825870  0.174130  0.584831  1
  O  O18  1  0.055739  0.535917  0.851928  1
  O  O19  1  0.464083  0.944261  0.851928  1
  O  O20  1  0.314661  0.685339  0.602496  1
  O  O21  1  0.181944  0.336298  0.106287  1
  O  O22  1  0.476663  0.523337  0.847824  1
  O  O23  1  0.663702  0.818056  0.106287  1
