# generated using pymatgen
data_Fe4OF7
_symmetry_space_group_name_H-M   'P 1'
_cell_length_a   5.80228232
_cell_length_b   5.80228232
_cell_length_c   4.79182054
_cell_angle_alpha   88.76885226
_cell_angle_beta   91.23114774
_cell_angle_gamma   111.05565952
_symmetry_Int_Tables_number   1
_chemical_formula_structural   Fe4OF7
_chemical_formula_sum   'Fe4 O1 F7'
_cell_volume   150.50130389
_cell_formula_units_Z   1
loop_
 _symmetry_equiv_pos_site_id
 _symmetry_equiv_pos_as_xyz
  1  'x, y, z'
loop_
 _atom_site_type_symbol
 _atom_site_label
 _atom_site_symmetry_multiplicity
 _atom_site_fract_x
 _atom_site_fract_y
 _atom_site_fract_z
 _atom_site_occupancy
  Fe  Fe0  1  0.512591  0.487409  0.521093  1
  Fe  Fe1  1  0.998211  0.001789  0.501753  1
  Fe  Fe2  1  0.501451  0.010269  0.990924  1
  Fe  Fe3  1  0.989731  0.498549  0.990924  1
  O  O4  1  0.650205  0.349795  0.792210  1
  F  F5  1  0.147566  0.852434  0.802160  1
  F  F6  1  0.165809  0.362056  0.691409  1
  F  F7  1  0.637944  0.834191  0.691409  1
  F  F8  1  0.837006  0.645950  0.304427  1
  F  F9  1  0.354050  0.162994  0.304427  1
  F  F10  1  0.852795  0.147205  0.198690  1
  F  F11  1  0.352644  0.647356  0.210575  1
