# generated using pymatgen
data_Li3Fe2(SiO4)2
_symmetry_space_group_name_H-M   'P 1'
_cell_length_a   5.03224935
_cell_length_b   5.33396400
_cell_length_c   6.63999145
_cell_angle_alpha   90.51656742
_cell_angle_beta   90.09538095
_cell_angle_gamma   90.66007866
_symmetry_Int_Tables_number   1
_chemical_formula_structural   Li3Fe2(SiO4)2
_chemical_formula_sum   'Li3 Fe2 Si2 O8'
_cell_volume   178.21021802
_cell_formula_units_Z   1
loop_
 _symmetry_equiv_pos_site_id
 _symmetry_equiv_pos_as_xyz
  1  'x, y, z'
loop_
 _atom_site_type_symbol
 _atom_site_label
 _atom_site_symmetry_multiplicity
 _atom_site_fract_x
 _atom_site_fract_y
 _atom_site_fract_z
 _atom_site_occupancy
  Li  Li0  1  0.500539  0.174350  0.006554  1
  Li  Li1  1  0.005299  0.814317  0.503026  1
  Li  Li2  1  0.996682  0.346162  0.760469  1
  Fe  Fe3  1  0.003661  0.817670  0.019213  1
  Fe  Fe4  1  0.499633  0.174783  0.499525  1
  Si  Si5  1  0.002081  0.324876  0.252621  1
  Si  Si6  1  0.513063  0.685779  0.752144  1
  O  O7  1  0.890345  0.194151  0.041326  1
  O  O8  1  0.324803  0.266532  0.262907  1
  O  O9  1  0.941102  0.621222  0.265999  1
  O  O10  1  0.876943  0.183428  0.460280  1
  O  O11  1  0.398227  0.843638  0.556072  1
  O  O12  1  0.840932  0.686714  0.749309  1
  O  O13  1  0.405785  0.385650  0.729774  1
  O  O14  1  0.398835  0.820289  0.953459  1
