# generated using pymatgen
data_La2H22S6N6O23
_symmetry_space_group_name_H-M   'P 1'
_cell_length_a   11.37983779
_cell_length_b   11.37983779
_cell_length_c   14.27475201
_cell_angle_alpha   66.85885385
_cell_angle_beta   113.14114615
_cell_angle_gamma   131.10650501
_symmetry_Int_Tables_number   1
_chemical_formula_structural   La2H22S6N6O23
_chemical_formula_sum   'La4 H44 S12 N12 O46'
_cell_volume   1256.41194998
_cell_formula_units_Z   2
loop_
 _symmetry_equiv_pos_site_id
 _symmetry_equiv_pos_as_xyz
  1  'x, y, z'
loop_
 _atom_site_type_symbol
 _atom_site_label
 _atom_site_symmetry_multiplicity
 _atom_site_fract_x
 _atom_site_fract_y
 _atom_site_fract_z
 _atom_site_occupancy
  La  La0  1  0.259713  0.804909  0.891007  1
  La  La1  1  0.195091  0.740287  0.391007  1
  La  La2  1  0.804909  0.259713  0.608993  1
  La  La3  1  0.740287  0.195091  0.108993  1
  H  H4  1  0.646193  0.524000  0.904164  1
  H  H5  1  0.971715  0.103435  0.763895  1
  H  H6  1  0.305533  0.478222  0.737210  1
  H  H7  1  0.765487  0.552540  0.843863  1
  H  H8  1  0.893673  0.837247  0.806634  1
  H  H9  1  0.837247  0.893673  0.693366  1
  H  H10  1  0.552540  0.765487  0.656137  1
  H  H11  1  0.842432  0.025263  0.975160  1
  H  H12  1  0.478222  0.305533  0.762790  1
  H  H13  1  0.103435  0.971715  0.736105  1
  H  H14  1  0.792768  0.847652  0.978378  1
  H  H15  1  0.936356  0.529044  0.785019  1
  H  H16  1  0.524000  0.646193  0.595836  1
  H  H17  1  0.955231  0.679052  0.704900  1
  H  H18  1  0.237597  0.036874  0.676910  1
  H  H19  1  0.537112  0.328654  0.661157  1
  H  H20  1  0.328654  0.537112  0.838843  1
  H  H21  1  0.036874  0.237597  0.823090  1
  H  H22  1  0.679052  0.955231  0.795100  1
  H  H23  1  0.974737  0.157568  0.475160  1
  H  H24  1  0.529044  0.936356  0.714981  1
  H  H25  1  0.847652  0.792768  0.521622  1
  H  H26  1  0.152348  0.207232  0.478378  1
  H  H27  1  0.470956  0.063644  0.285019  1
  H  H28  1  0.025263  0.842432  0.524840  1
  H  H29  1  0.320948  0.044769  0.204900  1
  H  H30  1  0.963126  0.762403  0.176910  1
  H  H31  1  0.671346  0.462888  0.161157  1
  H  H32  1  0.462888  0.671346  0.338843  1
  H  H33  1  0.762403  0.963126  0.323090  1
  H  H34  1  0.044769  0.320948  0.295100  1
  H  H35  1  0.476000  0.353807  0.404164  1
  H  H36  1  0.063644  0.470956  0.214981  1
  H  H37  1  0.207232  0.152348  0.021622  1
  H  H38  1  0.896565  0.028285  0.263895  1
  H  H39  1  0.521778  0.694467  0.237210  1
  H  H40  1  0.157568  0.974737  0.024840  1
  H  H41  1  0.447460  0.234513  0.343863  1
  H  H42  1  0.162753  0.106327  0.306634  1
  H  H43  1  0.106327  0.162753  0.193366  1
  H  H44  1  0.234513  0.447460  0.156137  1
  H  H45  1  0.694467  0.521778  0.262790  1
  H  H46  1  0.028285  0.896565  0.236105  1
  H  H47  1  0.353807  0.476000  0.095836  1
  S  S48  1  0.895666  0.639530  0.993910  1
  S  S49  1  0.390027  0.174424  0.977255  1
  S  S50  1  0.632595  0.226185  0.810639  1
  S  S51  1  0.174424  0.390027  0.522745  1
  S  S52  1  0.639530  0.895666  0.506090  1
  S  S53  1  0.226185  0.632595  0.689361  1
  S  S54  1  0.773815  0.367405  0.310639  1
  S  S55  1  0.360470  0.104334  0.493910  1
  S  S56  1  0.825576  0.609973  0.477255  1
  S  S57  1  0.367405  0.773815  0.189361  1
  S  S58  1  0.609973  0.825576  0.022745  1
  S  S59  1  0.104334  0.360470  0.006090  1
  N  N60  1  0.335795  0.569679  0.762332  1
  N  N61  1  0.757373  0.601717  0.886089  1
  N  N62  1  0.752088  0.914941  0.956538  1
  N  N63  1  0.601717  0.757373  0.613911  1
  N  N64  1  0.569679  0.335795  0.737668  1
  N  N65  1  0.085059  0.247912  0.456538  1
  N  N66  1  0.914941  0.752088  0.543462  1
  N  N67  1  0.430321  0.664205  0.262332  1
  N  N68  1  0.398283  0.242627  0.386089  1
  N  N69  1  0.247912  0.085059  0.043462  1
  N  N70  1  0.242627  0.398283  0.113911  1
  N  N71  1  0.664205  0.430321  0.237668  1
  O  O72  1  0.046077  0.763092  0.955486  1
  O  O73  1  0.368549  0.041611  0.959651  1
  O  O74  1  0.373016  0.280267  0.883364  1
  O  O75  1  0.970799  0.191751  0.760080  1
  O  O76  1  0.695330  0.269070  0.912614  1
  O  O77  1  0.931512  0.931512  0.750000  1
  O  O78  1  0.112636  0.502990  0.943121  1
  O  O79  1  0.457579  0.737553  0.950513  1
  O  O80  1  0.136564  0.300142  0.952424  1
  O  O81  1  0.504912  0.054958  0.813578  1
  O  O82  1  0.971774  0.636077  0.780244  1
  O  O83  1  0.191751  0.970799  0.739920  1
  O  O84  1  0.280267  0.373016  0.616636  1
  O  O85  1  0.041611  0.368549  0.540349  1
  O  O86  1  0.763092  0.046077  0.544514  1
  O  O87  1  0.758610  0.281500  0.762634  1
  O  O88  1  0.730930  0.304670  0.412614  1
  O  O89  1  0.281500  0.758610  0.737366  1
  O  O90  1  0.497010  0.887364  0.443121  1
  O  O91  1  0.262447  0.542421  0.450513  1
  O  O92  1  0.636077  0.971774  0.719756  1
  O  O93  1  0.054958  0.504912  0.686422  1
  O  O94  1  0.699858  0.863436  0.452424  1
  O  O95  1  0.300142  0.136564  0.547576  1
  O  O96  1  0.945042  0.495088  0.313578  1
  O  O97  1  0.363923  0.028226  0.280244  1
  O  O98  1  0.737553  0.457579  0.549487  1
  O  O99  1  0.502990  0.112636  0.556879  1
  O  O100  1  0.718500  0.241390  0.262634  1
  O  O101  1  0.269070  0.695330  0.587386  1
  O  O102  1  0.241390  0.718500  0.237366  1
  O  O103  1  0.236908  0.953923  0.455486  1
  O  O104  1  0.958389  0.631451  0.459651  1
  O  O105  1  0.719733  0.626984  0.383364  1
  O  O106  1  0.808249  0.029201  0.260080  1
  O  O107  1  0.028226  0.363923  0.219756  1
  O  O108  1  0.495088  0.945042  0.186422  1
  O  O109  1  0.863436  0.699858  0.047576  1
  O  O110  1  0.542421  0.262447  0.049487  1
  O  O111  1  0.887364  0.497010  0.056879  1
  O  O112  1  0.068488  0.068488  0.250000  1
  O  O113  1  0.304670  0.730930  0.087386  1
  O  O114  1  0.029201  0.808249  0.239920  1
  O  O115  1  0.626984  0.719733  0.116636  1
  O  O116  1  0.631451  0.958389  0.040349  1
  O  O117  1  0.953923  0.236908  0.044514  1
