# generated using pymatgen
data_BaSiO3
_symmetry_space_group_name_H-M   'P 1'
_cell_length_a   7.58036950
_cell_length_b   7.58036950
_cell_length_c   11.47821311
_cell_angle_alpha   71.25146018
_cell_angle_beta   108.74853982
_cell_angle_gamma   119.85810760
_symmetry_Int_Tables_number   1
_chemical_formula_structural   BaSiO3
_chemical_formula_sum   'Ba6 Si6 O18'
_cell_volume   531.09634325
_cell_formula_units_Z   6
loop_
 _symmetry_equiv_pos_site_id
 _symmetry_equiv_pos_as_xyz
  1  'x, y, z'
loop_
 _atom_site_type_symbol
 _atom_site_label
 _atom_site_symmetry_multiplicity
 _atom_site_fract_x
 _atom_site_fract_y
 _atom_site_fract_z
 _atom_site_occupancy
  Ba  Ba0  1  0.000000  0.500000  0.500000  1
  Ba  Ba1  1  0.325624  0.149941  0.499043  1
  Ba  Ba2  1  0.149941  0.325624  0.000957  1
  Ba  Ba3  1  0.850059  0.674376  0.999043  1
  Ba  Ba4  1  0.674376  0.850059  0.500957  1
  Ba  Ba5  1  0.500000  0.000000  0.000000  1
  Si  Si6  1  0.581754  0.344262  0.246446  1
  Si  Si7  1  0.820710  0.820710  0.250000  1
  Si  Si8  1  0.655738  0.418246  0.746446  1
  Si  Si9  1  0.344262  0.581754  0.253554  1
  Si  Si10  1  0.179290  0.179290  0.750000  1
  Si  Si11  1  0.418246  0.655738  0.753554  1
  O  O12  1  0.626188  0.196989  0.378218  1
  O  O13  1  0.537432  0.287887  0.112773  1
  O  O14  1  0.785525  0.582843  0.248320  1
  O  O15  1  0.803011  0.373812  0.878218  1
  O  O16  1  0.712113  0.462568  0.612773  1
  O  O17  1  0.968227  0.879175  0.382355  1
  O  O18  1  0.379363  0.379363  0.250000  1
  O  O19  1  0.879175  0.968227  0.117645  1
  O  O20  1  0.417157  0.214475  0.748320  1
  O  O21  1  0.582843  0.785525  0.251680  1
  O  O22  1  0.120825  0.031773  0.882355  1
  O  O23  1  0.620637  0.620637  0.750000  1
  O  O24  1  0.031773  0.120825  0.617645  1
  O  O25  1  0.287887  0.537432  0.387227  1
  O  O26  1  0.196989  0.626188  0.121782  1
  O  O27  1  0.214475  0.417157  0.751680  1
  O  O28  1  0.462568  0.712113  0.887227  1
  O  O29  1  0.373812  0.803011  0.621782  1
