# generated using pymatgen
data_Tb3NbO7
_symmetry_space_group_name_H-M   'P 1'
_cell_length_a   6.51447609
_cell_length_b   6.51447609
_cell_length_c   7.55436331
_cell_angle_alpha   90.00000000
_cell_angle_beta   90.00000000
_cell_angle_gamma   109.19829145
_symmetry_Int_Tables_number   1
_chemical_formula_structural   Tb3NbO7
_chemical_formula_sum   'Tb6 Nb2 O14'
_cell_volume   302.76556404
_cell_formula_units_Z   2
loop_
 _symmetry_equiv_pos_site_id
 _symmetry_equiv_pos_as_xyz
  1  'x, y, z'
loop_
 _atom_site_type_symbol
 _atom_site_label
 _atom_site_symmetry_multiplicity
 _atom_site_fract_x
 _atom_site_fract_y
 _atom_site_fract_z
 _atom_site_occupancy
  Tb  Tb0  1  0.464239  0.999701  0.254106  1
  Tb  Tb1  1  0.000299  0.535761  0.245894  1
  Tb  Tb2  1  0.474217  0.474217  1.000000  1
  Tb  Tb3  1  0.525783  0.525783  0.500000  1
  Tb  Tb4  1  0.535761  0.000299  0.754106  1
  Tb  Tb5  1  0.999701  0.464239  0.745894  1
  Nb  Nb6  1  0.003400  0.003400  0.500000  1
  Nb  Nb7  1  0.996600  0.996600  1.000000  1
  O  O8  1  0.929833  0.070167  0.750000  1
  O  O9  1  0.637766  0.362234  0.750000  1
  O  O10  1  0.314897  0.061229  0.538334  1
  O  O11  1  0.938771  0.685103  0.961666  1
  O  O12  1  0.629441  0.370559  0.250000  1
  O  O13  1  0.918607  0.672584  0.527904  1
  O  O14  1  0.327416  0.081393  0.972096  1
  O  O15  1  0.081393  0.327416  0.027904  1
  O  O16  1  0.672584  0.918607  0.472096  1
  O  O17  1  0.370559  0.629441  0.750000  1
  O  O18  1  0.685103  0.938771  0.038334  1
  O  O19  1  0.061229  0.314897  0.461666  1
  O  O20  1  0.362234  0.637766  0.250000  1
  O  O21  1  0.070167  0.929833  0.250000  1
