# generated using pymatgen
data_SnGeO3
_symmetry_space_group_name_H-M   'P 1'
_cell_length_a   11.73844563
_cell_length_b   7.25551126
_cell_length_c   13.42094682
_cell_angle_alpha   90.00000000
_cell_angle_beta   118.89111086
_cell_angle_gamma   90.00000000
_symmetry_Int_Tables_number   1
_chemical_formula_structural   SnGeO3
_chemical_formula_sum   'Sn12 Ge12 O36'
_cell_volume   1000.77744829
_cell_formula_units_Z   12
loop_
 _symmetry_equiv_pos_site_id
 _symmetry_equiv_pos_as_xyz
  1  'x, y, z'
loop_
 _atom_site_type_symbol
 _atom_site_label
 _atom_site_symmetry_multiplicity
 _atom_site_fract_x
 _atom_site_fract_y
 _atom_site_fract_z
 _atom_site_occupancy
  Sn  Sn0  1  0.291091  0.694962  0.099657  1
  Sn  Sn1  1  0.368704  0.038880  0.318411  1
  Sn  Sn2  1  0.291091  0.305038  0.599657  1
  Sn  Sn3  1  0.368704  0.961120  0.818411  1
  Sn  Sn4  1  0.083267  0.388070  0.164240  1
  Sn  Sn5  1  0.083267  0.611930  0.664240  1
  Sn  Sn6  1  0.916733  0.388070  0.335760  1
  Sn  Sn7  1  0.916733  0.611930  0.835760  1
  Sn  Sn8  1  0.631296  0.038880  0.181589  1
  Sn  Sn9  1  0.708909  0.694962  0.400343  1
  Sn  Sn10  1  0.631296  0.961120  0.681589  1
  Sn  Sn11  1  0.708909  0.305038  0.900343  1
  Ge  Ge12  1  0.247878  0.174291  0.039859  1
  Ge  Ge13  1  0.357746  0.594905  0.387141  1
  Ge  Ge14  1  0.247878  0.825709  0.539859  1
  Ge  Ge15  1  0.044943  0.881922  0.154149  1
  Ge  Ge16  1  0.357746  0.405095  0.887141  1
  Ge  Ge17  1  0.955057  0.881922  0.345851  1
  Ge  Ge18  1  0.044943  0.118078  0.654149  1
  Ge  Ge19  1  0.642254  0.594905  0.112859  1
  Ge  Ge20  1  0.955057  0.118078  0.845851  1
  Ge  Ge21  1  0.752122  0.174291  0.460141  1
  Ge  Ge22  1  0.642254  0.405095  0.612859  1
  Ge  Ge23  1  0.752122  0.825709  0.960141  1
  O  O24  1  0.356452  0.025758  0.148816  1
  O  O25  1  0.500000  0.500000  0.500000  1
  O  O26  1  0.389429  0.726910  0.290415  1
  O  O27  1  0.219576  0.380686  0.093152  1
  O  O28  1  0.310985  0.788484  0.443751  1
  O  O29  1  0.247083  0.417612  0.327279  1
  O  O30  1  0.356452  0.974242  0.648816  1
  O  O31  1  0.500000  0.500000  0.000000  1
  O  O32  1  0.114967  0.697225  0.116400  1
  O  O33  1  0.153277  0.067350  0.214801  1
  O  O34  1  0.389429  0.273090  0.790415  1
  O  O35  1  0.219576  0.619314  0.593152  1
  O  O36  1  0.103619  0.962191  0.463681  1
  O  O37  1  0.310985  0.211516  0.943751  1
  O  O38  1  0.000000  0.772972  0.250000  1
  O  O39  1  0.247083  0.582388  0.827279  1
  O  O40  1  0.896381  0.962191  0.036319  1
  O  O41  1  0.114967  0.302775  0.616400  1
  O  O42  1  0.153277  0.932650  0.714801  1
  O  O43  1  0.846723  0.067350  0.285199  1
  O  O44  1  0.885033  0.697225  0.383600  1
  O  O45  1  0.103619  0.037809  0.963681  1
  O  O46  1  0.752917  0.417612  0.172721  1
  O  O47  1  0.000000  0.227028  0.750000  1
  O  O48  1  0.689015  0.788484  0.056249  1
  O  O49  1  0.896381  0.037809  0.536319  1
  O  O50  1  0.780424  0.380686  0.406848  1
  O  O51  1  0.610571  0.726910  0.209585  1
  O  O52  1  0.846723  0.932650  0.785199  1
  O  O53  1  0.885033  0.302775  0.883600  1
  O  O54  1  0.643548  0.025758  0.351184  1
  O  O55  1  0.752917  0.582388  0.672721  1
  O  O56  1  0.689015  0.211516  0.556249  1
  O  O57  1  0.780424  0.619314  0.906848  1
  O  O58  1  0.610571  0.273090  0.709585  1
  O  O59  1  0.643548  0.974242  0.851184  1
