# generated using pymatgen
data_LiMnOF2
_symmetry_space_group_name_H-M   'P 1'
_cell_length_a   3.75075944
_cell_length_b   6.40956034
_cell_length_c   9.86363956
_cell_angle_alpha   90.00000000
_cell_angle_beta   90.00000000
_cell_angle_gamma   90.00000000
_symmetry_Int_Tables_number   1
_chemical_formula_structural   LiMnOF2
_chemical_formula_sum   'Li4 Mn4 O4 F8'
_cell_volume   237.12898635
_cell_formula_units_Z   4
loop_
 _symmetry_equiv_pos_site_id
 _symmetry_equiv_pos_as_xyz
  1  'x, y, z'
loop_
 _atom_site_type_symbol
 _atom_site_label
 _atom_site_symmetry_multiplicity
 _atom_site_fract_x
 _atom_site_fract_y
 _atom_site_fract_z
 _atom_site_occupancy
  Li  Li0  1  0.250000  0.589218  0.260690  1
  Li  Li1  1  0.250000  0.089218  0.239310  1
  Li  Li2  1  0.750000  0.910782  0.760690  1
  Li  Li3  1  0.750000  0.410782  0.739310  1
  Mn  Mn4  1  0.250000  0.661827  0.956890  1
  Mn  Mn5  1  0.250000  0.161827  0.543110  1
  Mn  Mn6  1  0.750000  0.838173  0.456890  1
  Mn  Mn7  1  0.750000  0.338173  0.043110  1
  O  O8  1  0.250000  0.918222  0.425093  1
  O  O9  1  0.250000  0.418222  0.074907  1
  O  O10  1  0.750000  0.581778  0.925093  1
  O  O11  1  0.750000  0.081778  0.574907  1
  F  F12  1  0.250000  0.845382  0.807045  1
  F  F13  1  0.250000  0.345382  0.692955  1
  F  F14  1  0.250000  0.843412  0.120492  1
  F  F15  1  0.250000  0.343412  0.379508  1
  F  F16  1  0.750000  0.656588  0.620492  1
  F  F17  1  0.750000  0.156588  0.879508  1
  F  F18  1  0.750000  0.654618  0.307045  1
  F  F19  1  0.750000  0.154618  0.192955  1
