# generated using pymatgen
data_GeH8N2OF6
_symmetry_space_group_name_H-M   'P 1'
_cell_length_a   7.48229594
_cell_length_b   8.95367706
_cell_length_c   9.41194451
_cell_angle_alpha   90.00000000
_cell_angle_beta   90.00000000
_cell_angle_gamma   90.00000000
_symmetry_Int_Tables_number   1
_chemical_formula_structural   GeH8N2OF6
_chemical_formula_sum   'Ge4 H32 N8 O4 F24'
_cell_volume   630.54438947
_cell_formula_units_Z   4
loop_
 _symmetry_equiv_pos_site_id
 _symmetry_equiv_pos_as_xyz
  1  'x, y, z'
loop_
 _atom_site_type_symbol
 _atom_site_label
 _atom_site_symmetry_multiplicity
 _atom_site_fract_x
 _atom_site_fract_y
 _atom_site_fract_z
 _atom_site_occupancy
  Ge  Ge0  1  0.989697  0.156672  0.250000  1
  Ge  Ge1  1  0.510303  0.656672  0.250000  1
  Ge  Ge2  1  0.010303  0.843328  0.750000  1
  Ge  Ge3  1  0.489697  0.343328  0.750000  1
  H  H4  1  0.840612  0.439730  0.063850  1
  H  H5  1  0.659388  0.939730  0.436150  1
  H  H6  1  0.159388  0.560270  0.563850  1
  H  H7  1  0.340612  0.060270  0.936150  1
  H  H8  1  0.159388  0.560270  0.936150  1
  H  H9  1  0.340612  0.060270  0.563850  1
  H  H10  1  0.840612  0.439730  0.436150  1
  H  H11  1  0.659388  0.939730  0.063850  1
  H  H12  1  0.939579  0.608992  0.104896  1
  H  H13  1  0.560421  0.108992  0.395104  1
  H  H14  1  0.060421  0.391008  0.604896  1
  H  H15  1  0.439579  0.891008  0.895104  1
  H  H16  1  0.060421  0.391008  0.895104  1
  H  H17  1  0.439579  0.891008  0.604896  1
  H  H18  1  0.939579  0.608992  0.395104  1
  H  H19  1  0.560421  0.108992  0.104896  1
  H  H20  1  0.850128  0.575830  0.937177  1
  H  H21  1  0.649872  0.075830  0.562823  1
  H  H22  1  0.149872  0.424170  0.437177  1
  H  H23  1  0.350128  0.924170  0.062823  1
  H  H24  1  0.149872  0.424170  0.062823  1
  H  H25  1  0.350128  0.924170  0.437177  1
  H  H26  1  0.850128  0.575830  0.562823  1
  H  H27  1  0.649872  0.075830  0.937177  1
  H  H28  1  0.132645  0.749293  0.250000  1
  H  H29  1  0.367355  0.249293  0.250000  1
  H  H30  1  0.867355  0.250707  0.750000  1
  H  H31  1  0.632645  0.750707  0.750000  1
  H  H32  1  0.932319  0.800630  0.250000  1
  H  H33  1  0.567681  0.300630  0.250000  1
  H  H34  1  0.067681  0.199370  0.750000  1
  H  H35  1  0.432319  0.699370  0.750000  1
  N  N36  1  0.915031  0.528769  0.023835  1
  N  N37  1  0.584969  0.028769  0.476165  1
  N  N38  1  0.084969  0.471231  0.523835  1
  N  N39  1  0.415031  0.971231  0.976165  1
  N  N40  1  0.084969  0.471231  0.976165  1
  N  N41  1  0.415031  0.971231  0.523835  1
  N  N42  1  0.915031  0.528769  0.476165  1
  N  N43  1  0.584969  0.028769  0.023835  1
  O  O44  1  0.009732  0.710746  0.250000  1
  O  O45  1  0.490268  0.210746  0.250000  1
  O  O46  1  0.990268  0.289254  0.750000  1
  O  O47  1  0.509732  0.789254  0.750000  1
  F  F48  1  0.127946  0.335337  0.250000  1
  F  F49  1  0.372054  0.835337  0.250000  1
  F  F50  1  0.872054  0.664663  0.750000  1
  F  F51  1  0.627946  0.164663  0.750000  1
  F  F52  1  0.846279  0.990416  0.250000  1
  F  F53  1  0.653721  0.490416  0.250000  1
  F  F54  1  0.153721  0.009584  0.750000  1
  F  F55  1  0.346279  0.509584  0.750000  1
  F  F56  1  0.134370  0.083757  0.113945  1
  F  F57  1  0.365630  0.583757  0.386055  1
  F  F58  1  0.865630  0.916243  0.613945  1
  F  F59  1  0.634370  0.416243  0.886055  1
  F  F60  1  0.865630  0.916243  0.886055  1
  F  F61  1  0.634370  0.416243  0.613945  1
  F  F62  1  0.134370  0.083757  0.386055  1
  F  F63  1  0.365630  0.583757  0.113945  1
  F  F64  1  0.846648  0.242110  0.112352  1
  F  F65  1  0.653352  0.742110  0.387648  1
  F  F66  1  0.153352  0.757890  0.612352  1
  F  F67  1  0.346648  0.257890  0.887648  1
  F  F68  1  0.153352  0.757890  0.887648  1
  F  F69  1  0.346648  0.257890  0.612352  1
  F  F70  1  0.846648  0.242110  0.387648  1
  F  F71  1  0.653352  0.742110  0.112352  1
