# generated using pymatgen
data_Fe3Co2Sb(PO4)6
_symmetry_space_group_name_H-M   'P 1'
_cell_length_a   8.55753483
_cell_length_b   8.55753483
_cell_length_c   8.55753483
_cell_angle_alpha   60.91392368
_cell_angle_beta   60.91392368
_cell_angle_gamma   60.91392368
_symmetry_Int_Tables_number   1
_chemical_formula_structural   Fe3Co2Sb(PO4)6
_chemical_formula_sum   'Fe3 Co2 Sb1 P6 O24'
_cell_volume   452.25745114
_cell_formula_units_Z   1
loop_
 _symmetry_equiv_pos_site_id
 _symmetry_equiv_pos_as_xyz
  1  'x, y, z'
loop_
 _atom_site_type_symbol
 _atom_site_label
 _atom_site_symmetry_multiplicity
 _atom_site_fract_x
 _atom_site_fract_y
 _atom_site_fract_z
 _atom_site_occupancy
  Fe  Fe0  1  0.645362  0.645362  0.645362  1
  Fe  Fe1  1  0.854804  0.854804  0.854804  1
  Fe  Fe2  1  0.356613  0.356613  0.356613  1
  Co  Co3  1  0.993092  0.993092  0.993092  1
  Co  Co4  1  0.500672  0.500672  0.500672  1
  Sb  Sb5  1  0.142649  0.142649  0.142649  1
  P  P6  1  0.952868  0.253950  0.547718  1
  P  P7  1  0.547718  0.952868  0.253950  1
  P  P8  1  0.253950  0.547718  0.952868  1
  P  P9  1  0.747589  0.458890  0.046801  1
  P  P10  1  0.458890  0.046801  0.747589  1
  P  P11  1  0.046801  0.747589  0.458890  1
  O  O12  1  0.499148  0.111875  0.318236  1
  O  O13  1  0.318236  0.499148  0.111875  1
  O  O14  1  0.111875  0.318236  0.499148  1
  O  O15  1  0.940823  0.090051  0.739340  1
  O  O16  1  0.988552  0.186700  0.387361  1
  O  O17  1  0.756570  0.410745  0.559175  1
  O  O18  1  0.739340  0.940823  0.090051  1
  O  O19  1  0.559175  0.756570  0.410745  1
  O  O20  1  0.820374  0.609658  0.005661  1
  O  O21  1  0.410745  0.559175  0.756570  1
  O  O22  1  0.913764  0.255904  0.060300  1
  O  O23  1  0.609658  0.005661  0.820374  1
  O  O24  1  0.387361  0.988552  0.186700  1
  O  O25  1  0.090051  0.739340  0.940823  1
  O  O26  1  0.593023  0.437601  0.244890  1
  O  O27  1  0.186700  0.387361  0.988552  1
  O  O28  1  0.437601  0.244890  0.593023  1
  O  O29  1  0.255904  0.060300  0.913764  1
  O  O30  1  0.244890  0.593023  0.437601  1
  O  O31  1  0.005661  0.820374  0.609658  1
  O  O32  1  0.060300  0.913764  0.255904  1
  O  O33  1  0.889231  0.689306  0.490715  1
  O  O34  1  0.689306  0.490715  0.889231  1
  O  O35  1  0.490715  0.889231  0.689306  1
