# generated using pymatgen
data_Li3Fe8O3F13
_symmetry_space_group_name_H-M   'P 1'
_cell_length_a   6.31150881
_cell_length_b   6.31150881
_cell_length_c   10.45076976
_cell_angle_alpha   72.02306076
_cell_angle_beta   107.97693924
_cell_angle_gamma   120.62987070
_symmetry_Int_Tables_number   1
_chemical_formula_structural   Li3Fe8O3F13
_chemical_formula_sum   'Li3 Fe8 O3 F13'
_cell_volume   334.85567188
_cell_formula_units_Z   1
loop_
 _symmetry_equiv_pos_site_id
 _symmetry_equiv_pos_as_xyz
  1  'x, y, z'
loop_
 _atom_site_type_symbol
 _atom_site_label
 _atom_site_symmetry_multiplicity
 _atom_site_fract_x
 _atom_site_fract_y
 _atom_site_fract_z
 _atom_site_occupancy
  Li  Li0  1  0.009231  0.990769  0.010550  1
  Li  Li1  1  0.186105  0.813895  0.570020  1
  Li  Li2  1  0.806814  0.193186  0.428159  1
  Fe  Fe3  1  0.518745  0.998553  0.008433  1
  Fe  Fe4  1  0.001447  0.481255  0.008433  1
  Fe  Fe5  1  0.262539  0.258270  0.750276  1
  Fe  Fe6  1  0.744497  0.255503  0.734422  1
  Fe  Fe7  1  0.741730  0.737461  0.750276  1
  Fe  Fe8  1  0.239295  0.248485  0.247197  1
  Fe  Fe9  1  0.751515  0.760705  0.247197  1
  Fe  Fe10  1  0.263711  0.736289  0.266318  1
  O  O11  1  0.643786  0.356214  0.876481  1
  O  O12  1  0.896222  0.103778  0.122491  1
  O  O13  1  0.360007  0.639993  0.119229  1
  F  F14  1  0.101151  0.334174  0.865409  1
  F  F15  1  0.117050  0.882950  0.878430  1
  F  F16  1  0.665826  0.898849  0.865409  1
  F  F17  1  0.370587  0.128478  0.634992  1
  F  F18  1  0.881671  0.118329  0.632272  1
  F  F19  1  0.378682  0.621318  0.636829  1
  F  F20  1  0.871522  0.629413  0.634992  1
  F  F21  1  0.615848  0.384152  0.349202  1
  F  F22  1  0.117294  0.368235  0.369560  1
  F  F23  1  0.126224  0.873776  0.372986  1
  F  F24  1  0.631765  0.882706  0.369560  1
  F  F25  1  0.345751  0.085602  0.129485  1
  F  F26  1  0.914398  0.654249  0.129485  1
