# generated using pymatgen
data_CaV2P2(H4O7)2
_symmetry_space_group_name_H-M   'P 1'
_cell_length_a   6.39674534
_cell_length_b   6.42925315
_cell_length_c   6.66791201
_cell_angle_alpha   104.48703012
_cell_angle_beta   93.60593758
_cell_angle_gamma   89.77188928
_symmetry_Int_Tables_number   1
_chemical_formula_structural   CaV2P2(H4O7)2
_chemical_formula_sum   'Ca1 V2 P2 H8 O14'
_cell_volume   264.96204522
_cell_formula_units_Z   1
loop_
 _symmetry_equiv_pos_site_id
 _symmetry_equiv_pos_as_xyz
  1  'x, y, z'
loop_
 _atom_site_type_symbol
 _atom_site_label
 _atom_site_symmetry_multiplicity
 _atom_site_fract_x
 _atom_site_fract_y
 _atom_site_fract_z
 _atom_site_occupancy
  Ca  Ca0  1  0.524713  0.465889  0.156073  1
  V  V1  1  0.828715  0.494878  0.694330  1
  V  V2  1  0.320911  0.940515  0.525560  1
  P  P3  1  0.330036  0.464052  0.619964  1
  P  P4  1  0.832627  0.964136  0.602192  1
  H  H5  1  0.971419  0.477290  0.095645  1
  H  H6  1  0.899272  0.716458  0.176619  1
  H  H7  1  0.418770  0.884877  0.056956  1
  H  H8  1  0.222475  0.732647  0.013965  1
  H  H9  1  0.186872  0.246271  0.236521  1
  H  H10  1  0.164356  0.179202  0.984795  1
  H  H11  1  0.660081  0.066126  0.270002  1
  H  H12  1  0.787101  0.085795  0.078297  1
  O  O13  1  0.783603  0.447749  0.441941  1
  O  O14  1  0.322456  0.008781  0.777540  1
  O  O15  1  0.350989  0.615673  0.473208  1
  O  O16  1  0.140393  0.522705  0.753003  1
  O  O17  1  0.307801  0.236327  0.468433  1
  O  O18  1  0.523867  0.480689  0.775490  1
  O  O19  1  0.856072  0.196050  0.737881  1
  O  O20  1  0.010139  0.906719  0.446691  1
  O  O21  1  0.828407  0.817041  0.751717  1
  O  O22  1  0.627137  0.936164  0.456133  1
  O  O23  1  0.861060  0.581968  0.070919  1
  O  O24  1  0.331074  0.796855  0.123070  1
  O  O25  1  0.165094  0.300986  0.109425  1
  O  O26  1  0.648959  0.105955  0.133932  1
