# generated using pymatgen
data_LiVF4
_symmetry_space_group_name_H-M   'P 1'
_cell_length_a   6.52248326
_cell_length_b   6.52248326
_cell_length_c   5.49734795
_cell_angle_alpha   87.81095412
_cell_angle_beta   92.18904588
_cell_angle_gamma   132.53915215
_symmetry_Int_Tables_number   1
_chemical_formula_structural   LiVF4
_chemical_formula_sum   'Li2 V2 F8'
_cell_volume   172.17082528
_cell_formula_units_Z   2
loop_
 _symmetry_equiv_pos_site_id
 _symmetry_equiv_pos_as_xyz
  1  'x, y, z'
loop_
 _atom_site_type_symbol
 _atom_site_label
 _atom_site_symmetry_multiplicity
 _atom_site_fract_x
 _atom_site_fract_y
 _atom_site_fract_z
 _atom_site_occupancy
  Li  Li0  1  0.992406  0.992406  0.250000  1
  Li  Li1  1  0.007594  0.007594  0.750000  1
  V  V2  1  0.000000  0.500000  0.000000  1
  V  V3  1  0.500000  1.000000  0.500000  1
  F  F4  1  0.954813  0.765898  0.007185  1
  F  F5  1  0.769023  0.341997  0.700473  1
  F  F6  1  0.658003  0.230977  0.200473  1
  F  F7  1  0.765898  0.954813  0.492815  1
  F  F8  1  0.234102  0.045187  0.507185  1
  F  F9  1  0.341997  0.769023  0.799527  1
  F  F10  1  0.230977  0.658003  0.299527  1
  F  F11  1  0.045187  0.234102  0.992815  1
