# generated using pymatgen
data_Li2Ti3O6
_symmetry_space_group_name_H-M   'P 1'
_cell_length_a   9.58952777
_cell_length_b   9.02317550
_cell_length_c   5.18007108
_cell_angle_alpha   79.96332916
_cell_angle_beta   67.90185035
_cell_angle_gamma   32.13482049
_symmetry_Int_Tables_number   1
_chemical_formula_structural   Li2Ti3O6
_chemical_formula_sum   'Li4 Ti6 O12'
_cell_volume   211.22262209
_cell_formula_units_Z   2
loop_
 _symmetry_equiv_pos_site_id
 _symmetry_equiv_pos_as_xyz
  1  'x, y, z'
loop_
 _atom_site_type_symbol
 _atom_site_label
 _atom_site_symmetry_multiplicity
 _atom_site_fract_x
 _atom_site_fract_y
 _atom_site_fract_z
 _atom_site_occupancy
  Li  Li0  1  0.169362  0.169362  0.830638  1
  Li  Li1  1  0.419362  0.419362  0.080638  1
  Li  Li2  1  0.830638  0.830638  0.169362  1
  Li  Li3  1  0.080638  0.080638  0.419362  1
  Ti  Ti4  1  0.250000  0.250000  0.250000  1
  Ti  Ti5  1  0.665258  0.665258  0.334742  1
  Ti  Ti6  1  0.334742  0.334742  0.665258  1
  Ti  Ti7  1  0.915258  0.915258  0.584742  1
  Ti  Ti8  1  0.000000  0.000000  0.000000  1
  Ti  Ti9  1  0.584742  0.584742  0.915258  1
  O  O10  1  0.911228  0.417946  0.570567  1
  O  O11  1  0.417946  0.911228  0.100259  1
  O  O12  1  0.013622  0.486378  0.013622  1
  O  O13  1  0.100259  0.570567  0.417946  1
  O  O14  1  0.486378  0.013622  0.486378  1
  O  O15  1  0.149741  0.679433  0.832054  1
  O  O16  1  0.236378  0.763622  0.236378  1
  O  O17  1  0.570567  0.100259  0.911228  1
  O  O18  1  0.679433  0.149741  0.338772  1
  O  O19  1  0.338772  0.832054  0.679433  1
  O  O20  1  0.763622  0.236378  0.763622  1
  O  O21  1  0.832054  0.338772  0.149741  1
