# generated using pymatgen
data_Li2TiMn3O8
_symmetry_space_group_name_H-M   'P 1'
_cell_length_a   8.24693214
_cell_length_b   8.33361143
_cell_length_c   8.80691436
_cell_angle_alpha   89.93486891
_cell_angle_beta   89.58008989
_cell_angle_gamma   89.83931397
_symmetry_Int_Tables_number   1
_chemical_formula_structural   Li2TiMn3O8
_chemical_formula_sum   'Li8 Ti4 Mn12 O32'
_cell_volume   605.25139496
_cell_formula_units_Z   4
loop_
 _symmetry_equiv_pos_site_id
 _symmetry_equiv_pos_as_xyz
  1  'x, y, z'
loop_
 _atom_site_type_symbol
 _atom_site_label
 _atom_site_symmetry_multiplicity
 _atom_site_fract_x
 _atom_site_fract_y
 _atom_site_fract_z
 _atom_site_occupancy
  Li  Li0  1  0.004237  0.997590  0.000086  1
  Li  Li1  1  0.746053  0.253569  0.749446  1
  Li  Li2  1  0.254807  0.750087  0.745817  1
  Li  Li3  1  0.996412  0.495738  0.508616  1
  Li  Li4  1  0.495349  0.007396  0.495942  1
  Li  Li5  1  0.755826  0.745113  0.248488  1
  Li  Li6  1  0.241952  0.244475  0.243913  1
  Li  Li7  1  0.503554  0.507224  0.006260  1
  Ti  Ti8  1  0.131276  0.376762  0.872873  1
  Ti  Ti9  1  0.865427  0.884466  0.626914  1
  Ti  Ti10  1  0.372843  0.614072  0.372450  1
  Ti  Ti11  1  0.629574  0.118431  0.126747  1
  Mn  Mn12  1  0.875835  0.624393  0.869098  1
  Mn  Mn13  1  0.623981  0.871908  0.881051  1
  Mn  Mn14  1  0.373135  0.126649  0.883157  1
  Mn  Mn15  1  0.626967  0.622372  0.621649  1
  Mn  Mn16  1  0.376631  0.371210  0.622847  1
  Mn  Mn17  1  0.129292  0.124188  0.625725  1
  Mn  Mn18  1  0.627416  0.375129  0.369148  1
  Mn  Mn19  1  0.875215  0.124393  0.373477  1
  Mn  Mn20  1  0.124962  0.875493  0.378411  1
  Mn  Mn21  1  0.873767  0.376819  0.120142  1
  Mn  Mn22  1  0.122535  0.628251  0.121351  1
  Mn  Mn23  1  0.374582  0.877385  0.134947  1
  O  O24  1  0.885399  0.395652  0.874915  1
  O  O25  1  0.109101  0.612699  0.869467  1
  O  O26  1  0.385961  0.880468  0.911140  1
  O  O27  1  0.865864  0.860593  0.855336  1
  O  O28  1  0.609777  0.111374  0.897741  1
  O  O29  1  0.640961  0.641171  0.870138  1
  O  O30  1  0.360715  0.370025  0.876282  1
  O  O31  1  0.140822  0.142513  0.878522  1
  O  O32  1  0.861604  0.635050  0.646440  1
  O  O33  1  0.640213  0.862993  0.621775  1
  O  O34  1  0.364581  0.139663  0.636157  1
  O  O35  1  0.391377  0.611886  0.601709  1
  O  O36  1  0.138594  0.360596  0.643064  1
  O  O37  1  0.613654  0.382085  0.592575  1
  O  O38  1  0.889424  0.106665  0.630827  1
  O  O39  1  0.119722  0.888342  0.599674  1
  O  O40  1  0.613293  0.605464  0.371402  1
  O  O41  1  0.388554  0.389647  0.365554  1
  O  O42  1  0.107965  0.105945  0.376228  1
  O  O43  1  0.637151  0.141199  0.358592  1
  O  O44  1  0.889841  0.883025  0.394838  1
  O  O45  1  0.859681  0.360442  0.367350  1
  O  O46  1  0.139834  0.642279  0.379322  1
  O  O47  1  0.360998  0.865472  0.357136  1
  O  O48  1  0.638209  0.364055  0.145583  1
  O  O49  1  0.856571  0.134247  0.122201  1
  O  O50  1  0.136226  0.863210  0.151551  1
  O  O51  1  0.108385  0.391792  0.105706  1
  O  O52  1  0.360844  0.642410  0.143629  1
  O  O53  1  0.887426  0.620789  0.093639  1
  O  O54  1  0.608360  0.889568  0.135205  1
  O  O55  1  0.387125  0.105708  0.127752  1
