# generated using pymatgen
data_LiV2(CO3)4
_symmetry_space_group_name_H-M   'P 1'
_cell_length_a   8.61533873
_cell_length_b   8.61533873
_cell_length_c   8.61533873
_cell_angle_alpha   113.93476373
_cell_angle_beta   108.20217449
_cell_angle_gamma   106.37559420
_symmetry_Int_Tables_number   1
_chemical_formula_structural   LiV2(CO3)4
_chemical_formula_sum   'Li2 V4 C8 O24'
_cell_volume   489.88704963
_cell_formula_units_Z   2
loop_
 _symmetry_equiv_pos_site_id
 _symmetry_equiv_pos_as_xyz
  1  'x, y, z'
loop_
 _atom_site_type_symbol
 _atom_site_label
 _atom_site_symmetry_multiplicity
 _atom_site_fract_x
 _atom_site_fract_y
 _atom_site_fract_z
 _atom_site_occupancy
  Li  Li0  1  0.566729  0.816729  0.750000  1
  Li  Li1  1  0.933271  0.683271  0.250000  1
  V  V2  1  0.782108  0.250000  0.032108  1
  V  V3  1  0.268679  0.518679  0.750000  1
  V  V4  1  0.717892  0.750000  0.467892  1
  V  V5  1  0.231321  0.981321  0.250000  1
  C  C6  1  0.514012  0.986706  0.569659  1
  C  C7  1  0.089014  0.533301  0.015508  1
  C  C8  1  0.482207  0.966699  0.055713  1
  C  C9  1  0.985988  0.555648  0.472694  1
  C  C10  1  0.410986  0.426494  0.444287  1
  C  C11  1  0.917047  0.944352  0.930341  1
  C  C12  1  0.582953  0.513294  0.027306  1
  C  C13  1  0.017793  0.073506  0.484492  1
  O  O14  1  0.108758  0.692281  0.151522  1
  O  O15  1  0.591959  0.054428  0.755641  1
  O  O16  1  0.591483  0.131045  0.103713  1
  O  O17  1  0.530041  0.847742  0.456504  1
  O  O18  1  0.972668  0.368955  0.960438  1
  O  O19  1  0.394236  0.954059  0.151986  1
  O  O20  1  0.089095  0.595796  0.642905  1
  O  O21  1  0.459242  0.807719  0.916478  1
  O  O22  1  0.969959  0.426462  0.317701  1
  O  O23  1  0.391242  0.542764  0.583522  1
  O  O24  1  0.197926  0.545941  0.940176  1
  O  O25  1  0.891238  0.073538  0.043496  1
  O  O26  1  0.302074  0.242250  0.348014  1
  O  O27  1  0.798787  0.836318  0.744359  1
  O  O28  1  0.105764  0.257750  0.559824  1
  O  O29  1  0.608762  0.652258  0.182299  1
  O  O30  1  0.452891  0.446190  0.857095  1
  O  O31  1  0.047109  0.904204  0.993300  1
  O  O32  1  0.701213  0.445572  0.037531  1
  O  O33  1  0.908517  0.012230  0.539562  1
  O  O34  1  0.040758  0.957236  0.348478  1
  O  O35  1  0.527332  0.487770  0.396287  1
  O  O36  1  0.410905  0.053810  0.506700  1
  O  O37  1  0.908041  0.663682  0.462469  1
