# generated using pymatgen
data_V4OF11
_symmetry_space_group_name_H-M   'P 1'
_cell_length_a   5.25772668
_cell_length_b   5.44569540
_cell_length_c   17.49665749
_cell_angle_alpha   88.65092172
_cell_angle_beta   98.46212534
_cell_angle_gamma   118.60655184
_symmetry_Int_Tables_number   1
_chemical_formula_structural   V4OF11
_chemical_formula_sum   'V8 O2 F22'
_cell_volume   434.38699995
_cell_formula_units_Z   2
loop_
 _symmetry_equiv_pos_site_id
 _symmetry_equiv_pos_as_xyz
  1  'x, y, z'
loop_
 _atom_site_type_symbol
 _atom_site_label
 _atom_site_symmetry_multiplicity
 _atom_site_fract_x
 _atom_site_fract_y
 _atom_site_fract_z
 _atom_site_occupancy
  V  V0  1  0.749338  0.402704  0.120507  1
  V  V1  1  0.752853  0.870226  0.624381  1
  V  V2  1  0.498958  0.761455  0.249718  1
  V  V3  1  0.498305  0.244811  0.749916  1
  V  V4  1  0.244549  0.142053  0.381715  1
  V  V5  1  0.248538  0.619516  0.875433  1
  V  V6  1  0.995052  0.990374  0.002535  1
  V  V7  1  0.005088  0.494810  0.498187  1
  O  O8  1  0.792568  0.676399  0.065934  1
  O  O9  1  0.170023  0.285842  0.453927  1
  F  F10  1  0.329379  0.170912  0.090001  1
  F  F11  1  0.771910  0.183006  0.562283  1
  F  F12  1  0.716681  0.077350  0.185417  1
  F  F13  1  0.327110  0.971175  0.292312  1
  F  F14  1  0.323333  0.653707  0.586320  1
  F  F15  1  0.322940  0.459389  0.786466  1
  F  F16  1  0.816502  0.202698  0.038580  1
  F  F17  1  0.173040  0.582119  0.163804  1
  F  F18  1  0.179536  0.087996  0.661156  1
  F  F19  1  0.275125  0.436063  0.310303  1
  F  F20  1  0.731476  0.560189  0.687065  1
  F  F21  1  0.829327  0.913598  0.336189  1
  F  F22  1  0.828524  0.708527  0.536541  1
  F  F23  1  0.823556  0.409624  0.839040  1
  F  F24  1  0.180416  0.790718  0.964437  1
  F  F25  1  0.673885  0.341419  0.411621  1
  F  F26  1  0.675931  0.543294  0.212073  1
  F  F27  1  0.675581  0.031428  0.713082  1
  F  F28  1  0.270087  0.933574  0.812507  1
  F  F29  1  0.217571  0.304717  0.939248  1
  F  F30  1  0.233848  0.819921  0.437356  1
  F  F31  1  0.668969  0.830387  0.911946  1
