# generated using pymatgen
data_Ca5Mn4O9
_symmetry_space_group_name_H-M   'P 1'
_cell_length_a   8.72197329
_cell_length_b   8.72197329
_cell_length_c   9.90283095
_cell_angle_alpha   55.90449493
_cell_angle_beta   124.09550507
_cell_angle_gamma   157.99192244
_symmetry_Int_Tables_number   1
_chemical_formula_structural   Ca5Mn4O9
_chemical_formula_sum   'Ca5 Mn4 O9'
_cell_volume   231.74230556
_cell_formula_units_Z   1
loop_
 _symmetry_equiv_pos_site_id
 _symmetry_equiv_pos_as_xyz
  1  'x, y, z'
loop_
 _atom_site_type_symbol
 _atom_site_label
 _atom_site_symmetry_multiplicity
 _atom_site_fract_x
 _atom_site_fract_y
 _atom_site_fract_z
 _atom_site_occupancy
  Ca  Ca0  1  0.329566  0.670434  0.331038  1
  Ca  Ca1  1  0.001259  0.998741  0.674617  1
  Ca  Ca2  1  0.003814  0.996186  0.330986  1
  Ca  Ca3  1  0.670664  0.329336  0.665338  1
  Ca  Ca4  1  0.336794  0.663206  0.997392  1
  Mn  Mn5  1  0.667986  0.332014  0.000691  1
  Mn  Mn6  1  0.667367  0.332633  0.330308  1
  Mn  Mn7  1  0.334540  0.665460  0.665900  1
  Mn  Mn8  1  0.004935  0.995065  0.000911  1
  O  O9  1  0.163750  0.836250  0.160784  1
  O  O10  1  0.830082  0.169918  0.503791  1
  O  O11  1  0.831398  0.168602  0.162180  1
  O  O12  1  0.503336  0.496664  0.844160  1
  O  O13  1  0.502062  0.497938  0.500420  1
  O  O14  1  0.506748  0.493252  0.164808  1
  O  O15  1  0.168975  0.831025  0.839287  1
  O  O16  1  0.171993  0.828007  0.495203  1
  O  O17  1  0.838837  0.161163  0.827916  1
