# generated using pymatgen
data_DyY3O6
_symmetry_space_group_name_H-M   'P 1'
_cell_length_a   9.26612632
_cell_length_b   9.26612632
_cell_length_c   10.69817621
_cell_angle_alpha   54.74127012
_cell_angle_beta   125.25872988
_cell_angle_gamma   109.46517383
_symmetry_Int_Tables_number   1
_chemical_formula_structural   DyY3O6
_chemical_formula_sum   'Dy4 Y12 O24'
_cell_volume   612.45697471
_cell_formula_units_Z   4
loop_
 _symmetry_equiv_pos_site_id
 _symmetry_equiv_pos_as_xyz
  1  'x, y, z'
loop_
 _atom_site_type_symbol
 _atom_site_label
 _atom_site_symmetry_multiplicity
 _atom_site_fract_x
 _atom_site_fract_y
 _atom_site_fract_z
 _atom_site_occupancy
  Dy  Dy0  1  0.467328  0.467328  0.000000  1
  Dy  Dy1  1  0.782802  0.717161  0.282683  1
  Dy  Dy2  1  0.717161  0.782802  0.717317  1
  Dy  Dy3  1  0.967006  0.967006  0.000000  1
  Y  Y4  1  0.032579  0.032579  0.500000  1
  Y  Y5  1  0.500236  0.999713  0.750348  1
  Y  Y6  1  0.217278  0.282673  0.217172  1
  Y  Y7  1  0.282673  0.217278  0.782828  1
  Y  Y8  1  0.249955  0.749980  0.032737  1
  Y  Y9  1  0.249987  0.749948  0.532675  1
  Y  Y10  1  0.999713  0.500236  0.249652  1
  Y  Y11  1  0.499907  0.999938  0.249984  1
  Y  Y12  1  0.532893  0.532893  0.500000  1
  Y  Y13  1  0.999938  0.499907  0.750016  1
  Y  Y14  1  0.749948  0.249987  0.467325  1
  Y  Y15  1  0.749980  0.249955  0.967263  1
  O  O16  1  0.239832  0.542375  0.978243  1
  O  O17  1  0.260784  0.957294  0.781567  1
  O  O18  1  0.728525  0.968161  0.021166  1
  O  O19  1  0.031457  0.271921  0.520662  1
  O  O20  1  0.531907  0.771950  0.238819  1
  O  O21  1  0.228552  0.468606  0.739247  1
  O  O22  1  0.957294  0.260784  0.218433  1
  O  O23  1  0.542375  0.239832  0.021757  1
  O  O24  1  0.228857  0.010956  0.010877  1
  O  O25  1  0.270663  0.489002  0.292552  1
  O  O26  1  0.988420  0.770613  0.510114  1
  O  O27  1  0.511549  0.728912  0.792740  1
  O  O28  1  0.728912  0.511549  0.207260  1
  O  O29  1  0.770613  0.988420  0.489886  1
  O  O30  1  0.010956  0.228857  0.989123  1
  O  O31  1  0.489002  0.270663  0.707448  1
  O  O32  1  0.457696  0.760810  0.478418  1
  O  O33  1  0.041985  0.739787  0.280764  1
  O  O34  1  0.468606  0.228552  0.260753  1
  O  O35  1  0.771950  0.531907  0.761181  1
  O  O36  1  0.968161  0.728525  0.978834  1
  O  O37  1  0.271921  0.031457  0.479338  1
  O  O38  1  0.760810  0.457696  0.521582  1
  O  O39  1  0.739787  0.041985  0.719236  1
