# generated using pymatgen
data_Ba2SrI6
_symmetry_space_group_name_H-M   'P 1'
_cell_length_a   8.58513748
_cell_length_b   8.31457643
_cell_length_c   25.24408104
_cell_angle_alpha   90.00000000
_cell_angle_beta   93.47932704
_cell_angle_gamma   90.00000000
_symmetry_Int_Tables_number   1
_chemical_formula_structural   Ba2SrI6
_chemical_formula_sum   'Ba8 Sr4 I24'
_cell_volume   1798.64602487
_cell_formula_units_Z   4
loop_
 _symmetry_equiv_pos_site_id
 _symmetry_equiv_pos_as_xyz
  1  'x, y, z'
loop_
 _atom_site_type_symbol
 _atom_site_label
 _atom_site_symmetry_multiplicity
 _atom_site_fract_x
 _atom_site_fract_y
 _atom_site_fract_z
 _atom_site_occupancy
  Ba  Ba0  1  0.231035  0.448288  0.739641  1
  Ba  Ba1  1  0.331485  0.021182  0.908286  1
  Ba  Ba2  1  0.231035  0.051712  0.239641  1
  Ba  Ba3  1  0.331485  0.478818  0.408286  1
  Ba  Ba4  1  0.668515  0.521182  0.591714  1
  Ba  Ba5  1  0.768965  0.948288  0.760359  1
  Ba  Ba6  1  0.668515  0.978818  0.091714  1
  Ba  Ba7  1  0.768965  0.551712  0.260359  1
  Sr  Sr8  1  0.157826  0.965454  0.589699  1
  Sr  Sr9  1  0.157826  0.534546  0.089699  1
  Sr  Sr10  1  0.842174  0.465454  0.910301  1
  Sr  Sr11  1  0.842174  0.034546  0.410301  1
  I  I12  1  0.028983  0.211679  0.827895  1
  I  I13  1  0.076500  0.713522  0.839341  1
  I  I14  1  0.135320  0.300894  0.984626  1
  I  I15  1  0.028983  0.288321  0.327895  1
  I  I16  1  0.076500  0.786478  0.339341  1
  I  I17  1  0.135320  0.199106  0.484626  1
  I  I18  1  0.361026  0.711563  0.520983  1
  I  I19  1  0.411887  0.238077  0.642262  1
  I  I20  1  0.461340  0.753683  0.684781  1
  I  I21  1  0.538660  0.253683  0.815219  1
  I  I22  1  0.361026  0.788437  0.020983  1
  I  I23  1  0.588113  0.738077  0.857738  1
  I  I24  1  0.411887  0.261923  0.142262  1
  I  I25  1  0.638974  0.211563  0.979017  1
  I  I26  1  0.461340  0.746317  0.184781  1
  I  I27  1  0.538660  0.246317  0.315219  1
  I  I28  1  0.588113  0.761923  0.357738  1
  I  I29  1  0.638974  0.288437  0.479017  1
  I  I30  1  0.864680  0.800894  0.515374  1
  I  I31  1  0.923500  0.213522  0.660659  1
  I  I32  1  0.971017  0.711679  0.672105  1
  I  I33  1  0.864680  0.699106  0.015374  1
  I  I34  1  0.923500  0.286478  0.160659  1
  I  I35  1  0.971017  0.788321  0.172105  1
