# generated using pymatgen
data_Li4Nb5Cr3O16
_symmetry_space_group_name_H-M   'P 1'
_cell_length_a   6.15368268
_cell_length_b   6.15368268
_cell_length_c   10.08991030
_cell_angle_alpha   89.49965475
_cell_angle_beta   90.50034525
_cell_angle_gamma   120.91178003
_symmetry_Int_Tables_number   1
_chemical_formula_structural   Li4Nb5Cr3O16
_chemical_formula_sum   'Li4 Nb5 Cr3 O16'
_cell_volume   327.79498783
_cell_formula_units_Z   1
loop_
 _symmetry_equiv_pos_site_id
 _symmetry_equiv_pos_as_xyz
  1  'x, y, z'
loop_
 _atom_site_type_symbol
 _atom_site_label
 _atom_site_symmetry_multiplicity
 _atom_site_fract_x
 _atom_site_fract_y
 _atom_site_fract_z
 _atom_site_occupancy
  Li  Li0  1  0.672234  0.327766  0.090242  1
  Li  Li1  1  0.006179  0.993821  0.011334  1
  Li  Li2  1  0.997933  0.002067  0.509349  1
  Li  Li3  1  0.335725  0.664275  0.605372  1
  Nb  Nb4  1  0.654796  0.345204  0.507897  1
  Nb  Nb5  1  0.829119  0.170881  0.775657  1
  Nb  Nb6  1  0.332600  0.667400  0.000563  1
  Nb  Nb7  1  0.630092  0.814661  0.284346  1
  Nb  Nb8  1  0.185339  0.369908  0.284346  1
  Cr  Cr9  1  0.830939  0.661456  0.789634  1
  Cr  Cr10  1  0.338544  0.169061  0.789634  1
  Cr  Cr11  1  0.163569  0.836431  0.290549  1
  O  O12  1  0.816511  0.666368  0.409748  1
  O  O13  1  0.527489  0.472511  0.641759  1
  O  O14  1  0.675211  0.324789  0.891338  1
  O  O15  1  0.999310  0.000690  0.694183  1
  O  O16  1  0.999509  0.000491  0.195673  1
  O  O17  1  0.333632  0.183489  0.409748  1
  O  O18  1  0.968818  0.471426  0.659079  1
  O  O19  1  0.528574  0.031182  0.659079  1
  O  O20  1  0.173399  0.826601  0.918180  1
  O  O21  1  0.829757  0.170243  0.408295  1
  O  O22  1  0.495561  0.953705  0.152329  1
  O  O23  1  0.046295  0.504439  0.152329  1
  O  O24  1  0.318400  0.681600  0.411936  1
  O  O25  1  0.665403  0.842087  0.901891  1
  O  O26  1  0.491106  0.508894  0.145901  1
  O  O27  1  0.157913  0.334597  0.901891  1
