# generated using pymatgen
data_P4WO12
_symmetry_space_group_name_H-M   'P 1'
_cell_length_a   7.64432713
_cell_length_b   7.64432713
_cell_length_c   10.14881920
_cell_angle_alpha   67.33620469
_cell_angle_beta   112.66379531
_cell_angle_gamma   113.46679046
_symmetry_Int_Tables_number   1
_chemical_formula_structural   P4WO12
_chemical_formula_sum   'P8 W2 O24'
_cell_volume   482.79270587
_cell_formula_units_Z   2
loop_
 _symmetry_equiv_pos_site_id
 _symmetry_equiv_pos_as_xyz
  1  'x, y, z'
loop_
 _atom_site_type_symbol
 _atom_site_label
 _atom_site_symmetry_multiplicity
 _atom_site_fract_x
 _atom_site_fract_y
 _atom_site_fract_z
 _atom_site_occupancy
  P  P0  1  0.738017  0.748044  0.968503  1
  P  P1  1  0.748044  0.738017  0.531497  1
  P  P2  1  0.343440  0.690095  0.314788  1
  P  P3  1  0.251956  0.261983  0.468503  1
  P  P4  1  0.261983  0.251956  0.031497  1
  P  P5  1  0.690095  0.343440  0.185212  1
  P  P6  1  0.309905  0.656560  0.814788  1
  P  P7  1  0.656560  0.309905  0.685212  1
  W  W8  1  0.000000  0.500000  0.500000  1
  W  W9  1  0.500000  1.000000  0.000000  1
  O  O10  1  0.531381  0.658578  0.848099  1
  O  O11  1  0.649679  0.204079  0.844039  1
  O  O12  1  0.350321  0.795921  0.155961  1
  O  O13  1  0.669477  0.817867  0.060246  1
  O  O14  1  0.182133  0.330523  0.560246  1
  O  O15  1  0.341422  0.468619  0.348099  1
  O  O16  1  0.829676  0.306725  0.649690  1
  O  O17  1  0.456397  0.210837  0.577820  1
  O  O18  1  0.789163  0.543603  0.077820  1
  O  O19  1  0.123829  0.105652  0.396933  1
  O  O20  1  0.468619  0.341422  0.151901  1
  O  O21  1  0.795921  0.350321  0.344039  1
  O  O22  1  0.306725  0.829676  0.850310  1
  O  O23  1  0.105652  0.123829  0.103067  1
  O  O24  1  0.894348  0.876171  0.896933  1
  O  O25  1  0.817867  0.669477  0.439754  1
  O  O26  1  0.204079  0.649679  0.655961  1
  O  O27  1  0.330523  0.182133  0.939754  1
  O  O28  1  0.876171  0.894348  0.603067  1
  O  O29  1  0.210837  0.456397  0.922180  1
  O  O30  1  0.543603  0.789163  0.422180  1
  O  O31  1  0.170324  0.693275  0.350310  1
  O  O32  1  0.658578  0.531381  0.651901  1
  O  O33  1  0.693275  0.170324  0.149690  1
