# generated using pymatgen
data_Dy2P4O13
_symmetry_space_group_name_H-M   'P 1'
_cell_length_a   6.88380847
_cell_length_b   6.88380847
_cell_length_c   13.00046531
_cell_angle_alpha   76.07037525
_cell_angle_beta   103.92962475
_cell_angle_gamma   120.91256143
_symmetry_Int_Tables_number   1
_chemical_formula_structural   Dy2P4O13
_chemical_formula_sum   'Dy4 P8 O26'
_cell_volume   507.90475607
_cell_formula_units_Z   2
loop_
 _symmetry_equiv_pos_site_id
 _symmetry_equiv_pos_as_xyz
  1  'x, y, z'
loop_
 _atom_site_type_symbol
 _atom_site_label
 _atom_site_symmetry_multiplicity
 _atom_site_fract_x
 _atom_site_fract_y
 _atom_site_fract_z
 _atom_site_occupancy
  Dy  Dy0  1  0.305993  0.689555  0.950020  1
  Dy  Dy1  1  0.310445  0.694007  0.450020  1
  Dy  Dy2  1  0.689555  0.305993  0.549980  1
  Dy  Dy3  1  0.694007  0.310445  0.049980  1
  P  P4  1  0.226730  0.760196  0.659662  1
  P  P5  1  0.239804  0.773270  0.159662  1
  P  P6  1  0.862909  0.839860  0.866038  1
  P  P7  1  0.839860  0.862909  0.633962  1
  P  P8  1  0.160140  0.137091  0.366038  1
  P  P9  1  0.137091  0.160140  0.133962  1
  P  P10  1  0.760196  0.226730  0.840338  1
  P  P11  1  0.773270  0.239804  0.340338  1
  O  O12  1  0.102079  0.876811  0.897083  1
  O  O13  1  0.092253  0.898307  0.653196  1
  O  O14  1  0.123189  0.897921  0.397083  1
  O  O15  1  0.101693  0.907747  0.153196  1
  O  O16  1  0.294677  0.693392  0.775911  1
  O  O17  1  0.425366  0.923999  0.594923  1
  O  O18  1  0.074511  0.562651  0.593298  1
  O  O19  1  0.683560  0.674811  0.939759  1
  O  O20  1  0.306608  0.705323  0.275911  1
  O  O21  1  0.076001  0.574634  0.094923  1
  O  O22  1  0.437349  0.925489  0.093298  1
  O  O23  1  0.755070  0.755070  0.750000  1
  O  O24  1  0.674811  0.683560  0.560241  1
  O  O25  1  0.325189  0.316440  0.439759  1
  O  O26  1  0.244930  0.244930  0.250000  1
  O  O27  1  0.562651  0.074511  0.906702  1
  O  O28  1  0.923999  0.425366  0.905077  1
  O  O29  1  0.693392  0.294677  0.724089  1
  O  O30  1  0.316440  0.325189  0.060241  1
  O  O31  1  0.925489  0.437349  0.406702  1
  O  O32  1  0.574634  0.076001  0.405077  1
  O  O33  1  0.705323  0.306608  0.224089  1
  O  O34  1  0.898307  0.092253  0.846804  1
  O  O35  1  0.876811  0.102079  0.602917  1
  O  O36  1  0.907747  0.101693  0.346804  1
  O  O37  1  0.897921  0.123189  0.102917  1
