# generated using pymatgen
data_Li2Co3NiO8
_symmetry_space_group_name_H-M   'P 1'
_cell_length_a   5.65085281
_cell_length_b   5.65085281
_cell_length_c   5.65085281
_cell_angle_alpha   60.22721582
_cell_angle_beta   60.22721582
_cell_angle_gamma   60.22721582
_symmetry_Int_Tables_number   1
_chemical_formula_structural   Li2Co3NiO8
_chemical_formula_sum   'Li2 Co3 Ni1 O8'
_cell_volume   128.24939495
_cell_formula_units_Z   1
loop_
 _symmetry_equiv_pos_site_id
 _symmetry_equiv_pos_as_xyz
  1  'x, y, z'
loop_
 _atom_site_type_symbol
 _atom_site_label
 _atom_site_symmetry_multiplicity
 _atom_site_fract_x
 _atom_site_fract_y
 _atom_site_fract_z
 _atom_site_occupancy
  Li  Li0  1  0.874555  0.874555  0.874555  1
  Li  Li1  1  0.125445  0.125445  0.125445  1
  Co  Co2  1  0.500000  0.500000  0.000000  1
  Co  Co3  1  0.500000  0.000000  0.500000  1
  Co  Co4  1  0.000000  0.500000  0.500000  1
  Ni  Ni5  1  0.500000  0.500000  0.500000  1
  O  O6  1  0.735011  0.290881  0.735011  1
  O  O7  1  0.735011  0.735011  0.290881  1
  O  O8  1  0.265595  0.265595  0.265595  1
  O  O9  1  0.290881  0.735011  0.735011  1
  O  O10  1  0.709119  0.264989  0.264989  1
  O  O11  1  0.734405  0.734405  0.734405  1
  O  O12  1  0.264989  0.264989  0.709119  1
  O  O13  1  0.264989  0.709119  0.264989  1
