# generated using pymatgen
data_H10S(NO2)2
_symmetry_space_group_name_H-M   'P 1'
_cell_length_a   6.43292191
_cell_length_b   8.12562890
_cell_length_c   12.41415268
_cell_angle_alpha   90.00000000
_cell_angle_beta   97.91381575
_cell_angle_gamma   90.00000000
_symmetry_Int_Tables_number   1
_chemical_formula_structural   H10S(NO2)2
_chemical_formula_sum   'H40 S4 N8 O16'
_cell_volume   642.72683208
_cell_formula_units_Z   4
loop_
 _symmetry_equiv_pos_site_id
 _symmetry_equiv_pos_as_xyz
  1  'x, y, z'
loop_
 _atom_site_type_symbol
 _atom_site_label
 _atom_site_symmetry_multiplicity
 _atom_site_fract_x
 _atom_site_fract_y
 _atom_site_fract_z
 _atom_site_occupancy
  H  H0  1  0.107928  0.051134  0.318985  1
  H  H1  1  0.892072  0.551134  0.181015  1
  H  H2  1  0.892072  0.948866  0.681015  1
  H  H3  1  0.107928  0.448866  0.818985  1
  H  H4  1  0.206790  0.913435  0.399641  1
  H  H5  1  0.793210  0.413435  0.100359  1
  H  H6  1  0.793210  0.086565  0.600359  1
  H  H7  1  0.206790  0.586565  0.899641  1
  H  H8  1  0.688179  0.205480  0.302012  1
  H  H9  1  0.311821  0.705480  0.197988  1
  H  H10  1  0.311821  0.794520  0.697988  1
  H  H11  1  0.688179  0.294520  0.802012  1
  H  H12  1  0.695508  0.292136  0.429846  1
  H  H13  1  0.304492  0.792136  0.070154  1
  H  H14  1  0.304492  0.707864  0.570154  1
  H  H15  1  0.695508  0.207864  0.929846  1
  H  H16  1  0.556911  0.384572  0.319657  1
  H  H17  1  0.443089  0.884572  0.180343  1
  H  H18  1  0.443089  0.615428  0.680343  1
  H  H19  1  0.556911  0.115428  0.819657  1
  H  H20  1  0.821462  0.388454  0.336588  1
  H  H21  1  0.178538  0.888454  0.163412  1
  H  H22  1  0.178538  0.611546  0.663412  1
  H  H23  1  0.821462  0.111546  0.836588  1
  H  H24  1  0.823420  0.708141  0.384618  1
  H  H25  1  0.176580  0.208141  0.115382  1
  H  H26  1  0.176580  0.291859  0.615382  1
  H  H27  1  0.823420  0.791859  0.884618  1
  H  H28  1  0.570317  0.748671  0.410496  1
  H  H29  1  0.429683  0.248671  0.089504  1
  H  H30  1  0.429683  0.251329  0.589504  1
  H  H31  1  0.570317  0.751329  0.910496  1
  H  H32  1  0.774845  0.853400  0.479565  1
  H  H33  1  0.225155  0.353400  0.020435  1
  H  H34  1  0.225155  0.146600  0.520435  1
  H  H35  1  0.774845  0.646600  0.979565  1
  H  H36  1  0.704892  0.885044  0.343056  1
  H  H37  1  0.295108  0.385044  0.156944  1
  H  H38  1  0.295108  0.114956  0.656944  1
  H  H39  1  0.704892  0.614956  0.843056  1
  S  S40  1  0.779476  0.038109  0.122853  1
  S  S41  1  0.220524  0.538109  0.377147  1
  S  S42  1  0.220524  0.961891  0.877147  1
  S  S43  1  0.779476  0.461891  0.622853  1
  N  N44  1  0.691538  0.314860  0.346402  1
  N  N45  1  0.308462  0.814860  0.153598  1
  N  N46  1  0.308462  0.685140  0.653598  1
  N  N47  1  0.691538  0.185140  0.846402  1
  N  N48  1  0.719094  0.797968  0.405064  1
  N  N49  1  0.280906  0.297968  0.094936  1
  N  N50  1  0.280906  0.202032  0.594936  1
  N  N51  1  0.719094  0.702032  0.905064  1
  O  O52  1  0.705743  0.208364  0.075493  1
  O  O53  1  0.294257  0.708364  0.424507  1
  O  O54  1  0.294257  0.791636  0.924507  1
  O  O55  1  0.705743  0.291636  0.575493  1
  O  O56  1  0.011167  0.062672  0.173367  1
  O  O57  1  0.988833  0.562672  0.326633  1
  O  O58  1  0.988833  0.937328  0.826633  1
  O  O59  1  0.011167  0.437328  0.673367  1
  O  O60  1  0.656025  0.016604  0.221145  1
  O  O61  1  0.343975  0.516604  0.278855  1
  O  O62  1  0.343975  0.983396  0.778855  1
  O  O63  1  0.656025  0.483396  0.721145  1
  O  O64  1  0.171748  0.032193  0.394976  1
  O  O65  1  0.828252  0.532193  0.105024  1
  O  O66  1  0.828252  0.967807  0.605024  1
  O  O67  1  0.171748  0.467807  0.894976  1
