# generated using pymatgen
data_Ba4Ti11O26
_symmetry_space_group_name_H-M   'P 1'
_cell_length_a   10.02808795
_cell_length_b   10.02808795
_cell_length_c   16.62102515
_cell_angle_alpha   67.76692696
_cell_angle_beta   112.23307304
_cell_angle_gamma   133.82018130
_symmetry_Int_Tables_number   1
_chemical_formula_structural   Ba4Ti11O26
_chemical_formula_sum   'Ba8 Ti22 O52'
_cell_volume   1099.23694057
_cell_formula_units_Z   2
loop_
 _symmetry_equiv_pos_site_id
 _symmetry_equiv_pos_as_xyz
  1  'x, y, z'
loop_
 _atom_site_type_symbol
 _atom_site_label
 _atom_site_symmetry_multiplicity
 _atom_site_fract_x
 _atom_site_fract_y
 _atom_site_fract_z
 _atom_site_occupancy
  Ba  Ba0  1  0.092795  0.388570  0.940442  1
  Ba  Ba1  1  0.611430  0.907205  0.940442  1
  Ba  Ba2  1  0.884543  0.115457  0.545254  1
  Ba  Ba3  1  0.383971  0.616029  0.550516  1
  Ba  Ba4  1  0.115457  0.884543  0.454746  1
  Ba  Ba5  1  0.616029  0.383971  0.449484  1
  Ba  Ba6  1  0.907205  0.611430  0.059558  1
  Ba  Ba7  1  0.388570  0.092795  0.059558  1
  Ti  Ti8  1  0.491421  0.508579  0.882183  1
  Ti  Ti9  1  0.981500  0.018500  0.878543  1
  Ti  Ti10  1  0.135734  0.864266  0.831883  1
  Ti  Ti11  1  0.640415  0.359585  0.832449  1
  Ti  Ti12  1  0.265150  0.734850  0.754578  1
  Ti  Ti13  1  0.235342  0.264920  0.737992  1
  Ti  Ti14  1  0.735080  0.764658  0.737992  1
  Ti  Ti15  1  0.862676  0.622187  0.672949  1
  Ti  Ti16  1  0.377813  0.137324  0.672949  1
  Ti  Ti17  1  0.998284  0.474907  0.623139  1
  Ti  Ti18  1  0.525093  0.001716  0.623139  1
  Ti  Ti19  1  0.001716  0.525093  0.376861  1
  Ti  Ti20  1  0.474907  0.998284  0.376861  1
  Ti  Ti21  1  0.137324  0.377813  0.327051  1
  Ti  Ti22  1  0.622187  0.862676  0.327051  1
  Ti  Ti23  1  0.764658  0.735080  0.262008  1
  Ti  Ti24  1  0.264920  0.235342  0.262008  1
  Ti  Ti25  1  0.734850  0.265150  0.245422  1
  Ti  Ti26  1  0.864266  0.135734  0.168117  1
  Ti  Ti27  1  0.359585  0.640415  0.167551  1
  Ti  Ti28  1  0.508579  0.491421  0.117817  1
  Ti  Ti29  1  0.018500  0.981500  0.121457  1
  O  O30  1  0.500000  0.500000  0.000000  1
  O  O31  1  0.000000  0.000000  0.000000  1
  O  O32  1  0.605863  0.394137  0.925460  1
  O  O33  1  0.118058  0.881942  0.929048  1
  O  O34  1  0.244168  0.755832  0.866216  1
  O  O35  1  0.741731  0.258269  0.894049  1
  O  O36  1  0.879913  0.120087  0.841205  1
  O  O37  1  0.371950  0.628050  0.829866  1
  O  O38  1  0.243009  0.263677  0.861149  1
  O  O39  1  0.736323  0.756991  0.861149  1
  O  O40  1  0.865081  0.635382  0.799667  1
  O  O41  1  0.364618  0.134919  0.799667  1
  O  O42  1  0.004189  0.515745  0.731873  1
  O  O43  1  0.484255  0.995811  0.731873  1
  O  O44  1  0.495725  0.504275  0.756290  1
  O  O45  1  0.001942  0.998058  0.761381  1
  O  O46  1  0.134988  0.865012  0.699774  1
  O  O47  1  0.626567  0.373433  0.700506  1
  O  O48  1  0.263961  0.736039  0.633088  1
  O  O49  1  0.760313  0.239687  0.615571  1
  O  O50  1  0.123044  0.367489  0.669197  1
  O  O51  1  0.632511  0.876956  0.669197  1
  O  O52  1  0.252218  0.237405  0.633588  1
  O  O53  1  0.762595  0.747782  0.633588  1
  O  O54  1  0.881300  0.607436  0.571370  1
  O  O55  1  0.392564  0.118700  0.571370  1
  O  O56  1  1.000000  0.500000  0.500000  1
  O  O57  1  0.500000  0.000000  0.500000  1
  O  O58  1  0.118700  0.392564  0.428630  1
  O  O59  1  0.607436  0.881300  0.428630  1
  O  O60  1  0.747782  0.762595  0.366412  1
  O  O61  1  0.237405  0.252218  0.366412  1
  O  O62  1  0.876956  0.632511  0.330803  1
  O  O63  1  0.367489  0.123044  0.330803  1
  O  O64  1  0.736039  0.263961  0.366912  1
  O  O65  1  0.239687  0.760313  0.384429  1
  O  O66  1  0.865012  0.134988  0.300226  1
  O  O67  1  0.373433  0.626567  0.299494  1
  O  O68  1  0.998058  0.001942  0.238619  1
  O  O69  1  0.504275  0.495725  0.243710  1
  O  O70  1  0.995811  0.484255  0.268127  1
  O  O71  1  0.515745  0.004189  0.268127  1
  O  O72  1  0.635382  0.865081  0.200333  1
  O  O73  1  0.134919  0.364618  0.200333  1
  O  O74  1  0.756991  0.736323  0.138851  1
  O  O75  1  0.263677  0.243009  0.138851  1
  O  O76  1  0.120087  0.879913  0.158795  1
  O  O77  1  0.628050  0.371950  0.170134  1
  O  O78  1  0.755832  0.244168  0.133784  1
  O  O79  1  0.258269  0.741731  0.105951  1
  O  O80  1  0.881942  0.118058  0.070952  1
  O  O81  1  0.394137  0.605863  0.074540  1
