# generated using pymatgen
data_Li2V3(P2O7)2
_symmetry_space_group_name_H-M   'P 1'
_cell_length_a   5.54813821
_cell_length_b   6.97542611
_cell_length_c   7.52284100
_cell_angle_alpha   74.71211906
_cell_angle_beta   82.90765401
_cell_angle_gamma   67.69693641
_symmetry_Int_Tables_number   1
_chemical_formula_structural   Li2V3(P2O7)2
_chemical_formula_sum   'Li2 V3 P4 O14'
_cell_volume   259.73732395
_cell_formula_units_Z   1
loop_
 _symmetry_equiv_pos_site_id
 _symmetry_equiv_pos_as_xyz
  1  'x, y, z'
loop_
 _atom_site_type_symbol
 _atom_site_label
 _atom_site_symmetry_multiplicity
 _atom_site_fract_x
 _atom_site_fract_y
 _atom_site_fract_z
 _atom_site_occupancy
  Li  Li0  1  0.623806  0.016348  0.689052  1
  Li  Li1  1  0.376194  0.983652  0.310948  1
  V  V2  1  0.000000  0.000000  0.000000  1
  V  V3  1  0.190791  0.515882  0.310393  1
  V  V4  1  0.809209  0.484118  0.689607  1
  P  P5  1  0.195588  0.739965  0.655474  1
  P  P6  1  0.350203  0.316489  0.928668  1
  P  P7  1  0.649797  0.683511  0.071332  1
  P  P8  1  0.804412  0.260035  0.344526  1
  O  O9  1  0.170846  0.239544  0.846907  1
  O  O10  1  0.054462  0.654549  0.548848  1
  O  O11  1  0.325372  0.278746  0.137426  1
  O  O12  1  0.024209  0.941556  0.716212  1
  O  O13  1  0.261236  0.569338  0.855528  1
  O  O14  1  0.546353  0.255459  0.444541  1
  O  O15  1  0.364102  0.771994  0.143865  1
  O  O16  1  0.635898  0.228006  0.856135  1
  O  O17  1  0.453647  0.744541  0.555459  1
  O  O18  1  0.738764  0.430662  0.144472  1
  O  O19  1  0.975791  0.058444  0.283788  1
  O  O20  1  0.674628  0.721254  0.862574  1
  O  O21  1  0.945538  0.345451  0.451152  1
  O  O22  1  0.829154  0.760456  0.153093  1
