# generated using pymatgen
data_Li2VF5
_symmetry_space_group_name_H-M   'P 1'
_cell_length_a   6.39868343
_cell_length_b   7.61986912
_cell_length_c   8.12987166
_cell_angle_alpha   90.00000000
_cell_angle_beta   90.00000000
_cell_angle_gamma   90.00000000
_symmetry_Int_Tables_number   1
_chemical_formula_structural   Li2VF5
_chemical_formula_sum   'Li8 V4 F20'
_cell_volume   396.38921166
_cell_formula_units_Z   4
loop_
 _symmetry_equiv_pos_site_id
 _symmetry_equiv_pos_as_xyz
  1  'x, y, z'
loop_
 _atom_site_type_symbol
 _atom_site_label
 _atom_site_symmetry_multiplicity
 _atom_site_fract_x
 _atom_site_fract_y
 _atom_site_fract_z
 _atom_site_occupancy
  Li  Li0  1  0.987042  0.588686  0.974782  1
  Li  Li1  1  0.789962  0.251153  0.282132  1
  Li  Li2  1  0.710038  0.748847  0.782132  1
  Li  Li3  1  0.512958  0.411314  0.474782  1
  Li  Li4  1  0.487042  0.911314  0.025218  1
  Li  Li5  1  0.289962  0.248847  0.717868  1
  Li  Li6  1  0.210038  0.751153  0.217868  1
  Li  Li7  1  0.012958  0.088686  0.525218  1
  V  V8  1  0.767496  0.753019  0.351734  1
  V  V9  1  0.732504  0.246981  0.851734  1
  V  V10  1  0.267496  0.746981  0.648266  1
  V  V11  1  0.232504  0.253019  0.148266  1
  F  F12  1  0.989934  0.232188  0.724925  1
  F  F13  1  0.915586  0.747878  0.144580  1
  F  F14  1  0.918415  0.252188  0.059738  1
  F  F15  1  0.791043  0.003788  0.389811  1
  F  F16  1  0.761238  0.500932  0.377526  1
  F  F17  1  0.708957  0.996212  0.889811  1
  F  F18  1  0.738762  0.499068  0.877526  1
  F  F19  1  0.581585  0.747812  0.559738  1
  F  F20  1  0.584414  0.252122  0.644580  1
  F  F21  1  0.510066  0.767812  0.224925  1
  F  F22  1  0.489934  0.267812  0.275075  1
  F  F23  1  0.415586  0.752122  0.855420  1
  F  F24  1  0.418415  0.247812  0.940262  1
  F  F25  1  0.291043  0.496212  0.610189  1
  F  F26  1  0.261238  0.999068  0.622474  1
  F  F27  1  0.238762  0.000932  0.122474  1
  F  F28  1  0.208957  0.503788  0.110189  1
  F  F29  1  0.081585  0.752188  0.440262  1
  F  F30  1  0.084414  0.247878  0.355420  1
  F  F31  1  0.010066  0.732188  0.775075  1
