# generated using pymatgen
data_Na6Al4Fe(Si4O13)2
_symmetry_space_group_name_H-M   'P 1'
_cell_length_a   8.59724565
_cell_length_b   8.59724565
_cell_length_c   10.63388676
_cell_angle_alpha   69.21827924
_cell_angle_beta   110.78172076
_cell_angle_gamma   123.91775503
_symmetry_Int_Tables_number   1
_chemical_formula_structural   Na6Al4Fe(Si4O13)2
_chemical_formula_sum   'Na6 Al4 Fe1 Si8 O26'
_cell_volume   597.21336524
_cell_formula_units_Z   1
loop_
 _symmetry_equiv_pos_site_id
 _symmetry_equiv_pos_as_xyz
  1  'x, y, z'
loop_
 _atom_site_type_symbol
 _atom_site_label
 _atom_site_symmetry_multiplicity
 _atom_site_fract_x
 _atom_site_fract_y
 _atom_site_fract_z
 _atom_site_occupancy
  Na  Na0  1  0.155325  0.839887  0.890084  1
  Na  Na1  1  0.277264  0.736955  0.557384  1
  Na  Na2  1  0.477954  0.544981  0.166210  1
  Na  Na3  1  0.544981  0.477954  0.833790  1
  Na  Na4  1  0.736955  0.277264  0.442616  1
  Na  Na5  1  0.839887  0.155325  0.109916  1
  Al  Al6  1  0.159468  0.448477  0.347961  1
  Al  Al7  1  0.448477  0.159468  0.652039  1
  Al  Al8  1  0.748890  0.867495  0.656037  1
  Al  Al9  1  0.867495  0.748890  0.343963  1
  Fe  Fe10  1  0.988554  0.988554  0.000000  1
  Si  Si11  1  0.138383  0.258449  0.657193  1
  Si  Si12  1  0.150830  0.451551  0.867881  1
  Si  Si13  1  0.258449  0.138383  0.342807  1
  Si  Si14  1  0.534417  0.837369  0.868763  1
  Si  Si15  1  0.552986  0.847050  0.348686  1
  Si  Si16  1  0.451551  0.150830  0.132119  1
  Si  Si17  1  0.837369  0.534417  0.131237  1
  Si  Si18  1  0.847050  0.552986  0.651314  1
  O  O19  1  0.065499  0.267821  0.983881  1
  O  O20  1  0.061704  0.338704  0.497939  1
  O  O21  1  0.018312  0.556358  0.790341  1
  O  O22  1  0.262667  0.336898  0.323151  1
  O  O23  1  0.198356  0.417349  0.744677  1
  O  O24  1  0.048690  0.975093  0.282394  1
  O  O25  1  0.332948  0.686634  0.364153  1
  O  O26  1  0.359734  0.622546  0.934412  1
  O  O27  1  0.267821  0.065499  0.016119  1
  O  O28  1  0.338704  0.061704  0.502061  1
  O  O29  1  0.576185  0.795230  0.747738  1
  O  O30  1  0.433072  0.970845  0.795179  1
  O  O31  1  0.661280  0.758730  0.322976  1
  O  O32  1  0.336898  0.262667  0.676849  1
  O  O33  1  0.556358  0.018312  0.209659  1
  O  O34  1  0.417349  0.198356  0.255323  1
  O  O35  1  0.662081  0.947143  0.482810  1
  O  O36  1  0.710251  0.907279  0.995022  1
  O  O37  1  0.622546  0.359734  0.065588  1
  O  O38  1  0.686634  0.332948  0.635847  1
  O  O39  1  0.975093  0.048690  0.717606  1
  O  O40  1  0.795230  0.576185  0.252262  1
  O  O41  1  0.758730  0.661280  0.677024  1
  O  O42  1  0.970845  0.433072  0.204821  1
  O  O43  1  0.947143  0.662081  0.517190  1
  O  O44  1  0.907279  0.710251  0.004978  1
