# generated using pymatgen
data_Li2VO2F
_symmetry_space_group_name_H-M   'P 1'
_cell_length_a   5.19696553
_cell_length_b   6.03039537
_cell_length_c   7.35928452
_cell_angle_alpha   89.98357212
_cell_angle_beta   89.73945865
_cell_angle_gamma   89.98678792
_symmetry_Int_Tables_number   1
_chemical_formula_structural   Li2VO2F
_chemical_formula_sum   'Li8 V4 O8 F4'
_cell_volume   230.63578734
_cell_formula_units_Z   4
loop_
 _symmetry_equiv_pos_site_id
 _symmetry_equiv_pos_as_xyz
  1  'x, y, z'
loop_
 _atom_site_type_symbol
 _atom_site_label
 _atom_site_symmetry_multiplicity
 _atom_site_fract_x
 _atom_site_fract_y
 _atom_site_fract_z
 _atom_site_occupancy
  Li  Li0  1  0.351998  0.981195  0.857264  1
  Li  Li1  1  0.649504  0.980006  0.147472  1
  Li  Li2  1  0.161233  0.240994  0.145510  1
  Li  Li3  1  0.830489  0.245783  0.848839  1
  Li  Li4  1  0.669162  0.519153  0.135776  1
  Li  Li5  1  0.346360  0.519442  0.856763  1
  Li  Li6  1  0.805622  0.755243  0.857220  1
  Li  Li7  1  0.183950  0.759452  0.134755  1
  V  V8  1  0.004623  0.000070  0.500403  1
  V  V9  1  0.505071  0.245595  0.506411  1
  V  V10  1  0.987392  0.499801  0.505125  1
  V  V11  1  0.505241  0.755814  0.506430  1
  O  O12  1  0.676884  0.002173  0.654231  1
  O  O13  1  0.341781  0.001696  0.353869  1
  O  O14  1  0.166391  0.254879  0.643908  1
  O  O15  1  0.830854  0.254643  0.352162  1
  O  O16  1  0.652840  0.499252  0.651276  1
  O  O17  1  0.169337  0.743277  0.643598  1
  O  O18  1  0.832647  0.748186  0.354587  1
  O  O19  1  0.498785  0.749041  0.003261  1
  F  F20  1  0.000765  0.006559  0.999489  1
  F  F21  1  0.498471  0.249868  0.002928  1
  F  F22  1  0.328698  0.497656  0.338848  1
  F  F23  1  0.001903  0.490184  0.999879  1
