# generated using pymatgen
data_H3SNO3
_symmetry_space_group_name_H-M   'P 1'
_cell_length_a   8.13646623
_cell_length_b   8.18131103
_cell_length_c   9.38100200
_cell_angle_alpha   90.00000000
_cell_angle_beta   90.00000000
_cell_angle_gamma   90.00000000
_symmetry_Int_Tables_number   1
_chemical_formula_structural   H3SNO3
_chemical_formula_sum   'H24 S8 N8 O24'
_cell_volume   624.46479346
_cell_formula_units_Z   8
loop_
 _symmetry_equiv_pos_site_id
 _symmetry_equiv_pos_as_xyz
  1  'x, y, z'
loop_
 _atom_site_type_symbol
 _atom_site_label
 _atom_site_symmetry_multiplicity
 _atom_site_fract_x
 _atom_site_fract_y
 _atom_site_fract_z
 _atom_site_occupancy
  H  H0  1  0.645350  0.407390  0.429824  1
  H  H1  1  0.854650  0.907390  0.570176  1
  H  H2  1  0.145350  0.592610  0.070176  1
  H  H3  1  0.354650  0.092610  0.929824  1
  H  H4  1  0.354650  0.592610  0.570176  1
  H  H5  1  0.145350  0.092610  0.429824  1
  H  H6  1  0.854650  0.407390  0.929824  1
  H  H7  1  0.645350  0.907390  0.070176  1
  H  H8  1  0.749932  0.571173  0.367110  1
  H  H9  1  0.750068  0.071173  0.632890  1
  H  H10  1  0.249932  0.428827  0.132890  1
  H  H11  1  0.250068  0.928827  0.867110  1
  H  H12  1  0.250068  0.428827  0.632890  1
  H  H13  1  0.249932  0.928827  0.367110  1
  H  H14  1  0.750068  0.571173  0.867110  1
  H  H15  1  0.749932  0.071173  0.132890  1
  H  H16  1  0.805703  0.485851  0.524094  1
  H  H17  1  0.694297  0.985851  0.475906  1
  H  H18  1  0.305703  0.514149  0.975906  1
  H  H19  1  0.194297  0.014149  0.024094  1
  H  H20  1  0.194297  0.514149  0.475906  1
  H  H21  1  0.305703  0.014149  0.524094  1
  H  H22  1  0.694297  0.485851  0.024094  1
  H  H23  1  0.805703  0.985851  0.975906  1
  S  S24  1  0.907394  0.332156  0.329340  1
  S  S25  1  0.592606  0.832156  0.670660  1
  S  S26  1  0.407394  0.667844  0.170660  1
  S  S27  1  0.092606  0.167844  0.829340  1
  S  S28  1  0.092606  0.667844  0.670660  1
  S  S29  1  0.407394  0.167844  0.329340  1
  S  S30  1  0.592606  0.332156  0.829340  1
  S  S31  1  0.907394  0.832156  0.170660  1
  N  N32  1  0.760445  0.461808  0.422395  1
  N  N33  1  0.739555  0.961808  0.577605  1
  N  N34  1  0.260445  0.538192  0.077605  1
  N  N35  1  0.239555  0.038192  0.922395  1
  N  N36  1  0.239555  0.538192  0.577605  1
  N  N37  1  0.260445  0.038192  0.422395  1
  N  N38  1  0.739555  0.461808  0.922395  1
  N  N39  1  0.760445  0.961808  0.077605  1
  O  O40  1  0.048226  0.441244  0.322504  1
  O  O41  1  0.451774  0.941244  0.677496  1
  O  O42  1  0.548226  0.558756  0.177496  1
  O  O43  1  0.951774  0.058756  0.822504  1
  O  O44  1  0.951774  0.558756  0.677496  1
  O  O45  1  0.548226  0.058756  0.322504  1
  O  O46  1  0.451774  0.441244  0.822504  1
  O  O47  1  0.048226  0.941244  0.177496  1
  O  O48  1  0.924885  0.194273  0.425533  1
  O  O49  1  0.575115  0.694273  0.574467  1
  O  O50  1  0.424885  0.805727  0.074467  1
  O  O51  1  0.075115  0.305727  0.925533  1
  O  O52  1  0.075115  0.805727  0.574467  1
  O  O53  1  0.424885  0.305727  0.425533  1
  O  O54  1  0.575115  0.194273  0.925533  1
  O  O55  1  0.924885  0.694273  0.074467  1
  O  O56  1  0.825706  0.298500  0.195301  1
  O  O57  1  0.674294  0.798500  0.804699  1
  O  O58  1  0.325706  0.701500  0.304699  1
  O  O59  1  0.174294  0.201500  0.695301  1
  O  O60  1  0.174294  0.701500  0.804699  1
  O  O61  1  0.325706  0.201500  0.195301  1
  O  O62  1  0.674294  0.298500  0.695301  1
  O  O63  1  0.825706  0.798500  0.304699  1
