# generated using pymatgen
data_LiVF6
_symmetry_space_group_name_H-M   'P 1'
_cell_length_a   5.33509797
_cell_length_b   10.45250350
_cell_length_c   10.36803693
_cell_angle_alpha   90.00000000
_cell_angle_beta   100.56119344
_cell_angle_gamma   90.00000000
_symmetry_Int_Tables_number   1
_chemical_formula_structural   LiVF6
_chemical_formula_sum   'Li4 V4 F24'
_cell_volume   568.38048108
_cell_formula_units_Z   4
loop_
 _symmetry_equiv_pos_site_id
 _symmetry_equiv_pos_as_xyz
  1  'x, y, z'
loop_
 _atom_site_type_symbol
 _atom_site_label
 _atom_site_symmetry_multiplicity
 _atom_site_fract_x
 _atom_site_fract_y
 _atom_site_fract_z
 _atom_site_occupancy
  Li  Li0  1  0.389785  0.323577  0.879942  1
  Li  Li1  1  0.389785  0.176423  0.379942  1
  Li  Li2  1  0.610215  0.823577  0.620058  1
  Li  Li3  1  0.610215  0.676423  0.120058  1
  V  V4  1  0.252867  0.647186  0.801714  1
  V  V5  1  0.252867  0.852814  0.301714  1
  V  V6  1  0.747133  0.147186  0.698286  1
  V  V7  1  0.747133  0.352814  0.198286  1
  F  F8  1  0.002757  0.087772  0.627509  1
  F  F9  1  0.083400  0.791711  0.746550  1
  F  F10  1  0.149459  0.573914  0.646905  1
  F  F11  1  0.002757  0.412228  0.127509  1
  F  F12  1  0.083400  0.708289  0.246550  1
  F  F13  1  0.391425  0.720955  0.961621  1
  F  F14  1  0.149459  0.926086  0.146905  1
  F  F15  1  0.433714  0.499430  0.856395  1
  F  F16  1  0.459752  0.208341  0.754589  1
  F  F17  1  0.391425  0.779045  0.461621  1
  F  F18  1  0.540248  0.708341  0.745411  1
  F  F19  1  0.433714  0.000570  0.356395  1
  F  F20  1  0.566286  0.999430  0.643605  1
  F  F21  1  0.459752  0.291659  0.254589  1
  F  F22  1  0.608575  0.220955  0.538379  1
  F  F23  1  0.540248  0.791659  0.245411  1
  F  F24  1  0.566286  0.500570  0.143605  1
  F  F25  1  0.850541  0.073914  0.853095  1
  F  F26  1  0.608575  0.279045  0.038379  1
  F  F27  1  0.916600  0.291711  0.753450  1
  F  F28  1  0.997243  0.587772  0.872491  1
  F  F29  1  0.850541  0.426086  0.353095  1
  F  F30  1  0.916600  0.208289  0.253450  1
  F  F31  1  0.997243  0.912228  0.372491  1
