# generated using pymatgen
data_LiV3O8
_symmetry_space_group_name_H-M   'P 1'
_cell_length_a   6.83572559
_cell_length_b   3.64520321
_cell_length_c   12.01499344
_cell_angle_alpha   90.00000000
_cell_angle_beta   104.37821834
_cell_angle_gamma   90.00000000
_symmetry_Int_Tables_number   1
_chemical_formula_structural   LiV3O8
_chemical_formula_sum   'Li2 V6 O16'
_cell_volume   290.00746310
_cell_formula_units_Z   2
loop_
 _symmetry_equiv_pos_site_id
 _symmetry_equiv_pos_as_xyz
  1  'x, y, z'
loop_
 _atom_site_type_symbol
 _atom_site_label
 _atom_site_symmetry_multiplicity
 _atom_site_fract_x
 _atom_site_fract_y
 _atom_site_fract_z
 _atom_site_occupancy
  Li  Li0  1  0.180262  0.000000  0.680308  1
  Li  Li1  1  0.528834  0.500000  0.949282  1
  V  V2  1  0.265714  0.500000  0.201748  1
  V  V3  1  0.691711  0.000000  0.535296  1
  V  V4  1  0.120190  0.500000  0.922570  1
  V  V5  1  0.878235  0.000000  0.083316  1
  V  V6  1  0.308845  0.500000  0.463925  1
  V  V7  1  0.738382  0.000000  0.799557  1
  O  O8  1  0.184279  0.000000  0.172651  1
  O  O9  1  0.325183  0.500000  0.043914  1
  O  O10  1  0.605595  0.500000  0.540394  1
  O  O11  1  0.497056  0.500000  0.275658  1
  O  O12  1  0.870923  0.000000  0.676350  1
  O  O13  1  0.826766  0.000000  0.443603  1
  O  O14  1  0.044251  0.000000  0.923932  1
  O  O15  1  0.761979  0.000000  0.184003  1
  O  O16  1  0.240909  0.500000  0.817736  1
  O  O17  1  0.945719  0.500000  0.067350  1
  O  O18  1  0.179465  0.500000  0.563049  1
  O  O19  1  0.139542  0.500000  0.326342  1
  O  O20  1  0.502694  0.000000  0.723756  1
  O  O21  1  0.393064  0.000000  0.459616  1
  O  O22  1  0.666873  0.000000  0.951464  1
  O  O23  1  0.808260  0.500000  0.827210  1
