# generated using pymatgen
data_LiFeSiO4
_symmetry_space_group_name_H-M   'P 1'
_cell_length_a   5.73640694
_cell_length_b   5.73640694
_cell_length_c   8.06785251
_cell_angle_alpha   90.00000000
_cell_angle_beta   90.00000000
_cell_angle_gamma   90.00000000
_symmetry_Int_Tables_number   1
_chemical_formula_structural   LiFeSiO4
_chemical_formula_sum   'Li4 Fe4 Si4 O16'
_cell_volume   265.48369564
_cell_formula_units_Z   4
loop_
 _symmetry_equiv_pos_site_id
 _symmetry_equiv_pos_as_xyz
  1  'x, y, z'
loop_
 _atom_site_type_symbol
 _atom_site_label
 _atom_site_symmetry_multiplicity
 _atom_site_fract_x
 _atom_site_fract_y
 _atom_site_fract_z
 _atom_site_occupancy
  Li  Li0  1  0.500000  0.720948  0.000000  1
  Li  Li1  1  0.500000  0.279052  0.500000  1
  Li  Li2  1  0.720948  0.500000  0.250000  1
  Li  Li3  1  0.279052  0.500000  0.750000  1
  Fe  Fe4  1  0.725475  0.000000  0.250000  1
  Fe  Fe5  1  0.000000  0.725475  0.000000  1
  Fe  Fe6  1  0.000000  0.274525  0.500000  1
  Fe  Fe7  1  0.274525  0.000000  0.750000  1
  Si  Si8  1  0.756449  0.756449  0.625000  1
  Si  Si9  1  0.756449  0.243551  0.875000  1
  Si  Si10  1  0.243551  0.756449  0.375000  1
  Si  Si11  1  0.243551  0.243551  0.125000  1
  O  O12  1  0.482563  0.758250  0.260460  1
  O  O13  1  0.482563  0.241750  0.239540  1
  O  O14  1  0.758250  0.482563  0.989540  1
  O  O15  1  0.758250  0.517437  0.510460  1
  O  O16  1  0.759217  0.994766  0.501330  1
  O  O17  1  0.759217  0.005234  0.998670  1
  O  O18  1  0.005234  0.759217  0.251330  1
  O  O19  1  0.005234  0.240783  0.248670  1
  O  O20  1  0.994766  0.759217  0.748670  1
  O  O21  1  0.994766  0.240783  0.751330  1
  O  O22  1  0.240783  0.994766  0.498670  1
  O  O23  1  0.240783  0.005234  0.001330  1
  O  O24  1  0.241750  0.517437  0.489540  1
  O  O25  1  0.241750  0.482563  0.010460  1
  O  O26  1  0.517437  0.758250  0.739540  1
  O  O27  1  0.517437  0.241750  0.760460  1
