# generated using pymatgen
data_Na5LiMn2P2(CO7)2
_symmetry_space_group_name_H-M   'P 1'
_cell_length_a   8.96575332
_cell_length_b   6.76927939
_cell_length_c   10.34825473
_cell_angle_alpha   90.00000000
_cell_angle_beta   90.07331498
_cell_angle_gamma   90.00000000
_symmetry_Int_Tables_number   1
_chemical_formula_structural   Na5LiMn2P2(CO7)2
_chemical_formula_sum   'Na10 Li2 Mn4 P4 C4 O28'
_cell_volume   628.05254534
_cell_formula_units_Z   2
loop_
 _symmetry_equiv_pos_site_id
 _symmetry_equiv_pos_as_xyz
  1  'x, y, z'
loop_
 _atom_site_type_symbol
 _atom_site_label
 _atom_site_symmetry_multiplicity
 _atom_site_fract_x
 _atom_site_fract_y
 _atom_site_fract_z
 _atom_site_occupancy
  Na  Na0  1  0.082259  0.497929  0.119969  1
  Na  Na1  1  0.082259  0.502071  0.619969  1
  Na  Na2  1  0.258646  0.251835  0.376237  1
  Na  Na3  1  0.258774  0.748082  0.376175  1
  Na  Na4  1  0.258774  0.251918  0.876175  1
  Na  Na5  1  0.258646  0.748165  0.876237  1
  Na  Na6  1  0.741679  0.751860  0.123444  1
  Na  Na7  1  0.741679  0.248140  0.623444  1
  Na  Na8  1  0.915885  0.000187  0.380042  1
  Na  Na9  1  0.915885  0.999813  0.880042  1
  Li  Li10  1  0.733006  0.243010  0.121194  1
  Li  Li11  1  0.733006  0.756990  0.621194  1
  Mn  Mn12  1  0.362597  0.999654  0.110815  1
  Mn  Mn13  1  0.362597  0.000346  0.610815  1
  Mn  Mn14  1  0.639948  0.501179  0.389485  1
  Mn  Mn15  1  0.639948  0.498821  0.889485  1
  P  P16  1  0.413627  0.496385  0.149790  1
  P  P17  1  0.413627  0.503615  0.649790  1
  P  P18  1  0.591006  0.002825  0.351201  1
  P  P19  1  0.591006  0.997175  0.851201  1
  C  C20  1  0.056152  0.004984  0.131842  1
  C  C21  1  0.056152  0.995016  0.631842  1
  C  C22  1  0.939830  0.499416  0.367265  1
  C  C23  1  0.939830  0.500584  0.867265  1
  O  O24  1  0.083594  0.499907  0.356770  1
  O  O25  1  0.083594  0.500093  0.856770  1
  O  O26  1  0.120124  0.999325  0.018686  1
  O  O27  1  0.120124  0.000675  0.518686  1
  O  O28  1  0.140229  0.999158  0.234906  1
  O  O29  1  0.140229  0.000842  0.734906  1
  O  O30  1  0.318290  0.315054  0.107947  1
  O  O31  1  0.324836  0.682588  0.106017  1
  O  O32  1  0.324836  0.317412  0.606017  1
  O  O33  1  0.318290  0.684946  0.607947  1
  O  O34  1  0.427770  0.499495  0.300266  1
  O  O35  1  0.431168  0.000284  0.408717  1
  O  O36  1  0.427770  0.500505  0.800266  1
  O  O37  1  0.431168  0.999716  0.908717  1
  O  O38  1  0.573828  0.487271  0.092247  1
  O  O39  1  0.577998  0.008153  0.199849  1
  O  O40  1  0.573828  0.512729  0.592247  1
  O  O41  1  0.577998  0.991847  0.699849  1
  O  O42  1  0.682002  0.818143  0.394319  1
  O  O43  1  0.681855  0.185647  0.395858  1
  O  O44  1  0.681855  0.814353  0.895858  1
  O  O45  1  0.682002  0.181857  0.894319  1
  O  O46  1  0.855482  0.497087  0.264229  1
  O  O47  1  0.855482  0.502913  0.764229  1
  O  O48  1  0.877363  0.501585  0.481087  1
  O  O49  1  0.877363  0.498415  0.981087  1
  O  O50  1  0.912054  0.015619  0.141644  1
  O  O51  1  0.912054  0.984381  0.641644  1
