# generated using pymatgen
data_Li2VO3
_symmetry_space_group_name_H-M   'P 1'
_cell_length_a   5.00016422
_cell_length_b   5.12936550
_cell_length_c   5.15619057
_cell_angle_alpha   99.42291987
_cell_angle_beta   101.02134029
_cell_angle_gamma   119.04095146
_symmetry_Int_Tables_number   1
_chemical_formula_structural   Li2VO3
_chemical_formula_sum   'Li4 V2 O6'
_cell_volume   108.29616013
_cell_formula_units_Z   2
loop_
 _symmetry_equiv_pos_site_id
 _symmetry_equiv_pos_as_xyz
  1  'x, y, z'
loop_
 _atom_site_type_symbol
 _atom_site_label
 _atom_site_symmetry_multiplicity
 _atom_site_fract_x
 _atom_site_fract_y
 _atom_site_fract_z
 _atom_site_occupancy
  Li  Li0  1  0.500000  0.000000  0.000000  1
  Li  Li1  1  0.000000  0.500000  0.500000  1
  Li  Li2  1  0.163129  0.341587  0.996852  1
  Li  Li3  1  0.836871  0.658413  0.003148  1
  V  V4  1  0.336782  0.175446  0.498023  1
  V  V5  1  0.663218  0.824554  0.501977  1
  O  O6  1  0.713820  0.223220  0.729254  1
  O  O7  1  0.286180  0.776780  0.270746  1
  O  O8  1  0.431776  0.576318  0.725847  1
  O  O9  1  0.934407  0.071439  0.274016  1
  O  O10  1  0.568224  0.423682  0.274153  1
  O  O11  1  0.065593  0.928561  0.725984  1
