# generated using pymatgen
data_LiMn5P3O13
_symmetry_space_group_name_H-M   'P 1'
_cell_length_a   9.31165892
_cell_length_b   9.31165892
_cell_length_c   6.54391817
_cell_angle_alpha   90.00000000
_cell_angle_beta   90.00000000
_cell_angle_gamma   120.00000000
_symmetry_Int_Tables_number   1
_chemical_formula_structural   LiMn5P3O13
_chemical_formula_sum   'Li2 Mn10 P6 O26'
_cell_volume   491.38581033
_cell_formula_units_Z   2
loop_
 _symmetry_equiv_pos_site_id
 _symmetry_equiv_pos_as_xyz
  1  'x, y, z'
loop_
 _atom_site_type_symbol
 _atom_site_label
 _atom_site_symmetry_multiplicity
 _atom_site_fract_x
 _atom_site_fract_y
 _atom_site_fract_z
 _atom_site_occupancy
  Li  Li0  1  0.000000  0.000000  0.525970  1
  Li  Li1  1  0.000000  0.000000  0.025970  1
  Mn  Mn2  1  0.252912  0.014680  0.271731  1
  Mn  Mn3  1  0.985320  0.238232  0.271731  1
  Mn  Mn4  1  0.333333  0.666667  0.015899  1
  Mn  Mn5  1  0.333333  0.666667  0.505996  1
  Mn  Mn6  1  0.238232  0.252912  0.771731  1
  Mn  Mn7  1  0.761768  0.747088  0.271731  1
  Mn  Mn8  1  0.666667  0.333333  0.005996  1
  Mn  Mn9  1  0.666667  0.333333  0.515899  1
  Mn  Mn10  1  0.014680  0.761768  0.771731  1
  Mn  Mn11  1  0.747088  0.985320  0.771731  1
  P  P12  1  0.026181  0.398099  0.768042  1
  P  P13  1  0.371918  0.973819  0.768042  1
  P  P14  1  0.398099  0.371918  0.268042  1
  P  P15  1  0.601901  0.628082  0.768042  1
  P  P16  1  0.628082  0.026181  0.268042  1
  P  P17  1  0.973819  0.601901  0.268042  1
  O  O18  1  0.250880  0.925281  0.582902  1
  O  O19  1  0.262622  0.919290  0.963823  1
  O  O20  1  0.160508  0.658580  0.266225  1
  O  O21  1  0.132373  0.592713  0.757195  1
  O  O22  1  0.080710  0.343332  0.963823  1
  O  O23  1  0.074719  0.325600  0.582902  1
  O  O24  1  0.000000  0.000000  0.276171  1
  O  O25  1  0.000000  0.000000  0.776171  1
  O  O26  1  0.460340  0.867627  0.757195  1
  O  O27  1  0.341420  0.501928  0.266225  1
  O  O28  1  0.498072  0.839492  0.266225  1
  O  O29  1  0.407287  0.539660  0.757195  1
  O  O30  1  0.325600  0.250880  0.082902  1
  O  O31  1  0.343332  0.262622  0.463823  1
  O  O32  1  0.656668  0.737378  0.963823  1
  O  O33  1  0.674400  0.749120  0.582902  1
  O  O34  1  0.592713  0.460340  0.257195  1
  O  O35  1  0.501928  0.160508  0.766225  1
  O  O36  1  0.658580  0.498072  0.766225  1
  O  O37  1  0.539660  0.132373  0.257195  1
  O  O38  1  0.925281  0.674400  0.082902  1
  O  O39  1  0.919290  0.656668  0.463823  1
  O  O40  1  0.867627  0.407287  0.257195  1
  O  O41  1  0.839492  0.341420  0.766225  1
  O  O42  1  0.749120  0.074719  0.082902  1
  O  O43  1  0.737378  0.080710  0.463823  1
