# generated using pymatgen
data_Mn4FeO8
_symmetry_space_group_name_H-M   'P 1'
_cell_length_a   5.93628057
_cell_length_b   5.93628057
_cell_length_c   6.09678242
_cell_angle_alpha   61.75013045
_cell_angle_beta   118.24986955
_cell_angle_gamma   121.25637188
_symmetry_Int_Tables_number   1
_chemical_formula_structural   Mn4FeO8
_chemical_formula_sum   'Mn4 Fe1 O8'
_cell_volume   154.21177510
_cell_formula_units_Z   1
loop_
 _symmetry_equiv_pos_site_id
 _symmetry_equiv_pos_as_xyz
  1  'x, y, z'
loop_
 _atom_site_type_symbol
 _atom_site_label
 _atom_site_symmetry_multiplicity
 _atom_site_fract_x
 _atom_site_fract_y
 _atom_site_fract_z
 _atom_site_occupancy
  Mn  Mn0  1  0.500000  0.500000  0.500000  1
  Mn  Mn1  1  0.000000  0.000000  0.000000  1
  Mn  Mn2  1  1.000000  0.500000  0.000000  1
  Mn  Mn3  1  0.500000  0.000000  0.000000  1
  Fe  Fe4  1  0.500000  0.500000  0.000000  1
  O  O5  1  0.727576  0.272424  0.189882  1
  O  O6  1  0.720365  0.772229  0.197218  1
  O  O7  1  0.227771  0.279635  0.197218  1
  O  O8  1  0.254204  0.745796  0.215380  1
  O  O9  1  0.745796  0.254204  0.784620  1
  O  O10  1  0.772229  0.720365  0.802782  1
  O  O11  1  0.279635  0.227771  0.802782  1
  O  O12  1  0.272424  0.727576  0.810118  1
