# generated using pymatgen
data_Li10Cu4S9
_symmetry_space_group_name_H-M   'P 1'
_cell_length_a   11.59163042
_cell_length_b   11.59163042
_cell_length_c   5.65913865
_cell_angle_alpha   90.00000000
_cell_angle_beta   90.00000000
_cell_angle_gamma   90.00000000
_symmetry_Int_Tables_number   1
_chemical_formula_structural   Li10Cu4S9
_chemical_formula_sum   'Li20 Cu8 S18'
_cell_volume   760.39523413
_cell_formula_units_Z   2
loop_
 _symmetry_equiv_pos_site_id
 _symmetry_equiv_pos_as_xyz
  1  'x, y, z'
loop_
 _atom_site_type_symbol
 _atom_site_label
 _atom_site_symmetry_multiplicity
 _atom_site_fract_x
 _atom_site_fract_y
 _atom_site_fract_z
 _atom_site_occupancy
  Li  Li0  1  0.148612  0.315021  0.215390  1
  Li  Li1  1  0.851388  0.315021  0.215390  1
  Li  Li2  1  0.815021  0.351388  0.715390  1
  Li  Li3  1  0.184979  0.351388  0.715390  1
  Li  Li4  1  0.000000  0.500000  0.173536  1
  Li  Li5  1  0.000000  0.500000  0.673536  1
  Li  Li6  1  0.815021  0.648612  0.715390  1
  Li  Li7  1  0.184979  0.648612  0.715390  1
  Li  Li8  1  0.851388  0.684979  0.215390  1
  Li  Li9  1  0.148612  0.684979  0.215390  1
  Li  Li10  1  0.351388  0.815021  0.284610  1
  Li  Li11  1  0.648612  0.815021  0.284610  1
  Li  Li12  1  0.315021  0.851388  0.784610  1
  Li  Li13  1  0.684979  0.851388  0.784610  1
  Li  Li14  1  0.500000  0.000000  0.826464  1
  Li  Li15  1  0.500000  0.000000  0.326464  1
  Li  Li16  1  0.684979  0.148612  0.784610  1
  Li  Li17  1  0.315021  0.148612  0.784610  1
  Li  Li18  1  0.351388  0.184979  0.284610  1
  Li  Li19  1  0.648612  0.184979  0.284610  1
  Cu  Cu20  1  0.500000  0.345553  0.756415  1
  Cu  Cu21  1  0.654447  0.500000  0.243585  1
  Cu  Cu22  1  0.345553  0.500000  0.243585  1
  Cu  Cu23  1  0.500000  0.654447  0.756415  1
  Cu  Cu24  1  0.000000  0.845553  0.743585  1
  Cu  Cu25  1  0.845553  0.000000  0.256415  1
  Cu  Cu26  1  0.154447  0.000000  0.256415  1
  Cu  Cu27  1  0.000000  0.154447  0.743585  1
  S  S28  1  0.339705  0.339705  0.000000  1
  S  S29  1  0.660295  0.339705  0.000000  1
  S  S30  1  0.000000  0.333240  0.924224  1
  S  S31  1  0.500000  0.500000  0.500000  1
  S  S32  1  0.833240  0.500000  0.424224  1
  S  S33  1  0.166760  0.500000  0.424224  1
  S  S34  1  0.000000  0.666760  0.924224  1
  S  S35  1  0.339705  0.660295  0.000000  1
  S  S36  1  0.660295  0.660295  0.000000  1
  S  S37  1  0.839705  0.839705  0.500000  1
  S  S38  1  0.160295  0.839705  0.500000  1
  S  S39  1  0.500000  0.833240  0.575776  1
  S  S40  1  0.666760  0.000000  0.075776  1
  S  S41  1  0.000000  0.000000  0.000000  1
  S  S42  1  0.333240  0.000000  0.075776  1
  S  S43  1  0.500000  0.166760  0.575776  1
  S  S44  1  0.839705  0.160295  0.500000  1
  S  S45  1  0.160295  0.160295  0.500000  1
