# generated using pymatgen
data_FeOF
_symmetry_space_group_name_H-M   'P 1'
_cell_length_a   4.74622997
_cell_length_b   5.67798765
_cell_length_c   7.78563102
_cell_angle_alpha   85.56828198
_cell_angle_beta   89.85618930
_cell_angle_gamma   89.25358089
_symmetry_Int_Tables_number   1
_chemical_formula_structural   FeOF
_chemical_formula_sum   'Fe6 O6 F6'
_cell_volume   209.16993506
_cell_formula_units_Z   6
loop_
 _symmetry_equiv_pos_site_id
 _symmetry_equiv_pos_as_xyz
  1  'x, y, z'
loop_
 _atom_site_type_symbol
 _atom_site_label
 _atom_site_symmetry_multiplicity
 _atom_site_fract_x
 _atom_site_fract_y
 _atom_site_fract_z
 _atom_site_occupancy
  Fe  Fe0  1  0.529196  0.841862  0.667736  1
  Fe  Fe1  1  0.434374  0.505319  0.007805  1
  Fe  Fe2  1  0.531949  0.180051  0.337763  1
  Fe  Fe3  1  0.985560  0.320188  0.671899  1
  Fe  Fe4  1  0.984098  0.654333  0.338260  1
  Fe  Fe5  1  0.026782  0.000677  0.978491  1
  O  O6  1  0.806866  0.373262  0.444841  1
  O  O7  1  0.805225  0.036231  0.766748  1
  O  O8  1  0.693888  0.872327  0.432173  1
  O  O9  1  0.301579  0.459587  0.240447  1
  O  O10  1  0.314217  0.798701  0.890961  1
  O  O11  1  0.191548  0.298064  0.891780  1
  F  F12  1  0.807686  0.702671  0.097515  1
  F  F13  1  0.698365  0.203180  0.098622  1
  F  F14  1  0.697608  0.535442  0.775619  1
  F  F15  1  0.299511  0.127573  0.560484  1
  F  F16  1  0.190071  0.960503  0.227658  1
  F  F17  1  0.201475  0.630033  0.571198  1
