# generated using pymatgen
data_Li3Cr(NiO2)4
_symmetry_space_group_name_H-M   'P 1'
_cell_length_a   5.87346896
_cell_length_b   5.87346896
_cell_length_c   5.90182747
_cell_angle_alpha   59.81624571
_cell_angle_beta   120.18375429
_cell_angle_gamma   119.94629212
_symmetry_Int_Tables_number   1
_chemical_formula_structural   Li3Cr(NiO2)4
_chemical_formula_sum   'Li3 Cr1 Ni4 O8'
_cell_volume   143.62300822
_cell_formula_units_Z   1
loop_
 _symmetry_equiv_pos_site_id
 _symmetry_equiv_pos_as_xyz
  1  'x, y, z'
loop_
 _atom_site_type_symbol
 _atom_site_label
 _atom_site_symmetry_multiplicity
 _atom_site_fract_x
 _atom_site_fract_y
 _atom_site_fract_z
 _atom_site_occupancy
  Li  Li0  1  0.000000  0.500000  0.000000  1
  Li  Li1  1  0.000000  0.000000  0.500000  1
  Li  Li2  1  0.500000  0.000000  0.000000  1
  Cr  Cr3  1  0.500000  0.500000  0.000000  1
  Ni  Ni4  1  0.500000  0.500000  0.500000  1
  Ni  Ni5  1  0.000000  0.000000  0.000000  1
  Ni  Ni6  1  0.000000  0.500000  0.500000  1
  Ni  Ni7  1  0.500000  0.000000  0.500000  1
  O  O8  1  0.269049  0.730951  0.759576  1
  O  O9  1  0.261517  0.262356  0.237706  1
  O  O10  1  0.737644  0.738483  0.237706  1
  O  O11  1  0.750223  0.249777  0.723102  1
  O  O12  1  0.249777  0.750223  0.276898  1
  O  O13  1  0.262356  0.261517  0.762294  1
  O  O14  1  0.738483  0.737644  0.762294  1
  O  O15  1  0.730951  0.269049  0.240424  1
