# generated using pymatgen
data_Li3MnFe2(BO3)3
_symmetry_space_group_name_H-M   'P 1'
_cell_length_a   8.25993020
_cell_length_b   3.15082488
_cell_length_c   14.28893815
_cell_angle_alpha   90.00000000
_cell_angle_beta   90.01503384
_cell_angle_gamma   90.00000000
_symmetry_Int_Tables_number   1
_chemical_formula_structural   Li3MnFe2(BO3)3
_chemical_formula_sum   'Li6 Mn2 Fe4 B6 O18'
_cell_volume   371.87808415
_cell_formula_units_Z   2
loop_
 _symmetry_equiv_pos_site_id
 _symmetry_equiv_pos_as_xyz
  1  'x, y, z'
loop_
 _atom_site_type_symbol
 _atom_site_label
 _atom_site_symmetry_multiplicity
 _atom_site_fract_x
 _atom_site_fract_y
 _atom_site_fract_z
 _atom_site_occupancy
  Li  Li0  1  0.708204  0.500000  0.008830  1
  Li  Li1  1  0.660016  0.500000  0.642372  1
  Li  Li2  1  0.635273  0.500000  0.349172  1
  Li  Li3  1  0.206004  0.500000  0.508506  1
  Li  Li4  1  0.159034  0.500000  0.141827  1
  Li  Li5  1  0.133422  0.500000  0.849603  1
  Mn  Mn6  1  0.325835  0.000000  0.685993  1
  Mn  Mn7  1  0.308551  0.000000  0.319948  1
  Fe  Fe8  1  0.860951  0.000000  0.496281  1
  Fe  Fe9  1  0.823877  0.000000  0.184846  1
  Fe  Fe10  1  0.811200  0.000000  0.819873  1
  Fe  Fe11  1  0.364264  0.000000  0.995927  1
  B  B12  1  0.997643  0.500000  0.333251  1
  B  B13  1  0.000379  0.000000  0.999897  1
  B  B14  1  0.997780  0.500000  0.666896  1
  B  B15  1  0.502260  0.500000  0.834600  1
  B  B16  1  0.501064  0.000000  0.499389  1
  B  B17  1  0.501158  0.500000  0.165214  1
  O  O18  1  0.986371  0.500000  0.569664  1
  O  O19  1  0.981081  0.500000  0.236213  1
  O  O20  1  0.861743  0.500000  0.390825  1
  O  O21  1  0.858318  0.500000  0.721378  1
  O  O22  1  0.848889  0.000000  0.042573  1
  O  O23  1  0.656252  0.500000  0.874126  1
  O  O24  1  0.652458  0.500000  0.208442  1
  O  O25  1  0.638207  0.000000  0.556231  1
  O  O26  1  0.518408  0.000000  0.402567  1
  O  O27  1  0.489894  0.500000  0.068058  1
  O  O28  1  0.485870  0.500000  0.737380  1
  O  O29  1  0.364501  0.500000  0.890985  1
  O  O30  1  0.361401  0.500000  0.219088  1
  O  O31  1  0.347076  0.000000  0.539455  1
  O  O32  1  0.151273  0.500000  0.373632  1
  O  O33  1  0.148624  0.500000  0.709740  1
  O  O34  1  0.140257  0.000000  0.054540  1
  O  O35  1  0.012459  0.000000  0.902673  1
