# generated using pymatgen
data_Li5(FeO2)4
_symmetry_space_group_name_H-M   'P 1'
_cell_length_a   6.00873466
_cell_length_b   6.00873466
_cell_length_c   9.91845179
_cell_angle_alpha   89.83584948
_cell_angle_beta   90.16415052
_cell_angle_gamma   60.29301712
_symmetry_Int_Tables_number   1
_chemical_formula_structural   Li5(FeO2)4
_chemical_formula_sum   'Li10 Fe8 O16'
_cell_volume   311.03428216
_cell_formula_units_Z   2
loop_
 _symmetry_equiv_pos_site_id
 _symmetry_equiv_pos_as_xyz
  1  'x, y, z'
loop_
 _atom_site_type_symbol
 _atom_site_label
 _atom_site_symmetry_multiplicity
 _atom_site_fract_x
 _atom_site_fract_y
 _atom_site_fract_z
 _atom_site_occupancy
  Li  Li0  1  0.810342  0.796679  0.043341  1
  Li  Li1  1  0.395060  0.802262  0.039682  1
  Li  Li2  1  0.662658  0.669682  0.259930  1
  Li  Li3  1  0.805303  0.389736  0.042966  1
  Li  Li4  1  0.197738  0.604940  0.539682  1
  Li  Li5  1  0.610264  0.194697  0.542966  1
  Li  Li6  1  0.999510  0.003303  0.473988  1
  Li  Li7  1  0.330318  0.337342  0.759930  1
  Li  Li8  1  0.996697  0.000490  0.973988  1
  Li  Li9  1  0.203321  0.189658  0.543341  1
  Fe  Fe10  1  0.663299  0.675465  0.515026  1
  Fe  Fe11  1  0.324535  0.336701  0.015026  1
  Fe  Fe12  1  0.830410  0.834605  0.773175  1
  Fe  Fe13  1  0.336207  0.833357  0.774047  1
  Fe  Fe14  1  0.828044  0.344240  0.772010  1
  Fe  Fe15  1  0.166643  0.663793  0.274047  1
  Fe  Fe16  1  0.655760  0.171956  0.272010  1
  Fe  Fe17  1  0.165395  0.169590  0.273175  1
  O  O18  1  0.827717  0.843885  0.397460  1
  O  O19  1  0.516459  0.982812  0.650459  1
  O  O20  1  0.681910  0.662150  0.892906  1
  O  O21  1  0.331803  0.847803  0.401780  1
  O  O22  1  0.983230  0.513406  0.649318  1
  O  O23  1  0.520857  0.502655  0.643443  1
  O  O24  1  0.152197  0.668197  0.901780  1
  O  O25  1  0.834141  0.335543  0.393219  1
  O  O26  1  0.497345  0.479143  0.143443  1
  O  O27  1  0.664457  0.165859  0.893219  1
  O  O28  1  0.337850  0.318090  0.392906  1
  O  O29  1  0.988417  0.021597  0.162894  1
  O  O30  1  0.017188  0.483541  0.150459  1
  O  O31  1  0.486594  0.016770  0.149318  1
  O  O32  1  0.156115  0.172283  0.897460  1
  O  O33  1  0.978403  0.011583  0.662894  1
