# generated using pymatgen
data_Fe10O11F9
_symmetry_space_group_name_H-M   'P 1'
_cell_length_a   4.73555037
_cell_length_b   15.37415887
_cell_length_c   4.75059885
_cell_angle_alpha   90.00000000
_cell_angle_beta   92.34701288
_cell_angle_gamma   90.00000000
_symmetry_Int_Tables_number   1
_chemical_formula_structural   Fe10O11F9
_chemical_formula_sum   'Fe10 O11 F9'
_cell_volume   345.57770378
_cell_formula_units_Z   1
loop_
 _symmetry_equiv_pos_site_id
 _symmetry_equiv_pos_as_xyz
  1  'x, y, z'
loop_
 _atom_site_type_symbol
 _atom_site_label
 _atom_site_symmetry_multiplicity
 _atom_site_fract_x
 _atom_site_fract_y
 _atom_site_fract_z
 _atom_site_occupancy
  Fe  Fe0  1  0.999214  0.397011  0.014721  1
  Fe  Fe1  1  0.999214  0.602989  0.014721  1
  Fe  Fe2  1  0.957168  0.799414  0.001712  1
  Fe  Fe3  1  0.955488  0.000000  0.010725  1
  Fe  Fe4  1  0.957168  0.200586  0.001712  1
  Fe  Fe5  1  0.497957  0.500000  0.509489  1
  Fe  Fe6  1  0.537948  0.897128  0.502448  1
  Fe  Fe7  1  0.535151  0.691258  0.488574  1
  Fe  Fe8  1  0.537948  0.102872  0.502448  1
  Fe  Fe9  1  0.535151  0.308742  0.488574  1
  O  O10  1  0.810134  0.696936  0.189477  1
  O  O11  1  0.798456  0.898576  0.190983  1
  O  O12  1  0.798456  0.101424  0.190983  1
  O  O13  1  0.810134  0.303064  0.189477  1
  O  O14  1  0.698723  0.408116  0.702420  1
  O  O15  1  0.698723  0.591884  0.702420  1
  O  O16  1  0.690357  0.794601  0.683829  1
  O  O17  1  0.691095  0.000000  0.688405  1
  O  O18  1  0.690357  0.205399  0.683829  1
  O  O19  1  0.309578  0.406675  0.312409  1
  O  O20  1  0.309578  0.593325  0.312409  1
  F  F21  1  0.813392  0.500000  0.200999  1
  F  F22  1  0.299675  0.796610  0.294500  1
  F  F23  1  0.297896  0.000000  0.298318  1
  F  F24  1  0.299675  0.203390  0.294500  1
  F  F25  1  0.190567  0.500000  0.820222  1
  F  F26  1  0.192233  0.897670  0.801172  1
  F  F27  1  0.198164  0.698630  0.803678  1
  F  F28  1  0.198164  0.301370  0.803678  1
  F  F29  1  0.192233  0.102330  0.801172  1
