# generated using pymatgen
data_Na3(WO3)4
_symmetry_space_group_name_H-M   'P 1'
_cell_length_a   6.83206716
_cell_length_b   6.83206716
_cell_length_c   11.15127124
_cell_angle_alpha   89.90082151
_cell_angle_beta   90.09917849
_cell_angle_gamma   109.80170733
_symmetry_Int_Tables_number   1
_chemical_formula_structural   Na3(WO3)4
_chemical_formula_sum   'Na6 W8 O24'
_cell_volume   489.73099858
_cell_formula_units_Z   2
loop_
 _symmetry_equiv_pos_site_id
 _symmetry_equiv_pos_as_xyz
  1  'x, y, z'
loop_
 _atom_site_type_symbol
 _atom_site_label
 _atom_site_symmetry_multiplicity
 _atom_site_fract_x
 _atom_site_fract_y
 _atom_site_fract_z
 _atom_site_occupancy
  Na  Na0  1  0.999396  0.000604  0.001923  1
  Na  Na1  1  0.249423  0.750577  0.251797  1
  Na  Na2  1  0.500584  0.499416  0.001755  1
  Na  Na3  1  0.249400  0.750600  0.747906  1
  Na  Na4  1  0.500500  0.499500  0.498074  1
  Na  Na5  1  0.750633  0.249367  0.748313  1
  W  W6  1  0.998842  0.498950  0.001943  1
  W  W7  1  0.248813  0.248761  0.251961  1
  W  W8  1  0.751239  0.751187  0.251961  1
  W  W9  1  0.998735  0.498605  0.497817  1
  W  W10  1  0.501050  0.001158  0.001943  1
  W  W11  1  0.501395  0.001265  0.497817  1
  W  W12  1  0.750830  0.751168  0.747950  1
  W  W13  1  0.248832  0.249170  0.747950  1
  O  O14  1  0.615943  0.848103  0.116579  1
  O  O15  1  0.151897  0.384057  0.116579  1
  O  O16  1  0.136716  0.402451  0.373144  1
  O  O17  1  0.597549  0.863284  0.373144  1
  O  O18  1  0.011102  0.988898  0.749879  1
  O  O19  1  0.506731  0.493269  0.249030  1
  O  O20  1  0.749392  0.250608  0.011022  1
  O  O21  1  0.252449  0.747551  0.512569  1
  O  O22  1  0.364570  0.099331  0.126790  1
  O  O23  1  0.900669  0.635430  0.126790  1
  O  O24  1  0.117097  0.358772  0.620050  1
  O  O25  1  0.357994  0.116499  0.382503  1
  O  O26  1  0.641228  0.882903  0.620050  1
  O  O27  1  0.883501  0.642006  0.382503  1
  O  O28  1  0.099339  0.370046  0.870415  1
  O  O29  1  0.629954  0.900661  0.870415  1
  O  O30  1  0.487056  0.512944  0.751824  1
  O  O31  1  0.748000  0.252000  0.489922  1
  O  O32  1  0.995126  0.004874  0.250210  1
  O  O33  1  0.250248  0.749752  0.985463  1
  O  O34  1  0.402337  0.131028  0.629888  1
  O  O35  1  0.868972  0.597663  0.629888  1
  O  O36  1  0.849076  0.616615  0.881114  1
  O  O37  1  0.383385  0.150924  0.881114  1
