# generated using pymatgen
data_Co3(OF2)2
_symmetry_space_group_name_H-M   'P 1'
_cell_length_a   5.64606461
_cell_length_b   5.65109265
_cell_length_c   7.06475621
_cell_angle_alpha   73.78529005
_cell_angle_beta   73.54943363
_cell_angle_gamma   73.11683593
_symmetry_Int_Tables_number   1
_chemical_formula_structural   Co3(OF2)2
_chemical_formula_sum   'Co6 O4 F8'
_cell_volume   202.04407968
_cell_formula_units_Z   2
loop_
 _symmetry_equiv_pos_site_id
 _symmetry_equiv_pos_as_xyz
  1  'x, y, z'
loop_
 _atom_site_type_symbol
 _atom_site_label
 _atom_site_symmetry_multiplicity
 _atom_site_fract_x
 _atom_site_fract_y
 _atom_site_fract_z
 _atom_site_occupancy
  Co  Co0  1  0.309149  0.324665  0.158508  1
  Co  Co1  1  0.343219  0.359239  0.684690  1
  Co  Co2  1  0.683850  0.641591  0.331305  1
  Co  Co3  1  0.671058  0.667254  0.833706  1
  Co  Co4  1  0.994364  0.028919  0.491170  1
  Co  Co5  1  0.990332  0.994513  0.997763  1
  O  O6  1  0.758739  0.746273  0.044131  1
  O  O7  1  0.591486  0.574230  0.620852  1
  O  O8  1  0.220149  0.230176  0.971856  1
  O  O9  1  0.962286  0.363885  0.332512  1
  F  F10  1  0.036099  0.657778  0.663545  1
  F  F11  1  0.372493  0.956492  0.335208  1
  F  F12  1  0.428193  0.422136  0.364951  1
  F  F13  1  0.112614  0.110510  0.693912  1
  F  F14  1  0.897737  0.893253  0.304920  1
  F  F15  1  0.643654  0.038893  0.671742  1
  F  F16  1  0.300696  0.691769  0.997285  1
  F  F17  1  0.683885  0.298425  0.001942  1
