# generated using pymatgen
data_Li4Co(SiO3)3
_symmetry_space_group_name_H-M   'P 1'
_cell_length_a   6.28626328
_cell_length_b   6.28626328
_cell_length_c   10.08281616
_cell_angle_alpha   88.90126243
_cell_angle_beta   91.09873757
_cell_angle_gamma   72.46749783
_symmetry_Int_Tables_number   1
_chemical_formula_structural   Li4Co(SiO3)3
_chemical_formula_sum   'Li8 Co2 Si6 O18'
_cell_volume   379.73451653
_cell_formula_units_Z   2
loop_
 _symmetry_equiv_pos_site_id
 _symmetry_equiv_pos_as_xyz
  1  'x, y, z'
loop_
 _atom_site_type_symbol
 _atom_site_label
 _atom_site_symmetry_multiplicity
 _atom_site_fract_x
 _atom_site_fract_y
 _atom_site_fract_z
 _atom_site_occupancy
  Li  Li0  1  0.807593  0.379598  0.794777  1
  Li  Li1  1  0.463886  0.181931  0.207249  1
  Li  Li2  1  0.549897  0.549897  0.500000  1
  Li  Li3  1  0.993277  0.993277  0.500000  1
  Li  Li4  1  0.633373  0.633373  0.000000  1
  Li  Li5  1  0.996002  0.996002  0.000000  1
  Li  Li6  1  0.181931  0.463886  0.792751  1
  Li  Li7  1  0.379598  0.807593  0.205223  1
  Co  Co8  1  0.830527  0.815374  0.743724  1
  Co  Co9  1  0.815374  0.830527  0.256276  1
  Si  Si10  1  0.886169  0.336464  0.249757  1
  Si  Si11  1  0.480003  0.068376  0.504479  1
  Si  Si12  1  0.509956  0.133702  0.944828  1
  Si  Si13  1  0.133702  0.509956  0.055172  1
  Si  Si14  1  0.068376  0.480003  0.495521  1
  Si  Si15  1  0.336464  0.886169  0.750243  1
  O  O16  1  0.796581  0.136556  0.205153  1
  O  O17  1  0.948191  0.311153  0.413679  1
  O  O18  1  0.745392  0.117827  0.878891  1
  O  O19  1  0.710840  0.030420  0.587568  1
  O  O20  1  0.952732  0.505589  0.940177  1
  O  O21  1  0.967564  0.495256  0.642552  1
  O  O22  1  0.325371  0.126020  0.822302  1
  O  O23  1  0.697671  0.574290  0.218040  1
  O  O24  1  0.348566  0.348566  0.500000  1
  O  O25  1  0.395516  0.395516  0.000000  1
  O  O26  1  0.574290  0.697671  0.781960  1
  O  O27  1  0.126020  0.325371  0.177698  1
  O  O28  1  0.495256  0.967564  0.357448  1
  O  O29  1  0.505589  0.952732  0.059823  1
  O  O30  1  0.030420  0.710840  0.412432  1
  O  O31  1  0.117827  0.745392  0.121109  1
  O  O32  1  0.311153  0.948191  0.586321  1
  O  O33  1  0.136556  0.796581  0.794847  1
