# generated using pymatgen
data_VF4
_symmetry_space_group_name_H-M   'P 1'
_cell_length_a   4.98019311
_cell_length_b   3.09121038
_cell_length_c   10.46949142
_cell_angle_alpha   90.00000000
_cell_angle_beta   114.02193519
_cell_angle_gamma   90.00000000
_symmetry_Int_Tables_number   1
_chemical_formula_structural   VF4
_chemical_formula_sum   'V2 F8'
_cell_volume   147.21647998
_cell_formula_units_Z   2
loop_
 _symmetry_equiv_pos_site_id
 _symmetry_equiv_pos_as_xyz
  1  'x, y, z'
loop_
 _atom_site_type_symbol
 _atom_site_label
 _atom_site_symmetry_multiplicity
 _atom_site_fract_x
 _atom_site_fract_y
 _atom_site_fract_z
 _atom_site_occupancy
  V  V0  1  0.986293  0.653840  0.746388  1
  V  V1  1  0.986293  0.346160  0.246388  1
  F  F2  1  0.170589  0.338977  0.133232  1
  F  F3  1  0.749718  0.154271  0.641114  1
  F  F4  1  0.780674  0.343288  0.350046  1
  F  F5  1  0.224153  0.158181  0.852749  1
  F  F6  1  0.170589  0.661023  0.633232  1
  F  F7  1  0.749718  0.845729  0.141114  1
  F  F8  1  0.780674  0.656712  0.850046  1
  F  F9  1  0.224153  0.841819  0.352749  1
