# generated using pymatgen
data_Li2V2O5F2
_symmetry_space_group_name_H-M   'P 1'
_cell_length_a   7.06339523
_cell_length_b   7.06339523
_cell_length_c   6.87989106
_cell_angle_alpha   63.30321092
_cell_angle_beta   116.69678908
_cell_angle_gamma   118.07155399
_symmetry_Int_Tables_number   1
_chemical_formula_structural   Li2V2O5F2
_chemical_formula_sum   'Li4 V4 O10 F4'
_cell_volume   257.97096334
_cell_formula_units_Z   2
loop_
 _symmetry_equiv_pos_site_id
 _symmetry_equiv_pos_as_xyz
  1  'x, y, z'
loop_
 _atom_site_type_symbol
 _atom_site_label
 _atom_site_symmetry_multiplicity
 _atom_site_fract_x
 _atom_site_fract_y
 _atom_site_fract_z
 _atom_site_occupancy
  Li  Li0  1  0.407176  0.559644  0.422221  1
  Li  Li1  1  0.026956  0.434541  0.047079  1
  Li  Li2  1  0.440356  0.592824  0.922221  1
  Li  Li3  1  0.565459  0.973044  0.547079  1
  V  V4  1  0.011531  0.968589  0.027422  1
  V  V5  1  0.948455  0.467331  0.477687  1
  V  V6  1  0.031411  0.988469  0.527422  1
  V  V7  1  0.532669  0.051545  0.977687  1
  O  O8  1  0.064159  0.328774  0.428033  1
  O  O9  1  0.314056  0.054998  0.685802  1
  O  O10  1  0.054137  0.090749  0.230137  1
  O  O11  1  0.679584  0.313519  0.438015  1
  O  O12  1  0.671226  0.935841  0.928033  1
  O  O13  1  0.945002  0.685944  0.185802  1
  O  O14  1  0.291996  0.038200  0.057422  1
  O  O15  1  0.909251  0.945863  0.730137  1
  O  O16  1  0.686481  0.320416  0.938015  1
  O  O17  1  0.961800  0.708004  0.557422  1
  F  F18  1  0.329422  0.622756  0.105313  1
  F  F19  1  0.055256  0.343947  0.810708  1
  F  F20  1  0.377244  0.670578  0.605313  1
  F  F21  1  0.656053  0.944744  0.310708  1
