# generated using pymatgen
data_DyWO4
_symmetry_space_group_name_H-M   'P 1'
_cell_length_a   5.20378712
_cell_length_b   5.55841666
_cell_length_c   5.32917014
_cell_angle_alpha   90.00000000
_cell_angle_beta   97.06636233
_cell_angle_gamma   90.00000000
_symmetry_Int_Tables_number   1
_chemical_formula_structural   DyWO4
_chemical_formula_sum   'Dy2 W2 O8'
_cell_volume   152.97443479
_cell_formula_units_Z   2
loop_
 _symmetry_equiv_pos_site_id
 _symmetry_equiv_pos_as_xyz
  1  'x, y, z'
loop_
 _atom_site_type_symbol
 _atom_site_label
 _atom_site_symmetry_multiplicity
 _atom_site_fract_x
 _atom_site_fract_y
 _atom_site_fract_z
 _atom_site_occupancy
  Dy  Dy0  1  0.000000  0.270033  0.250000  1
  Dy  Dy1  1  0.000000  0.729967  0.750000  1
  W  W2  1  0.500000  0.811702  0.250000  1
  W  W3  1  0.500000  0.188298  0.750000  1
  O  O4  1  0.731445  0.068403  0.501612  1
  O  O5  1  0.731445  0.931597  0.001612  1
  O  O6  1  0.759023  0.589848  0.391610  1
  O  O7  1  0.759023  0.410152  0.891610  1
  O  O8  1  0.240977  0.589848  0.108390  1
  O  O9  1  0.240977  0.410152  0.608390  1
  O  O10  1  0.268555  0.068403  0.998388  1
  O  O11  1  0.268555  0.931597  0.498388  1
