# generated using pymatgen
data_Mn6O11F
_symmetry_space_group_name_H-M   'P 1'
_cell_length_a   5.39850291
_cell_length_b   5.39850291
_cell_length_c   6.97798674
_cell_angle_alpha   72.89087384
_cell_angle_beta   107.10912616
_cell_angle_gamma   106.87459646
_symmetry_Int_Tables_number   1
_chemical_formula_structural   Mn6O11F
_chemical_formula_sum   'Mn6 O11 F1'
_cell_volume   181.08498206
_cell_formula_units_Z   1
loop_
 _symmetry_equiv_pos_site_id
 _symmetry_equiv_pos_as_xyz
  1  'x, y, z'
loop_
 _atom_site_type_symbol
 _atom_site_label
 _atom_site_symmetry_multiplicity
 _atom_site_fract_x
 _atom_site_fract_y
 _atom_site_fract_z
 _atom_site_occupancy
  Mn  Mn0  1  0.330716  0.330716  0.000000  1
  Mn  Mn1  1  0.670378  0.004335  0.832761  1
  Mn  Mn2  1  0.312427  0.312427  0.500000  1
  Mn  Mn3  1  0.667389  0.016293  0.324922  1
  Mn  Mn4  1  0.016293  0.667389  0.675078  1
  Mn  Mn5  1  0.004335  0.670378  0.167239  1
  O  O6  1  0.975254  0.305923  0.834452  1
  O  O7  1  0.102717  0.562613  0.465328  1
  O  O8  1  0.436606  0.234906  0.794058  1
  O  O9  1  0.765365  0.897150  0.129414  1
  O  O10  1  0.897150  0.765365  0.870586  1
  O  O11  1  0.234906  0.436606  0.205942  1
  O  O12  1  0.562613  0.102717  0.534672  1
  O  O13  1  0.023366  0.023366  0.500000  1
  O  O14  1  0.364744  0.694093  0.835300  1
  O  O15  1  0.694093  0.364744  0.164700  1
  O  O16  1  0.305923  0.975254  0.165548  1
  F  F17  1  0.635729  0.635729  0.500000  1
