# generated using pymatgen
data_Sm3TaO7
_symmetry_space_group_name_H-M   'P 1'
_cell_length_a   7.59720762
_cell_length_b   7.67783791
_cell_length_c   10.83912184
_cell_angle_alpha   90.00000000
_cell_angle_beta   90.00000000
_cell_angle_gamma   90.00000000
_symmetry_Int_Tables_number   1
_chemical_formula_structural   Sm3TaO7
_chemical_formula_sum   'Sm12 Ta4 O28'
_cell_volume   632.24737165
_cell_formula_units_Z   4
loop_
 _symmetry_equiv_pos_site_id
 _symmetry_equiv_pos_as_xyz
  1  'x, y, z'
loop_
 _atom_site_type_symbol
 _atom_site_label
 _atom_site_symmetry_multiplicity
 _atom_site_fract_x
 _atom_site_fract_y
 _atom_site_fract_z
 _atom_site_occupancy
  Sm  Sm0  1  0.987855  0.705792  0.250000  1
  Sm  Sm1  1  0.748359  0.537595  0.521937  1
  Sm  Sm2  1  0.748359  0.537595  0.978063  1
  Sm  Sm3  1  0.751641  0.037595  0.021937  1
  Sm  Sm4  1  0.751641  0.037595  0.478063  1
  Sm  Sm5  1  0.512145  0.205792  0.750000  1
  Sm  Sm6  1  0.487855  0.794208  0.250000  1
  Sm  Sm7  1  0.248359  0.962405  0.521937  1
  Sm  Sm8  1  0.248359  0.962405  0.978063  1
  Sm  Sm9  1  0.251641  0.462405  0.021937  1
  Sm  Sm10  1  0.251641  0.462405  0.478063  1
  Sm  Sm11  1  0.012145  0.294208  0.750000  1
  Ta  Ta12  1  0.001020  0.751203  0.750000  1
  Ta  Ta13  1  0.498980  0.251203  0.250000  1
  Ta  Ta14  1  0.501020  0.748797  0.750000  1
  Ta  Ta15  1  0.998980  0.248797  0.250000  1
  O  O16  1  0.965879  0.449542  0.126056  1
  O  O17  1  0.965879  0.449542  0.373944  1
  O  O18  1  0.960579  0.913424  0.614150  1
  O  O19  1  0.960579  0.913424  0.885850  1
  O  O20  1  0.752461  0.174648  0.250000  1
  O  O21  1  0.744719  0.768988  0.116825  1
  O  O22  1  0.744719  0.768988  0.383175  1
  O  O23  1  0.755281  0.268988  0.616825  1
  O  O24  1  0.755281  0.268988  0.883175  1
  O  O25  1  0.747539  0.674648  0.750000  1
  O  O26  1  0.539421  0.413424  0.114150  1
  O  O27  1  0.539421  0.413424  0.385850  1
  O  O28  1  0.534121  0.949542  0.626056  1
  O  O29  1  0.534121  0.949542  0.873944  1
  O  O30  1  0.465879  0.050458  0.126056  1
  O  O31  1  0.465879  0.050458  0.373944  1
  O  O32  1  0.460579  0.586576  0.614150  1
  O  O33  1  0.460579  0.586576  0.885850  1
  O  O34  1  0.252461  0.325352  0.250000  1
  O  O35  1  0.244719  0.731012  0.116825  1
  O  O36  1  0.244719  0.731012  0.383175  1
  O  O37  1  0.255281  0.231012  0.616825  1
  O  O38  1  0.255281  0.231012  0.883175  1
  O  O39  1  0.247539  0.825352  0.750000  1
  O  O40  1  0.039421  0.086576  0.114150  1
  O  O41  1  0.039421  0.086576  0.385850  1
  O  O42  1  0.034121  0.550458  0.626056  1
  O  O43  1  0.034121  0.550458  0.873944  1
