# generated using pymatgen
data_LiNbCoO4
_symmetry_space_group_name_H-M   'P 1'
_cell_length_a   6.16600769
_cell_length_b   6.16600769
_cell_length_c   6.16600769
_cell_angle_alpha   121.23605775
_cell_angle_beta   119.69827491
_cell_angle_gamma   89.19796324
_symmetry_Int_Tables_number   1
_chemical_formula_structural   LiNbCoO4
_chemical_formula_sum   'Li2 Nb2 Co2 O8'
_cell_volume   164.54096472
_cell_formula_units_Z   2
loop_
 _symmetry_equiv_pos_site_id
 _symmetry_equiv_pos_as_xyz
  1  'x, y, z'
loop_
 _atom_site_type_symbol
 _atom_site_label
 _atom_site_symmetry_multiplicity
 _atom_site_fract_x
 _atom_site_fract_y
 _atom_site_fract_z
 _atom_site_occupancy
  Li  Li0  1  0.389617  0.639617  0.250000  1
  Li  Li1  1  0.610383  0.360383  0.750000  1
  Nb  Nb2  1  0.500000  0.000000  0.000000  1
  Nb  Nb3  1  0.000000  0.000000  0.500000  1
  Co  Co4  1  0.000000  0.000000  0.000000  1
  Co  Co5  1  0.000000  0.500000  0.500000  1
  O  O6  1  0.252960  0.773205  0.979755  1
  O  O7  1  0.254218  0.226464  0.972246  1
  O  O8  1  0.254218  0.781972  0.527754  1
  O  O9  1  0.793450  0.773205  0.520245  1
  O  O10  1  0.206550  0.226795  0.479755  1
  O  O11  1  0.745782  0.773536  0.027754  1
  O  O12  1  0.745782  0.218028  0.472246  1
  O  O13  1  0.747040  0.226795  0.020245  1
