# generated using pymatgen
data_Lu2B4O9
_symmetry_space_group_name_H-M   'P 1'
_cell_length_a   6.12642044
_cell_length_b   6.36865604
_cell_length_c   7.41135314
_cell_angle_alpha   102.74725125
_cell_angle_beta   97.30106857
_cell_angle_gamma   102.36141667
_symmetry_Int_Tables_number   1
_chemical_formula_structural   Lu2B4O9
_chemical_formula_sum   'Lu4 B8 O18'
_cell_volume   270.85266538
_cell_formula_units_Z   2
loop_
 _symmetry_equiv_pos_site_id
 _symmetry_equiv_pos_as_xyz
  1  'x, y, z'
loop_
 _atom_site_type_symbol
 _atom_site_label
 _atom_site_symmetry_multiplicity
 _atom_site_fract_x
 _atom_site_fract_y
 _atom_site_fract_z
 _atom_site_occupancy
  Lu  Lu0  1  0.112649  0.322883  0.639284  1
  Lu  Lu1  1  0.448790  0.910536  0.710547  1
  Lu  Lu2  1  0.551210  0.089464  0.289453  1
  Lu  Lu3  1  0.887351  0.677117  0.360716  1
  B  B4  1  0.005498  0.857331  0.808148  1
  B  B5  1  0.267193  0.666913  0.018441  1
  B  B6  1  0.373403  0.643462  0.350695  1
  B  B7  1  0.338543  0.314901  0.072018  1
  B  B8  1  0.661457  0.685099  0.927982  1
  B  B9  1  0.626597  0.356538  0.649305  1
  B  B10  1  0.732807  0.333087  0.981559  1
  B  B11  1  0.994502  0.142669  0.191852  1
  O  O12  1  0.072221  0.959734  0.672374  1
  O  O13  1  0.139012  0.717126  0.853315  1
  O  O14  1  0.224689  0.425732  0.955034  1
  O  O15  1  0.217238  0.595389  0.480556  1
  O  O16  1  0.233663  0.737669  0.213207  1
  O  O17  1  0.189137  0.127751  0.123071  1
  O  O18  1  0.417889  0.179976  0.551227  1
  O  O19  1  0.495132  0.204835  0.976241  1
  O  O20  1  0.537432  0.538319  0.746928  1
  O  O21  1  0.462568  0.461681  0.253072  1
  O  O22  1  0.504868  0.795165  0.023759  1
  O  O23  1  0.582111  0.820024  0.448773  1
  O  O24  1  0.810863  0.872249  0.876929  1
  O  O25  1  0.766337  0.262331  0.786793  1
  O  O26  1  0.782762  0.404611  0.519444  1
  O  O27  1  0.775311  0.574268  0.044966  1
  O  O28  1  0.860988  0.282874  0.146685  1
  O  O29  1  0.927779  0.040266  0.327626  1
