# generated using pymatgen
data_LiV2(CO3)4
_symmetry_space_group_name_H-M   'P 1'
_cell_length_a   5.81565136
_cell_length_b   6.37437823
_cell_length_c   8.16641791
_cell_angle_alpha   84.84291921
_cell_angle_beta   106.59860317
_cell_angle_gamma   115.66828672
_symmetry_Int_Tables_number   1
_chemical_formula_structural   LiV2(CO3)4
_chemical_formula_sum   'Li1 V2 C4 O12'
_cell_volume   261.29217041
_cell_formula_units_Z   1
loop_
 _symmetry_equiv_pos_site_id
 _symmetry_equiv_pos_as_xyz
  1  'x, y, z'
loop_
 _atom_site_type_symbol
 _atom_site_label
 _atom_site_symmetry_multiplicity
 _atom_site_fract_x
 _atom_site_fract_y
 _atom_site_fract_z
 _atom_site_occupancy
  Li  Li0  1  0.288687  0.569233  0.175278  1
  V  V1  1  0.868671  0.482029  0.500768  1
  V  V2  1  0.089031  0.017842  0.998626  1
  C  C3  1  0.026978  0.388072  0.792264  1
  C  C4  1  0.011811  0.889653  0.713225  1
  C  C5  1  0.404206  0.099816  0.283568  1
  C  C6  1  0.831703  0.629982  0.202137  1
  O  O7  1  0.123276  0.334311  0.952074  1
  O  O8  1  0.233116  0.936509  0.839667  1
  O  O9  1  0.152855  0.419106  0.678106  1
  O  O10  1  0.812463  0.413058  0.750048  1
  O  O11  1  0.838951  0.929982  0.757722  1
  O  O12  1  0.981325  0.812333  0.567026  1
  O  O13  1  0.587050  0.161905  0.423378  1
  O  O14  1  0.198467  0.146304  0.244148  1
  O  O15  1  0.019124  0.569179  0.284964  1
  O  O16  1  0.641895  0.582434  0.270109  1
  O  O17  1  0.408262  0.984348  0.158762  1
  O  O18  1  0.831435  0.729966  0.055596  1
