# generated using pymatgen
data_LiTi6O12
_symmetry_space_group_name_H-M   'P 1'
_cell_length_a   5.86189679
_cell_length_b   9.60697719
_cell_length_c   7.80208895
_cell_angle_alpha   90.00000000
_cell_angle_beta   99.68265664
_cell_angle_gamma   90.00000000
_symmetry_Int_Tables_number   1
_chemical_formula_structural   LiTi6O12
_chemical_formula_sum   'Li2 Ti12 O24'
_cell_volume   433.11633143
_cell_formula_units_Z   2
loop_
 _symmetry_equiv_pos_site_id
 _symmetry_equiv_pos_as_xyz
  1  'x, y, z'
loop_
 _atom_site_type_symbol
 _atom_site_label
 _atom_site_symmetry_multiplicity
 _atom_site_fract_x
 _atom_site_fract_y
 _atom_site_fract_z
 _atom_site_occupancy
  Li  Li0  1  0.957941  0.036453  0.770712  1
  Li  Li1  1  0.042059  0.536453  0.229288  1
  Ti  Ti2  1  0.857534  0.645545  0.575555  1
  Ti  Ti3  1  0.636006  0.362479  0.433665  1
  Ti  Ti4  1  0.971217  0.366936  0.763653  1
  Ti  Ti5  1  0.674369  0.854710  0.913461  1
  Ti  Ti6  1  0.028783  0.866936  0.236347  1
  Ti  Ti7  1  0.363994  0.862479  0.566335  1
  Ti  Ti8  1  0.807380  0.136804  0.099386  1
  Ti  Ti9  1  0.142466  0.145545  0.424445  1
  Ti  Ti10  1  0.478091  0.136837  0.762033  1
  Ti  Ti11  1  0.192620  0.636804  0.900614  1
  Ti  Ti12  1  0.521909  0.636837  0.237967  1
  Ti  Ti13  1  0.325631  0.354710  0.086539  1
  O  O14  1  0.054548  0.771831  0.472186  1
  O  O15  1  0.795114  0.534444  0.351318  1
  O  O16  1  0.945452  0.271831  0.527814  1
  O  O17  1  0.551757  0.726023  0.474666  1
  O  O18  1  0.883655  0.728922  0.808076  1
  O  O19  1  0.038176  0.464433  0.987536  1
  O  O20  1  0.701827  0.465749  0.649057  1
  O  O21  1  0.961824  0.964433  0.012464  1
  O  O22  1  0.637643  0.964766  0.687669  1
  O  O23  1  0.298173  0.965749  0.350943  1
  O  O24  1  0.448243  0.226023  0.525334  1
  O  O25  1  0.793545  0.216511  0.853487  1
  O  O26  1  0.718979  0.771695  0.144459  1
  O  O27  1  0.378454  0.775437  0.806926  1
  O  O28  1  0.533900  0.035074  0.983200  1
  O  O29  1  0.871872  0.035851  0.314285  1
  O  O30  1  0.204886  0.034444  0.648682  1
  O  O31  1  0.466100  0.535074  0.016800  1
  O  O32  1  0.128128  0.535851  0.685715  1
  O  O33  1  0.281021  0.271695  0.855541  1
  O  O34  1  0.621546  0.275437  0.193074  1
  O  O35  1  0.206455  0.716511  0.146513  1
  O  O36  1  0.362357  0.464766  0.312331  1
  O  O37  1  0.116345  0.228922  0.191924  1
