# generated using pymatgen
data_LiCuS
_symmetry_space_group_name_H-M   'P 1'
_cell_length_a   3.71145372
_cell_length_b   3.72209637
_cell_length_c   12.24991594
_cell_angle_alpha   90.00000000
_cell_angle_beta   90.00000000
_cell_angle_gamma   90.00000000
_symmetry_Int_Tables_number   1
_chemical_formula_structural   LiCuS
_chemical_formula_sum   'Li4 Cu4 S4'
_cell_volume   169.22509689
_cell_formula_units_Z   4
loop_
 _symmetry_equiv_pos_site_id
 _symmetry_equiv_pos_as_xyz
  1  'x, y, z'
loop_
 _atom_site_type_symbol
 _atom_site_label
 _atom_site_symmetry_multiplicity
 _atom_site_fract_x
 _atom_site_fract_y
 _atom_site_fract_z
 _atom_site_occupancy
  Li  Li0  1  0.250000  0.764076  0.078437  1
  Li  Li1  1  0.750000  0.264076  0.421563  1
  Li  Li2  1  0.250000  0.735924  0.578437  1
  Li  Li3  1  0.750000  0.235924  0.921563  1
  Cu  Cu4  1  0.250000  0.279681  0.250143  1
  Cu  Cu5  1  0.750000  0.779681  0.249857  1
  Cu  Cu6  1  0.250000  0.220319  0.750143  1
  Cu  Cu7  1  0.750000  0.720319  0.749857  1
  S  S8  1  0.750000  0.264301  0.123129  1
  S  S9  1  0.250000  0.764301  0.376871  1
  S  S10  1  0.750000  0.235699  0.623129  1
  S  S11  1  0.250000  0.735699  0.876871  1
