# generated using pymatgen
data_LiMn2F6
_symmetry_space_group_name_H-M   'P 1'
_cell_length_a   5.30591048
_cell_length_b   5.30591048
_cell_length_c   4.51251952
_cell_angle_alpha   89.23470147
_cell_angle_beta   90.76529853
_cell_angle_gamma   63.90203584
_symmetry_Int_Tables_number   1
_chemical_formula_structural   LiMn2F6
_chemical_formula_sum   'Li1 Mn2 F6'
_cell_volume   114.05065637
_cell_formula_units_Z   1
loop_
 _symmetry_equiv_pos_site_id
 _symmetry_equiv_pos_as_xyz
  1  'x, y, z'
loop_
 _atom_site_type_symbol
 _atom_site_label
 _atom_site_symmetry_multiplicity
 _atom_site_fract_x
 _atom_site_fract_y
 _atom_site_fract_z
 _atom_site_occupancy
  Li  Li0  1  0.007336  0.007336  0.500000  1
  Mn  Mn1  1  0.323627  0.323627  0.000000  1
  Mn  Mn2  1  0.670799  0.670799  0.000000  1
  F  F3  1  0.969854  0.675511  0.769520  1
  F  F4  1  0.994674  0.338202  0.248335  1
  F  F5  1  0.338202  0.994674  0.751665  1
  F  F6  1  0.378948  0.653052  0.223577  1
  F  F7  1  0.675511  0.969854  0.230480  1
  F  F8  1  0.653052  0.378948  0.776423  1
