# generated using pymatgen
data_Li2Mn3CoO8
_symmetry_space_group_name_H-M   'P 1'
_cell_length_a   5.78704209
_cell_length_b   5.78704209
_cell_length_c   5.78704209
_cell_angle_alpha   61.52693257
_cell_angle_beta   61.52693257
_cell_angle_gamma   61.52693257
_symmetry_Int_Tables_number   1
_chemical_formula_structural   Li2Mn3CoO8
_chemical_formula_sum   'Li2 Mn3 Co1 O8'
_cell_volume   141.73872951
_cell_formula_units_Z   1
loop_
 _symmetry_equiv_pos_site_id
 _symmetry_equiv_pos_as_xyz
  1  'x, y, z'
loop_
 _atom_site_type_symbol
 _atom_site_label
 _atom_site_symmetry_multiplicity
 _atom_site_fract_x
 _atom_site_fract_y
 _atom_site_fract_z
 _atom_site_occupancy
  Li  Li0  1  0.876183  0.876183  0.876183  1
  Li  Li1  1  0.123817  0.123817  0.123817  1
  Mn  Mn2  1  0.500000  0.500000  0.000000  1
  Mn  Mn3  1  1.000000  0.500000  0.500000  1
  Mn  Mn4  1  0.500000  0.000000  0.500000  1
  Co  Co5  1  0.500000  0.500000  0.500000  1
  O  O6  1  0.740229  0.740229  0.740229  1
  O  O7  1  0.734355  0.293485  0.734355  1
  O  O8  1  0.734355  0.734355  0.293485  1
  O  O9  1  0.293485  0.734355  0.734355  1
  O  O10  1  0.706515  0.265645  0.265645  1
  O  O11  1  0.265645  0.265645  0.706515  1
  O  O12  1  0.265645  0.706515  0.265645  1
  O  O13  1  0.259771  0.259771  0.259771  1
