# generated using pymatgen
data_Li3Co2(SiO4)2
_symmetry_space_group_name_H-M   'P 1'
_cell_length_a   5.05634744
_cell_length_b   5.33980382
_cell_length_c   6.43037030
_cell_angle_alpha   89.72222134
_cell_angle_beta   89.55685949
_cell_angle_gamma   89.38062647
_symmetry_Int_Tables_number   1
_chemical_formula_structural   Li3Co2(SiO4)2
_chemical_formula_sum   'Li3 Co2 Si2 O8'
_cell_volume   173.60206904
_cell_formula_units_Z   1
loop_
 _symmetry_equiv_pos_site_id
 _symmetry_equiv_pos_as_xyz
  1  'x, y, z'
loop_
 _atom_site_type_symbol
 _atom_site_label
 _atom_site_symmetry_multiplicity
 _atom_site_fract_x
 _atom_site_fract_y
 _atom_site_fract_z
 _atom_site_occupancy
  Li  Li0  1  0.496531  0.170213  0.994315  1
  Li  Li1  1  0.994722  0.818351  0.500424  1
  Li  Li2  1  0.006190  0.346332  0.241333  1
  Co  Co3  1  0.992610  0.824136  0.984430  1
  Co  Co4  1  0.499298  0.171309  0.497374  1
  Si  Si5  1  0.998299  0.322485  0.745744  1
  Si  Si6  1  0.489111  0.684915  0.247393  1
  O  O7  1  0.105140  0.185352  0.960272  1
  O  O8  1  0.676471  0.266020  0.732998  1
  O  O9  1  0.056292  0.618594  0.741739  1
  O  O10  1  0.125559  0.188786  0.529253  1
  O  O11  1  0.592203  0.839906  0.454799  1
  O  O12  1  0.593607  0.386431  0.269111  1
  O  O13  1  0.163615  0.686484  0.242648  1
  O  O14  1  0.612291  0.824577  0.045314  1
