# generated using pymatgen
data_Li2Mn3ZnO8
_symmetry_space_group_name_H-M   'P 1'
_cell_length_a   8.30234767
_cell_length_b   8.30234767
_cell_length_c   8.30234767
_cell_angle_alpha   90.00000000
_cell_angle_beta   90.00000000
_cell_angle_gamma   90.00000000
_symmetry_Int_Tables_number   1
_chemical_formula_structural   Li2Mn3ZnO8
_chemical_formula_sum   'Li8 Mn12 Zn4 O32'
_cell_volume   572.27233021
_cell_formula_units_Z   4
loop_
 _symmetry_equiv_pos_site_id
 _symmetry_equiv_pos_as_xyz
  1  'x, y, z'
loop_
 _atom_site_type_symbol
 _atom_site_label
 _atom_site_symmetry_multiplicity
 _atom_site_fract_x
 _atom_site_fract_y
 _atom_site_fract_z
 _atom_site_occupancy
  Li  Li0  1  0.125057  0.874943  0.374943  1
  Li  Li1  1  0.249380  0.249380  0.249380  1
  Li  Li2  1  0.750620  0.749380  0.250620  1
  Li  Li3  1  0.874943  0.374943  0.125057  1
  Li  Li4  1  0.374943  0.125057  0.874943  1
  Li  Li5  1  0.250620  0.750620  0.749380  1
  Li  Li6  1  0.749380  0.250620  0.750620  1
  Li  Li7  1  0.625057  0.625057  0.625057  1
  Mn  Mn8  1  0.377801  0.876012  0.123042  1
  Mn  Mn9  1  0.123988  0.623042  0.122199  1
  Mn  Mn10  1  0.123042  0.377801  0.876012  1
  Mn  Mn11  1  0.122199  0.123988  0.623042  1
  Mn  Mn12  1  0.376958  0.622199  0.376012  1
  Mn  Mn13  1  0.623988  0.876958  0.877801  1
  Mn  Mn14  1  0.622199  0.376012  0.376958  1
  Mn  Mn15  1  0.376012  0.376958  0.622199  1
  Mn  Mn16  1  0.623042  0.122199  0.123988  1
  Mn  Mn17  1  0.877801  0.623988  0.876958  1
  Mn  Mn18  1  0.876958  0.877801  0.623988  1
  Mn  Mn19  1  0.876012  0.123042  0.377801  1
  Zn  Zn20  1  0.498706  0.998706  0.501294  1
  Zn  Zn21  1  0.001294  0.001294  0.001294  1
  Zn  Zn22  1  0.998706  0.501294  0.498706  1
  Zn  Zn23  1  0.501294  0.498706  0.998706  1
  O  O24  1  0.606036  0.601296  0.371155  1
  O  O25  1  0.386694  0.386694  0.386694  1
  O  O26  1  0.106036  0.898704  0.628845  1
  O  O27  1  0.628845  0.106036  0.898704  1
  O  O28  1  0.878770  0.648083  0.641461  1
  O  O29  1  0.648083  0.641461  0.878770  1
  O  O30  1  0.128845  0.393964  0.101296  1
  O  O31  1  0.601296  0.371155  0.606036  1
  O  O32  1  0.893964  0.398704  0.871155  1
  O  O33  1  0.148083  0.858539  0.121230  1
  O  O34  1  0.641461  0.878770  0.648083  1
  O  O35  1  0.371155  0.606036  0.601296  1
  O  O36  1  0.101296  0.128845  0.393964  1
  O  O37  1  0.886694  0.113306  0.613306  1
  O  O38  1  0.378770  0.851917  0.358539  1
  O  O39  1  0.398704  0.871155  0.893964  1
  O  O40  1  0.358539  0.378770  0.851917  1
  O  O41  1  0.351917  0.141461  0.621230  1
  O  O42  1  0.613306  0.886694  0.113306  1
  O  O43  1  0.862905  0.862905  0.862905  1
  O  O44  1  0.113306  0.613306  0.886694  1
  O  O45  1  0.362905  0.637095  0.137095  1
  O  O46  1  0.121230  0.148083  0.858539  1
  O  O47  1  0.898704  0.628845  0.106036  1
  O  O48  1  0.637095  0.137095  0.362905  1
  O  O49  1  0.851917  0.358539  0.378770  1
  O  O50  1  0.141461  0.621230  0.351917  1
  O  O51  1  0.393964  0.101296  0.128845  1
  O  O52  1  0.871155  0.893964  0.398704  1
  O  O53  1  0.137095  0.362905  0.637095  1
  O  O54  1  0.621230  0.351917  0.141461  1
  O  O55  1  0.858539  0.121230  0.148083  1
