# generated using pymatgen
data_Li5Cr2Fe5O12
_symmetry_space_group_name_H-M   'P 1'
_cell_length_a   5.17070512
_cell_length_b   5.17070512
_cell_length_c   9.77930252
_cell_angle_alpha   84.58679980
_cell_angle_beta   95.41320020
_cell_angle_gamma   58.99501080
_symmetry_Int_Tables_number   1
_chemical_formula_structural   Li5Cr2Fe5O12
_chemical_formula_sum   'Li5 Cr2 Fe5 O12'
_cell_volume   219.95269776
_cell_formula_units_Z   1
loop_
 _symmetry_equiv_pos_site_id
 _symmetry_equiv_pos_as_xyz
  1  'x, y, z'
loop_
 _atom_site_type_symbol
 _atom_site_label
 _atom_site_symmetry_multiplicity
 _atom_site_fract_x
 _atom_site_fract_y
 _atom_site_fract_z
 _atom_site_occupancy
  Li  Li0  1  0.331014  0.833222  0.753785  1
  Li  Li1  1  0.167240  0.668615  0.246111  1
  Li  Li2  1  0.833222  0.331014  0.246215  1
  Li  Li3  1  0.668615  0.167240  0.753889  1
  Li  Li4  1  0.080948  0.080948  0.000000  1
  Cr  Cr5  1  0.750871  0.750871  0.000000  1
  Cr  Cr6  1  0.249566  0.249566  0.500000  1
  Fe  Fe7  1  0.917678  0.917678  0.500000  1
  Fe  Fe8  1  0.496997  0.995338  0.246766  1
  Fe  Fe9  1  0.995338  0.496997  0.753234  1
  Fe  Fe10  1  0.576001  0.576001  0.500000  1
  Fe  Fe11  1  0.419770  0.419770  0.000000  1
  O  O12  1  0.763870  0.047017  0.118870  1
  O  O13  1  0.047017  0.763870  0.881130  1
  O  O14  1  0.628580  0.878843  0.625303  1
  O  O15  1  0.878843  0.628580  0.374697  1
  O  O16  1  0.472158  0.705645  0.117827  1
  O  O17  1  0.705645  0.472158  0.882173  1
  O  O18  1  0.271657  0.531378  0.623831  1
  O  O19  1  0.531378  0.271657  0.376169  1
  O  O20  1  0.144153  0.382314  0.116576  1
  O  O21  1  0.382314  0.144153  0.883424  1
  O  O22  1  0.974977  0.212147  0.625528  1
  O  O23  1  0.212147  0.974977  0.374472  1
