# generated using pymatgen
data_Li2VO2F
_symmetry_space_group_name_H-M   'P 1'
_cell_length_a   5.17556821
_cell_length_b   2.94491891
_cell_length_c   7.35111280
_cell_angle_alpha   90.00000000
_cell_angle_beta   90.27970539
_cell_angle_gamma   90.00000000
_symmetry_Int_Tables_number   1
_chemical_formula_structural   Li2VO2F
_chemical_formula_sum   'Li4 V2 O4 F2'
_cell_volume   112.04159660
_cell_formula_units_Z   2
loop_
 _symmetry_equiv_pos_site_id
 _symmetry_equiv_pos_as_xyz
  1  'x, y, z'
loop_
 _atom_site_type_symbol
 _atom_site_label
 _atom_site_symmetry_multiplicity
 _atom_site_fract_x
 _atom_site_fract_y
 _atom_site_fract_z
 _atom_site_occupancy
  Li  Li0  1  0.086048  0.250000  0.839328  1
  Li  Li1  1  0.734867  0.250000  0.488728  1
  Li  Li2  1  0.913952  0.750000  0.160672  1
  Li  Li3  1  0.265133  0.750000  0.511272  1
  V  V4  1  0.574435  0.750000  0.828086  1
  V  V5  1  0.425565  0.250000  0.171914  1
  O  O6  1  0.733573  0.250000  0.987935  1
  O  O7  1  0.266427  0.750000  0.012065  1
  O  O8  1  0.574419  0.750000  0.322377  1
  O  O9  1  0.425581  0.250000  0.677623  1
  F  F10  1  0.913603  0.750000  0.665738  1
  F  F11  1  0.086397  0.250000  0.334262  1
