# generated using pymatgen
data_Li2VF4
_symmetry_space_group_name_H-M   'P 1'
_cell_length_a   6.01107300
_cell_length_b   9.03566379
_cell_length_c   12.24803046
_cell_angle_alpha   90.00000000
_cell_angle_beta   90.00000000
_cell_angle_gamma   90.00000000
_symmetry_Int_Tables_number   1
_chemical_formula_structural   Li2VF4
_chemical_formula_sum   'Li16 V8 F32'
_cell_volume   665.23995074
_cell_formula_units_Z   8
loop_
 _symmetry_equiv_pos_site_id
 _symmetry_equiv_pos_as_xyz
  1  'x, y, z'
loop_
 _atom_site_type_symbol
 _atom_site_label
 _atom_site_symmetry_multiplicity
 _atom_site_fract_x
 _atom_site_fract_y
 _atom_site_fract_z
 _atom_site_occupancy
  Li  Li0  1  0.623713  0.755118  0.544947  1
  Li  Li1  1  0.222441  0.952505  0.610681  1
  Li  Li2  1  0.784785  0.470822  0.633620  1
  Li  Li3  1  0.256053  0.692857  0.724804  1
  Li  Li4  1  0.756053  0.192857  0.775196  1
  Li  Li5  1  0.284785  0.970822  0.866380  1
  Li  Li6  1  0.722441  0.452505  0.889319  1
  Li  Li7  1  0.123713  0.255118  0.955053  1
  Li  Li8  1  0.876287  0.755118  0.044947  1
  Li  Li9  1  0.277559  0.952505  0.110681  1
  Li  Li10  1  0.715215  0.470822  0.133620  1
  Li  Li11  1  0.243947  0.692857  0.224804  1
  Li  Li12  1  0.743947  0.192857  0.275196  1
  Li  Li13  1  0.215215  0.970822  0.366380  1
  Li  Li14  1  0.777559  0.452505  0.389319  1
  Li  Li15  1  0.376287  0.255118  0.455053  1
  V  V16  1  0.748310  0.096241  0.552108  1
  V  V17  1  0.288062  0.316373  0.693362  1
  V  V18  1  0.788062  0.816373  0.806638  1
  V  V19  1  0.248310  0.596241  0.947892  1
  V  V20  1  0.751690  0.096241  0.052108  1
  V  V21  1  0.211938  0.316373  0.193362  1
  V  V22  1  0.711938  0.816373  0.306638  1
  V  V23  1  0.251690  0.596241  0.447892  1
  F  F24  1  0.957519  0.503564  0.504678  1
  F  F25  1  0.401498  0.431496  0.546236  1
  F  F26  1  0.309984  0.744811  0.579696  1
  F  F27  1  0.402206  0.142485  0.590962  1
  F  F28  1  0.943866  0.251617  0.649825  1
  F  F29  1  0.752869  0.678962  0.670090  1
  F  F30  1  0.690781  0.000265  0.712410  1
  F  F31  1  0.108704  0.881687  0.749783  1
  F  F32  1  0.608704  0.381687  0.750217  1
  F  F33  1  0.190781  0.500265  0.787590  1
  F  F34  1  0.252869  0.178962  0.829910  1
  F  F35  1  0.443866  0.751617  0.850175  1
  F  F36  1  0.902206  0.642485  0.909038  1
  F  F37  1  0.809984  0.244811  0.920304  1
  F  F38  1  0.901498  0.931496  0.953764  1
  F  F39  1  0.457519  0.003564  0.995322  1
  F  F40  1  0.542481  0.503564  0.004678  1
  F  F41  1  0.098502  0.431496  0.046236  1
  F  F42  1  0.190016  0.744811  0.079696  1
  F  F43  1  0.097794  0.142485  0.090962  1
  F  F44  1  0.556134  0.251617  0.149825  1
  F  F45  1  0.747131  0.678962  0.170090  1
  F  F46  1  0.809219  0.000265  0.212410  1
  F  F47  1  0.391296  0.881687  0.249783  1
  F  F48  1  0.891296  0.381687  0.250217  1
  F  F49  1  0.309219  0.500265  0.287590  1
  F  F50  1  0.247131  0.178962  0.329910  1
  F  F51  1  0.056134  0.751617  0.350175  1
  F  F52  1  0.597794  0.642485  0.409038  1
  F  F53  1  0.690016  0.244811  0.420304  1
  F  F54  1  0.598502  0.931496  0.453764  1
  F  F55  1  0.042481  0.003564  0.495322  1
