# generated using pymatgen
data_Li3VO3F
_symmetry_space_group_name_H-M   'P 1'
_cell_length_a   5.12980020
_cell_length_b   5.16010992
_cell_length_c   5.86129105
_cell_angle_alpha   91.18399976
_cell_angle_beta   92.01930875
_cell_angle_gamma   110.51695148
_symmetry_Int_Tables_number   1
_chemical_formula_structural   Li3VO3F
_chemical_formula_sum   'Li6 V2 O6 F2'
_cell_volume   145.12832144
_cell_formula_units_Z   2
loop_
 _symmetry_equiv_pos_site_id
 _symmetry_equiv_pos_as_xyz
  1  'x, y, z'
loop_
 _atom_site_type_symbol
 _atom_site_label
 _atom_site_symmetry_multiplicity
 _atom_site_fract_x
 _atom_site_fract_y
 _atom_site_fract_z
 _atom_site_occupancy
  Li  Li0  1  0.241688  0.503394  0.872887  1
  Li  Li1  1  0.264543  0.508273  0.369537  1
  Li  Li2  1  0.257315  0.996794  0.624065  1
  Li  Li3  1  0.758312  0.496606  0.127113  1
  Li  Li4  1  0.735457  0.491727  0.630463  1
  Li  Li5  1  0.742685  0.003206  0.375935  1
  V  V6  1  0.268871  0.025031  0.120995  1
  V  V7  1  0.731129  0.974969  0.879005  1
  O  O8  1  0.999325  0.226703  0.101767  1
  O  O9  1  0.494180  0.775429  0.111283  1
  O  O10  1  0.528741  0.766769  0.639221  1
  O  O11  1  0.471259  0.233231  0.360779  1
  O  O12  1  0.505820  0.224571  0.888717  1
  O  O13  1  0.000675  0.773297  0.898233  1
  F  F14  1  0.010862  0.749426  0.372764  1
  F  F15  1  0.989138  0.250574  0.627236  1
