# generated using pymatgen
data_Li2FePO5
_symmetry_space_group_name_H-M   'P 1'
_cell_length_a   4.51919179
_cell_length_b   9.07458637
_cell_length_c   9.18727840
_cell_angle_alpha   90.00000000
_cell_angle_beta   90.00000000
_cell_angle_gamma   90.00000000
_symmetry_Int_Tables_number   1
_chemical_formula_structural   Li2FePO5
_chemical_formula_sum   'Li8 Fe4 P4 O20'
_cell_volume   376.76841501
_cell_formula_units_Z   4
loop_
 _symmetry_equiv_pos_site_id
 _symmetry_equiv_pos_as_xyz
  1  'x, y, z'
loop_
 _atom_site_type_symbol
 _atom_site_label
 _atom_site_symmetry_multiplicity
 _atom_site_fract_x
 _atom_site_fract_y
 _atom_site_fract_z
 _atom_site_occupancy
  Li  Li0  1  0.413180  0.000000  0.001255  1
  Li  Li1  1  0.586820  0.000000  0.501255  1
  Li  Li2  1  0.992971  0.746306  0.001707  1
  Li  Li3  1  0.007029  0.746306  0.501707  1
  Li  Li4  1  0.993451  0.500000  0.260122  1
  Li  Li5  1  0.006549  0.500000  0.760122  1
  Li  Li6  1  0.992971  0.253694  0.001707  1
  Li  Li7  1  0.007029  0.253694  0.501707  1
  Fe  Fe8  1  0.033207  0.000000  0.284339  1
  Fe  Fe9  1  0.966793  0.000000  0.784339  1
  Fe  Fe10  1  0.552511  0.500000  0.997098  1
  Fe  Fe11  1  0.447489  0.500000  0.497098  1
  P  P12  1  0.497826  0.751468  0.247879  1
  P  P13  1  0.502174  0.751468  0.747879  1
  P  P14  1  0.497826  0.248532  0.247879  1
  P  P15  1  0.502174  0.248532  0.747879  1
  O  O16  1  0.168242  0.000000  0.469376  1
  O  O17  1  0.831758  0.000000  0.969376  1
  O  O18  1  0.278399  0.849644  0.160819  1
  O  O19  1  0.721601  0.849644  0.660819  1
  O  O20  1  0.716519  0.845309  0.338520  1
  O  O21  1  0.283481  0.845309  0.838520  1
  O  O22  1  0.688266  0.654266  0.145034  1
  O  O23  1  0.311734  0.654266  0.645034  1
  O  O24  1  0.305572  0.652453  0.348043  1
  O  O25  1  0.694428  0.652453  0.848043  1
  O  O26  1  0.846970  0.500000  0.492868  1
  O  O27  1  0.153030  0.500000  0.992868  1
  O  O28  1  0.694428  0.347547  0.848043  1
  O  O29  1  0.305572  0.347547  0.348043  1
  O  O30  1  0.688266  0.345734  0.145034  1
  O  O31  1  0.311734  0.345734  0.645034  1
  O  O32  1  0.716519  0.154691  0.338520  1
  O  O33  1  0.283481  0.154691  0.838520  1
  O  O34  1  0.721601  0.150356  0.660819  1
  O  O35  1  0.278399  0.150356  0.160819  1
