# generated using pymatgen
data_Cs3LaO3
_symmetry_space_group_name_H-M   'P 1'
_cell_length_a   8.63981022
_cell_length_b   7.82800258
_cell_length_c   12.47856551
_cell_angle_alpha   90.00000000
_cell_angle_beta   94.61961710
_cell_angle_gamma   90.00000000
_symmetry_Int_Tables_number   1
_chemical_formula_structural   Cs3LaO3
_chemical_formula_sum   'Cs12 La4 O12'
_cell_volume   841.21433326
_cell_formula_units_Z   4
loop_
 _symmetry_equiv_pos_site_id
 _symmetry_equiv_pos_as_xyz
  1  'x, y, z'
loop_
 _atom_site_type_symbol
 _atom_site_label
 _atom_site_symmetry_multiplicity
 _atom_site_fract_x
 _atom_site_fract_y
 _atom_site_fract_z
 _atom_site_occupancy
  Cs  Cs0  1  0.347642  0.339657  0.924458  1
  Cs  Cs1  1  0.942035  0.619818  0.843552  1
  Cs  Cs2  1  0.381459  0.821468  0.805323  1
  Cs  Cs3  1  0.618541  0.321468  0.694677  1
  Cs  Cs4  1  0.057965  0.119818  0.656448  1
  Cs  Cs5  1  0.652358  0.839657  0.575542  1
  Cs  Cs6  1  0.347642  0.160343  0.424458  1
  Cs  Cs7  1  0.942035  0.880182  0.343552  1
  Cs  Cs8  1  0.381459  0.678532  0.305323  1
  Cs  Cs9  1  0.618541  0.178532  0.194677  1
  Cs  Cs10  1  0.057965  0.380182  0.156448  1
  Cs  Cs11  1  0.652358  0.660343  0.075542  1
  La  La12  1  0.834708  0.090113  0.929674  1
  La  La13  1  0.165292  0.590113  0.570326  1
  La  La14  1  0.834708  0.409887  0.429674  1
  La  La15  1  0.165292  0.909887  0.070326  1
  O  O16  1  0.748867  0.355730  0.956687  1
  O  O17  1  0.103429  0.052607  0.906457  1
  O  O18  1  0.693457  0.942102  0.803793  1
  O  O19  1  0.306543  0.442102  0.696207  1
  O  O20  1  0.896571  0.552607  0.593543  1
  O  O21  1  0.251133  0.855730  0.543313  1
  O  O22  1  0.748867  0.144270  0.456687  1
  O  O23  1  0.103429  0.447393  0.406457  1
  O  O24  1  0.693457  0.557898  0.303793  1
  O  O25  1  0.306543  0.057898  0.196207  1
  O  O26  1  0.896571  0.947393  0.093543  1
  O  O27  1  0.251133  0.644270  0.043313  1
