# generated using pymatgen
data_Li6Mn2O5F2
_symmetry_space_group_name_H-M   'P 1'
_cell_length_a   5.12255515
_cell_length_b   6.01876286
_cell_length_c   10.01517401
_cell_angle_alpha   90.00000000
_cell_angle_beta   107.88537640
_cell_angle_gamma   90.00000000
_symmetry_Int_Tables_number   1
_chemical_formula_structural   Li6Mn2O5F2
_chemical_formula_sum   'Li12 Mn4 O10 F4'
_cell_volume   293.85970605
_cell_formula_units_Z   2
loop_
 _symmetry_equiv_pos_site_id
 _symmetry_equiv_pos_as_xyz
  1  'x, y, z'
loop_
 _atom_site_type_symbol
 _atom_site_label
 _atom_site_symmetry_multiplicity
 _atom_site_fract_x
 _atom_site_fract_y
 _atom_site_fract_z
 _atom_site_occupancy
  Li  Li0  1  0.203845  0.043707  0.863164  1
  Li  Li1  1  0.235398  0.490956  0.857750  1
  Li  Li2  1  0.817595  0.763584  0.868895  1
  Li  Li3  1  0.782055  0.971143  0.632661  1
  Li  Li4  1  0.771748  0.531967  0.649901  1
  Li  Li5  1  0.174922  0.225646  0.630824  1
  Li  Li6  1  0.817595  0.236416  0.368895  1
  Li  Li7  1  0.203845  0.956293  0.363164  1
  Li  Li8  1  0.235398  0.509044  0.357750  1
  Li  Li9  1  0.174922  0.774354  0.130824  1
  Li  Li10  1  0.782055  0.028857  0.132661  1
  Li  Li11  1  0.771748  0.468033  0.149901  1
  Mn  Mn12  1  0.734842  0.275602  0.872458  1
  Mn  Mn13  1  0.267337  0.739338  0.629797  1
  Mn  Mn14  1  0.734842  0.724398  0.372458  1
  Mn  Mn15  1  0.267337  0.260662  0.129797  1
  O  O16  1  0.499123  0.263574  0.999747  1
  O  O17  1  0.989925  0.053550  0.995867  1
  O  O18  1  0.948581  0.263116  0.747793  1
  O  O19  1  0.051203  0.760613  0.752045  1
  O  O20  1  0.522968  0.536305  0.766637  1
  O  O21  1  0.989925  0.946450  0.495867  1
  O  O22  1  0.499123  0.736426  0.499747  1
  O  O23  1  0.522968  0.463695  0.266637  1
  O  O24  1  0.948581  0.736884  0.247793  1
  O  O25  1  0.051203  0.239387  0.252045  1
  F  F26  1  0.477421  0.036744  0.729361  1
  F  F27  1  0.023033  0.451852  0.503099  1
  F  F28  1  0.477421  0.963256  0.229361  1
  F  F29  1  0.023033  0.548148  0.003099  1
