# generated using pymatgen
data_LiFePO4
_symmetry_space_group_name_H-M   'P 1'
_cell_length_a   5.80452627
_cell_length_b   7.68488954
_cell_length_c   13.98183876
_cell_angle_alpha   90.00000000
_cell_angle_beta   90.00000000
_cell_angle_gamma   90.00000000
_symmetry_Int_Tables_number   1
_chemical_formula_structural   LiFePO4
_chemical_formula_sum   'Li8 Fe8 P8 O32'
_cell_volume   623.68988400
_cell_formula_units_Z   8
loop_
 _symmetry_equiv_pos_site_id
 _symmetry_equiv_pos_as_xyz
  1  'x, y, z'
loop_
 _atom_site_type_symbol
 _atom_site_label
 _atom_site_symmetry_multiplicity
 _atom_site_fract_x
 _atom_site_fract_y
 _atom_site_fract_z
 _atom_site_occupancy
  Li  Li0  1  0.415001  0.171756  0.527061  1
  Li  Li1  1  0.915001  0.171756  0.972939  1
  Li  Li2  1  0.415001  0.328244  0.027061  1
  Li  Li3  1  0.915001  0.328244  0.472939  1
  Li  Li4  1  0.084999  0.671756  0.527061  1
  Li  Li5  1  0.584999  0.671756  0.972939  1
  Li  Li6  1  0.084999  0.828244  0.027061  1
  Li  Li7  1  0.584999  0.828244  0.472939  1
  Fe  Fe8  1  0.159647  0.184115  0.218433  1
  Fe  Fe9  1  0.659647  0.184115  0.281567  1
  Fe  Fe10  1  0.659647  0.315885  0.781567  1
  Fe  Fe11  1  0.159647  0.315885  0.718433  1
  Fe  Fe12  1  0.340353  0.684115  0.218433  1
  Fe  Fe13  1  0.840353  0.684115  0.281567  1
  Fe  Fe14  1  0.340353  0.815885  0.718433  1
  Fe  Fe15  1  0.840353  0.815885  0.781567  1
  P  P16  1  0.894928  0.040566  0.626513  1
  P  P17  1  0.394928  0.040566  0.873487  1
  P  P18  1  0.894928  0.459434  0.126513  1
  P  P19  1  0.394928  0.459434  0.373487  1
  P  P20  1  0.605072  0.540566  0.626513  1
  P  P21  1  0.105072  0.540566  0.873487  1
  P  P22  1  0.605072  0.959434  0.126513  1
  P  P23  1  0.105072  0.959434  0.373487  1
  O  O24  1  0.813218  0.976385  0.061475  1
  O  O25  1  0.313218  0.976385  0.438525  1
  O  O26  1  0.323686  0.085483  0.766858  1
  O  O27  1  0.823686  0.085483  0.733142  1
  O  O28  1  0.481436  0.140056  0.142314  1
  O  O29  1  0.981436  0.140056  0.357686  1
  O  O30  1  0.067056  0.183503  0.592969  1
  O  O31  1  0.567056  0.183503  0.907031  1
  O  O32  1  0.067056  0.316497  0.092969  1
  O  O33  1  0.567056  0.316497  0.407031  1
  O  O34  1  0.481436  0.359944  0.642314  1
  O  O35  1  0.981436  0.359944  0.857686  1
  O  O36  1  0.823686  0.414517  0.233142  1
  O  O37  1  0.323686  0.414517  0.266858  1
  O  O38  1  0.813218  0.523615  0.561475  1
  O  O39  1  0.313218  0.523615  0.938525  1
  O  O40  1  0.186782  0.476385  0.438525  1
  O  O41  1  0.686782  0.476385  0.061475  1
  O  O42  1  0.676314  0.585483  0.733142  1
  O  O43  1  0.176314  0.585483  0.766858  1
  O  O44  1  0.018564  0.640056  0.142314  1
  O  O45  1  0.518564  0.640056  0.357686  1
  O  O46  1  0.432944  0.683503  0.592969  1
  O  O47  1  0.932944  0.683503  0.907031  1
  O  O48  1  0.432944  0.816497  0.092969  1
  O  O49  1  0.932944  0.816497  0.407031  1
  O  O50  1  0.018564  0.859944  0.642314  1
  O  O51  1  0.518564  0.859944  0.857686  1
  O  O52  1  0.676314  0.914517  0.233142  1
  O  O53  1  0.176314  0.914517  0.266858  1
  O  O54  1  0.686782  0.023615  0.561475  1
  O  O55  1  0.186782  0.023615  0.938525  1
