# generated using pymatgen
data_FeNi(PO4)2
_symmetry_space_group_name_H-M   'P 1'
_cell_length_a   4.83496158
_cell_length_b   5.84471272
_cell_length_c   9.92182851
_cell_angle_alpha   90.00000000
_cell_angle_beta   90.19299415
_cell_angle_gamma   90.00000000
_symmetry_Int_Tables_number   1
_chemical_formula_structural   FeNi(PO4)2
_chemical_formula_sum   'Fe2 Ni2 P4 O16'
_cell_volume   280.37897858
_cell_formula_units_Z   2
loop_
 _symmetry_equiv_pos_site_id
 _symmetry_equiv_pos_as_xyz
  1  'x, y, z'
loop_
 _atom_site_type_symbol
 _atom_site_label
 _atom_site_symmetry_multiplicity
 _atom_site_fract_x
 _atom_site_fract_y
 _atom_site_fract_z
 _atom_site_occupancy
  Fe  Fe0  1  0.033767  0.750000  0.273048  1
  Fe  Fe1  1  0.966233  0.250000  0.726952  1
  Ni  Ni2  1  0.543310  0.250000  0.226112  1
  Ni  Ni3  1  0.456690  0.750000  0.773888  1
  P  P4  1  0.585193  0.750000  0.093522  1
  P  P5  1  0.082398  0.250000  0.402185  1
  P  P6  1  0.917602  0.750000  0.597815  1
  P  P7  1  0.414807  0.250000  0.906478  1
  O  O8  1  0.338288  0.250000  0.055672  1
  O  O9  1  0.273946  0.750000  0.114461  1
  O  O10  1  0.735818  0.952463  0.169657  1
  O  O11  1  0.735818  0.547537  0.169657  1
  O  O12  1  0.224360  0.043571  0.328514  1
  O  O13  1  0.224360  0.456429  0.328514  1
  O  O14  1  0.766838  0.250000  0.390737  1
  O  O15  1  0.842672  0.750000  0.447353  1
  O  O16  1  0.157328  0.250000  0.552647  1
  O  O17  1  0.233162  0.750000  0.609263  1
  O  O18  1  0.775640  0.956429  0.671486  1
  O  O19  1  0.775640  0.543571  0.671486  1
  O  O20  1  0.264182  0.452463  0.830343  1
  O  O21  1  0.264182  0.047537  0.830343  1
  O  O22  1  0.726054  0.250000  0.885539  1
  O  O23  1  0.661712  0.750000  0.944328  1
