# generated using pymatgen
data_LiMn2O3F
_symmetry_space_group_name_H-M   'P 1'
_cell_length_a   8.00405165
_cell_length_b   8.00405165
_cell_length_c   6.02308078
_cell_angle_alpha   68.21540891
_cell_angle_beta   111.78459109
_cell_angle_gamma   116.08468730
_symmetry_Int_Tables_number   1
_chemical_formula_structural   LiMn2O3F
_chemical_formula_sum   'Li4 Mn8 O12 F4'
_cell_volume   311.65255667
_cell_formula_units_Z   4
loop_
 _symmetry_equiv_pos_site_id
 _symmetry_equiv_pos_as_xyz
  1  'x, y, z'
loop_
 _atom_site_type_symbol
 _atom_site_label
 _atom_site_symmetry_multiplicity
 _atom_site_fract_x
 _atom_site_fract_y
 _atom_site_fract_z
 _atom_site_occupancy
  Li  Li0  1  0.013681  0.756219  0.899302  1
  Li  Li1  1  0.736814  0.994594  0.609690  1
  Li  Li2  1  0.243781  0.986319  0.399302  1
  Li  Li3  1  0.005406  0.263186  0.109690  1
  Mn  Mn4  1  0.764455  0.777042  0.236556  1
  Mn  Mn5  1  0.010037  0.509558  0.487308  1
  Mn  Mn6  1  0.490442  0.989963  0.987308  1
  Mn  Mn7  1  0.378016  0.623556  0.863407  1
  Mn  Mn8  1  0.617788  0.362100  0.631440  1
  Mn  Mn9  1  0.376444  0.621984  0.363407  1
  Mn  Mn10  1  0.637900  0.382212  0.131440  1
  Mn  Mn11  1  0.222958  0.235545  0.736556  1
  O  O12  1  0.608750  0.862510  0.326210  1
  O  O13  1  0.611366  0.840974  0.887432  1
  O  O14  1  0.875077  0.634514  0.168664  1
  O  O15  1  0.521269  0.501084  0.290459  1
  O  O16  1  0.758629  0.291297  0.478050  1
  O  O17  1  0.277237  0.745545  0.985575  1
  O  O18  1  0.708703  0.241371  0.978050  1
  O  O19  1  0.254455  0.722763  0.485575  1
  O  O20  1  0.498916  0.478731  0.790459  1
  O  O21  1  0.137490  0.391250  0.826210  1
  O  O22  1  0.365486  0.124923  0.668664  1
  O  O23  1  0.159026  0.388634  0.387432  1
  F  F24  1  0.989963  0.998171  0.759539  1
  F  F25  1  0.868149  0.634063  0.626372  1
  F  F26  1  0.365937  0.131851  0.126372  1
  F  F27  1  0.001829  0.010037  0.259539  1
