# generated using pymatgen
data_Cr3Fe2Sb3O16
_symmetry_space_group_name_H-M   'P 1'
_cell_length_a   6.05749391
_cell_length_b   6.05749391
_cell_length_c   9.16643343
_cell_angle_alpha   89.81866315
_cell_angle_beta   90.18133685
_cell_angle_gamma   119.83964133
_symmetry_Int_Tables_number   1
_chemical_formula_structural   Cr3Fe2Sb3O16
_chemical_formula_sum   'Cr3 Fe2 Sb3 O16'
_cell_volume   291.75183106
_cell_formula_units_Z   1
loop_
 _symmetry_equiv_pos_site_id
 _symmetry_equiv_pos_as_xyz
  1  'x, y, z'
loop_
 _atom_site_type_symbol
 _atom_site_label
 _atom_site_symmetry_multiplicity
 _atom_site_fract_x
 _atom_site_fract_y
 _atom_site_fract_z
 _atom_site_occupancy
  Cr  Cr0  1  0.167818  0.335082  0.789935  1
  Cr  Cr1  1  0.664918  0.832182  0.789935  1
  Cr  Cr2  1  0.829642  0.170358  0.289829  1
  Fe  Fe3  1  0.342753  0.657247  0.510446  1
  Fe  Fe4  1  0.673558  0.326442  0.004097  1
  Sb  Sb5  1  0.167379  0.832621  0.789267  1
  Sb  Sb6  1  0.333690  0.170360  0.287661  1
  Sb  Sb7  1  0.829640  0.666310  0.287661  1
  O  O8  1  0.169906  0.330980  0.398734  1
  O  O9  1  0.474167  0.525833  0.674753  1
  O  O10  1  0.332459  0.667541  0.901835  1
  O  O11  1  0.999597  0.000403  0.684958  1
  O  O12  1  0.997872  0.002128  0.179091  1
  O  O13  1  0.669020  0.830094  0.398734  1
  O  O14  1  0.049351  0.517679  0.662681  1
  O  O15  1  0.482321  0.950649  0.662681  1
  O  O16  1  0.835047  0.164953  0.887399  1
  O  O17  1  0.165013  0.834987  0.400307  1
  O  O18  1  0.518949  0.046317  0.163137  1
  O  O19  1  0.953683  0.481051  0.163137  1
  O  O20  1  0.664237  0.335763  0.406256  1
  O  O21  1  0.331149  0.171191  0.896790  1
  O  O22  1  0.516911  0.483089  0.158454  1
  O  O23  1  0.828809  0.668851  0.896790  1
