# generated using pymatgen
data_Li4MnSn(WO6)2
_symmetry_space_group_name_H-M   'P 1'
_cell_length_a   5.14999150
_cell_length_b   5.42290314
_cell_length_c   7.50299421
_cell_angle_alpha   94.12885939
_cell_angle_beta   90.04677193
_cell_angle_gamma   90.01873232
_symmetry_Int_Tables_number   1
_chemical_formula_structural   Li4MnSn(WO6)2
_chemical_formula_sum   'Li4 Mn1 Sn1 W2 O12'
_cell_volume   208.99898658
_cell_formula_units_Z   1
loop_
 _symmetry_equiv_pos_site_id
 _symmetry_equiv_pos_as_xyz
  1  'x, y, z'
loop_
 _atom_site_type_symbol
 _atom_site_label
 _atom_site_symmetry_multiplicity
 _atom_site_fract_x
 _atom_site_fract_y
 _atom_site_fract_z
 _atom_site_occupancy
  Li  Li0  1  0.002480  0.573672  0.699594  1
  Li  Li1  1  0.498123  0.090920  0.219069  1
  Li  Li2  1  0.002484  0.539753  0.241510  1
  Li  Li3  1  0.497058  0.046507  0.716235  1
  Mn  Mn4  1  0.498347  0.505234  0.495887  1
  Sn  Sn5  1  0.000692  0.002675  0.998995  1
  W  W6  1  0.997410  0.005025  0.497666  1
  W  W7  1  0.504222  0.503932  0.995557  1
  O  O8  1  0.294692  0.792629  0.566407  1
  O  O9  1  0.128146  0.980139  0.259295  1
  O  O10  1  0.338119  0.180034  0.945722  1
  O  O11  1  0.199972  0.294287  0.563755  1
  O  O12  1  0.805546  0.319489  0.073840  1
  O  O13  1  0.379183  0.479448  0.252607  1
  O  O14  1  0.620783  0.495794  0.753367  1
  O  O15  1  0.183268  0.663924  0.941863  1
  O  O16  1  0.806048  0.687364  0.447167  1
  O  O17  1  0.675280  0.806001  0.072171  1
  O  O18  1  0.873888  0.985813  0.742269  1
  O  O19  1  0.694261  0.189760  0.445825  1
