# generated using pymatgen
data_NaNi2O3
_symmetry_space_group_name_H-M   'P 1'
_cell_length_a   2.99659162
_cell_length_b   2.99659162
_cell_length_c   7.67722294
_cell_angle_alpha   90.00000000
_cell_angle_beta   90.00000000
_cell_angle_gamma   120.00000000
_symmetry_Int_Tables_number   1
_chemical_formula_structural   NaNi2O3
_chemical_formula_sum   'Na1 Ni2 O3'
_cell_volume   59.70214096
_cell_formula_units_Z   1
loop_
 _symmetry_equiv_pos_site_id
 _symmetry_equiv_pos_as_xyz
  1  'x, y, z'
loop_
 _atom_site_type_symbol
 _atom_site_label
 _atom_site_symmetry_multiplicity
 _atom_site_fract_x
 _atom_site_fract_y
 _atom_site_fract_z
 _atom_site_occupancy
  Na  Na0  1  0.000000  0.000000  0.500000  1
  Ni  Ni1  1  0.333333  0.666667  0.161433  1
  Ni  Ni2  1  0.666667  0.333333  0.838567  1
  O  O3  1  0.333333  0.666667  0.708196  1
  O  O4  1  0.000000  0.000000  0.000000  1
  O  O5  1  0.666667  0.333333  0.291804  1
