# generated using pymatgen
data_Li4Fe3Cu3(SnO8)2
_symmetry_space_group_name_H-M   'P 1'
_cell_length_a   5.97086409
_cell_length_b   5.97086409
_cell_length_c   9.77258663
_cell_angle_alpha   89.74561183
_cell_angle_beta   90.25438817
_cell_angle_gamma   119.83436581
_symmetry_Int_Tables_number   1
_chemical_formula_structural   Li4Fe3Cu3(SnO8)2
_chemical_formula_sum   'Li4 Fe3 Cu3 Sn2 O16'
_cell_volume   302.22560344
_cell_formula_units_Z   1
loop_
 _symmetry_equiv_pos_site_id
 _symmetry_equiv_pos_as_xyz
  1  'x, y, z'
loop_
 _atom_site_type_symbol
 _atom_site_label
 _atom_site_symmetry_multiplicity
 _atom_site_fract_x
 _atom_site_fract_y
 _atom_site_fract_z
 _atom_site_occupancy
  Li  Li0  1  0.343482  0.656518  0.102216  1
  Li  Li1  1  0.000505  0.999495  0.005656  1
  Li  Li2  1  0.995018  0.004982  0.508019  1
  Li  Li3  1  0.671643  0.328357  0.604108  1
  Fe  Fe4  1  0.171607  0.828393  0.786033  1
  Fe  Fe5  1  0.337949  0.165810  0.285573  1
  Fe  Fe6  1  0.834190  0.662051  0.285573  1
  Cu  Cu7  1  0.170500  0.335310  0.785196  1
  Cu  Cu8  1  0.664690  0.829500  0.785196  1
  Cu  Cu9  1  0.832484  0.167516  0.286131  1
  Sn  Sn10  1  0.332249  0.667751  0.509369  1
  Sn  Sn11  1  0.669070  0.330930  0.009530  1
  O  O12  1  0.170741  0.321346  0.403044  1
  O  O13  1  0.485192  0.514808  0.661114  1
  O  O14  1  0.341965  0.658035  0.887369  1
  O  O15  1  0.995328  0.004672  0.697353  1
  O  O16  1  0.992769  0.007231  0.193601  1
  O  O17  1  0.678654  0.829259  0.403044  1
  O  O18  1  0.034459  0.508440  0.661340  1
  O  O19  1  0.491560  0.965541  0.661340  1
  O  O20  1  0.842857  0.157143  0.901263  1
  O  O21  1  0.160507  0.839493  0.401548  1
  O  O22  1  0.508746  0.021233  0.158264  1
  O  O23  1  0.978767  0.491254  0.158264  1
  O  O24  1  0.676932  0.323068  0.390835  1
  O  O25  1  0.317613  0.155294  0.900411  1
  O  O26  1  0.521141  0.478859  0.160300  1
  O  O27  1  0.844706  0.682387  0.900411  1
