# generated using pymatgen
data_NbPSe
_symmetry_space_group_name_H-M   'P 1'
_cell_length_a   6.97321882
_cell_length_b   6.97321882
_cell_length_c   6.97321882
_cell_angle_alpha   151.10708757
_cell_angle_beta   139.20781990
_cell_angle_gamma   50.75716138
_symmetry_Int_Tables_number   1
_chemical_formula_structural   NbPSe
_chemical_formula_sum   'Nb2 P2 Se2'
_cell_volume   106.54327643
_cell_formula_units_Z   2
loop_
 _symmetry_equiv_pos_site_id
 _symmetry_equiv_pos_as_xyz
  1  'x, y, z'
loop_
 _atom_site_type_symbol
 _atom_site_label
 _atom_site_symmetry_multiplicity
 _atom_site_fract_x
 _atom_site_fract_y
 _atom_site_fract_z
 _atom_site_occupancy
  Nb  Nb0  1  0.384452  0.884452  0.500000  1
  Nb  Nb1  1  0.615548  0.115548  0.500000  1
  P  P2  1  0.766117  0.500000  0.266117  1
  P  P3  1  0.233883  0.500000  0.733883  1
  Se  Se4  1  0.213229  0.213229  0.000000  1
  Se  Se5  1  0.786771  0.786771  0.000000  1
