# generated using pymatgen
data_LiNb5O8
_symmetry_space_group_name_H-M   'P 1'
_cell_length_a   8.20879601
_cell_length_b   9.76951933
_cell_length_c   10.30486306
_cell_angle_alpha   90.00000000
_cell_angle_beta   109.82301014
_cell_angle_gamma   90.00000000
_symmetry_Int_Tables_number   1
_chemical_formula_structural   LiNb5O8
_chemical_formula_sum   'Li4 Nb20 O32'
_cell_volume   777.43957463
_cell_formula_units_Z   4
loop_
 _symmetry_equiv_pos_site_id
 _symmetry_equiv_pos_as_xyz
  1  'x, y, z'
loop_
 _atom_site_type_symbol
 _atom_site_label
 _atom_site_symmetry_multiplicity
 _atom_site_fract_x
 _atom_site_fract_y
 _atom_site_fract_z
 _atom_site_occupancy
  Li  Li0  1  0.616238  0.431230  0.480205  1
  Li  Li1  1  0.616238  0.068770  0.980205  1
  Li  Li2  1  0.383762  0.931230  0.019795  1
  Li  Li3  1  0.383762  0.568770  0.519795  1
  Nb  Nb4  1  0.007066  0.646352  0.099584  1
  Nb  Nb5  1  0.793655  0.388134  0.105327  1
  Nb  Nb6  1  0.007066  0.853648  0.599584  1
  Nb  Nb7  1  0.790866  0.879463  0.293520  1
  Nb  Nb8  1  0.793655  0.111866  0.605327  1
  Nb  Nb9  1  0.603216  0.119112  0.310666  1
  Nb  Nb10  1  0.790866  0.620537  0.793520  1
  Nb  Nb11  1  0.622599  0.867449  0.483205  1
  Nb  Nb12  1  0.377401  0.367449  0.016795  1
  Nb  Nb13  1  0.396784  0.619112  0.189334  1
  Nb  Nb14  1  0.603216  0.380888  0.810666  1
  Nb  Nb15  1  0.622599  0.632551  0.983205  1
  Nb  Nb16  1  0.377401  0.132551  0.516795  1
  Nb  Nb17  1  0.209134  0.379463  0.206480  1
  Nb  Nb18  1  0.396784  0.880888  0.689334  1
  Nb  Nb19  1  0.206345  0.888134  0.394673  1
  Nb  Nb20  1  0.209134  0.120537  0.706480  1
  Nb  Nb21  1  0.992934  0.146352  0.400416  1
  Nb  Nb22  1  0.206345  0.611866  0.894673  1
  Nb  Nb23  1  0.992934  0.353648  0.900416  1
  O  O24  1  0.989243  0.269748  0.078076  1
  O  O25  1  0.993095  0.994618  0.265471  1
  O  O26  1  0.989243  0.230252  0.578076  1
  O  O27  1  0.799144  0.750896  0.127688  1
  O  O28  1  0.782236  0.256387  0.270652  1
  O  O29  1  0.993095  0.505382  0.765471  1
  O  O30  1  0.592233  0.500072  0.143818  1
  O  O31  1  0.604319  0.996677  0.151661  1
  O  O32  1  0.799144  0.749104  0.627688  1
  O  O33  1  0.605925  0.746964  0.318532  1
  O  O34  1  0.782236  0.243613  0.770652  1
  O  O35  1  0.398127  0.738304  0.019161  1
  O  O36  1  0.601873  0.238304  0.480839  1
  O  O37  1  0.592233  0.999928  0.643818  1
  O  O38  1  0.394075  0.246964  0.181468  1
  O  O39  1  0.604319  0.503323  0.651661  1
  O  O40  1  0.395681  0.496677  0.348339  1
  O  O41  1  0.605925  0.753036  0.818532  1
  O  O42  1  0.407767  0.000072  0.356182  1
  O  O43  1  0.398127  0.761696  0.519161  1
  O  O44  1  0.601873  0.261696  0.980839  1
  O  O45  1  0.217764  0.756387  0.229348  1
  O  O46  1  0.394075  0.253036  0.681468  1
  O  O47  1  0.200856  0.250896  0.372312  1
  O  O48  1  0.395681  0.003323  0.848339  1
  O  O49  1  0.407767  0.499928  0.856182  1
  O  O50  1  0.006905  0.494618  0.234529  1
  O  O51  1  0.217764  0.743613  0.729348  1
  O  O52  1  0.200856  0.249104  0.872312  1
  O  O53  1  0.010757  0.769748  0.421924  1
  O  O54  1  0.006905  0.005382  0.734529  1
  O  O55  1  0.010757  0.730252  0.921924  1
