# generated using pymatgen
data_Cr2Ni3Sb(PO4)6
_symmetry_space_group_name_H-M   'P 1'
_cell_length_a   8.41683226
_cell_length_b   8.41683226
_cell_length_c   8.41683226
_cell_angle_alpha   61.86728240
_cell_angle_beta   61.86728240
_cell_angle_gamma   61.86728240
_symmetry_Int_Tables_number   1
_chemical_formula_structural   Cr2Ni3Sb(PO4)6
_chemical_formula_sum   'Cr2 Ni3 Sb1 P6 O24'
_cell_volume   439.25642310
_cell_formula_units_Z   1
loop_
 _symmetry_equiv_pos_site_id
 _symmetry_equiv_pos_as_xyz
  1  'x, y, z'
loop_
 _atom_site_type_symbol
 _atom_site_label
 _atom_site_symmetry_multiplicity
 _atom_site_fract_x
 _atom_site_fract_y
 _atom_site_fract_z
 _atom_site_occupancy
  Cr  Cr0  1  0.994652  0.994652  0.994652  1
  Cr  Cr1  1  0.500192  0.500192  0.500192  1
  Ni  Ni2  1  0.854855  0.854855  0.854855  1
  Ni  Ni3  1  0.643788  0.643788  0.643788  1
  Ni  Ni4  1  0.357544  0.357544  0.357544  1
  Sb  Sb5  1  0.143997  0.143997  0.143997  1
  P  P6  1  0.255269  0.551658  0.949329  1
  P  P7  1  0.744012  0.458236  0.050042  1
  P  P8  1  0.458236  0.050042  0.744012  1
  P  P9  1  0.050042  0.744012  0.458236  1
  P  P10  1  0.949329  0.255269  0.551658  1
  P  P11  1  0.551658  0.949329  0.255269  1
  O  O12  1  0.897962  0.679072  0.485874  1
  O  O13  1  0.679071  0.485874  0.897962  1
  O  O14  1  0.935873  0.096226  0.749590  1
  O  O15  1  0.485874  0.897962  0.679072  1
  O  O16  1  0.988737  0.178748  0.392723  1
  O  O17  1  0.747420  0.402070  0.561539  1
  O  O18  1  0.749590  0.935873  0.096226  1
  O  O19  1  0.561539  0.747420  0.402070  1
  O  O20  1  0.824863  0.603104  0.011487  1
  O  O21  1  0.402070  0.561539  0.747420  1
  O  O22  1  0.908443  0.245797  0.064740  1
  O  O23  1  0.603104  0.011487  0.824863  1
  O  O24  1  0.392723  0.988737  0.178748  1
  O  O25  1  0.096226  0.749590  0.935873  1
  O  O26  1  0.599732  0.432696  0.255160  1
  O  O27  1  0.178748  0.392723  0.988737  1
  O  O28  1  0.432696  0.255160  0.599732  1
  O  O29  1  0.245797  0.064740  0.908443  1
  O  O30  1  0.255160  0.599732  0.432696  1
  O  O31  1  0.011487  0.824863  0.603104  1
  O  O32  1  0.504353  0.104070  0.326147  1
  O  O33  1  0.064740  0.908443  0.245797  1
  O  O34  1  0.326147  0.504353  0.104070  1
  O  O35  1  0.104070  0.326147  0.504353  1
