# generated using pymatgen
data_Li2Fe2Si8O19
_symmetry_space_group_name_H-M   'P 1'
_cell_length_a   7.21243448
_cell_length_b   7.21243448
_cell_length_c   12.54388167
_cell_angle_alpha   72.78377345
_cell_angle_beta   107.21622655
_cell_angle_gamma   139.71759374
_symmetry_Int_Tables_number   1
_chemical_formula_structural   Li2Fe2Si8O19
_chemical_formula_sum   'Li2 Fe2 Si8 O19'
_cell_volume   400.37834947
_cell_formula_units_Z   1
loop_
 _symmetry_equiv_pos_site_id
 _symmetry_equiv_pos_as_xyz
  1  'x, y, z'
loop_
 _atom_site_type_symbol
 _atom_site_label
 _atom_site_symmetry_multiplicity
 _atom_site_fract_x
 _atom_site_fract_y
 _atom_site_fract_z
 _atom_site_occupancy
  Li  Li0  1  0.437091  0.237172  0.638755  1
  Li  Li1  1  0.237172  0.437091  0.361245  1
  Fe  Fe2  1  0.708453  0.311115  0.402677  1
  Fe  Fe3  1  0.311115  0.708453  0.597323  1
  Si  Si4  1  0.777721  0.536450  0.927474  1
  Si  Si5  1  0.152697  0.135498  0.169239  1
  Si  Si6  1  0.049739  0.915883  0.419210  1
  Si  Si7  1  0.233096  0.672645  0.831455  1
  Si  Si8  1  0.672645  0.233096  0.168545  1
  Si  Si9  1  0.915883  0.049739  0.580790  1
  Si  Si10  1  0.135498  0.152697  0.830761  1
  Si  Si11  1  0.536450  0.777721  0.072526  1
  O  O12  1  0.867761  0.833937  0.891637  1
  O  O13  1  0.430674  0.264317  0.898010  1
  O  O14  1  0.121808  0.122786  0.296550  1
  O  O15  1  0.727149  0.594746  0.417348  1
  O  O16  1  0.938412  0.550341  0.852493  1
  O  O17  1  0.305038  0.942978  0.456724  1
  O  O18  1  0.342885  0.875319  0.713113  1
  O  O19  1  0.380909  0.137723  0.172945  1
  O  O20  1  0.479868  0.845634  0.938316  1
  O  O21  1  0.845634  0.479868  0.061684  1
  O  O22  1  0.137723  0.380909  0.827055  1
  O  O23  1  0.875319  0.342885  0.286887  1
  O  O24  1  0.942978  0.305038  0.543276  1
  O  O25  1  0.550341  0.938412  0.147507  1
  O  O26  1  0.594746  0.727149  0.582652  1
  O  O27  1  0.122786  0.121808  0.703450  1
  O  O28  1  0.109535  0.109535  0.500000  1
  O  O29  1  0.264317  0.430674  0.101990  1
  O  O30  1  0.833937  0.867761  0.108363  1
