# generated using pymatgen
data_VO2F
_symmetry_space_group_name_H-M   'P 1'
_cell_length_a   5.10327344
_cell_length_b   5.14759269
_cell_length_c   13.03345992
_cell_angle_alpha   91.21395146
_cell_angle_beta   89.96896164
_cell_angle_gamma   119.47480027
_symmetry_Int_Tables_number   1
_chemical_formula_structural   VO2F
_chemical_formula_sum   'V6 O12 F6'
_cell_volume   297.98337937
_cell_formula_units_Z   6
loop_
 _symmetry_equiv_pos_site_id
 _symmetry_equiv_pos_as_xyz
  1  'x, y, z'
loop_
 _atom_site_type_symbol
 _atom_site_label
 _atom_site_symmetry_multiplicity
 _atom_site_fract_x
 _atom_site_fract_y
 _atom_site_fract_z
 _atom_site_occupancy
  V  V0  1  0.942986  0.959925  0.503534  1
  V  V1  1  0.954724  0.991484  0.998259  1
  V  V2  1  0.631774  0.352057  0.167695  1
  V  V3  1  0.279867  0.635426  0.334738  1
  V  V4  1  0.714422  0.355852  0.667027  1
  V  V5  1  0.363509  0.731726  0.830668  1
  O  O6  1  0.011479  0.413688  0.250075  1
  O  O7  1  0.347034  0.253439  0.084504  1
  O  O8  1  0.583849  0.001788  0.747466  1
  O  O9  1  0.994396  0.580115  0.751730  1
  O  O10  1  0.759352  0.073498  0.082128  1
  O  O11  1  0.094826  0.749463  0.416459  1
  O  O12  1  0.595978  0.587010  0.250724  1
  O  O13  1  0.920775  0.254606  0.586007  1
  O  O14  1  0.263937  0.916497  0.915550  1
  O  O15  1  0.737496  0.661224  0.581533  1
  O  O16  1  0.678805  0.744112  0.914025  1
  O  O17  1  0.684593  0.921593  0.416807  1
  F  F18  1  0.415896  0.999487  0.249649  1
  F  F19  1  0.334204  0.081133  0.583584  1
  F  F20  1  0.074377  0.325667  0.918391  1
  F  F21  1  0.271462  0.336065  0.416457  1
  F  F22  1  0.407910  0.409514  0.749420  1
  F  F23  1  0.936351  0.664633  0.083570  1
