# generated using pymatgen
data_Li2Fe3WO8
_symmetry_space_group_name_H-M   'P 1'
_cell_length_a   8.62334884
_cell_length_b   8.62334884
_cell_length_c   8.61432247
_cell_angle_alpha   89.79406131
_cell_angle_beta   90.20593869
_cell_angle_gamma   90.30223300
_symmetry_Int_Tables_number   1
_chemical_formula_structural   Li2Fe3WO8
_chemical_formula_sum   'Li8 Fe12 W4 O32'
_cell_volume   640.56235450
_cell_formula_units_Z   4
loop_
 _symmetry_equiv_pos_site_id
 _symmetry_equiv_pos_as_xyz
  1  'x, y, z'
loop_
 _atom_site_type_symbol
 _atom_site_label
 _atom_site_symmetry_multiplicity
 _atom_site_fract_x
 _atom_site_fract_y
 _atom_site_fract_z
 _atom_site_occupancy
  Li  Li0  1  0.996818  0.248453  0.375468  1
  Li  Li1  1  0.253767  0.497872  0.121163  1
  Li  Li2  1  0.754336  0.498174  0.627906  1
  Li  Li3  1  0.498174  0.754336  0.372094  1
  Li  Li4  1  0.001768  0.749242  0.871792  1
  Li  Li5  1  0.749242  0.001768  0.128208  1
  Li  Li6  1  0.248453  0.996818  0.624532  1
  Li  Li7  1  0.497872  0.253767  0.878837  1
  Fe  Fe8  1  0.625637  0.369531  0.241859  1
  Fe  Fe9  1  0.869216  0.375419  0.994396  1
  Fe  Fe10  1  0.111452  0.379189  0.752100  1
  Fe  Fe11  1  0.616487  0.616487  0.000000  1
  Fe  Fe12  1  0.369531  0.625637  0.758141  1
  Fe  Fe13  1  0.123163  0.633146  0.507843  1
  Fe  Fe14  1  0.375419  0.869216  0.005604  1
  Fe  Fe15  1  0.131847  0.876982  0.256943  1
  Fe  Fe16  1  0.880072  0.880072  0.500000  1
  Fe  Fe17  1  0.379189  0.111452  0.247900  1
  Fe  Fe18  1  0.633146  0.123163  0.492157  1
  Fe  Fe19  1  0.876982  0.131847  0.743057  1
  W  W20  1  0.374660  0.374660  0.500000  1
  W  W21  1  0.878173  0.625084  0.247148  1
  W  W22  1  0.625084  0.878173  0.752852  1
  W  W23  1  0.124519  0.124519  0.000000  1
  O  O24  1  0.385403  0.371752  0.273652  1
  O  O25  1  0.603159  0.365573  0.493546  1
  O  O26  1  0.892074  0.368887  0.752333  1
  O  O27  1  0.859773  0.398493  0.254231  1
  O  O28  1  0.121755  0.355054  0.988486  1
  O  O29  1  0.631022  0.390711  0.012912  1
  O  O30  1  0.371752  0.385403  0.726348  1
  O  O31  1  0.148239  0.381932  0.507146  1
  O  O32  1  0.644838  0.613838  0.241839  1
  O  O33  1  0.865158  0.627961  0.024050  1
  O  O34  1  0.140122  0.612378  0.737647  1
  O  O35  1  0.613838  0.644838  0.758161  1
  O  O36  1  0.365573  0.603159  0.506454  1
  O  O37  1  0.390711  0.631022  0.987088  1
  O  O38  1  0.101013  0.619868  0.262217  1
  O  O39  1  0.883662  0.633434  0.480112  1
  O  O40  1  0.627961  0.865158  0.975950  1
  O  O41  1  0.398493  0.859773  0.745769  1
  O  O42  1  0.108518  0.859069  0.496438  1
  O  O43  1  0.128320  0.901207  0.003172  1
  O  O44  1  0.871861  0.850013  0.263834  1
  O  O45  1  0.368887  0.892074  0.247667  1
  O  O46  1  0.633434  0.883662  0.519888  1
  O  O47  1  0.850013  0.871861  0.736166  1
  O  O48  1  0.355054  0.121755  0.011514  1
  O  O49  1  0.138350  0.130557  0.227323  1
  O  O50  1  0.859069  0.108518  0.503562  1
  O  O51  1  0.381932  0.148239  0.492854  1
  O  O52  1  0.619868  0.101013  0.737783  1
  O  O53  1  0.612378  0.140122  0.262353  1
  O  O54  1  0.901207  0.128320  0.996828  1
  O  O55  1  0.130557  0.138350  0.772677  1
