# generated using pymatgen
data_FePO4
_symmetry_space_group_name_H-M   'P 1'
_cell_length_a   4.78109206
_cell_length_b   6.59323700
_cell_length_c   8.75080414
_cell_angle_alpha   90.00000000
_cell_angle_beta   90.00000000
_cell_angle_gamma   90.00000000
_symmetry_Int_Tables_number   1
_chemical_formula_structural   FePO4
_chemical_formula_sum   'Fe4 P4 O16'
_cell_volume   275.85048806
_cell_formula_units_Z   4
loop_
 _symmetry_equiv_pos_site_id
 _symmetry_equiv_pos_as_xyz
  1  'x, y, z'
loop_
 _atom_site_type_symbol
 _atom_site_label
 _atom_site_symmetry_multiplicity
 _atom_site_fract_x
 _atom_site_fract_y
 _atom_site_fract_z
 _atom_site_occupancy
  Fe  Fe0  1  0.000000  0.000000  0.000000  1
  Fe  Fe1  1  0.000000  0.500000  0.000000  1
  Fe  Fe2  1  0.500000  0.000000  0.500000  1
  Fe  Fe3  1  0.500000  0.500000  0.500000  1
  P  P4  1  0.528382  0.750000  0.175839  1
  P  P5  1  0.028382  0.250000  0.324161  1
  P  P6  1  0.971618  0.750000  0.675839  1
  P  P7  1  0.471618  0.250000  0.824161  1
  O  O8  1  0.673760  0.943478  0.119660  1
  O  O9  1  0.673760  0.556522  0.119660  1
  O  O10  1  0.216853  0.750000  0.120099  1
  O  O11  1  0.059070  0.250000  0.144105  1
  O  O12  1  0.559070  0.750000  0.355895  1
  O  O13  1  0.716853  0.250000  0.379901  1
  O  O14  1  0.173760  0.443478  0.380340  1
  O  O15  1  0.173760  0.056522  0.380340  1
  O  O16  1  0.826240  0.943478  0.619660  1
  O  O17  1  0.826240  0.556522  0.619660  1
  O  O18  1  0.283147  0.750000  0.620099  1
  O  O19  1  0.440930  0.250000  0.644105  1
  O  O20  1  0.940930  0.750000  0.855895  1
  O  O21  1  0.783147  0.250000  0.879901  1
  O  O22  1  0.326240  0.443478  0.880340  1
  O  O23  1  0.326240  0.056522  0.880340  1
