# generated using pymatgen
data_LiVCr(P2O7)2
_symmetry_space_group_name_H-M   'P 1'
_cell_length_a   4.86306882
_cell_length_b   6.99773021
_cell_length_c   8.07951476
_cell_angle_alpha   89.98365940
_cell_angle_beta   90.29214563
_cell_angle_gamma   108.01435102
_symmetry_Int_Tables_number   1
_chemical_formula_structural   LiVCr(P2O7)2
_chemical_formula_sum   'Li1 V1 Cr1 P4 O14'
_cell_volume   261.46755697
_cell_formula_units_Z   1
loop_
 _symmetry_equiv_pos_site_id
 _symmetry_equiv_pos_as_xyz
  1  'x, y, z'
loop_
 _atom_site_type_symbol
 _atom_site_label
 _atom_site_symmetry_multiplicity
 _atom_site_fract_x
 _atom_site_fract_y
 _atom_site_fract_z
 _atom_site_occupancy
  Li  Li0  1  0.171473  0.671641  0.637945  1
  V  V1  1  0.781860  0.271640  0.492011  1
  Cr  Cr2  1  0.210232  0.724483  0.001962  1
  P  P3  1  0.600911  0.479016  0.822954  1
  P  P4  1  0.783949  0.913617  0.217408  1
  P  P5  1  0.219514  0.089812  0.716999  1
  P  P6  1  0.398879  0.524365  0.318048  1
  O  O7  1  0.955955  0.153112  0.663463  1
  O  O8  1  0.864867  0.109365  0.318736  1
  O  O9  1  0.818961  0.526658  0.961492  1
  O  O10  1  0.747906  0.482774  0.651998  1
  O  O11  1  0.596592  0.389554  0.334077  1
  O  O12  1  0.408681  0.086542  0.564444  1
  O  O13  1  0.401366  0.247769  0.850869  1
  O  O14  1  0.596574  0.750454  0.355043  1
  O  O15  1  0.594571  0.912699  0.067313  1
  O  O16  1  0.396839  0.607225  0.816157  1
  O  O17  1  0.269115  0.511657  0.147320  1
  O  O18  1  0.173985  0.480174  0.458617  1
  O  O19  1  0.128947  0.886186  0.801687  1
  O  O20  1  0.054847  0.858422  0.179480  1
