# generated using pymatgen
data_LiCr2CoO6
_symmetry_space_group_name_H-M   'P 1'
_cell_length_a   6.58776769
_cell_length_b   6.58776769
_cell_length_c   5.93988765
_cell_angle_alpha   76.17034126
_cell_angle_beta   103.82965874
_cell_angle_gamma   154.51867981
_symmetry_Int_Tables_number   1
_chemical_formula_structural   LiCr2CoO6
_chemical_formula_sum   'Li1 Cr2 Co1 O6'
_cell_volume   107.52076940
_cell_formula_units_Z   1
loop_
 _symmetry_equiv_pos_site_id
 _symmetry_equiv_pos_as_xyz
  1  'x, y, z'
loop_
 _atom_site_type_symbol
 _atom_site_label
 _atom_site_symmetry_multiplicity
 _atom_site_fract_x
 _atom_site_fract_y
 _atom_site_fract_z
 _atom_site_occupancy
  Li  Li0  1  0.329114  0.670886  0.161217  1
  Cr  Cr1  1  0.007244  0.992756  0.991668  1
  Cr  Cr2  1  0.330852  0.669148  0.665235  1
  Co  Co3  1  0.663486  0.336514  0.341746  1
  O  O4  1  0.511616  0.488384  0.219171  1
  O  O5  1  0.171249  0.828751  0.547951  1
  O  O6  1  0.163180  0.836820  0.127130  1
  O  O7  1  0.848137  0.151863  0.908097  1
  O  O8  1  0.815201  0.184799  0.425075  1
  O  O9  1  0.492046  0.507954  0.779665  1
