# generated using pymatgen
data_K2MnH2OF5
_symmetry_space_group_name_H-M   'P 1'
_cell_length_a   6.07010158
_cell_length_b   8.37905713
_cell_length_c   6.13544081
_cell_angle_alpha   90.00000000
_cell_angle_beta   97.06626646
_cell_angle_gamma   90.00000000
_symmetry_Int_Tables_number   1
_chemical_formula_structural   K2MnH2OF5
_chemical_formula_sum   'K4 Mn2 H4 O2 F10'
_cell_volume   309.68888789
_cell_formula_units_Z   2
loop_
 _symmetry_equiv_pos_site_id
 _symmetry_equiv_pos_as_xyz
  1  'x, y, z'
loop_
 _atom_site_type_symbol
 _atom_site_label
 _atom_site_symmetry_multiplicity
 _atom_site_fract_x
 _atom_site_fract_y
 _atom_site_fract_z
 _atom_site_occupancy
  K  K0  1  0.089474  0.750000  0.518042  1
  K  K1  1  0.910526  0.250000  0.481958  1
  K  K2  1  0.503670  0.750000  0.093794  1
  K  K3  1  0.496330  0.250000  0.906206  1
  Mn  Mn4  1  0.000000  0.500000  0.000000  1
  Mn  Mn5  1  0.000000  0.000000  0.000000  1
  H  H6  1  0.633800  0.655238  0.625807  1
  H  H7  1  0.366200  0.155238  0.374193  1
  H  H8  1  0.366200  0.344762  0.374193  1
  H  H9  1  0.633800  0.844762  0.625807  1
  O  O10  1  0.561040  0.750000  0.551980  1
  O  O11  1  0.438960  0.250000  0.448020  1
  F  F12  1  0.206360  0.504933  0.263657  1
  F  F13  1  0.793640  0.004933  0.736343  1
  F  F14  1  0.793640  0.495067  0.736343  1
  F  F15  1  0.206360  0.995067  0.263657  1
  F  F16  1  0.236040  0.529397  0.831611  1
  F  F17  1  0.763960  0.029397  0.168389  1
  F  F18  1  0.763960  0.470603  0.168389  1
  F  F19  1  0.236040  0.970603  0.831611  1
  F  F20  1  0.955468  0.750000  0.024552  1
  F  F21  1  0.044532  0.250000  0.975448  1
