# generated using pymatgen
data_Ba2CaI6
_symmetry_space_group_name_H-M   'P 1'
_cell_length_a   8.31340226
_cell_length_b   8.31340226
_cell_length_c   24.64043788
_cell_angle_alpha   90.00000000
_cell_angle_beta   90.00000000
_cell_angle_gamma   90.00000000
_symmetry_Int_Tables_number   1
_chemical_formula_structural   Ba2CaI6
_chemical_formula_sum   'Ba8 Ca4 I24'
_cell_volume   1702.96613490
_cell_formula_units_Z   4
loop_
 _symmetry_equiv_pos_site_id
 _symmetry_equiv_pos_as_xyz
  1  'x, y, z'
loop_
 _atom_site_type_symbol
 _atom_site_label
 _atom_site_symmetry_multiplicity
 _atom_site_fract_x
 _atom_site_fract_y
 _atom_site_fract_z
 _atom_site_occupancy
  Ba  Ba0  1  0.500000  0.000000  0.163536  1
  Ba  Ba1  1  0.000000  0.000000  0.333705  1
  Ba  Ba2  1  0.000000  0.000000  0.666295  1
  Ba  Ba3  1  0.500000  0.000000  0.836464  1
  Ba  Ba4  1  0.500000  0.500000  0.333705  1
  Ba  Ba5  1  0.000000  0.500000  0.163536  1
  Ba  Ba6  1  0.000000  0.500000  0.836464  1
  Ba  Ba7  1  0.500000  0.500000  0.666295  1
  Ca  Ca8  1  0.000000  0.000000  0.000000  1
  Ca  Ca9  1  0.500000  0.000000  0.500000  1
  Ca  Ca10  1  0.000000  0.500000  0.500000  1
  Ca  Ca11  1  0.500000  0.500000  0.000000  1
  I  I12  1  0.302610  0.201656  0.583363  1
  I  I13  1  0.200169  0.200304  0.081016  1
  I  I14  1  0.799696  0.200169  0.918984  1
  I  I15  1  0.298344  0.197390  0.416637  1
  I  I16  1  0.745946  0.241466  0.248838  1
  I  I17  1  0.741466  0.245946  0.751162  1
  I  I18  1  0.241466  0.254054  0.751162  1
  I  I19  1  0.245946  0.258534  0.248838  1
  I  I20  1  0.299696  0.299831  0.918984  1
  I  I21  1  0.798344  0.302610  0.416637  1
  I  I22  1  0.700169  0.299696  0.081016  1
  I  I23  1  0.802610  0.298344  0.583363  1
  I  I24  1  0.197390  0.701656  0.583363  1
  I  I25  1  0.299831  0.700304  0.081016  1
  I  I26  1  0.700304  0.700169  0.918984  1
  I  I27  1  0.201656  0.697390  0.416637  1
  I  I28  1  0.754054  0.741466  0.248838  1
  I  I29  1  0.758534  0.745946  0.751162  1
  I  I30  1  0.258534  0.754054  0.751162  1
  I  I31  1  0.254054  0.758534  0.248838  1
  I  I32  1  0.701656  0.802610  0.416637  1
  I  I33  1  0.200304  0.799831  0.918984  1
  I  I34  1  0.799831  0.799696  0.081016  1
  I  I35  1  0.697390  0.798344  0.583363  1
