# generated using pymatgen
data_LiVF3
_symmetry_space_group_name_H-M   'P 1'
_cell_length_a   7.22086230
_cell_length_b   7.22086230
_cell_length_c   5.86504572
_cell_angle_alpha   70.14137005
_cell_angle_beta   109.85862995
_cell_angle_gamma   115.56536063
_symmetry_Int_Tables_number   1
_chemical_formula_structural   LiVF3
_chemical_formula_sum   'Li4 V4 F12'
_cell_volume   252.65341098
_cell_formula_units_Z   4
loop_
 _symmetry_equiv_pos_site_id
 _symmetry_equiv_pos_as_xyz
  1  'x, y, z'
loop_
 _atom_site_type_symbol
 _atom_site_label
 _atom_site_symmetry_multiplicity
 _atom_site_fract_x
 _atom_site_fract_y
 _atom_site_fract_z
 _atom_site_occupancy
  Li  Li0  1  0.931486  0.931486  0.750000  1
  Li  Li1  1  0.685160  0.685160  0.250000  1
  Li  Li2  1  0.314840  0.314840  0.750000  1
  Li  Li3  1  0.068514  0.068514  0.250000  1
  V  V4  1  0.337234  0.836889  0.692540  1
  V  V5  1  0.163111  0.662766  0.192540  1
  V  V6  1  0.836889  0.337234  0.807460  1
  V  V7  1  0.662766  0.163111  0.307460  1
  F  F8  1  0.663669  0.027144  0.707046  1
  F  F9  1  0.783635  0.924862  0.384144  1
  F  F10  1  0.320128  0.587355  0.567408  1
  F  F11  1  0.412645  0.679872  0.067408  1
  F  F12  1  0.924862  0.783635  0.115856  1
  F  F13  1  0.027144  0.663669  0.792954  1
  F  F14  1  0.972856  0.336331  0.207046  1
  F  F15  1  0.075138  0.216365  0.884144  1
  F  F16  1  0.587355  0.320128  0.932592  1
  F  F17  1  0.679872  0.412645  0.432592  1
  F  F18  1  0.216365  0.075138  0.615856  1
  F  F19  1  0.336331  0.972856  0.292954  1
