# generated using pymatgen
data_Ag(H7O4)2
_symmetry_space_group_name_H-M   'P 1'
_cell_length_a   6.88933632
_cell_length_b   16.72050672
_cell_length_c   6.98712913
_cell_angle_alpha   90.00000000
_cell_angle_beta   92.70538302
_cell_angle_gamma   90.00000000
_symmetry_Int_Tables_number   1
_chemical_formula_structural   Ag(H7O4)2
_chemical_formula_sum   'Ag4 H56 O32'
_cell_volume   803.97265227
_cell_formula_units_Z   4
loop_
 _symmetry_equiv_pos_site_id
 _symmetry_equiv_pos_as_xyz
  1  'x, y, z'
loop_
 _atom_site_type_symbol
 _atom_site_label
 _atom_site_symmetry_multiplicity
 _atom_site_fract_x
 _atom_site_fract_y
 _atom_site_fract_z
 _atom_site_occupancy
  Ag  Ag0  1  0.026064  0.254425  0.533999  1
  Ag  Ag1  1  0.526064  0.245575  0.533999  1
  Ag  Ag2  1  0.473936  0.754425  0.466001  1
  Ag  Ag3  1  0.973936  0.745575  0.466001  1
  H  H4  1  0.177294  0.086153  0.976084  1
  H  H5  1  0.677294  0.413847  0.976084  1
  H  H6  1  0.314994  0.886471  0.924325  1
  H  H7  1  0.080966  0.873935  0.898449  1
  H  H8  1  0.814994  0.613529  0.924325  1
  H  H9  1  0.580966  0.626065  0.898449  1
  H  H10  1  0.281383  0.277508  0.867425  1
  H  H11  1  0.781383  0.222492  0.867425  1
  H  H12  1  0.335365  0.047188  0.833834  1
  H  H13  1  0.835365  0.452812  0.833834  1
  H  H14  1  0.151070  0.549423  0.799816  1
  H  H15  1  0.272339  0.180041  0.804609  1
  H  H16  1  0.651070  0.950577  0.799816  1
  H  H17  1  0.316872  0.646577  0.783731  1
  H  H18  1  0.772339  0.319959  0.804609  1
  H  H19  1  0.816872  0.853423  0.783731  1
  H  H20  1  0.226966  0.781960  0.750342  1
  H  H21  1  0.726966  0.718040  0.750342  1
  H  H22  1  0.078137  0.443783  0.648010  1
  H  H23  1  0.075159  0.082451  0.634883  1
  H  H24  1  0.467108  0.941597  0.653123  1
  H  H25  1  0.578137  0.056217  0.648010  1
  H  H26  1  0.575159  0.417549  0.634883  1
  H  H27  1  0.967108  0.558403  0.653123  1
  H  H28  1  0.458553  0.586078  0.600878  1
  H  H29  1  0.958553  0.913922  0.600878  1
  H  H30  1  0.259306  0.405116  0.545738  1
  H  H31  1  0.759306  0.094884  0.545738  1
  H  H32  1  0.240694  0.905116  0.454262  1
  H  H33  1  0.740694  0.594884  0.454262  1
  H  H34  1  0.041447  0.086078  0.399122  1
  H  H35  1  0.541447  0.413922  0.399122  1
  H  H36  1  0.032892  0.441597  0.346877  1
  H  H37  1  0.424841  0.582451  0.365117  1
  H  H38  1  0.421863  0.943783  0.351990  1
  H  H39  1  0.532892  0.058403  0.346877  1
  H  H40  1  0.924841  0.917549  0.365117  1
  H  H41  1  0.921863  0.556217  0.351990  1
  H  H42  1  0.273034  0.281960  0.249658  1
  H  H43  1  0.773034  0.218040  0.249658  1
  H  H44  1  0.183128  0.146577  0.216269  1
  H  H45  1  0.227661  0.680041  0.195391  1
  H  H46  1  0.683128  0.353423  0.216269  1
  H  H47  1  0.348930  0.049423  0.200184  1
  H  H48  1  0.727661  0.819959  0.195391  1
  H  H49  1  0.848930  0.450577  0.200184  1
  H  H50  1  0.164635  0.547188  0.166166  1
  H  H51  1  0.664635  0.952812  0.166166  1
  H  H52  1  0.218617  0.777508  0.132575  1
  H  H53  1  0.718617  0.722492  0.132575  1
  H  H54  1  0.419034  0.373935  0.101551  1
  H  H55  1  0.185006  0.386471  0.075675  1
  H  H56  1  0.919034  0.126065  0.101551  1
  H  H57  1  0.685006  0.113529  0.075675  1
  H  H58  1  0.322706  0.586153  0.023916  1
  H  H59  1  0.822706  0.913847  0.023916  1
  O  O60  1  0.212775  0.846299  0.939733  1
  O  O61  1  0.712775  0.653701  0.939733  1
  O  O62  1  0.230618  0.087353  0.836573  1
  O  O63  1  0.378430  0.595614  0.824524  1
  O  O64  1  0.730618  0.412647  0.836573  1
  O  O65  1  0.878430  0.904386  0.824524  1
  O  O66  1  0.012355  0.531273  0.777025  1
  O  O67  1  0.512355  0.968727  0.777025  1
  O  O68  1  0.280188  0.238472  0.757380  1
  O  O69  1  0.780188  0.261528  0.757380  1
  O  O70  1  0.230049  0.739430  0.648423  1
  O  O71  1  0.730049  0.760570  0.648423  1
  O  O72  1  0.112088  0.403655  0.550174  1
  O  O73  1  0.612088  0.096345  0.550174  1
  O  O74  1  0.484684  0.401645  0.526594  1
  O  O75  1  0.984684  0.098355  0.526594  1
  O  O76  1  0.015316  0.901645  0.473406  1
  O  O77  1  0.515316  0.598355  0.473406  1
  O  O78  1  0.387912  0.903655  0.449826  1
  O  O79  1  0.887912  0.596345  0.449826  1
  O  O80  1  0.269951  0.239430  0.351577  1
  O  O81  1  0.769951  0.260570  0.351577  1
  O  O82  1  0.219812  0.738472  0.242620  1
  O  O83  1  0.719812  0.761528  0.242620  1
  O  O84  1  0.487645  0.031273  0.222975  1
  O  O85  1  0.987645  0.468727  0.222975  1
  O  O86  1  0.121570  0.095614  0.175476  1
  O  O87  1  0.269382  0.587353  0.163427  1
  O  O88  1  0.621570  0.404386  0.175476  1
  O  O89  1  0.769382  0.912647  0.163427  1
  O  O90  1  0.287225  0.346299  0.060267  1
  O  O91  1  0.787225  0.153701  0.060267  1
