# generated using pymatgen
data_Li2Fe(PO3)5
_symmetry_space_group_name_H-M   'P 1'
_cell_length_a   5.35173995
_cell_length_b   9.61331785
_cell_length_c   13.15257355
_cell_angle_alpha   90.00000000
_cell_angle_beta   109.27369274
_cell_angle_gamma   90.00000000
_symmetry_Int_Tables_number   1
_chemical_formula_structural   Li2Fe(PO3)5
_chemical_formula_sum   'Li4 Fe2 P10 O30'
_cell_volume   638.74752943
_cell_formula_units_Z   2
loop_
 _symmetry_equiv_pos_site_id
 _symmetry_equiv_pos_as_xyz
  1  'x, y, z'
loop_
 _atom_site_type_symbol
 _atom_site_label
 _atom_site_symmetry_multiplicity
 _atom_site_fract_x
 _atom_site_fract_y
 _atom_site_fract_z
 _atom_site_occupancy
  Li  Li0  1  0.041451  0.404130  0.921388  1
  Li  Li1  1  0.903213  0.363979  0.559802  1
  Li  Li2  1  0.041451  0.595870  0.421388  1
  Li  Li3  1  0.903213  0.636021  0.059802  1
  Fe  Fe4  1  0.037560  0.991236  0.506887  1
  Fe  Fe5  1  0.037560  0.008764  0.006887  1
  P  P6  1  0.391829  0.806463  0.919539  1
  P  P7  1  0.465077  0.518407  0.855848  1
  P  P8  1  0.025666  0.987999  0.754881  1
  P  P9  1  0.521073  0.525210  0.639212  1
  P  P10  1  0.627358  0.819459  0.590030  1
  P  P11  1  0.391829  0.193537  0.419539  1
  P  P12  1  0.465077  0.481593  0.355848  1
  P  P13  1  0.025666  0.012001  0.254881  1
  P  P14  1  0.521073  0.474790  0.139212  1
  P  P15  1  0.627358  0.180541  0.090030  1
  O  O16  1  0.223519  0.846396  0.988690  1
  O  O17  1  0.683835  0.830257  0.965451  1
  O  O18  1  0.739910  0.508318  0.934991  1
  O  O19  1  0.312838  0.649942  0.889020  1
  O  O20  1  0.980993  0.066829  0.846705  1
  O  O21  1  0.279562  0.398384  0.836709  1
  O  O22  1  0.272144  0.883816  0.803822  1
  O  O23  1  0.488087  0.585500  0.747799  1
  O  O24  1  0.768333  0.889519  0.706252  1
  O  O25  1  0.708856  0.406478  0.659128  1
  O  O26  1  0.075047  0.061118  0.661716  1
  O  O27  1  0.680307  0.660732  0.613175  1
  O  O28  1  0.250259  0.516645  0.557472  1
  O  O29  1  0.336458  0.854940  0.554685  1
  O  O30  1  0.771224  0.859324  0.512397  1
  O  O31  1  0.223519  0.153604  0.488690  1
  O  O32  1  0.683835  0.169743  0.465451  1
  O  O33  1  0.739910  0.491682  0.434991  1
  O  O34  1  0.312838  0.350058  0.389020  1
  O  O35  1  0.980993  0.933171  0.346705  1
  O  O36  1  0.279562  0.601616  0.336709  1
  O  O37  1  0.272144  0.116184  0.303822  1
  O  O38  1  0.488087  0.414500  0.247799  1
  O  O39  1  0.768333  0.110481  0.206252  1
  O  O40  1  0.708856  0.593522  0.159128  1
  O  O41  1  0.075047  0.938882  0.161716  1
  O  O42  1  0.680307  0.339268  0.113175  1
  O  O43  1  0.250259  0.483355  0.057472  1
  O  O44  1  0.336458  0.145060  0.054685  1
  O  O45  1  0.771224  0.140676  0.012397  1
