# generated using pymatgen
data_V3OF11
_symmetry_space_group_name_H-M   'P 1'
_cell_length_a   5.45826897
_cell_length_b   5.25811989
_cell_length_c   14.81944450
_cell_angle_alpha   90.00000000
_cell_angle_beta   100.26649051
_cell_angle_gamma   90.00000000
_symmetry_Int_Tables_number   1
_chemical_formula_structural   V3OF11
_chemical_formula_sum   'V6 O2 F22'
_cell_volume   418.51187013
_cell_formula_units_Z   2
loop_
 _symmetry_equiv_pos_site_id
 _symmetry_equiv_pos_as_xyz
  1  'x, y, z'
loop_
 _atom_site_type_symbol
 _atom_site_label
 _atom_site_symmetry_multiplicity
 _atom_site_fract_x
 _atom_site_fract_y
 _atom_site_fract_z
 _atom_site_occupancy
  V  V0  1  0.456821  0.024064  0.336471  1
  V  V1  1  0.543179  0.524064  0.663529  1
  V  V2  1  0.750062  0.000353  0.000092  1
  V  V3  1  0.927615  0.507351  0.332703  1
  V  V4  1  0.072385  0.007351  0.667297  1
  V  V5  1  0.249938  0.500353  0.999908  1
  O  O6  1  0.708455  0.204764  0.355752  1
  O  O7  1  0.291545  0.704764  0.644248  1
  F  F8  1  0.438439  0.803331  0.975169  1
  F  F9  1  0.612419  0.712380  0.309133  1
  F  F10  1  0.561561  0.303331  0.024831  1
  F  F11  1  0.448574  0.906073  0.448055  1
  F  F12  1  0.644335  0.572887  0.782345  1
  F  F13  1  0.789316  0.912671  0.116945  1
  F  F14  1  0.551426  0.406073  0.551945  1
  F  F15  1  0.708297  0.085532  0.882941  1
  F  F16  1  0.868909  0.411879  0.216347  1
  F  F17  1  0.772665  0.790866  0.641498  1
  F  F18  1  0.938869  0.696836  0.975340  1
  F  F19  1  0.110551  0.793746  0.309998  1
  F  F20  1  0.889449  0.293746  0.690002  1
  F  F21  1  0.061131  0.196836  0.024660  1
  F  F22  1  0.954457  0.577266  0.451047  1
  F  F23  1  0.131091  0.911879  0.783653  1
  F  F24  1  0.291703  0.585532  0.117059  1
  F  F25  1  0.045543  0.077266  0.548953  1
  F  F26  1  0.210684  0.412671  0.883055  1
  F  F27  1  0.355665  0.072887  0.217655  1
  F  F28  1  0.227335  0.290866  0.358502  1
  F  F29  1  0.387581  0.212380  0.690867  1
