# generated using pymatgen
data_Mg3Al9FeSi5
_symmetry_space_group_name_H-M   'P 1'
_cell_length_a   6.63447947
_cell_length_b   6.63447947
_cell_length_c   7.86911995
_cell_angle_alpha   90.00000000
_cell_angle_beta   90.00000000
_cell_angle_gamma   120.00000000
_symmetry_Int_Tables_number   1
_chemical_formula_structural   Mg3Al9FeSi5
_chemical_formula_sum   'Mg3 Al9 Fe1 Si5'
_cell_volume   299.96494597
_cell_formula_units_Z   1
loop_
 _symmetry_equiv_pos_site_id
 _symmetry_equiv_pos_as_xyz
  1  'x, y, z'
loop_
 _atom_site_type_symbol
 _atom_site_label
 _atom_site_symmetry_multiplicity
 _atom_site_fract_x
 _atom_site_fract_y
 _atom_site_fract_z
 _atom_site_occupancy
  Mg  Mg0  1  0.418276  0.000000  0.500000  1
  Mg  Mg1  1  0.000000  0.418276  0.500000  1
  Mg  Mg2  1  0.581724  0.581724  0.500000  1
  Al  Al3  1  0.623837  0.623837  0.000000  1
  Al  Al4  1  0.000000  0.376163  0.000000  1
  Al  Al5  1  0.750669  0.000000  0.776955  1
  Al  Al6  1  0.376163  0.000000  0.000000  1
  Al  Al7  1  0.000000  0.750669  0.776955  1
  Al  Al8  1  0.750669  0.000000  0.223045  1
  Al  Al9  1  0.000000  0.750669  0.223045  1
  Al  Al10  1  0.249331  0.249331  0.776955  1
  Al  Al11  1  0.249331  0.249331  0.223045  1
  Fe  Fe12  1  0.000000  0.000000  0.000000  1
  Si  Si13  1  0.666667  0.333333  0.237901  1
  Si  Si14  1  0.666667  0.333333  0.762099  1
  Si  Si15  1  0.000000  0.000000  0.500000  1
  Si  Si16  1  0.333333  0.666667  0.762099  1
  Si  Si17  1  0.333333  0.666667  0.237901  1
