# generated using pymatgen
data_Mn3O5F
_symmetry_space_group_name_H-M   'P 1'
_cell_length_a   4.54696351
_cell_length_b   5.45334599
_cell_length_c   7.53652172
_cell_angle_alpha   86.42265314
_cell_angle_beta   89.95481832
_cell_angle_gamma   89.89016239
_symmetry_Int_Tables_number   1
_chemical_formula_structural   Mn3O5F
_chemical_formula_sum   'Mn6 O10 F2'
_cell_volume   186.51231931
_cell_formula_units_Z   2
loop_
 _symmetry_equiv_pos_site_id
 _symmetry_equiv_pos_as_xyz
  1  'x, y, z'
loop_
 _atom_site_type_symbol
 _atom_site_label
 _atom_site_symmetry_multiplicity
 _atom_site_fract_x
 _atom_site_fract_y
 _atom_site_fract_z
 _atom_site_occupancy
  Mn  Mn0  1  0.502042  0.489213  0.000539  1
  Mn  Mn1  1  0.525855  0.842002  0.662150  1
  Mn  Mn2  1  0.495314  0.166790  0.337026  1
  Mn  Mn3  1  0.992242  0.323759  0.669059  1
  Mn  Mn4  1  0.989996  0.663668  0.321301  1
  Mn  Mn5  1  0.988232  0.013048  0.010040  1
  O  O6  1  0.806201  0.370572  0.433773  1
  O  O7  1  0.810154  0.036888  0.774693  1
  O  O8  1  0.805824  0.705024  0.097749  1
  O  O9  1  0.690116  0.200970  0.106958  1
  O  O10  1  0.695157  0.538836  0.766948  1
  O  O11  1  0.699243  0.871538  0.431802  1
  O  O12  1  0.308388  0.128555  0.566955  1
  O  O13  1  0.307133  0.461556  0.231495  1
  O  O14  1  0.197134  0.957812  0.230557  1
  O  O15  1  0.190883  0.294933  0.899233  1
  F  F16  1  0.300584  0.801576  0.895648  1
  F  F17  1  0.195500  0.633264  0.564073  1
