# generated using pymatgen
data_Li3VCrP2(HO5)2
_symmetry_space_group_name_H-M   'P 1'
_cell_length_a   5.22824342
_cell_length_b   5.57622176
_cell_length_c   7.53242288
_cell_angle_alpha   110.89998050
_cell_angle_beta   106.99775801
_cell_angle_gamma   94.91723830
_symmetry_Int_Tables_number   1
_chemical_formula_structural   Li3VCrP2(HO5)2
_chemical_formula_sum   'Li3 V1 Cr1 P2 H2 O10'
_cell_volume   191.70048538
_cell_formula_units_Z   1
loop_
 _symmetry_equiv_pos_site_id
 _symmetry_equiv_pos_as_xyz
  1  'x, y, z'
loop_
 _atom_site_type_symbol
 _atom_site_label
 _atom_site_symmetry_multiplicity
 _atom_site_fract_x
 _atom_site_fract_y
 _atom_site_fract_z
 _atom_site_occupancy
  Li  Li0  1  0.234889  0.603683  0.828434  1
  Li  Li1  1  0.774594  0.407751  0.260543  1
  Li  Li2  1  0.480144  0.149343  0.156326  1
  V  V3  1  0.989439  0.996098  0.507179  1
  Cr  Cr4  1  0.002830  0.000199  0.991530  1
  P  P5  1  0.343285  0.638123  0.222443  1
  P  P6  1  0.662301  0.366764  0.755268  1
  H  H7  1  0.664884  0.910920  0.348030  1
  H  H8  1  0.353334  0.061843  0.663159  1
  O  O9  1  0.163458  0.951035  0.730011  1
  O  O10  1  0.280150  0.787979  0.366026  1
  O  O11  1  0.662016  0.654775  0.666205  1
  O  O12  1  0.649037  0.752125  0.066942  1
  O  O13  1  0.134844  0.665940  0.111967  1
  O  O14  1  0.864056  0.324122  0.871826  1
  O  O15  1  0.360417  0.239815  0.928398  1
  O  O16  1  0.330938  0.345973  0.324449  1
  O  O17  1  0.716369  0.239324  0.597753  1
  O  O18  1  0.828930  0.055112  0.261642  1
