# generated using pymatgen
data_Mg2Te3O8
_symmetry_space_group_name_H-M   'P 1'
_cell_length_a   6.94193905
_cell_length_b   6.94193905
_cell_length_c   11.79229863
_cell_angle_alpha   82.22766916
_cell_angle_beta   97.77233084
_cell_angle_gamma   134.93134832
_symmetry_Int_Tables_number   1
_chemical_formula_structural   Mg2Te3O8
_chemical_formula_sum   'Mg4 Te6 O16'
_cell_volume   397.97800094
_cell_formula_units_Z   2
loop_
 _symmetry_equiv_pos_site_id
 _symmetry_equiv_pos_as_xyz
  1  'x, y, z'
loop_
 _atom_site_type_symbol
 _atom_site_label
 _atom_site_symmetry_multiplicity
 _atom_site_fract_x
 _atom_site_fract_y
 _atom_site_fract_z
 _atom_site_occupancy
  Mg  Mg0  1  0.040892  0.577012  0.351999  1
  Mg  Mg1  1  0.577012  0.040892  0.148001  1
  Mg  Mg2  1  0.959108  0.422988  0.648001  1
  Mg  Mg3  1  0.422988  0.959108  0.851999  1
  Te  Te4  1  0.153934  0.153934  0.250000  1
  Te  Te5  1  0.846066  0.846066  0.750000  1
  Te  Te6  1  0.676539  0.952098  0.442829  1
  Te  Te7  1  0.952098  0.676539  0.057171  1
  Te  Te8  1  0.323461  0.047902  0.557171  1
  Te  Te9  1  0.047902  0.323461  0.942829  1
  O  O10  1  0.729947  0.256751  0.472919  1
  O  O11  1  0.256751  0.729947  0.027081  1
  O  O12  1  0.270053  0.743249  0.527081  1
  O  O13  1  0.743249  0.270053  0.972919  1
  O  O14  1  0.017971  0.247582  0.363098  1
  O  O15  1  0.247582  0.017971  0.136902  1
  O  O16  1  0.982029  0.752418  0.636902  1
  O  O17  1  0.752418  0.982029  0.863098  1
  O  O18  1  0.852105  0.012927  0.146527  1
  O  O19  1  0.012927  0.852105  0.353473  1
  O  O20  1  0.147895  0.987073  0.853473  1
  O  O21  1  0.987073  0.147895  0.646527  1
  O  O22  1  0.444775  0.845148  0.307788  1
  O  O23  1  0.845148  0.444775  0.192212  1
  O  O24  1  0.555225  0.154852  0.692212  1
  O  O25  1  0.154852  0.555225  0.807788  1
