# generated using pymatgen
data_Li4Mn3Fe(BO3)4
_symmetry_space_group_name_H-M   'P 1'
_cell_length_a   5.23594150
_cell_length_b   5.24916053
_cell_length_c   10.49638404
_cell_angle_alpha   91.01177066
_cell_angle_beta   90.77855164
_cell_angle_gamma   119.78245881
_symmetry_Int_Tables_number   1
_chemical_formula_structural   Li4Mn3Fe(BO3)4
_chemical_formula_sum   'Li4 Mn3 Fe1 B4 O12'
_cell_volume   250.25969508
_cell_formula_units_Z   1
loop_
 _symmetry_equiv_pos_site_id
 _symmetry_equiv_pos_as_xyz
  1  'x, y, z'
loop_
 _atom_site_type_symbol
 _atom_site_label
 _atom_site_symmetry_multiplicity
 _atom_site_fract_x
 _atom_site_fract_y
 _atom_site_fract_z
 _atom_site_occupancy
  Li  Li0  1  0.347849  0.321335  0.331893  1
  Li  Li1  1  0.321376  0.348820  0.831812  1
  Li  Li2  1  0.661961  0.653399  0.583053  1
  Li  Li3  1  0.651156  0.662149  0.082885  1
  Mn  Mn4  1  0.993536  0.326202  0.117904  1
  Mn  Mn5  1  0.997900  0.676633  0.867165  1
  Mn  Mn6  1  0.330523  0.995962  0.614956  1
  Fe  Fe7  1  0.682802  0.995739  0.367622  1
  B  B8  1  0.658506  0.002686  0.874128  1
  B  B9  1  0.996824  0.334921  0.623035  1
  B  B10  1  0.003094  0.661284  0.373773  1
  B  B11  1  0.333766  0.994146  0.125822  1
  O  O12  1  0.754317  0.071116  0.580479  1
  O  O13  1  0.929469  0.253078  0.904424  1
  O  O14  1  0.420981  0.033057  0.832370  1
  O  O15  1  0.962973  0.577612  0.653617  1
  O  O16  1  0.357911  0.267742  0.139723  1
  O  O17  1  0.269950  0.358291  0.638142  1
  O  O18  1  0.728522  0.640333  0.387552  1
  O  O19  1  0.629145  0.728298  0.888851  1
  O  O20  1  0.021124  0.414941  0.335886  1
  O  O21  1  0.577600  0.961762  0.156869  1
  O  O22  1  0.070711  0.751657  0.082973  1
  O  O23  1  0.257403  0.928235  0.401262  1
