# generated using pymatgen
data_TbCeO4
_symmetry_space_group_name_H-M   'P 1'
_cell_length_a   3.81278786
_cell_length_b   5.60429232
_cell_length_c   7.63686917
_cell_angle_alpha   90.00000000
_cell_angle_beta   94.54862551
_cell_angle_gamma   90.00000000
_symmetry_Int_Tables_number   1
_chemical_formula_structural   TbCeO4
_chemical_formula_sum   'Tb2 Ce2 O8'
_cell_volume   162.67048250
_cell_formula_units_Z   2
loop_
 _symmetry_equiv_pos_site_id
 _symmetry_equiv_pos_as_xyz
  1  'x, y, z'
loop_
 _atom_site_type_symbol
 _atom_site_label
 _atom_site_symmetry_multiplicity
 _atom_site_fract_x
 _atom_site_fract_y
 _atom_site_fract_z
 _atom_site_occupancy
  Tb  Tb0  1  0.226267  0.250000  0.126566  1
  Tb  Tb1  1  0.773733  0.750000  0.873434  1
  Ce  Ce2  1  0.732786  0.750000  0.375056  1
  Ce  Ce3  1  0.267214  0.250000  0.624944  1
  O  O4  1  0.722155  0.994277  0.118463  1
  O  O5  1  0.722155  0.505723  0.118463  1
  O  O6  1  0.235791  0.497678  0.374549  1
  O  O7  1  0.235791  0.002322  0.374549  1
  O  O8  1  0.764209  0.502322  0.625451  1
  O  O9  1  0.764209  0.997678  0.625451  1
  O  O10  1  0.277845  0.005723  0.881537  1
  O  O11  1  0.277845  0.494277  0.881537  1
