# generated using pymatgen
data_Li2FeS2
_symmetry_space_group_name_H-M   'P 1'
_cell_length_a   3.37565826
_cell_length_b   8.38899852
_cell_length_c   6.20889830
_cell_angle_alpha   90.00000000
_cell_angle_beta   108.39979254
_cell_angle_gamma   90.00000000
_symmetry_Int_Tables_number   1
_chemical_formula_structural   Li2FeS2
_chemical_formula_sum   'Li4 Fe2 S4'
_cell_volume   166.83729045
_cell_formula_units_Z   2
loop_
 _symmetry_equiv_pos_site_id
 _symmetry_equiv_pos_as_xyz
  1  'x, y, z'
loop_
 _atom_site_type_symbol
 _atom_site_label
 _atom_site_symmetry_multiplicity
 _atom_site_fract_x
 _atom_site_fract_y
 _atom_site_fract_z
 _atom_site_occupancy
  Li  Li0  1  0.308417  0.151531  0.542245  1
  Li  Li1  1  0.691583  0.651531  0.957755  1
  Li  Li2  1  0.308417  0.348469  0.042245  1
  Li  Li3  1  0.691583  0.848469  0.457755  1
  Fe  Fe4  1  0.000000  0.500000  0.500000  1
  Fe  Fe5  1  0.000000  0.000000  0.000000  1
  S  S6  1  0.368817  0.898520  0.761877  1
  S  S7  1  0.368817  0.601480  0.261877  1
  S  S8  1  0.631183  0.398520  0.738123  1
  S  S9  1  0.631183  0.101480  0.238123  1
