# generated using pymatgen
data_NaAs3H2O9
_symmetry_space_group_name_H-M   'P 1'
_cell_length_a   7.33859902
_cell_length_b   7.71689500
_cell_length_c   8.03865946
_cell_angle_alpha   110.52739043
_cell_angle_beta   107.50462593
_cell_angle_gamma   106.20215484
_symmetry_Int_Tables_number   1
_chemical_formula_structural   NaAs3H2O9
_chemical_formula_sum   'Na2 As6 H4 O18'
_cell_volume   366.98467026
_cell_formula_units_Z   2
loop_
 _symmetry_equiv_pos_site_id
 _symmetry_equiv_pos_as_xyz
  1  'x, y, z'
loop_
 _atom_site_type_symbol
 _atom_site_label
 _atom_site_symmetry_multiplicity
 _atom_site_fract_x
 _atom_site_fract_y
 _atom_site_fract_z
 _atom_site_occupancy
  Na  Na0  1  0.685904  0.178327  0.959391  1
  Na  Na1  1  0.314096  0.821673  0.040609  1
  As  As2  1  0.636009  0.655492  0.832735  1
  As  As3  1  0.363991  0.344508  0.167265  1
  As  As4  1  0.847222  0.566753  0.523167  1
  As  As5  1  0.152778  0.433247  0.476833  1
  As  As6  1  0.809953  0.163749  0.544539  1
  As  As7  1  0.190047  0.836251  0.455461  1
  H  H8  1  0.878429  0.641463  0.077754  1
  H  H9  1  0.121571  0.358537  0.922246  1
  H  H10  1  0.629915  0.807252  0.374508  1
  H  H11  1  0.370085  0.192748  0.625492  1
  O  O12  1  0.608058  0.860546  0.954650  1
  O  O13  1  0.391942  0.139454  0.045350  1
  O  O14  1  0.726752  0.537284  0.967896  1
  O  O15  1  0.273248  0.462716  0.032104  1
  O  O16  1  0.892849  0.195426  0.775269  1
  O  O17  1  0.107151  0.804574  0.224731  1
  O  O18  1  0.819166  0.722944  0.739962  1
  O  O19  1  0.180834  0.277056  0.260038  1
  O  O20  1  0.907815  0.430638  0.318000  1
  O  O21  1  0.092185  0.569362  0.682000  1
  O  O22  1  0.604109  0.560096  0.352103  1
  O  O23  1  0.395891  0.439904  0.647897  1
  O  O24  1  0.601736  0.923498  0.365037  1
  O  O25  1  0.398264  0.076502  0.634963  1
  O  O26  1  0.993357  0.819224  0.539969  1
  O  O27  1  0.006643  0.180776  0.460031  1
  O  O28  1  0.681588  0.315816  0.499483  1
  O  O29  1  0.318412  0.684184  0.500517  1
