# generated using pymatgen
data_Li2Ta4O11
_symmetry_space_group_name_H-M   'P 1'
_cell_length_a   12.85168031
_cell_length_b   12.85168031
_cell_length_c   12.85168031
_cell_angle_alpha   28.25081129
_cell_angle_beta   28.25081129
_cell_angle_gamma   28.25081129
_symmetry_Int_Tables_number   1
_chemical_formula_structural   Li2Ta4O11
_chemical_formula_sum   'Li4 Ta8 O22'
_cell_volume   420.18767856
_cell_formula_units_Z   2
loop_
 _symmetry_equiv_pos_site_id
 _symmetry_equiv_pos_as_xyz
  1  'x, y, z'
loop_
 _atom_site_type_symbol
 _atom_site_label
 _atom_site_symmetry_multiplicity
 _atom_site_fract_x
 _atom_site_fract_y
 _atom_site_fract_z
 _atom_site_occupancy
  Li  Li0  1  0.351495  0.351495  0.351495  1
  Li  Li1  1  0.148505  0.148505  0.148505  1
  Li  Li2  1  0.851495  0.851495  0.851495  1
  Li  Li3  1  0.648505  0.648505  0.648505  1
  Ta  Ta4  1  0.608026  0.250000  0.891974  1
  Ta  Ta5  1  0.750000  0.108026  0.391974  1
  Ta  Ta6  1  0.500000  0.500000  0.500000  1
  Ta  Ta7  1  0.891974  0.608026  0.250000  1
  Ta  Ta8  1  0.108026  0.391974  0.750000  1
  Ta  Ta9  1  0.250000  0.891974  0.608026  1
  Ta  Ta10  1  0.000000  0.000000  0.000000  1
  Ta  Ta11  1  0.391974  0.750000  0.108026  1
  O  O12  1  0.002308  0.250000  0.497692  1
  O  O13  1  0.750000  0.502308  0.997692  1
  O  O14  1  0.578420  0.248746  0.766020  1
  O  O15  1  0.733980  0.251254  0.921580  1
  O  O16  1  0.906514  0.906514  0.906514  1
  O  O17  1  0.748746  0.078420  0.266020  1
  O  O18  1  0.921580  0.733980  0.251254  1
  O  O19  1  0.751254  0.233980  0.421580  1
  O  O20  1  0.406514  0.406514  0.406514  1
  O  O21  1  0.497692  0.002308  0.250000  1
  O  O22  1  0.766020  0.578420  0.248746  1
  O  O23  1  0.233980  0.421580  0.751254  1
  O  O24  1  0.502308  0.997692  0.750000  1
  O  O25  1  0.593486  0.593486  0.593486  1
  O  O26  1  0.248746  0.766020  0.578420  1
  O  O27  1  0.078420  0.266020  0.748746  1
  O  O28  1  0.251254  0.921580  0.733980  1
  O  O29  1  0.093486  0.093486  0.093486  1
  O  O30  1  0.266020  0.748746  0.078420  1
  O  O31  1  0.421580  0.751254  0.233980  1
  O  O32  1  0.250000  0.497692  0.002308  1
  O  O33  1  0.997692  0.750000  0.502308  1
