# generated using pymatgen
data_LiCo(CO3)2
_symmetry_space_group_name_H-M   'P 1'
_cell_length_a   5.22891948
_cell_length_b   7.65438483
_cell_length_c   6.45568652
_cell_angle_alpha   90.00000000
_cell_angle_beta   113.77603993
_cell_angle_gamma   90.00000000
_symmetry_Int_Tables_number   1
_chemical_formula_structural   LiCo(CO3)2
_chemical_formula_sum   'Li2 Co2 C4 O12'
_cell_volume   236.45401196
_cell_formula_units_Z   2
loop_
 _symmetry_equiv_pos_site_id
 _symmetry_equiv_pos_as_xyz
  1  'x, y, z'
loop_
 _atom_site_type_symbol
 _atom_site_label
 _atom_site_symmetry_multiplicity
 _atom_site_fract_x
 _atom_site_fract_y
 _atom_site_fract_z
 _atom_site_occupancy
  Li  Li0  1  0.618589  0.062511  0.569020  1
  Li  Li1  1  0.381411  0.562511  0.430980  1
  Co  Co2  1  0.991774  0.996969  0.236524  1
  Co  Co3  1  0.008226  0.496969  0.763476  1
  C  C4  1  0.137032  0.261608  0.140330  1
  C  C5  1  0.146216  0.241092  0.627889  1
  C  C6  1  0.862968  0.761608  0.859670  1
  C  C7  1  0.853784  0.741092  0.372111  1
  O  O8  1  0.288140  0.118927  0.183477  1
  O  O9  1  0.218366  0.409492  0.101555  1
  O  O10  1  0.105018  0.734812  0.850668  1
  O  O11  1  0.894982  0.234812  0.149332  1
  O  O12  1  0.781634  0.909492  0.898445  1
  O  O13  1  0.711860  0.618927  0.816523  1
  O  O14  1  0.276001  0.391653  0.656732  1
  O  O15  1  0.237317  0.101020  0.578242  1
  O  O16  1  0.085356  0.752073  0.339131  1
  O  O17  1  0.914644  0.252073  0.660869  1
  O  O18  1  0.762683  0.601020  0.421758  1
  O  O19  1  0.723999  0.891653  0.343268  1
