# generated using pymatgen
data_Li4Cr3FeO8
_symmetry_space_group_name_H-M   'P 1'
_cell_length_a   5.12507918
_cell_length_b   5.88290659
_cell_length_c   10.60529659
_cell_angle_alpha   73.90845875
_cell_angle_beta   76.19411084
_cell_angle_gamma   73.30519038
_symmetry_Int_Tables_number   1
_chemical_formula_structural   Li4Cr3FeO8
_chemical_formula_sum   'Li8 Cr6 Fe2 O16'
_cell_volume   289.85005702
_cell_formula_units_Z   2
loop_
 _symmetry_equiv_pos_site_id
 _symmetry_equiv_pos_as_xyz
  1  'x, y, z'
loop_
 _atom_site_type_symbol
 _atom_site_label
 _atom_site_symmetry_multiplicity
 _atom_site_fract_x
 _atom_site_fract_y
 _atom_site_fract_z
 _atom_site_occupancy
  Li  Li0  1  0.996994  0.313703  0.625628  1
  Li  Li1  1  0.002154  0.936420  0.874832  1
  Li  Li2  1  0.003006  0.686297  0.374372  1
  Li  Li3  1  0.997846  0.063580  0.125168  1
  Li  Li4  1  0.000136  0.811320  0.625875  1
  Li  Li5  1  0.000686  0.438545  0.873743  1
  Li  Li6  1  0.999864  0.188680  0.374125  1
  Li  Li7  1  0.999314  0.561455  0.126257  1
  Cr  Cr8  1  0.499978  0.124885  0.750183  1
  Cr  Cr9  1  0.500000  0.500000  0.500000  1
  Cr  Cr10  1  0.500022  0.875115  0.249817  1
  Cr  Cr11  1  0.499978  0.251902  0.000037  1
  Cr  Cr12  1  0.500000  0.000000  0.500000  1
  Cr  Cr13  1  0.500022  0.748098  0.999963  1
  Fe  Fe14  1  0.500041  0.625056  0.749929  1
  Fe  Fe15  1  0.499959  0.374944  0.250071  1
  O  O16  1  0.275390  0.709332  0.186555  1
  O  O17  1  0.723815  0.533882  0.313547  1
  O  O18  1  0.276185  0.466118  0.686453  1
  O  O19  1  0.724610  0.290668  0.813445  1
  O  O20  1  0.726536  0.911103  0.064274  1
  O  O21  1  0.273464  0.088897  0.935726  1
  O  O22  1  0.273342  0.838888  0.435448  1
  O  O23  1  0.724688  0.660333  0.566775  1
  O  O24  1  0.275960  0.216466  0.186406  1
  O  O25  1  0.724426  0.040390  0.313440  1
  O  O26  1  0.275574  0.959610  0.686560  1
  O  O27  1  0.724040  0.783534  0.813594  1
  O  O28  1  0.275105  0.589666  0.933021  1
  O  O29  1  0.275312  0.339667  0.433225  1
  O  O30  1  0.724895  0.410334  0.066979  1
  O  O31  1  0.726658  0.161112  0.564552  1
