# generated using pymatgen
data_Li5V6O5F19
_symmetry_space_group_name_H-M   'P 1'
_cell_length_a   5.16090963
_cell_length_b   5.35601136
_cell_length_c   16.69498477
_cell_angle_alpha   81.17088392
_cell_angle_beta   89.68286709
_cell_angle_gamma   89.70172588
_symmetry_Int_Tables_number   1
_chemical_formula_structural   Li5V6O5F19
_chemical_formula_sum   'Li5 V6 O5 F19'
_cell_volume   456.00121251
_cell_formula_units_Z   1
loop_
 _symmetry_equiv_pos_site_id
 _symmetry_equiv_pos_as_xyz
  1  'x, y, z'
loop_
 _atom_site_type_symbol
 _atom_site_label
 _atom_site_symmetry_multiplicity
 _atom_site_fract_x
 _atom_site_fract_y
 _atom_site_fract_z
 _atom_site_occupancy
  Li  Li0  1  0.792729  0.289028  0.844841  1
  Li  Li1  1  0.045441  0.790901  0.215509  1
  Li  Li2  1  0.454784  0.623717  0.548578  1
  Li  Li3  1  0.457018  0.290476  0.215121  1
  Li  Li4  1  0.044009  0.125729  0.548788  1
  V  V5  1  0.520925  0.802093  0.337892  1
  V  V6  1  0.978826  0.636155  0.669222  1
  V  V7  1  0.501486  0.498891  0.001811  1
  V  V8  1  0.977457  0.301829  0.337900  1
  V  V9  1  0.520385  0.135982  0.670107  1
  V  V10  1  0.974538  0.017869  0.002273  1
  O  O11  1  0.806123  0.390942  0.640648  1
  O  O12  1  0.715011  0.222040  0.983173  1
  O  O13  1  0.803354  0.059223  0.309002  1
  O  O14  1  0.694604  0.891688  0.641936  1
  O  O15  1  0.694964  0.559114  0.307981  1
  F  F16  1  0.312070  0.462550  0.690999  1
  F  F17  1  0.918922  0.917040  0.114547  1
  F  F18  1  0.591268  0.764850  0.448095  1
  F  F19  1  0.905328  0.583318  0.780315  1
  F  F20  1  0.374257  0.936902  0.231137  1
  F  F21  1  0.123790  0.769390  0.562123  1
  F  F22  1  0.424401  0.550638  0.897807  1
  F  F23  1  0.804769  0.709054  0.980088  1
  F  F24  1  0.209560  0.278584  0.031778  1
  F  F25  1  0.306360  0.121749  0.361889  1
  F  F26  1  0.189211  0.957579  0.692568  1
  F  F27  1  0.579792  0.445684  0.110679  1
  F  F28  1  0.908464  0.268574  0.448366  1
  F  F29  1  0.590559  0.112504  0.780597  1
  F  F30  1  0.126891  0.432892  0.230843  1
  F  F31  1  0.375036  0.267082  0.563384  1
  F  F32  1  0.075800  0.079164  0.893724  1
  F  F33  1  0.292840  0.789267  0.020411  1
  F  F34  1  0.191606  0.622959  0.360370  1
