# generated using pymatgen
data_Na4Ni7O16
_symmetry_space_group_name_H-M   'P 1'
_cell_length_a   7.09733960
_cell_length_b   7.14160980
_cell_length_c   7.51376485
_cell_angle_alpha   68.71668727
_cell_angle_beta   77.42331036
_cell_angle_gamma   63.50405293
_symmetry_Int_Tables_number   1
_chemical_formula_structural   Na4Ni7O16
_chemical_formula_sum   'Na4 Ni7 O16'
_cell_volume   316.88552531
_cell_formula_units_Z   1
loop_
 _symmetry_equiv_pos_site_id
 _symmetry_equiv_pos_as_xyz
  1  'x, y, z'
loop_
 _atom_site_type_symbol
 _atom_site_label
 _atom_site_symmetry_multiplicity
 _atom_site_fract_x
 _atom_site_fract_y
 _atom_site_fract_z
 _atom_site_occupancy
  Na  Na0  1  0.037318  0.459795  0.668513  1
  Na  Na1  1  0.598206  0.896817  0.186694  1
  Na  Na2  1  0.382277  0.632587  0.119207  1
  Na  Na3  1  0.162324  0.347626  0.102699  1
  Ni  Ni4  1  0.000622  0.004342  0.996981  1
  Ni  Ni5  1  0.624001  0.371563  0.875279  1
  Ni  Ni6  1  0.252583  0.755085  0.743424  1
  Ni  Ni7  1  0.872170  0.119894  0.627084  1
  Ni  Ni8  1  0.500831  0.494638  0.504471  1
  Ni  Ni9  1  0.124672  0.875837  0.375015  1
  Ni  Ni10  1  0.749995  0.244429  0.253208  1
  O  O11  1  0.105852  0.722474  0.979483  1
  O  O12  1  0.867093  0.303639  0.993608  1
  O  O13  1  0.510549  0.672143  0.828114  1
  O  O14  1  0.005260  0.825586  0.628681  1
  O  O15  1  0.756429  0.071904  0.881355  1
  O  O16  1  0.372267  0.454102  0.763129  1
  O  O17  1  0.747298  0.413177  0.623421  1
  O  O18  1  0.374032  0.796718  0.485004  1
  O  O19  1  0.884487  0.946730  0.252083  1
  O  O20  1  0.116299  0.055662  0.740281  1
  O  O21  1  0.628904  0.196624  0.507066  1
  O  O22  1  0.246672  0.574942  0.411888  1
  O  O23  1  0.651899  0.524453  0.271936  1
  O  O24  1  0.222126  0.971518  0.120433  1
  O  O25  1  0.991648  0.171380  0.374292  1
  O  O26  1  0.525932  0.285286  0.129642  1
