# generated using pymatgen
data_Na3H(SO4)2
_symmetry_space_group_name_H-M   'P 1'
_cell_length_a   8.74542780
_cell_length_b   9.23234022
_cell_length_c   9.79006959
_cell_angle_alpha   90.00032888
_cell_angle_beta   90.11934070
_cell_angle_gamma   108.56150097
_symmetry_Int_Tables_number   1
_chemical_formula_structural   Na3H(SO4)2
_chemical_formula_sum   'Na12 H4 S8 O32'
_cell_volume   749.33827296
_cell_formula_units_Z   4
loop_
 _symmetry_equiv_pos_site_id
 _symmetry_equiv_pos_as_xyz
  1  'x, y, z'
loop_
 _atom_site_type_symbol
 _atom_site_label
 _atom_site_symmetry_multiplicity
 _atom_site_fract_x
 _atom_site_fract_y
 _atom_site_fract_z
 _atom_site_occupancy
  Na  Na0  1  0.007114  0.000574  0.005208  1
  Na  Na1  1  0.498470  0.490516  0.001401  1
  Na  Na2  1  0.747153  0.274740  0.004274  1
  Na  Na3  1  0.379435  0.119050  0.844096  1
  Na  Na4  1  0.003224  0.497227  0.500495  1
  Na  Na5  1  0.496816  0.994748  0.500995  1
  Na  Na6  1  0.256410  0.216409  0.509367  1
  Na  Na7  1  0.614612  0.367722  0.339295  1
  Na  Na8  1  0.249758  0.715635  0.995787  1
  Na  Na9  1  0.614334  0.866193  0.155631  1
  Na  Na10  1  0.749778  0.773085  0.496672  1
  Na  Na11  1  0.379150  0.620441  0.658084  1
  H  H12  1  0.876822  0.881961  0.759171  1
  H  H13  1  0.875904  0.382546  0.741413  1
  H  H14  1  0.100785  0.113693  0.271860  1
  H  H15  1  0.121450  0.610898  0.254030  1
  S  S16  1  0.135811  0.852499  0.692058  1
  S  S17  1  0.630010  0.398838  0.679382  1
  S  S18  1  0.135993  0.352674  0.807667  1
  S  S19  1  0.365659  0.090120  0.181578  1
  S  S20  1  0.858193  0.137215  0.310133  1
  S  S21  1  0.367977  0.589142  0.321232  1
  S  S22  1  0.862422  0.637040  0.192510  1
  S  S23  1  0.631256  0.899116  0.820840  1
  O  O24  1  0.158978  0.868975  0.843354  1
  O  O25  1  0.253530  0.986496  0.624232  1
  O  O26  1  0.965311  0.850401  0.658468  1
  O  O27  1  0.157437  0.709578  0.641988  1
  O  O28  1  0.609409  0.542962  0.634631  1
  O  O29  1  0.810277  0.415595  0.656750  1
  O  O30  1  0.597213  0.368250  0.826507  1
  O  O31  1  0.535390  0.269091  0.594046  1
  O  O32  1  0.158033  0.369064  0.656119  1
  O  O33  1  0.254992  0.486320  0.875324  1
  O  O34  1  0.965939  0.350980  0.841666  1
  O  O35  1  0.157733  0.209354  0.856834  1
  O  O36  1  0.384776  0.944687  0.134497  1
  O  O37  1  0.190425  0.079257  0.168700  1
  O  O38  1  0.413252  0.120997  0.327569  1
  O  O39  1  0.463919  0.218613  0.094422  1
  O  O40  1  0.848912  0.121631  0.159102  1
  O  O41  1  0.741988  0.002802  0.375550  1
  O  O42  1  0.031310  0.140199  0.354111  1
  O  O43  1  0.839736  0.280658  0.358467  1
  O  O44  1  0.382411  0.442799  0.366508  1
  O  O45  1  0.189212  0.577598  0.340271  1
  O  O46  1  0.405278  0.619952  0.174319  1
  O  O47  1  0.465562  0.716893  0.407439  1
  O  O48  1  0.841281  0.620036  0.343918  1
  O  O49  1  0.744687  0.502825  0.124796  1
  O  O50  1  0.032927  0.639281  0.157543  1
  O  O51  1  0.840949  0.780290  0.143357  1
  O  O52  1  0.613297  0.045235  0.864557  1
  O  O53  1  0.811112  0.913944  0.844466  1
  O  O54  1  0.597258  0.867566  0.674112  1
  O  O55  1  0.534230  0.771330  0.906889  1
