# generated using pymatgen
data_Bi6O5F8
_symmetry_space_group_name_H-M   'P 1'
_cell_length_a   5.86703395
_cell_length_b   5.77174992
_cell_length_c   34.51274085
_cell_angle_alpha   90.00000000
_cell_angle_beta   90.14737901
_cell_angle_gamma   90.00000000
_symmetry_Int_Tables_number   1
_chemical_formula_structural   Bi6O5F8
_chemical_formula_sum   'Bi24 O20 F32'
_cell_volume   1168.70289700
_cell_formula_units_Z   4
loop_
 _symmetry_equiv_pos_site_id
 _symmetry_equiv_pos_as_xyz
  1  'x, y, z'
loop_
 _atom_site_type_symbol
 _atom_site_label
 _atom_site_symmetry_multiplicity
 _atom_site_fract_x
 _atom_site_fract_y
 _atom_site_fract_z
 _atom_site_occupancy
  Bi  Bi0  1  0.717178  0.747359  0.999821  1
  Bi  Bi1  1  0.717178  0.752641  0.499821  1
  Bi  Bi2  1  0.727142  0.290849  0.748626  1
  Bi  Bi3  1  0.727142  0.209151  0.248626  1
  Bi  Bi4  1  0.713012  0.732335  0.664599  1
  Bi  Bi5  1  0.705867  0.796474  0.334550  1
  Bi  Bi6  1  0.713012  0.767665  0.164599  1
  Bi  Bi7  1  0.705867  0.703526  0.834550  1
  Bi  Bi8  1  0.706576  0.273512  0.917601  1
  Bi  Bi9  1  0.707152  0.281942  0.582819  1
  Bi  Bi10  1  0.706576  0.226488  0.417601  1
  Bi  Bi11  1  0.707152  0.218058  0.082819  1
  Bi  Bi12  1  0.292848  0.781942  0.917181  1
  Bi  Bi13  1  0.293424  0.726488  0.082399  1
  Bi  Bi14  1  0.292848  0.718058  0.417181  1
  Bi  Bi15  1  0.293424  0.773512  0.582399  1
  Bi  Bi16  1  0.286988  0.232335  0.835401  1
  Bi  Bi17  1  0.294133  0.296474  0.165450  1
  Bi  Bi18  1  0.286988  0.267665  0.335401  1
  Bi  Bi19  1  0.294133  0.203526  0.665450  1
  Bi  Bi20  1  0.272858  0.709151  0.251374  1
  Bi  Bi21  1  0.272858  0.790849  0.751374  1
  Bi  Bi22  1  0.282822  0.247359  0.500179  1
  Bi  Bi23  1  0.282822  0.252641  0.000179  1
  O  O24  1  0.524018  0.013209  0.710217  1
  O  O25  1  0.524018  0.486791  0.210217  1
  O  O26  1  0.521249  0.509355  0.126094  1
  O  O27  1  0.515791  0.509435  0.372953  1
  O  O28  1  0.521249  0.990645  0.626094  1
  O  O29  1  0.515791  0.990565  0.872953  1
  O  O30  1  0.508346  0.483190  0.458015  1
  O  O31  1  0.508346  0.016810  0.958015  1
  O  O32  1  0.509819  0.017496  0.542212  1
  O  O33  1  0.509819  0.482504  0.042212  1
  O  O34  1  0.490181  0.982504  0.457788  1
  O  O35  1  0.491654  0.516810  0.541985  1
  O  O36  1  0.490181  0.517496  0.957788  1
  O  O37  1  0.491654  0.983190  0.041985  1
  O  O38  1  0.484209  0.009435  0.127047  1
  O  O39  1  0.478751  0.009355  0.373906  1
  O  O40  1  0.484209  0.490565  0.627047  1
  O  O41  1  0.478751  0.490645  0.873906  1
  O  O42  1  0.475982  0.513209  0.789783  1
  O  O43  1  0.475982  0.986791  0.289783  1
  F  F44  1  0.965219  0.429765  0.964068  1
  F  F45  1  0.971671  0.432272  0.536754  1
  F  F46  1  0.965219  0.070235  0.464068  1
  F  F47  1  0.971671  0.067728  0.036754  1
  F  F48  1  0.923626  0.614507  0.889559  1
  F  F49  1  0.920639  0.629782  0.610083  1
  F  F50  1  0.923626  0.885493  0.389559  1
  F  F51  1  0.920639  0.870218  0.110083  1
  F  F52  1  0.890609  0.350134  0.818943  1
  F  F53  1  0.872225  0.354253  0.685167  1
  F  F54  1  0.872225  0.145747  0.185167  1
  F  F55  1  0.890609  0.149866  0.318943  1
  F  F56  1  0.883574  0.664553  0.748299  1
  F  F57  1  0.883574  0.835447  0.248299  1
  F  F58  1  0.538977  0.488796  0.290804  1
  F  F59  1  0.538977  0.011204  0.790804  1
  F  F60  1  0.461023  0.511204  0.709196  1
  F  F61  1  0.461023  0.988796  0.209196  1
  F  F62  1  0.116426  0.335447  0.251701  1
  F  F63  1  0.116426  0.164553  0.751701  1
  F  F64  1  0.127775  0.854253  0.814833  1
  F  F65  1  0.109391  0.649866  0.181057  1
  F  F66  1  0.109391  0.850134  0.681057  1
  F  F67  1  0.127775  0.645747  0.314833  1
  F  F68  1  0.079361  0.370218  0.389917  1
  F  F69  1  0.079361  0.129782  0.889917  1
  F  F70  1  0.076374  0.385493  0.110441  1
  F  F71  1  0.076374  0.114507  0.610441  1
  F  F72  1  0.028329  0.932272  0.963246  1
  F  F73  1  0.034781  0.929765  0.535932  1
  F  F74  1  0.028329  0.567728  0.463246  1
  F  F75  1  0.034781  0.570235  0.035932  1
