# generated using pymatgen
data_Li10Fe9CoO20
_symmetry_space_group_name_H-M   'P 1'
_cell_length_a   5.97913580
_cell_length_b   2.97297356
_cell_length_c   21.25559234
_cell_angle_alpha   90.00000000
_cell_angle_beta   97.54158049
_cell_angle_gamma   90.00000000
_symmetry_Int_Tables_number   1
_chemical_formula_structural   Li10Fe9CoO20
_chemical_formula_sum   'Li10 Fe9 Co1 O20'
_cell_volume   374.56710417
_cell_formula_units_Z   1
loop_
 _symmetry_equiv_pos_site_id
 _symmetry_equiv_pos_as_xyz
  1  'x, y, z'
loop_
 _atom_site_type_symbol
 _atom_site_label
 _atom_site_symmetry_multiplicity
 _atom_site_fract_x
 _atom_site_fract_y
 _atom_site_fract_z
 _atom_site_occupancy
  Li  Li0  1  0.500000  0.500000  0.000000  1
  Li  Li1  1  0.703086  0.000000  0.901730  1
  Li  Li2  1  0.899668  0.500000  0.799350  1
  Li  Li3  1  0.100254  0.000000  0.700095  1
  Li  Li4  1  0.500000  0.000000  0.500000  1
  Li  Li5  1  0.299990  0.500000  0.599970  1
  Li  Li6  1  0.700010  0.500000  0.400030  1
  Li  Li7  1  0.899746  0.000000  0.299905  1
  Li  Li8  1  0.100332  0.500000  0.200650  1
  Li  Li9  1  0.296914  0.000000  0.098270  1
  Fe  Fe10  1  0.399186  0.500000  0.801295  1
  Fe  Fe11  1  0.195282  0.000000  0.902220  1
  Fe  Fe12  1  0.599232  0.000000  0.700244  1
  Fe  Fe13  1  0.799875  0.500000  0.600032  1
  Fe  Fe14  1  0.000000  0.000000  0.500000  1
  Fe  Fe15  1  0.400768  0.000000  0.299756  1
  Fe  Fe16  1  0.200125  0.500000  0.399968  1
  Fe  Fe17  1  0.600814  0.500000  0.198705  1
  Fe  Fe18  1  0.804718  0.000000  0.097780  1
  Co  Co19  1  0.000000  0.500000  0.000000  1
  O  O20  1  0.780588  0.000000  0.001754  1
  O  O21  1  0.035527  0.500000  0.093614  1
  O  O22  1  0.219412  0.000000  0.998246  1
  O  O23  1  0.433005  0.500000  0.898936  1
  O  O24  1  0.964473  0.500000  0.906386  1
  O  O25  1  0.635109  0.000000  0.797844  1
  O  O26  1  0.163855  0.000000  0.803799  1
  O  O27  1  0.365085  0.500000  0.703238  1
  O  O28  1  0.564956  0.000000  0.602812  1
  O  O29  1  0.834882  0.500000  0.697360  1
  O  O30  1  0.035015  0.000000  0.597273  1
  O  O31  1  0.764952  0.500000  0.502739  1
  O  O32  1  0.435044  0.000000  0.397188  1
  O  O33  1  0.964985  0.000000  0.402727  1
  O  O34  1  0.235048  0.500000  0.497261  1
  O  O35  1  0.364891  0.000000  0.202156  1
  O  O36  1  0.634915  0.500000  0.296762  1
  O  O37  1  0.165118  0.500000  0.302640  1
  O  O38  1  0.836145  0.000000  0.196201  1
  O  O39  1  0.566995  0.500000  0.101064  1
