# generated using pymatgen
data_V6O7F5
_symmetry_space_group_name_H-M   'P 1'
_cell_length_a   5.59559114
_cell_length_b   5.59559114
_cell_length_c   7.35759017
_cell_angle_alpha   73.43166504
_cell_angle_beta   106.56833496
_cell_angle_gamma   108.13753203
_symmetry_Int_Tables_number   1
_chemical_formula_structural   V6O7F5
_chemical_formula_sum   'V6 O7 F5'
_cell_volume   204.89915362
_cell_formula_units_Z   1
loop_
 _symmetry_equiv_pos_site_id
 _symmetry_equiv_pos_as_xyz
  1  'x, y, z'
loop_
 _atom_site_type_symbol
 _atom_site_label
 _atom_site_symmetry_multiplicity
 _atom_site_fract_x
 _atom_site_fract_y
 _atom_site_fract_z
 _atom_site_occupancy
  V  V0  1  0.306982  0.693018  0.828059  1
  V  V1  1  0.662601  0.337399  0.668048  1
  V  V2  1  0.347008  0.652992  0.315802  1
  V  V3  1  0.695715  0.304285  0.191472  1
  V  V4  1  0.007885  0.992115  0.506686  1
  V  V5  1  0.996433  0.003567  0.004273  1
  O  O6  1  0.956339  0.639188  0.661975  1
  O  O7  1  0.646384  0.963339  0.335662  1
  O  O8  1  0.764634  0.235366  0.972042  1
  O  O9  1  0.218982  0.781018  0.029128  1
  O  O10  1  0.570830  0.429170  0.353043  1
  O  O11  1  0.360812  0.043661  0.661975  1
  O  O12  1  0.036661  0.353616  0.335662  1
  F  F13  1  0.426918  0.573082  0.630528  1
  F  F14  1  0.110790  0.889210  0.299756  1
  F  F15  1  0.898702  0.101298  0.708395  1
  F  F16  1  0.690730  0.698409  0.998747  1
  F  F17  1  0.301591  0.309270  0.998747  1
