# generated using pymatgen
data_V3Fe(PO4)6
_symmetry_space_group_name_H-M   'P 1'
_cell_length_a   8.75347574
_cell_length_b   8.75347574
_cell_length_c   8.75347574
_cell_angle_alpha   58.40213089
_cell_angle_beta   58.40213089
_cell_angle_gamma   58.40213089
_symmetry_Int_Tables_number   1
_chemical_formula_structural   V3Fe(PO4)6
_chemical_formula_sum   'V3 Fe1 P6 O24'
_cell_volume   456.92569313
_cell_formula_units_Z   1
loop_
 _symmetry_equiv_pos_site_id
 _symmetry_equiv_pos_as_xyz
  1  'x, y, z'
loop_
 _atom_site_type_symbol
 _atom_site_label
 _atom_site_symmetry_multiplicity
 _atom_site_fract_x
 _atom_site_fract_y
 _atom_site_fract_z
 _atom_site_occupancy
  V  V0  1  0.860114  0.860114  0.860114  1
  V  V1  1  0.640810  0.640810  0.640810  1
  V  V2  1  0.361036  0.361036  0.361036  1
  Fe  Fe3  1  0.140669  0.140669  0.140669  1
  P  P4  1  0.250067  0.532936  0.967612  1
  P  P5  1  0.967612  0.250067  0.532936  1
  P  P6  1  0.532936  0.967612  0.250067  1
  P  P7  1  0.468620  0.031211  0.749642  1
  P  P8  1  0.031211  0.749642  0.468620  1
  P  P9  1  0.749642  0.468620  0.031211  1
  O  O10  1  0.709854  0.505303  0.861004  1
  O  O11  1  0.505303  0.861004  0.709854  1
  O  O12  1  0.073346  0.718221  0.936503  1
  O  O13  1  0.861004  0.709854  0.505303  1
  O  O14  1  0.423714  0.573242  0.783747  1
  O  O15  1  0.227347  0.365546  0.984099  1
  O  O16  1  0.936503  0.073346  0.718221  1
  O  O17  1  0.783747  0.423714  0.573242  1
  O  O18  1  0.573242  0.783747  0.423714  1
  O  O19  1  0.644730  0.004104  0.774918  1
  O  O20  1  0.287145  0.057556  0.917022  1
  O  O21  1  0.004104  0.774918  0.644730  1
  O  O22  1  0.984099  0.227347  0.365546  1
  O  O23  1  0.718221  0.936503  0.073346  1
  O  O24  1  0.365546  0.984099  0.227347  1
  O  O25  1  0.444407  0.213434  0.567352  1
  O  O26  1  0.213434  0.567352  0.444407  1
  O  O27  1  0.057556  0.917022  0.287145  1
  O  O28  1  0.774918  0.644730  0.004104  1
  O  O29  1  0.567352  0.444407  0.213434  1
  O  O30  1  0.141613  0.277525  0.505553  1
  O  O31  1  0.917022  0.287145  0.057556  1
  O  O32  1  0.505553  0.141613  0.277525  1
  O  O33  1  0.277525  0.505553  0.141613  1
