# generated using pymatgen
data_LiVCrP2(HO5)2
_symmetry_space_group_name_H-M   'P 1'
_cell_length_a   5.20352101
_cell_length_b   7.36325976
_cell_length_c   14.51604154
_cell_angle_alpha   91.84160652
_cell_angle_beta   93.85046128
_cell_angle_gamma   105.51099406
_symmetry_Int_Tables_number   1
_chemical_formula_structural   LiVCrP2(HO5)2
_chemical_formula_sum   'Li3 V3 Cr3 P6 H6 O30'
_cell_volume   533.98768109
_cell_formula_units_Z   3
loop_
 _symmetry_equiv_pos_site_id
 _symmetry_equiv_pos_as_xyz
  1  'x, y, z'
loop_
 _atom_site_type_symbol
 _atom_site_label
 _atom_site_symmetry_multiplicity
 _atom_site_fract_x
 _atom_site_fract_y
 _atom_site_fract_z
 _atom_site_occupancy
  Li  Li0  1  0.258690  0.035288  0.186036  1
  Li  Li1  1  0.407070  0.631154  0.479887  1
  Li  Li2  1  0.741335  0.963909  0.813409  1
  V  V3  1  0.661176  0.659929  0.165483  1
  V  V4  1  0.004457  0.005949  0.500220  1
  V  V5  1  0.337763  0.339301  0.833491  1
  Cr  Cr6  1  0.999840  0.000114  0.999796  1
  Cr  Cr7  1  0.333145  0.333528  0.333070  1
  Cr  Cr8  1  0.664206  0.664124  0.665920  1
  P  P9  1  0.592637  0.264707  0.041498  1
  P  P10  1  0.742625  0.061797  0.291459  1
  P  P11  1  0.923515  0.604610  0.374764  1
  P  P12  1  0.073392  0.400209  0.624970  1
  P  P13  1  0.256390  0.936734  0.708343  1
  P  P14  1  0.406933  0.734791  0.957963  1
  H  H15  1  0.101106  0.747664  0.094670  1
  H  H16  1  0.214656  0.567350  0.230368  1
  H  H17  1  0.451414  0.099646  0.436369  1
  H  H18  1  0.563458  0.917344  0.571237  1
  H  H19  1  0.784101  0.431131  0.768881  1
  H  H20  1  0.897890  0.252306  0.905171  1
  O  O21  1  0.762118  0.128384  0.058643  1
  O  O22  1  0.308887  0.182365  0.071928  1
  O  O23  1  0.407339  0.684332  0.062328  1
  O  O24  1  0.725367  0.451155  0.101808  1
  O  O25  1  0.979802  0.826915  0.108069  1
  O  O26  1  0.031109  0.137503  0.264632  1
  O  O27  1  0.366674  0.510756  0.229397  1
  O  O28  1  0.574631  0.202687  0.274700  1
  O  O29  1  0.738340  0.012131  0.395792  1
  O  O30  1  0.595145  0.885376  0.227807  1
  O  O31  1  0.927873  0.654170  0.270671  1
  O  O32  1  0.092279  0.464330  0.392030  1
  O  O33  1  0.299049  0.155953  0.437035  1
  O  O34  1  0.635470  0.528825  0.402002  1
  O  O35  1  0.070830  0.781343  0.438627  1
  O  O36  1  0.938940  0.214529  0.564609  1
  O  O37  1  0.356289  0.483147  0.593740  1
  O  O38  1  0.685032  0.838125  0.557820  1
  O  O39  1  0.907283  0.539300  0.609281  1
  O  O40  1  0.076266  0.347948  0.728813  1
  O  O41  1  0.402181  0.113847  0.771975  1
  O  O42  1  0.263973  0.984495  0.603771  1
  O  O43  1  0.426647  0.797768  0.726346  1
  O  O44  1  0.631722  0.487304  0.769638  1
  O  O45  1  0.966705  0.862191  0.733992  1
  O  O46  1  0.018951  0.172997  0.891513  1
  O  O47  1  0.274504  0.548639  0.897889  1
  O  O48  1  0.592150  0.314998  0.937393  1
  O  O49  1  0.691096  0.817448  0.928005  1
  O  O50  1  0.237852  0.871556  0.941399  1
