# generated using pymatgen
data_Li2Co2(SiO3)3
_symmetry_space_group_name_H-M   'P 1'
_cell_length_a   7.12023050
_cell_length_b   10.07637927
_cell_length_c   12.53913976
_cell_angle_alpha   90.00000000
_cell_angle_beta   90.00000000
_cell_angle_gamma   90.00000000
_symmetry_Int_Tables_number   1
_chemical_formula_structural   Li2Co2(SiO3)3
_chemical_formula_sum   'Li8 Co8 Si12 O36'
_cell_volume   899.63491442
_cell_formula_units_Z   4
loop_
 _symmetry_equiv_pos_site_id
 _symmetry_equiv_pos_as_xyz
  1  'x, y, z'
loop_
 _atom_site_type_symbol
 _atom_site_label
 _atom_site_symmetry_multiplicity
 _atom_site_fract_x
 _atom_site_fract_y
 _atom_site_fract_z
 _atom_site_occupancy
  Li  Li0  1  0.437292  0.485215  0.160358  1
  Li  Li1  1  0.437292  0.014785  0.160358  1
  Li  Li2  1  0.937292  0.985215  0.339642  1
  Li  Li3  1  0.937292  0.514785  0.339642  1
  Li  Li4  1  0.062708  0.485215  0.660358  1
  Li  Li5  1  0.062708  0.014785  0.660358  1
  Li  Li6  1  0.562708  0.985215  0.839642  1
  Li  Li7  1  0.562708  0.514785  0.839642  1
  Co  Co8  1  0.884109  0.435344  0.087521  1
  Co  Co9  1  0.884109  0.064656  0.087521  1
  Co  Co10  1  0.384109  0.935344  0.412479  1
  Co  Co11  1  0.384109  0.564656  0.412479  1
  Co  Co12  1  0.615891  0.435344  0.587521  1
  Co  Co13  1  0.615891  0.064656  0.587521  1
  Co  Co14  1  0.115891  0.935344  0.912479  1
  Co  Co15  1  0.115891  0.564656  0.912479  1
  Si  Si16  1  0.542963  0.250000  0.026542  1
  Si  Si17  1  0.855797  0.750000  0.059710  1
  Si  Si18  1  0.530789  0.750000  0.214646  1
  Si  Si19  1  0.030789  0.250000  0.285354  1
  Si  Si20  1  0.355797  0.250000  0.440290  1
  Si  Si21  1  0.042963  0.750000  0.473458  1
  Si  Si22  1  0.957037  0.250000  0.526542  1
  Si  Si23  1  0.644203  0.750000  0.559710  1
  Si  Si24  1  0.969211  0.750000  0.714646  1
  Si  Si25  1  0.469211  0.250000  0.785354  1
  Si  Si26  1  0.144203  0.250000  0.940290  1
  Si  Si27  1  0.457037  0.750000  0.973458  1
  O  O28  1  0.310061  0.250000  0.034218  1
  O  O29  1  0.979587  0.884090  0.046396  1
  O  O30  1  0.979587  0.615910  0.046396  1
  O  O31  1  0.617876  0.386640  0.081689  1
  O  O32  1  0.617876  0.113360  0.081689  1
  O  O33  1  0.406701  0.750000  0.102269  1
  O  O34  1  0.985518  0.389793  0.226350  1
  O  O35  1  0.985518  0.110207  0.226350  1
  O  O36  1  0.755804  0.750000  0.178626  1
  O  O37  1  0.255804  0.250000  0.321374  1
  O  O38  1  0.485518  0.889793  0.273650  1
  O  O39  1  0.485518  0.610207  0.273650  1
  O  O40  1  0.906701  0.250000  0.397731  1
  O  O41  1  0.117876  0.886640  0.418311  1
  O  O42  1  0.117876  0.613360  0.418311  1
  O  O43  1  0.479587  0.384090  0.453604  1
  O  O44  1  0.479587  0.115910  0.453604  1
  O  O45  1  0.810061  0.750000  0.465782  1
  O  O46  1  0.189939  0.250000  0.534218  1
  O  O47  1  0.520413  0.884090  0.546396  1
  O  O48  1  0.520413  0.615910  0.546396  1
  O  O49  1  0.882124  0.386640  0.581689  1
  O  O50  1  0.882124  0.113360  0.581689  1
  O  O51  1  0.093299  0.750000  0.602269  1
  O  O52  1  0.514482  0.389793  0.726350  1
  O  O53  1  0.514482  0.110207  0.726350  1
  O  O54  1  0.744196  0.750000  0.678626  1
  O  O55  1  0.244196  0.250000  0.821374  1
  O  O56  1  0.014482  0.889793  0.773650  1
  O  O57  1  0.014482  0.610207  0.773650  1
  O  O58  1  0.593299  0.250000  0.897731  1
  O  O59  1  0.382124  0.886640  0.918311  1
  O  O60  1  0.382124  0.613360  0.918311  1
  O  O61  1  0.020413  0.384090  0.953604  1
  O  O62  1  0.020413  0.115910  0.953604  1
  O  O63  1  0.689939  0.750000  0.965782  1
