# generated using pymatgen
data_Li3CuPCO7
_symmetry_space_group_name_H-M   'P 1'
_cell_length_a   5.10766003
_cell_length_b   6.27053474
_cell_length_c   8.45702153
_cell_angle_alpha   90.00000000
_cell_angle_beta   91.37356573
_cell_angle_gamma   90.00000000
_symmetry_Int_Tables_number   1
_chemical_formula_structural   Li3CuPCO7
_chemical_formula_sum   'Li6 Cu2 P2 C2 O14'
_cell_volume   270.78162288
_cell_formula_units_Z   2
loop_
 _symmetry_equiv_pos_site_id
 _symmetry_equiv_pos_as_xyz
  1  'x, y, z'
loop_
 _atom_site_type_symbol
 _atom_site_label
 _atom_site_symmetry_multiplicity
 _atom_site_fract_x
 _atom_site_fract_y
 _atom_site_fract_z
 _atom_site_occupancy
  Li  Li0  1  0.018987  0.506446  0.999699  1
  Li  Li1  1  0.446223  0.187459  0.816347  1
  Li  Li2  1  0.448032  0.430330  0.491289  1
  Li  Li3  1  0.551968  0.930330  0.508711  1
  Li  Li4  1  0.553777  0.687459  0.183653  1
  Li  Li5  1  0.981013  0.006446  0.000301  1
  Cu  Cu6  1  0.025654  0.751120  0.725309  1
  Cu  Cu7  1  0.974346  0.251120  0.274691  1
  P  P8  1  0.961641  0.248660  0.661139  1
  P  P9  1  0.038359  0.748660  0.338861  1
  C  C10  1  0.508070  0.738428  0.870302  1
  C  C11  1  0.491930  0.238428  0.129698  1
  O  O12  1  0.344526  0.723125  0.984875  1
  O  O13  1  0.757000  0.760696  0.907310  1
  O  O14  1  0.081721  0.062228  0.764501  1
  O  O15  1  0.015229  0.445002  0.769008  1
  O  O16  1  0.432747  0.736591  0.723183  1
  O  O17  1  0.665904  0.212395  0.629238  1
  O  O18  1  0.113786  0.272122  0.507927  1
  O  O19  1  0.886214  0.772122  0.492073  1
  O  O20  1  0.334096  0.712395  0.370762  1
  O  O21  1  0.567253  0.236591  0.276817  1
  O  O22  1  0.984771  0.945002  0.230992  1
  O  O23  1  0.918279  0.562228  0.235499  1
  O  O24  1  0.243000  0.260696  0.092690  1
  O  O25  1  0.655474  0.223125  0.015125  1
