# generated using pymatgen
data_Ca3W2O9
_symmetry_space_group_name_H-M   'P 1'
_cell_length_a   7.83319048
_cell_length_b   8.68227858
_cell_length_c   15.84669434
_cell_angle_alpha   90.00000000
_cell_angle_beta   90.00000000
_cell_angle_gamma   90.00000000
_symmetry_Int_Tables_number   1
_chemical_formula_structural   Ca3W2O9
_chemical_formula_sum   'Ca12 W8 O36'
_cell_volume   1077.73276165
_cell_formula_units_Z   4
loop_
 _symmetry_equiv_pos_site_id
 _symmetry_equiv_pos_as_xyz
  1  'x, y, z'
loop_
 _atom_site_type_symbol
 _atom_site_label
 _atom_site_symmetry_multiplicity
 _atom_site_fract_x
 _atom_site_fract_y
 _atom_site_fract_z
 _atom_site_occupancy
  Ca  Ca0  1  0.500000  0.000000  0.000000  1
  Ca  Ca1  1  0.750000  0.212087  0.860578  1
  Ca  Ca2  1  0.250000  0.191301  0.578461  1
  Ca  Ca3  1  0.750000  0.308699  0.078461  1
  Ca  Ca4  1  0.250000  0.287913  0.360578  1
  Ca  Ca5  1  0.000000  0.500000  0.500000  1
  Ca  Ca6  1  0.500000  0.500000  0.500000  1
  Ca  Ca7  1  0.750000  0.712087  0.639422  1
  Ca  Ca8  1  0.250000  0.691301  0.921539  1
  Ca  Ca9  1  0.750000  0.808699  0.421539  1
  Ca  Ca10  1  0.250000  0.787913  0.139422  1
  Ca  Ca11  1  0.000000  0.000000  0.000000  1
  W  W12  1  0.750000  0.156099  0.605393  1
  W  W13  1  0.750000  0.255569  0.332723  1
  W  W14  1  0.250000  0.244431  0.832723  1
  W  W15  1  0.250000  0.343901  0.105393  1
  W  W16  1  0.750000  0.656099  0.894607  1
  W  W17  1  0.750000  0.755569  0.167277  1
  W  W18  1  0.250000  0.744431  0.667277  1
  W  W19  1  0.250000  0.843901  0.394607  1
  O  O20  1  0.750000  0.067324  0.381869  1
  O  O21  1  0.250000  0.048841  0.420414  1
  O  O22  1  0.750000  0.113108  0.986373  1
  O  O23  1  0.058317  0.140983  0.867183  1
  O  O24  1  0.441683  0.140983  0.867183  1
  O  O25  1  0.750000  0.178979  0.717870  1
  O  O26  1  0.750000  0.231889  0.219833  1
  O  O27  1  0.940579  0.247918  0.562994  1
  O  O28  1  0.059421  0.252082  0.062994  1
  O  O29  1  0.559421  0.247918  0.562994  1
  O  O30  1  0.440579  0.252082  0.062994  1
  O  O31  1  0.250000  0.268111  0.719833  1
  O  O32  1  0.250000  0.321021  0.217870  1
  O  O33  1  0.941683  0.359017  0.367183  1
  O  O34  1  0.558317  0.359017  0.367183  1
  O  O35  1  0.250000  0.386892  0.486373  1
  O  O36  1  0.750000  0.451159  0.920414  1
  O  O37  1  0.250000  0.432676  0.881869  1
  O  O38  1  0.750000  0.567324  0.118131  1
  O  O39  1  0.250000  0.548841  0.079586  1
  O  O40  1  0.750000  0.613108  0.513627  1
  O  O41  1  0.058317  0.640983  0.632817  1
  O  O42  1  0.441683  0.640983  0.632817  1
  O  O43  1  0.750000  0.678979  0.782130  1
  O  O44  1  0.750000  0.731889  0.280167  1
  O  O45  1  0.940579  0.747918  0.937006  1
  O  O46  1  0.059421  0.752082  0.437006  1
  O  O47  1  0.559421  0.747918  0.937006  1
  O  O48  1  0.440579  0.752082  0.437006  1
  O  O49  1  0.250000  0.768111  0.780167  1
  O  O50  1  0.250000  0.821021  0.282130  1
  O  O51  1  0.941683  0.859017  0.132817  1
  O  O52  1  0.558317  0.859017  0.132817  1
  O  O53  1  0.250000  0.886892  0.013627  1
  O  O54  1  0.750000  0.951159  0.579586  1
  O  O55  1  0.250000  0.932676  0.618131  1
