# generated using pymatgen
data_Li3Mn5O8
_symmetry_space_group_name_H-M   'P 1'
_cell_length_a   6.09519946
_cell_length_b   6.09519946
_cell_length_c   6.09519946
_cell_angle_alpha   59.94281540
_cell_angle_beta   59.94281540
_cell_angle_gamma   59.94281540
_symmetry_Int_Tables_number   1
_chemical_formula_structural   Li3Mn5O8
_chemical_formula_sum   'Li3 Mn5 O8'
_cell_volume   159.91350032
_cell_formula_units_Z   1
loop_
 _symmetry_equiv_pos_site_id
 _symmetry_equiv_pos_as_xyz
  1  'x, y, z'
loop_
 _atom_site_type_symbol
 _atom_site_label
 _atom_site_symmetry_multiplicity
 _atom_site_fract_x
 _atom_site_fract_y
 _atom_site_fract_z
 _atom_site_occupancy
  Li  Li0  1  0.500000  0.000000  1.000000  1
  Li  Li1  1  0.000000  0.000000  0.500000  1
  Li  Li2  1  0.000000  0.500000  1.000000  1
  Mn  Mn3  1  0.500000  0.500000  0.500000  1
  Mn  Mn4  1  0.000000  0.000000  0.000000  1
  Mn  Mn5  1  0.500000  0.000000  0.500000  1
  Mn  Mn6  1  0.000000  0.500000  0.500000  1
  Mn  Mn7  1  0.500000  0.500000  0.000000  1
  O  O8  1  0.733635  0.733635  0.733635  1
  O  O9  1  0.249715  0.750745  0.249715  1
  O  O10  1  0.750745  0.249715  0.249715  1
  O  O11  1  0.249715  0.249715  0.750745  1
  O  O12  1  0.750285  0.750285  0.249255  1
  O  O13  1  0.249255  0.750285  0.750285  1
  O  O14  1  0.750285  0.249255  0.750285  1
  O  O15  1  0.266365  0.266365  0.266365  1
