# generated using pymatgen
data_Sc6N2O5
_symmetry_space_group_name_H-M   'P 1'
_cell_length_a   5.47239963
_cell_length_b   5.47239963
_cell_length_c   7.02730304
_cell_angle_alpha   82.23424949
_cell_angle_beta   97.76575051
_cell_angle_gamma   132.33527273
_symmetry_Int_Tables_number   1
_chemical_formula_structural   Sc6N2O5
_chemical_formula_sum   'Sc6 N2 O5'
_cell_volume   153.85981441
_cell_formula_units_Z   1
loop_
 _symmetry_equiv_pos_site_id
 _symmetry_equiv_pos_as_xyz
  1  'x, y, z'
loop_
 _atom_site_type_symbol
 _atom_site_label
 _atom_site_symmetry_multiplicity
 _atom_site_fract_x
 _atom_site_fract_y
 _atom_site_fract_z
 _atom_site_occupancy
  Sc  Sc0  1  0.564721  0.435279  0.716109  1
  Sc  Sc1  1  0.291851  0.708149  0.861485  1
  Sc  Sc2  1  0.145861  0.854139  0.422863  1
  Sc  Sc3  1  0.854139  0.145861  0.577137  1
  Sc  Sc4  1  0.708149  0.291851  0.138515  1
  Sc  Sc5  1  0.435279  0.564721  0.283891  1
  N  N6  1  0.357602  0.642398  0.574517  1
  N  N7  1  0.642398  0.357602  0.425483  1
  O  O8  1  0.077687  0.922313  0.703546  1
  O  O9  1  0.500000  0.500000  0.000000  1
  O  O10  1  0.773018  0.226982  0.854565  1
  O  O11  1  0.226982  0.773018  0.145435  1
  O  O12  1  0.922313  0.077687  0.296454  1
