# generated using pymatgen
data_SbRu
_symmetry_space_group_name_H-M   'P 1'
_cell_length_a   3.79916588
_cell_length_b   5.95901731
_cell_length_c   6.66025530
_cell_angle_alpha   90.00000000
_cell_angle_beta   90.00000000
_cell_angle_gamma   90.00000000
_symmetry_Int_Tables_number   1
_chemical_formula_structural   SbRu
_chemical_formula_sum   'Sb4 Ru4'
_cell_volume   150.78348613
_cell_formula_units_Z   4
loop_
 _symmetry_equiv_pos_site_id
 _symmetry_equiv_pos_as_xyz
  1  'x, y, z'
loop_
 _atom_site_type_symbol
 _atom_site_label
 _atom_site_symmetry_multiplicity
 _atom_site_fract_x
 _atom_site_fract_y
 _atom_site_fract_z
 _atom_site_occupancy
  Sb  Sb0  1  0.750000  0.799714  0.580006  1
  Sb  Sb1  1  0.250000  0.200286  0.419994  1
  Sb  Sb2  1  0.750000  0.299714  0.919994  1
  Sb  Sb3  1  0.250000  0.700286  0.080006  1
  Ru  Ru4  1  0.750000  0.992954  0.206004  1
  Ru  Ru5  1  0.250000  0.007046  0.793996  1
  Ru  Ru6  1  0.750000  0.492954  0.293996  1
  Ru  Ru7  1  0.250000  0.507046  0.706004  1
