# generated using pymatgen
data_LiMn5P3O13
_symmetry_space_group_name_H-M   'P 1'
_cell_length_a   6.48881140
_cell_length_b   8.80958349
_cell_length_c   9.76582554
_cell_angle_alpha   93.93250705
_cell_angle_beta   92.68305470
_cell_angle_gamma   90.12807841
_symmetry_Int_Tables_number   1
_chemical_formula_structural   LiMn5P3O13
_chemical_formula_sum   'Li2 Mn10 P6 O26'
_cell_volume   556.31774653
_cell_formula_units_Z   2
loop_
 _symmetry_equiv_pos_site_id
 _symmetry_equiv_pos_as_xyz
  1  'x, y, z'
loop_
 _atom_site_type_symbol
 _atom_site_label
 _atom_site_symmetry_multiplicity
 _atom_site_fract_x
 _atom_site_fract_y
 _atom_site_fract_z
 _atom_site_occupancy
  Li  Li0  1  0.216915  0.398010  0.447456  1
  Li  Li1  1  0.783085  0.601990  0.552544  1
  Mn  Mn2  1  0.999732  0.138094  0.776598  1
  Mn  Mn3  1  0.243693  0.846204  0.913669  1
  Mn  Mn4  1  0.266565  0.788663  0.565444  1
  Mn  Mn5  1  0.259026  0.561626  0.106327  1
  Mn  Mn6  1  0.499812  0.134005  0.773936  1
  Mn  Mn7  1  0.500188  0.865995  0.226064  1
  Mn  Mn8  1  0.740974  0.438374  0.893673  1
  Mn  Mn9  1  0.733435  0.211337  0.434556  1
  Mn  Mn10  1  0.756307  0.153796  0.086331  1
  Mn  Mn11  1  0.000268  0.861906  0.223402  1
  P  P12  1  0.244011  0.480887  0.749893  1
  P  P13  1  0.241877  0.106583  0.480738  1
  P  P14  1  0.256839  0.169286  0.095171  1
  P  P15  1  0.743161  0.830714  0.904829  1
  P  P16  1  0.758123  0.893417  0.519262  1
  P  P17  1  0.755989  0.519113  0.250107  1
  O  O18  1  0.043040  0.383357  0.753130  1
  O  O19  1  0.050650  0.203738  0.452089  1
  O  O20  1  0.061282  0.094744  0.149454  1
  O  O21  1  0.258269  0.125247  0.935518  1
  O  O22  1  0.248240  0.605205  0.870598  1
  O  O23  1  0.245138  0.054232  0.634100  1
  O  O24  1  0.242606  0.554325  0.607106  1
  O  O25  1  0.250771  0.952844  0.391256  1
  O  O26  1  0.245466  0.790170  0.111247  1
  O  O27  1  0.250758  0.340297  0.128755  1
  O  O28  1  0.441939  0.381808  0.766213  1
  O  O29  1  0.423208  0.215630  0.464868  1
  O  O30  1  0.540721  0.896962  0.838618  1
  O  O31  1  0.459279  0.103038  0.161382  1
  O  O32  1  0.576792  0.784370  0.535132  1
  O  O33  1  0.558061  0.618192  0.233787  1
  O  O34  1  0.749242  0.659703  0.871245  1
  O  O35  1  0.754534  0.209830  0.888753  1
  O  O36  1  0.749229  0.047156  0.608744  1
  O  O37  1  0.757394  0.445675  0.392894  1
  O  O38  1  0.754862  0.945768  0.365900  1
  O  O39  1  0.751760  0.394795  0.129402  1
  O  O40  1  0.741731  0.874753  0.064482  1
  O  O41  1  0.938718  0.905256  0.850546  1
  O  O42  1  0.949350  0.796262  0.547911  1
  O  O43  1  0.956960  0.616643  0.246870  1
