# generated using pymatgen
data_Na2PH5O6
_symmetry_space_group_name_H-M   'P 1'
_cell_length_a   6.58525478
_cell_length_b   10.38825747
_cell_length_c   17.08741892
_cell_angle_alpha   90.00000000
_cell_angle_beta   90.00000000
_cell_angle_gamma   90.00000000
_symmetry_Int_Tables_number   1
_chemical_formula_structural   Na2PH5O6
_chemical_formula_sum   'Na16 P8 H40 O48'
_cell_volume   1168.93874578
_cell_formula_units_Z   8
loop_
 _symmetry_equiv_pos_site_id
 _symmetry_equiv_pos_as_xyz
  1  'x, y, z'
loop_
 _atom_site_type_symbol
 _atom_site_label
 _atom_site_symmetry_multiplicity
 _atom_site_fract_x
 _atom_site_fract_y
 _atom_site_fract_z
 _atom_site_occupancy
  Na  Na0  1  0.327164  0.767680  0.270655  1
  Na  Na1  1  0.672836  0.732320  0.770655  1
  Na  Na2  1  0.172836  0.267680  0.729345  1
  Na  Na3  1  0.827164  0.232320  0.229345  1
  Na  Na4  1  0.672836  0.232320  0.729345  1
  Na  Na5  1  0.327164  0.267680  0.229345  1
  Na  Na6  1  0.827164  0.732320  0.270655  1
  Na  Na7  1  0.172836  0.767680  0.770655  1
  Na  Na8  1  0.142436  0.847510  0.499444  1
  Na  Na9  1  0.857564  0.652490  0.999444  1
  Na  Na10  1  0.357564  0.347510  0.500556  1
  Na  Na11  1  0.642436  0.152490  0.000556  1
  Na  Na12  1  0.857564  0.152490  0.500556  1
  Na  Na13  1  0.142436  0.347510  0.000556  1
  Na  Na14  1  0.642436  0.652490  0.499444  1
  Na  Na15  1  0.357564  0.847510  0.999444  1
  P  P16  1  0.120979  0.517953  0.161557  1
  P  P17  1  0.879021  0.982047  0.661557  1
  P  P18  1  0.379021  0.017953  0.838443  1
  P  P19  1  0.620979  0.482047  0.338443  1
  P  P20  1  0.879021  0.482047  0.838443  1
  P  P21  1  0.120979  0.017953  0.338443  1
  P  P22  1  0.620979  0.982047  0.161557  1
  P  P23  1  0.379021  0.517953  0.661557  1
  H  H24  1  0.976625  0.892722  0.086859  1
  H  H25  1  0.023375  0.607278  0.586859  1
  H  H26  1  0.523375  0.392722  0.913141  1
  H  H27  1  0.476625  0.107278  0.413141  1
  H  H28  1  0.023375  0.107278  0.913141  1
  H  H29  1  0.976625  0.392722  0.413141  1
  H  H30  1  0.476625  0.607278  0.086859  1
  H  H31  1  0.523375  0.892722  0.586859  1
  H  H32  1  0.072347  0.761095  0.113827  1
  H  H33  1  0.927653  0.738905  0.613827  1
  H  H34  1  0.427653  0.261095  0.886173  1
  H  H35  1  0.572347  0.238905  0.386173  1
  H  H36  1  0.927653  0.238905  0.886173  1
  H  H37  1  0.072347  0.261095  0.386173  1
  H  H38  1  0.572347  0.738905  0.113827  1
  H  H39  1  0.427653  0.761095  0.613827  1
  H  H40  1  0.292811  0.613748  0.401464  1
  H  H41  1  0.707189  0.886252  0.901464  1
  H  H42  1  0.207189  0.113748  0.598536  1
  H  H43  1  0.792811  0.386252  0.098536  1
  H  H44  1  0.707189  0.386252  0.598536  1
  H  H45  1  0.292811  0.113748  0.098536  1
  H  H46  1  0.792811  0.886252  0.401464  1
  H  H47  1  0.207189  0.613748  0.901464  1
  H  H48  1  0.057677  0.627205  0.388139  1
  H  H49  1  0.942323  0.872795  0.888139  1
  H  H50  1  0.442323  0.127205  0.611861  1
  H  H51  1  0.557677  0.372795  0.111861  1
  H  H52  1  0.942323  0.372795  0.611861  1
  H  H53  1  0.057677  0.127205  0.111861  1
  H  H54  1  0.557677  0.872795  0.388139  1
  H  H55  1  0.442323  0.627205  0.888139  1
  H  H56  1  0.976302  0.464790  0.278361  1
  H  H57  1  0.023698  0.035210  0.778361  1
  H  H58  1  0.523698  0.964790  0.721639  1
  H  H59  1  0.476302  0.535210  0.221639  1
  H  H60  1  0.023698  0.535210  0.721639  1
  H  H61  1  0.976302  0.964790  0.221639  1
  H  H62  1  0.476302  0.035210  0.278361  1
  H  H63  1  0.523698  0.464790  0.778361  1
  O  O64  1  0.348352  0.481483  0.149069  1
  O  O65  1  0.651648  0.018517  0.649069  1
  O  O66  1  0.151648  0.981483  0.850931  1
  O  O67  1  0.848352  0.518517  0.350931  1
  O  O68  1  0.651648  0.518517  0.850931  1
  O  O69  1  0.348352  0.981483  0.350931  1
  O  O70  1  0.848352  0.018517  0.149069  1
  O  O71  1  0.151648  0.481483  0.649069  1
  O  O72  1  0.096068  0.657016  0.190635  1
  O  O73  1  0.903932  0.842984  0.690635  1
  O  O74  1  0.403932  0.157016  0.809365  1
  O  O75  1  0.596068  0.342984  0.309365  1
  O  O76  1  0.903932  0.342984  0.809365  1
  O  O77  1  0.096068  0.157016  0.309365  1
  O  O78  1  0.596068  0.842984  0.190635  1
  O  O79  1  0.403932  0.657016  0.690635  1
  O  O80  1  0.994343  0.487076  0.088992  1
  O  O81  1  0.005657  0.012924  0.588992  1
  O  O82  1  0.505657  0.987076  0.911008  1
  O  O83  1  0.494343  0.512924  0.411008  1
  O  O84  1  0.005657  0.512924  0.911008  1
  O  O85  1  0.994343  0.987076  0.411008  1
  O  O86  1  0.494343  0.012924  0.088992  1
  O  O87  1  0.505657  0.487076  0.588992  1
  O  O88  1  0.048351  0.422245  0.231752  1
  O  O89  1  0.951649  0.077755  0.731752  1
  O  O90  1  0.451649  0.922245  0.768248  1
  O  O91  1  0.548351  0.577755  0.268248  1
  O  O92  1  0.951649  0.577755  0.768248  1
  O  O93  1  0.048351  0.922245  0.268248  1
  O  O94  1  0.548351  0.077755  0.231752  1
  O  O95  1  0.451649  0.422245  0.731752  1
  O  O96  1  0.046647  0.815688  0.066426  1
  O  O97  1  0.953353  0.684312  0.566426  1
  O  O98  1  0.453353  0.315688  0.933574  1
  O  O99  1  0.546647  0.184312  0.433574  1
  O  O100  1  0.953353  0.184312  0.933574  1
  O  O101  1  0.046647  0.315688  0.433574  1
  O  O102  1  0.546647  0.684312  0.066426  1
  O  O103  1  0.453353  0.815688  0.566426  1
  O  O104  1  0.181966  0.679057  0.394666  1
  O  O105  1  0.818034  0.820943  0.894666  1
  O  O106  1  0.318034  0.179057  0.605334  1
  O  O107  1  0.681966  0.320943  0.105334  1
  O  O108  1  0.818034  0.320943  0.605334  1
  O  O109  1  0.181966  0.179057  0.105334  1
  O  O110  1  0.681966  0.820943  0.394666  1
  O  O111  1  0.318034  0.679057  0.894666  1
