# generated using pymatgen
data_LiMn2(CO4)2
_symmetry_space_group_name_H-M   'P 1'
_cell_length_a   6.40854070
_cell_length_b   9.24858152
_cell_length_c   11.16694068
_cell_angle_alpha   90.00000000
_cell_angle_beta   123.23006232
_cell_angle_gamma   90.00000000
_symmetry_Int_Tables_number   1
_chemical_formula_structural   LiMn2(CO4)2
_chemical_formula_sum   'Li4 Mn8 C8 O32'
_cell_volume   553.63359641
_cell_formula_units_Z   4
loop_
 _symmetry_equiv_pos_site_id
 _symmetry_equiv_pos_as_xyz
  1  'x, y, z'
loop_
 _atom_site_type_symbol
 _atom_site_label
 _atom_site_symmetry_multiplicity
 _atom_site_fract_x
 _atom_site_fract_y
 _atom_site_fract_z
 _atom_site_occupancy
  Li  Li0  1  0.025054  0.682378  0.899023  1
  Li  Li1  1  0.974946  0.182378  0.600977  1
  Li  Li2  1  0.025054  0.817622  0.399023  1
  Li  Li3  1  0.974946  0.317622  0.100977  1
  Mn  Mn4  1  0.001991  0.051929  0.877272  1
  Mn  Mn5  1  0.512247  0.429862  0.384636  1
  Mn  Mn6  1  0.998009  0.551929  0.622728  1
  Mn  Mn7  1  0.487753  0.929862  0.115364  1
  Mn  Mn8  1  0.512247  0.070138  0.884636  1
  Mn  Mn9  1  0.001991  0.448071  0.377272  1
  Mn  Mn10  1  0.487753  0.570138  0.615364  1
  Mn  Mn11  1  0.998009  0.948071  0.122728  1
  C  C12  1  0.974910  0.359781  0.839513  1
  C  C13  1  0.453136  0.133714  0.332406  1
  C  C14  1  0.025090  0.859781  0.660487  1
  C  C15  1  0.546864  0.633714  0.167594  1
  C  C16  1  0.453136  0.366286  0.832406  1
  C  C17  1  0.974910  0.140219  0.339513  1
  C  C18  1  0.546864  0.866286  0.667594  1
  C  C19  1  0.025090  0.640219  0.160487  1
  O  O20  1  0.908296  0.480726  0.757775  1
  O  O21  1  0.916302  0.237269  0.768495  1
  O  O22  1  0.074341  0.371761  0.969459  1
  O  O23  1  0.103540  0.884601  0.999298  1
  O  O24  1  0.359920  0.014248  0.249541  1
  O  O25  1  0.362052  0.257560  0.265202  1
  O  O26  1  0.616571  0.125414  0.461416  1
  O  O27  1  0.647573  0.599354  0.505648  1
  O  O28  1  0.896460  0.384601  0.500702  1
  O  O29  1  0.925659  0.871761  0.530541  1
  O  O30  1  0.083698  0.737269  0.731505  1
  O  O31  1  0.091704  0.980726  0.742225  1
  O  O32  1  0.352427  0.099354  0.994352  1
  O  O33  1  0.383429  0.625414  0.038584  1
  O  O34  1  0.637948  0.757560  0.234798  1
  O  O35  1  0.640080  0.514248  0.250459  1
  O  O36  1  0.359920  0.485752  0.749541  1
  O  O37  1  0.362052  0.242440  0.765202  1
  O  O38  1  0.616571  0.374586  0.961416  1
  O  O39  1  0.647573  0.900646  0.005648  1
  O  O40  1  0.908296  0.019274  0.257775  1
  O  O41  1  0.916302  0.262731  0.268495  1
  O  O42  1  0.074341  0.128239  0.469459  1
  O  O43  1  0.103540  0.615399  0.499298  1
  O  O44  1  0.352427  0.400646  0.494352  1
  O  O45  1  0.383429  0.874586  0.538584  1
  O  O46  1  0.637948  0.742440  0.734798  1
  O  O47  1  0.640080  0.985752  0.750459  1
  O  O48  1  0.896460  0.115399  0.000702  1
  O  O49  1  0.925659  0.628239  0.030541  1
  O  O50  1  0.083698  0.762731  0.231505  1
  O  O51  1  0.091704  0.519274  0.242225  1
