# generated using pymatgen
data_Li2Ti3MnO8
_symmetry_space_group_name_H-M   'P 1'
_cell_length_a   5.97765728
_cell_length_b   5.97765728
_cell_length_c   9.92521527
_cell_angle_alpha   90.00000000
_cell_angle_beta   90.00000000
_cell_angle_gamma   120.00000000
_symmetry_Int_Tables_number   1
_chemical_formula_structural   Li2Ti3MnO8
_chemical_formula_sum   'Li4 Ti6 Mn2 O16'
_cell_volume   307.13732034
_cell_formula_units_Z   2
loop_
 _symmetry_equiv_pos_site_id
 _symmetry_equiv_pos_as_xyz
  1  'x, y, z'
loop_
 _atom_site_type_symbol
 _atom_site_label
 _atom_site_symmetry_multiplicity
 _atom_site_fract_x
 _atom_site_fract_y
 _atom_site_fract_z
 _atom_site_occupancy
  Li  Li0  1  0.333333  0.666667  0.888262  1
  Li  Li1  1  0.000000  0.000000  0.999060  1
  Li  Li2  1  0.000000  0.000000  0.499060  1
  Li  Li3  1  0.666667  0.333333  0.388262  1
  Ti  Ti4  1  0.168510  0.831490  0.215695  1
  Ti  Ti5  1  0.168510  0.337021  0.215695  1
  Ti  Ti6  1  0.662979  0.831490  0.215695  1
  Ti  Ti7  1  0.337021  0.168510  0.715695  1
  Ti  Ti8  1  0.831490  0.662979  0.715695  1
  Ti  Ti9  1  0.831490  0.168510  0.715695  1
  Mn  Mn10  1  0.333333  0.666667  0.496546  1
  Mn  Mn11  1  0.666667  0.333333  0.996546  1
  O  O12  1  0.154807  0.845193  0.608770  1
  O  O13  1  0.033157  0.516578  0.325002  1
  O  O14  1  0.333333  0.666667  0.105853  1
  O  O15  1  0.000000  0.000000  0.315841  1
  O  O16  1  0.000000  0.000000  0.815841  1
  O  O17  1  0.154807  0.309613  0.608770  1
  O  O18  1  0.483422  0.966843  0.325002  1
  O  O19  1  0.483422  0.516578  0.325002  1
  O  O20  1  0.309613  0.154807  0.108770  1
  O  O21  1  0.690387  0.845193  0.608770  1
  O  O22  1  0.516578  0.483422  0.825002  1
  O  O23  1  0.516578  0.033157  0.825002  1
  O  O24  1  0.666667  0.333333  0.605853  1
  O  O25  1  0.845193  0.690387  0.108770  1
  O  O26  1  0.966843  0.483422  0.825002  1
  O  O27  1  0.845193  0.154807  0.108770  1
