# generated using pymatgen
data_Mn2V3Fe(PO4)6
_symmetry_space_group_name_H-M   'P 1'
_cell_length_a   8.63311399
_cell_length_b   8.63311399
_cell_length_c   8.63311399
_cell_angle_alpha   60.03951260
_cell_angle_beta   60.03951260
_cell_angle_gamma   60.03951260
_symmetry_Int_Tables_number   1
_chemical_formula_structural   Mn2V3Fe(PO4)6
_chemical_formula_sum   'Mn2 V3 Fe1 P6 O24'
_cell_volume   455.38237738
_cell_formula_units_Z   1
loop_
 _symmetry_equiv_pos_site_id
 _symmetry_equiv_pos_as_xyz
  1  'x, y, z'
loop_
 _atom_site_type_symbol
 _atom_site_label
 _atom_site_symmetry_multiplicity
 _atom_site_fract_x
 _atom_site_fract_y
 _atom_site_fract_z
 _atom_site_occupancy
  Mn  Mn0  1  0.001219  0.001219  0.001219  1
  Mn  Mn1  1  0.500315  0.500315  0.500315  1
  V  V2  1  0.644403  0.644403  0.644403  1
  V  V3  1  0.856490  0.856490  0.856490  1
  V  V4  1  0.355830  0.355830  0.355830  1
  Fe  Fe5  1  0.145309  0.145309  0.145309  1
  P  P6  1  0.249622  0.542791  0.957619  1
  P  P7  1  0.957619  0.249622  0.542791  1
  P  P8  1  0.542791  0.957619  0.249622  1
  P  P9  1  0.458679  0.040997  0.749352  1
  P  P10  1  0.040997  0.749352  0.458679  1
  P  P11  1  0.749352  0.458679  0.040997  1
  O  O12  1  0.119055  0.307082  0.505516  1
  O  O13  1  0.505516  0.119055  0.307082  1
  O  O14  1  0.307082  0.505516  0.119055  1
  O  O15  1  0.085988  0.737550  0.940158  1
  O  O16  1  0.193631  0.384395  0.990163  1
  O  O17  1  0.415835  0.562512  0.763644  1
  O  O18  1  0.940158  0.085988  0.737550  1
  O  O19  1  0.763644  0.415835  0.562512  1
  O  O20  1  0.619409  0.004218  0.806233  1
  O  O21  1  0.562512  0.763644  0.415835  1
  O  O22  1  0.265536  0.054389  0.911815  1
  O  O23  1  0.004218  0.806233  0.619409  1
  O  O24  1  0.990163  0.193631  0.384395  1
  O  O25  1  0.737550  0.940158  0.085988  1
  O  O26  1  0.442537  0.235271  0.583909  1
  O  O27  1  0.384395  0.990163  0.193631  1
  O  O28  1  0.235271  0.583909  0.442537  1
  O  O29  1  0.054389  0.911815  0.265536  1
  O  O30  1  0.583909  0.442537  0.235271  1
  O  O31  1  0.806233  0.619409  0.004218  1
  O  O32  1  0.911815  0.265536  0.054389  1
  O  O33  1  0.686034  0.501010  0.881459  1
  O  O34  1  0.501010  0.881459  0.686034  1
  O  O35  1  0.881459  0.686034  0.501010  1
