# generated using pymatgen
data_SnP6(WO8)3
_symmetry_space_group_name_H-M   'P 1'
_cell_length_a   8.82784068
_cell_length_b   8.82784068
_cell_length_c   8.82784068
_cell_angle_alpha   60.20407686
_cell_angle_beta   60.20407686
_cell_angle_gamma   60.20407686
_symmetry_Int_Tables_number   1
_chemical_formula_structural   SnP6(WO8)3
_chemical_formula_sum   'Sn1 P6 W3 O24'
_cell_volume   488.70939687
_cell_formula_units_Z   1
loop_
 _symmetry_equiv_pos_site_id
 _symmetry_equiv_pos_as_xyz
  1  'x, y, z'
loop_
 _atom_site_type_symbol
 _atom_site_label
 _atom_site_symmetry_multiplicity
 _atom_site_fract_x
 _atom_site_fract_y
 _atom_site_fract_z
 _atom_site_occupancy
  Sn  Sn0  1  0.138997  0.138997  0.138997  1
  P  P1  1  0.962280  0.248926  0.537689  1
  P  P2  1  0.537689  0.962280  0.248926  1
  P  P3  1  0.248926  0.537689  0.962280  1
  P  P4  1  0.751974  0.461805  0.037474  1
  P  P5  1  0.461805  0.037474  0.751974  1
  P  P6  1  0.037474  0.751974  0.461805  1
  W  W7  1  0.640508  0.640508  0.640508  1
  W  W8  1  0.860056  0.860056  0.860056  1
  W  W9  1  0.360870  0.360870  0.360870  1
  O  O10  1  0.509481  0.124821  0.290212  1
  O  O11  1  0.290212  0.509481  0.124821  1
  O  O12  1  0.124821  0.290212  0.509481  1
  O  O13  1  0.936593  0.083125  0.720270  1
  O  O14  1  0.987175  0.207917  0.376315  1
  O  O15  1  0.780407  0.414449  0.567276  1
  O  O16  1  0.720270  0.936593  0.083125  1
  O  O17  1  0.567276  0.780407  0.414449  1
  O  O18  1  0.799330  0.626682  0.002070  1
  O  O19  1  0.414449  0.567276  0.780407  1
  O  O20  1  0.917383  0.283062  0.048454  1
  O  O21  1  0.626682  0.002070  0.799330  1
  O  O22  1  0.376315  0.987175  0.207917  1
  O  O23  1  0.083125  0.720270  0.936593  1
  O  O24  1  0.587093  0.446156  0.216249  1
  O  O25  1  0.207917  0.376315  0.987175  1
  O  O26  1  0.446156  0.216249  0.587093  1
  O  O27  1  0.283062  0.048454  0.917383  1
  O  O28  1  0.216249  0.587093  0.446156  1
  O  O29  1  0.002070  0.799330  0.626682  1
  O  O30  1  0.048454  0.917383  0.283062  1
  O  O31  1  0.873820  0.700941  0.500138  1
  O  O32  1  0.700941  0.500138  0.873820  1
  O  O33  1  0.500138  0.873820  0.700941  1
