# generated using pymatgen
data_Li7Fe8(BO3)8
_symmetry_space_group_name_H-M   'P 1'
_cell_length_a   5.25888064
_cell_length_b   9.00237578
_cell_length_c   10.23189407
_cell_angle_alpha   90.17037395
_cell_angle_beta   92.00774325
_cell_angle_gamma   90.04936532
_symmetry_Int_Tables_number   1
_chemical_formula_structural   Li7Fe8(BO3)8
_chemical_formula_sum   'Li7 Fe8 B8 O24'
_cell_volume   484.10288343
_cell_formula_units_Z   1
loop_
 _symmetry_equiv_pos_site_id
 _symmetry_equiv_pos_as_xyz
  1  'x, y, z'
loop_
 _atom_site_type_symbol
 _atom_site_label
 _atom_site_symmetry_multiplicity
 _atom_site_fract_x
 _atom_site_fract_y
 _atom_site_fract_z
 _atom_site_occupancy
  Li  Li0  1  0.336397  0.010288  0.834574  1
  Li  Li1  1  0.659198  0.009060  0.086330  1
  Li  Li2  1  0.148856  0.490144  0.577776  1
  Li  Li3  1  0.157175  0.503225  0.089832  1
  Li  Li4  1  0.834226  0.506933  0.842209  1
  Li  Li5  1  0.337359  0.989947  0.336755  1
  Li  Li6  1  0.661339  0.997039  0.583025  1
  Fe  Fe7  1  0.162228  0.165168  0.116010  1
  Fe  Fe8  1  0.848166  0.177354  0.365085  1
  Fe  Fe9  1  0.341512  0.337649  0.866334  1
  Fe  Fe10  1  0.661728  0.336159  0.616205  1
  Fe  Fe11  1  0.338687  0.649934  0.367744  1
  Fe  Fe12  1  0.162255  0.837147  0.611776  1
  Fe  Fe13  1  0.664168  0.670367  0.124013  1
  Fe  Fe14  1  0.844749  0.835567  0.863569  1
  B  B15  1  0.162266  0.168371  0.627088  1
  B  B16  1  0.332388  0.325286  0.374621  1
  B  B17  1  0.832418  0.165614  0.875465  1
  B  B18  1  0.658559  0.340758  0.118318  1
  B  B19  1  0.331189  0.670462  0.883239  1
  B  B20  1  0.661554  0.668347  0.624961  1
  B  B21  1  0.171177  0.827157  0.124743  1
  B  B22  1  0.831917  0.838229  0.362601  1
  O  O23  1  0.311205  0.039807  0.636949  1
  O  O24  1  0.094029  0.159801  0.903398  1
  O  O25  1  0.685626  0.038525  0.890425  1
  O  O26  1  0.218153  0.192512  0.328441  1
  O  O27  1  0.275107  0.304956  0.657237  1
  O  O28  1  0.777537  0.206562  0.149672  1
  O  O29  1  0.908320  0.158596  0.589259  1
  O  O30  1  0.400520  0.342148  0.084271  1
  O  O31  1  0.188450  0.452045  0.384329  1
  O  O32  1  0.583994  0.322661  0.414853  1
  O  O33  1  0.717706  0.298663  0.836991  1
  O  O34  1  0.188583  0.543166  0.887865  1
  O  O35  1  0.798345  0.471720  0.117055  1
  O  O36  1  0.291959  0.690729  0.148697  1
  O  O37  1  0.407661  0.661706  0.581805  1
  O  O38  1  0.804674  0.541272  0.644395  1
  O  O39  1  0.592480  0.670518  0.927555  1
  O  O40  1  0.090250  0.831348  0.397345  1
  O  O41  1  0.224828  0.801753  0.836428  1
  O  O42  1  0.702768  0.711304  0.307899  1
  O  O43  1  0.776164  0.805791  0.654060  1
  O  O44  1  0.305890  0.957268  0.134378  1
  O  O45  1  0.911240  0.827574  0.089069  1
  O  O46  1  0.689091  0.962523  0.385229  1
