# generated using pymatgen
data_LiFePO5
_symmetry_space_group_name_H-M   'P 1'
_cell_length_a   6.45769868
_cell_length_b   7.14821081
_cell_length_c   7.49504584
_cell_angle_alpha   90.00000000
_cell_angle_beta   90.00000000
_cell_angle_gamma   90.00000000
_symmetry_Int_Tables_number   1
_chemical_formula_structural   LiFePO5
_chemical_formula_sum   'Li4 Fe4 P4 O20'
_cell_volume   345.97874743
_cell_formula_units_Z   4
loop_
 _symmetry_equiv_pos_site_id
 _symmetry_equiv_pos_as_xyz
  1  'x, y, z'
loop_
 _atom_site_type_symbol
 _atom_site_label
 _atom_site_symmetry_multiplicity
 _atom_site_fract_x
 _atom_site_fract_y
 _atom_site_fract_z
 _atom_site_occupancy
  Li  Li0  1  0.500000  0.500000  0.000000  1
  Li  Li1  1  0.000000  0.500000  0.000000  1
  Li  Li2  1  0.500000  0.000000  0.500000  1
  Li  Li3  1  0.000000  0.000000  0.500000  1
  Fe  Fe4  1  0.250000  0.356724  0.728335  1
  Fe  Fe5  1  0.750000  0.143276  0.228335  1
  Fe  Fe6  1  0.250000  0.856724  0.771665  1
  Fe  Fe7  1  0.750000  0.643276  0.271665  1
  P  P8  1  0.750000  0.374941  0.626927  1
  P  P9  1  0.250000  0.125059  0.126927  1
  P  P10  1  0.750000  0.874941  0.873073  1
  P  P11  1  0.250000  0.625059  0.373073  1
  O  O12  1  0.250000  0.443816  0.482852  1
  O  O13  1  0.750000  0.395343  0.166325  1
  O  O14  1  0.939571  0.369923  0.753866  1
  O  O15  1  0.560429  0.369923  0.753866  1
  O  O16  1  0.250000  0.300648  0.003824  1
  O  O17  1  0.750000  0.199352  0.503824  1
  O  O18  1  0.439571  0.130077  0.253866  1
  O  O19  1  0.060429  0.130077  0.253866  1
  O  O20  1  0.250000  0.104657  0.666325  1
  O  O21  1  0.750000  0.056184  0.982852  1
  O  O22  1  0.250000  0.943816  0.017148  1
  O  O23  1  0.750000  0.895343  0.333675  1
  O  O24  1  0.939571  0.869923  0.746134  1
  O  O25  1  0.560429  0.869923  0.746134  1
  O  O26  1  0.250000  0.800648  0.496176  1
  O  O27  1  0.750000  0.699352  0.996176  1
  O  O28  1  0.439571  0.630077  0.246134  1
  O  O29  1  0.060429  0.630077  0.246134  1
  O  O30  1  0.250000  0.604657  0.833675  1
  O  O31  1  0.750000  0.556184  0.517148  1
