# generated using pymatgen
data_SbSO4F3
_symmetry_space_group_name_H-M   'P 1'
_cell_length_a   5.46264332
_cell_length_b   9.19941159
_cell_length_c   12.75350201
_cell_angle_alpha   90.00000000
_cell_angle_beta   90.00000000
_cell_angle_gamma   90.00000000
_symmetry_Int_Tables_number   1
_chemical_formula_structural   SbSO4F3
_chemical_formula_sum   'Sb4 S4 O16 F12'
_cell_volume   640.90306632
_cell_formula_units_Z   4
loop_
 _symmetry_equiv_pos_site_id
 _symmetry_equiv_pos_as_xyz
  1  'x, y, z'
loop_
 _atom_site_type_symbol
 _atom_site_label
 _atom_site_symmetry_multiplicity
 _atom_site_fract_x
 _atom_site_fract_y
 _atom_site_fract_z
 _atom_site_occupancy
  Sb  Sb0  1  0.089673  0.988796  0.505300  1
  Sb  Sb1  1  0.410327  0.011204  0.005300  1
  Sb  Sb2  1  0.589673  0.511204  0.494700  1
  Sb  Sb3  1  0.910327  0.488796  0.994700  1
  S  S4  1  0.047191  0.208697  0.160294  1
  S  S5  1  0.452809  0.791303  0.660294  1
  S  S6  1  0.547191  0.291303  0.839706  1
  S  S7  1  0.952809  0.708697  0.339706  1
  O  O8  1  0.124108  0.129162  0.053498  1
  O  O9  1  0.085783  0.847129  0.388667  1
  O  O10  1  0.151121  0.629084  0.293363  1
  O  O11  1  0.259110  0.248660  0.218474  1
  O  O12  1  0.240890  0.751340  0.718474  1
  O  O13  1  0.348879  0.370916  0.793363  1
  O  O14  1  0.414217  0.152871  0.888667  1
  O  O15  1  0.375892  0.870838  0.553498  1
  O  O16  1  0.624108  0.370838  0.946502  1
  O  O17  1  0.585783  0.652871  0.611333  1
  O  O18  1  0.651121  0.870916  0.706637  1
  O  O19  1  0.759110  0.251340  0.781526  1
  O  O20  1  0.740890  0.748660  0.281526  1
  O  O21  1  0.848879  0.129084  0.206637  1
  O  O22  1  0.914217  0.347129  0.111333  1
  O  O23  1  0.875892  0.629162  0.446502  1
  F  F24  1  0.047350  0.071574  0.639202  1
  F  F25  1  0.227773  0.551225  0.033203  1
  F  F26  1  0.282092  0.127592  0.437916  1
  F  F27  1  0.217908  0.872408  0.937916  1
  F  F28  1  0.272227  0.448775  0.533203  1
  F  F29  1  0.452650  0.928426  0.139202  1
  F  F30  1  0.547350  0.428426  0.360798  1
  F  F31  1  0.727773  0.948775  0.966797  1
  F  F32  1  0.782092  0.372408  0.562084  1
  F  F33  1  0.717908  0.627592  0.062084  1
  F  F34  1  0.772227  0.051225  0.466797  1
  F  F35  1  0.952650  0.571574  0.860798  1
