# generated using pymatgen
data_Li2NiP2O7
_symmetry_space_group_name_H-M   'P 1'
_cell_length_a   7.75138510
_cell_length_b   7.75138510
_cell_length_c   7.90129919
_cell_angle_alpha   64.31875067
_cell_angle_beta   115.68124933
_cell_angle_gamma   137.83913873
_symmetry_Int_Tables_number   1
_chemical_formula_structural   Li2NiP2O7
_chemical_formula_sum   'Li4 Ni2 P4 O14'
_cell_volume   282.19970393
_cell_formula_units_Z   2
loop_
 _symmetry_equiv_pos_site_id
 _symmetry_equiv_pos_as_xyz
  1  'x, y, z'
loop_
 _atom_site_type_symbol
 _atom_site_label
 _atom_site_symmetry_multiplicity
 _atom_site_fract_x
 _atom_site_fract_y
 _atom_site_fract_z
 _atom_site_occupancy
  Li  Li0  1  0.935274  0.372058  0.194254  1
  Li  Li1  1  0.372058  0.935274  0.305746  1
  Li  Li2  1  0.627942  0.064726  0.694254  1
  Li  Li3  1  0.064726  0.627942  0.805746  1
  Ni  Ni4  1  0.000000  0.000000  0.500000  1
  Ni  Ni5  1  0.000000  0.000000  0.000000  1
  P  P6  1  0.531306  0.754635  0.142066  1
  P  P7  1  0.245365  0.468694  0.642066  1
  P  P8  1  0.754635  0.531306  0.357934  1
  P  P9  1  0.468694  0.245365  0.857934  1
  O  O10  1  0.706991  0.940348  0.286313  1
  O  O11  1  0.258402  0.648036  0.080170  1
  O  O12  1  0.116606  0.335029  0.471890  1
  O  O13  1  0.059652  0.293009  0.786313  1
  O  O14  1  0.351964  0.741598  0.580170  1
  O  O15  1  0.664971  0.883394  0.971890  1
  O  O16  1  0.335029  0.116606  0.028110  1
  O  O17  1  0.648036  0.258402  0.419830  1
  O  O18  1  0.940348  0.706991  0.213687  1
  O  O19  1  0.883394  0.664971  0.528110  1
  O  O20  1  0.741598  0.351964  0.919830  1
  O  O21  1  0.293009  0.059652  0.713687  1
  O  O22  1  0.503120  0.503120  0.250000  1
  O  O23  1  0.496880  0.496880  0.750000  1
