# generated using pymatgen
data_VOF2
_symmetry_space_group_name_H-M   'P 1'
_cell_length_a   5.15606555
_cell_length_b   5.35489263
_cell_length_c   11.80232991
_cell_angle_alpha   100.37452122
_cell_angle_beta   102.36293475
_cell_angle_gamma   91.67672170
_symmetry_Int_Tables_number   1
_chemical_formula_structural   VOF2
_chemical_formula_sum   'V6 O6 F12'
_cell_volume   312.32329432
_cell_formula_units_Z   6
loop_
 _symmetry_equiv_pos_site_id
 _symmetry_equiv_pos_as_xyz
  1  'x, y, z'
loop_
 _atom_site_type_symbol
 _atom_site_label
 _atom_site_symmetry_multiplicity
 _atom_site_fract_x
 _atom_site_fract_y
 _atom_site_fract_z
 _atom_site_occupancy
  V  V0  1  0.141845  0.199280  0.330154  1
  V  V1  1  0.365894  0.302568  0.661108  1
  V  V2  1  0.500000  0.500000  0.000000  1
  V  V3  1  0.634106  0.697432  0.338892  1
  V  V4  1  0.000000  0.000000  0.000000  1
  V  V5  1  0.858155  0.800720  0.669846  1
  O  O6  1  0.605840  0.113863  0.637417  1
  O  O7  1  0.784371  0.737349  0.021685  1
  O  O8  1  0.955895  0.442059  0.311840  1
  O  O9  1  0.215629  0.262651  0.978315  1
  O  O10  1  0.044105  0.557941  0.688160  1
  O  O11  1  0.394160  0.886137  0.362583  1
  F  F12  1  0.808487  0.923894  0.831470  1
  F  F13  1  0.506743  0.614949  0.625130  1
  F  F14  1  0.512929  0.421369  0.831606  1
  F  F15  1  0.145706  0.223174  0.499332  1
  F  F16  1  0.142285  0.068796  0.712165  1
  F  F17  1  0.258739  0.760842  0.958123  1
  F  F18  1  0.741261  0.239158  0.041877  1
  F  F19  1  0.857715  0.931204  0.287835  1
  F  F20  1  0.854294  0.776826  0.500668  1
  F  F21  1  0.487071  0.578631  0.168394  1
  F  F22  1  0.493257  0.385051  0.374870  1
  F  F23  1  0.191513  0.076106  0.168530  1
