# generated using pymatgen
data_Li4Co3Sn5O16
_symmetry_space_group_name_H-M   'P 1'
_cell_length_a   6.06864875
_cell_length_b   6.08109023
_cell_length_c   9.82617407
_cell_angle_alpha   89.35839102
_cell_angle_beta   88.73690553
_cell_angle_gamma   60.97121861
_symmetry_Int_Tables_number   1
_chemical_formula_structural   Li4Co3Sn5O16
_chemical_formula_sum   'Li4 Co3 Sn5 O16'
_cell_volume   316.99364162
_cell_formula_units_Z   1
loop_
 _symmetry_equiv_pos_site_id
 _symmetry_equiv_pos_as_xyz
  1  'x, y, z'
loop_
 _atom_site_type_symbol
 _atom_site_label
 _atom_site_symmetry_multiplicity
 _atom_site_fract_x
 _atom_site_fract_y
 _atom_site_fract_z
 _atom_site_occupancy
  Li  Li0  1  0.322227  0.333865  0.112604  1
  Li  Li1  1  0.021543  0.017931  0.014182  1
  Li  Li2  1  0.014812  0.007812  0.498788  1
  Li  Li3  1  0.660726  0.667788  0.592135  1
  Co  Co4  1  0.171002  0.170306  0.784159  1
  Co  Co5  1  0.342003  0.827609  0.285562  1
  Co  Co6  1  0.831491  0.336340  0.287111  1
  Sn  Sn7  1  0.168406  0.662591  0.785166  1
  Sn  Sn8  1  0.333399  0.322841  0.499020  1
  Sn  Sn9  1  0.662708  0.169030  0.784508  1
  Sn  Sn10  1  0.833394  0.827287  0.285840  1
  Sn  Sn11  1  0.656709  0.661636  0.019265  1
  O  O12  1  0.168200  0.676692  0.405876  1
  O  O13  1  0.485675  0.482791  0.655248  1
  O  O14  1  0.321876  0.325189  0.894281  1
  O  O15  1  0.012717  0.008860  0.686906  1
  O  O16  1  0.022080  0.989200  0.195054  1
  O  O17  1  0.684078  0.152281  0.411490  1
  O  O18  1  0.037487  0.467057  0.663662  1
  O  O19  1  0.468086  0.035972  0.665929  1
  O  O20  1  0.835251  0.841936  0.905340  1
  O  O21  1  0.176122  0.149994  0.395564  1
  O  O22  1  0.502584  0.966223  0.162235  1
  O  O23  1  0.962558  0.521378  0.149843  1
  O  O24  1  0.647678  0.675354  0.392352  1
  O  O25  1  0.320976  0.848987  0.896724  1
  O  O26  1  0.492307  0.531794  0.163918  1
  O  O27  1  0.843604  0.321556  0.899401  1
