# generated using pymatgen
data_Li4Fe5(CoO6)2
_symmetry_space_group_name_H-M   'P 1'
_cell_length_a   5.22826744
_cell_length_b   8.91639067
_cell_length_c   9.81084937
_cell_angle_alpha   90.00000000
_cell_angle_beta   99.27531243
_cell_angle_gamma   90.00000000
_symmetry_Int_Tables_number   1
_chemical_formula_structural   Li4Fe5(CoO6)2
_chemical_formula_sum   'Li8 Fe10 Co4 O24'
_cell_volume   451.37526339
_cell_formula_units_Z   2
loop_
 _symmetry_equiv_pos_site_id
 _symmetry_equiv_pos_as_xyz
  1  'x, y, z'
loop_
 _atom_site_type_symbol
 _atom_site_label
 _atom_site_symmetry_multiplicity
 _atom_site_fract_x
 _atom_site_fract_y
 _atom_site_fract_z
 _atom_site_occupancy
  Li  Li0  1  0.016640  0.903471  0.253068  1
  Li  Li1  1  0.486950  0.917088  0.742378  1
  Li  Li2  1  0.761031  0.583882  0.496876  1
  Li  Li3  1  0.498102  0.589982  0.743836  1
  Li  Li4  1  0.983360  0.403471  0.746932  1
  Li  Li5  1  0.513050  0.417088  0.257622  1
  Li  Li6  1  0.238969  0.083882  0.503124  1
  Li  Li7  1  0.501898  0.089982  0.256164  1
  Fe  Fe8  1  0.255758  0.918826  0.997377  1
  Fe  Fe9  1  0.750642  0.921667  0.502662  1
  Fe  Fe10  1  0.996914  0.751505  0.743184  1
  Fe  Fe11  1  0.240645  0.578999  0.002985  1
  Fe  Fe12  1  0.510194  0.744371  0.259397  1
  Fe  Fe13  1  0.249358  0.421667  0.497338  1
  Fe  Fe14  1  0.744242  0.418826  0.002623  1
  Fe  Fe15  1  0.003086  0.251505  0.256816  1
  Fe  Fe16  1  0.489806  0.244371  0.740603  1
  Fe  Fe17  1  0.759355  0.078999  0.997015  1
  Co  Co18  1  0.245355  0.747897  0.494463  1
  Co  Co19  1  0.756480  0.746289  0.006834  1
  Co  Co20  1  0.243520  0.246289  0.993166  1
  Co  Co21  1  0.754645  0.247897  0.505537  1
  O  O22  1  0.125717  0.895552  0.610306  1
  O  O23  1  0.893323  0.909444  0.887026  1
  O  O24  1  0.153835  0.753448  0.119792  1
  O  O25  1  0.852132  0.767698  0.373402  1
  O  O26  1  0.381888  0.900848  0.382108  1
  O  O27  1  0.611527  0.916831  0.119502  1
  O  O28  1  0.651318  0.763660  0.634446  1
  O  O29  1  0.136177  0.596843  0.614316  1
  O  O30  1  0.887103  0.581404  0.878841  1
  O  O31  1  0.352470  0.747624  0.876361  1
  O  O32  1  0.385303  0.596995  0.391219  1
  O  O33  1  0.874283  0.395552  0.389694  1
  O  O34  1  0.106677  0.409444  0.112974  1
  O  O35  1  0.596493  0.580476  0.118681  1
  O  O36  1  0.147868  0.267698  0.626598  1
  O  O37  1  0.618112  0.400848  0.617892  1
  O  O38  1  0.388473  0.416831  0.880498  1
  O  O39  1  0.846165  0.253448  0.880208  1
  O  O40  1  0.647530  0.247624  0.123639  1
  O  O41  1  0.348682  0.263660  0.365554  1
  O  O42  1  0.863823  0.096843  0.385684  1
  O  O43  1  0.112897  0.081404  0.121159  1
  O  O44  1  0.614697  0.096995  0.608781  1
  O  O45  1  0.403507  0.080476  0.881319  1
