# generated using pymatgen
data_AsS
_symmetry_space_group_name_H-M   'P 1'
_cell_length_a   6.81350514
_cell_length_b   9.00854649
_cell_length_c   27.19543151
_cell_angle_alpha   81.82811817
_cell_angle_beta   84.20338129
_cell_angle_gamma   78.42099116
_symmetry_Int_Tables_number   1
_chemical_formula_structural   AsS
_chemical_formula_sum   'As24 S24'
_cell_volume   1614.14771049
_cell_formula_units_Z   24
loop_
 _symmetry_equiv_pos_site_id
 _symmetry_equiv_pos_as_xyz
  1  'x, y, z'
loop_
 _atom_site_type_symbol
 _atom_site_label
 _atom_site_symmetry_multiplicity
 _atom_site_fract_x
 _atom_site_fract_y
 _atom_site_fract_z
 _atom_site_occupancy
  As  As0  1  0.872578  0.168404  0.955122  1
  As  As1  1  0.453402  0.190000  0.142907  1
  As  As2  1  0.364685  0.739566  0.171329  1
  As  As3  1  0.838345  0.080776  0.518806  1
  As  As4  1  0.842476  0.389046  0.434911  1
  As  As5  1  0.458812  0.173883  0.680966  1
  As  As6  1  0.022075  0.679020  0.321278  1
  As  As7  1  0.488418  0.217901  0.972479  1
  As  As8  1  0.103493  0.337178  0.847753  1
  As  As9  1  0.084269  0.600973  0.794505  1
  As  As10  1  0.315832  0.659257  0.668715  1
  As  As11  1  0.661766  0.284810  0.376612  1
  As  As12  1  0.880242  0.549955  0.262205  1
  As  As13  1  0.822076  0.865419  0.181526  1
  As  As14  1  0.601592  0.738409  0.966011  1
  As  As15  1  0.156636  0.135773  0.656503  1
  As  As16  1  0.643713  0.744918  0.308043  1
  As  As17  1  0.219384  0.449039  0.559451  1
  As  As18  1  0.272797  0.807600  0.468103  1
  As  As19  1  0.737569  0.813839  0.713321  1
  As  As20  1  0.314013  0.243733  0.057566  1
  As  As21  1  0.385012  0.997546  0.944445  1
  As  As22  1  0.996732  0.688775  0.518641  1
  As  As23  1  0.290029  0.819924  0.020524  1
  S  S24  1  0.783567  0.093648  0.128335  1
  S  S25  1  0.826739  0.723944  0.025348  1
  S  S26  1  0.027707  0.009994  0.446732  1
  S  S27  1  0.064184  0.531999  0.396455  1
  S  S28  1  0.437945  0.960463  0.737724  1
  S  S29  1  0.318177  0.476038  0.737692  1
  S  S30  1  0.108770  0.875600  0.218624  1
  S  S31  1  0.282382  0.031286  0.112244  1
  S  S32  1  0.234723  0.628324  0.123600  1
  S  S33  1  0.442245  0.501916  0.607170  1
  S  S34  1  0.416161  0.883817  0.532502  1
  S  S35  1  0.498419  0.087693  0.505858  1
  S  S36  1  0.538503  0.509843  0.408330  1
  S  S37  1  0.815516  0.384887  0.898708  1
  S  S38  1  0.766586  0.108324  0.839297  1
  S  S39  1  0.982494  0.200942  0.793785  1
  S  S40  1  0.768026  0.606857  0.774249  1
  S  S41  1  0.776894  0.331676  0.295342  1
  S  S42  1  0.617676  0.953317  0.247018  1
  S  S43  1  0.991627  0.354484  0.615457  1
  S  S44  1  0.637461  0.698380  0.653362  1
  S  S45  1  0.919656  0.868068  0.572551  1
  S  S46  1  0.108548  0.670129  0.987524  1
  S  S47  1  0.910948  0.986527  0.899273  1
