# generated using pymatgen
data_Li3Cr(PO4)2
_symmetry_space_group_name_H-M   'P 1'
_cell_length_a   8.42142181
_cell_length_b   8.42142181
_cell_length_c   8.42142181
_cell_angle_alpha   63.67410311
_cell_angle_beta   63.67410311
_cell_angle_gamma   63.67410311
_symmetry_Int_Tables_number   1
_chemical_formula_structural   Li3Cr(PO4)2
_chemical_formula_sum   'Li9 Cr3 P6 O24'
_cell_volume   456.58369385
_cell_formula_units_Z   3
loop_
 _symmetry_equiv_pos_site_id
 _symmetry_equiv_pos_as_xyz
  1  'x, y, z'
loop_
 _atom_site_type_symbol
 _atom_site_label
 _atom_site_symmetry_multiplicity
 _atom_site_fract_x
 _atom_site_fract_y
 _atom_site_fract_z
 _atom_site_occupancy
  Li  Li0  1  0.756458  0.149695  0.346705  1
  Li  Li1  1  0.673835  0.195078  0.857554  1
  Li  Li2  1  0.857554  0.673835  0.195078  1
  Li  Li3  1  0.847693  0.847693  0.847693  1
  Li  Li4  1  0.990522  0.990522  0.990522  1
  Li  Li5  1  0.502405  0.502405  0.502405  1
  Li  Li6  1  0.149695  0.346705  0.756458  1
  Li  Li7  1  0.346705  0.756458  0.149695  1
  Li  Li8  1  0.195078  0.857554  0.673835  1
  Cr  Cr9  1  0.643353  0.643353  0.643353  1
  Cr  Cr10  1  0.142755  0.142755  0.142755  1
  Cr  Cr11  1  0.358163  0.358163  0.358163  1
  P  P12  1  0.953885  0.254695  0.546346  1
  P  P13  1  0.451839  0.050088  0.753433  1
  P  P14  1  0.753433  0.451839  0.050088  1
  P  P15  1  0.254695  0.546346  0.953885  1
  P  P16  1  0.546346  0.953885  0.254695  1
  P  P17  1  0.050088  0.753433  0.451839  1
  O  O18  1  0.948522  0.097004  0.732016  1
  O  O19  1  0.908501  0.255484  0.067339  1
  O  O20  1  0.504724  0.110700  0.328234  1
  O  O21  1  0.382642  0.981078  0.196841  1
  O  O22  1  0.757611  0.406631  0.569948  1
  O  O23  1  0.811168  0.608021  0.028059  1
  O  O24  1  0.885436  0.696278  0.484230  1
  O  O25  1  0.421012  0.245795  0.598224  1
  O  O26  1  0.255484  0.067339  0.908501  1
  O  O27  1  0.028059  0.811168  0.608021  1
  O  O28  1  0.696278  0.484230  0.885436  1
  O  O29  1  0.598224  0.421012  0.245795  1
  O  O30  1  0.406631  0.569948  0.757611  1
  O  O31  1  0.328234  0.504724  0.110700  1
  O  O32  1  0.981078  0.196841  0.382642  1
  O  O33  1  0.569948  0.757611  0.406631  1
  O  O34  1  0.732016  0.948522  0.097004  1
  O  O35  1  0.196841  0.382642  0.981078  1
  O  O36  1  0.110700  0.328234  0.504724  1
  O  O37  1  0.245795  0.598224  0.421012  1
  O  O38  1  0.608021  0.028059  0.811168  1
  O  O39  1  0.484230  0.885436  0.696278  1
  O  O40  1  0.097004  0.732016  0.948522  1
  O  O41  1  0.067339  0.908501  0.255484  1
