# generated using pymatgen
data_Ba4Nb3O12
_symmetry_space_group_name_H-M   'P 1'
_cell_length_a   5.92171931
_cell_length_b   5.92171931
_cell_length_c   19.45891121
_cell_angle_alpha   90.00000000
_cell_angle_beta   90.00000000
_cell_angle_gamma   120.00000000
_symmetry_Int_Tables_number   1
_chemical_formula_structural   Ba4Nb3O12
_chemical_formula_sum   'Ba8 Nb6 O24'
_cell_volume   590.94192764
_cell_formula_units_Z   2
loop_
 _symmetry_equiv_pos_site_id
 _symmetry_equiv_pos_as_xyz
  1  'x, y, z'
loop_
 _atom_site_type_symbol
 _atom_site_label
 _atom_site_symmetry_multiplicity
 _atom_site_fract_x
 _atom_site_fract_y
 _atom_site_fract_z
 _atom_site_occupancy
  Ba  Ba0  1  0.000000  0.000000  0.009838  1
  Ba  Ba1  1  0.000000  0.000000  0.509838  1
  Ba  Ba2  1  0.333333  0.666667  0.145486  1
  Ba  Ba3  1  0.333333  0.666667  0.369306  1
  Ba  Ba4  1  0.333333  0.666667  0.743835  1
  Ba  Ba5  1  0.666667  0.333333  0.243835  1
  Ba  Ba6  1  0.666667  0.333333  0.645486  1
  Ba  Ba7  1  0.666667  0.333333  0.869306  1
  Nb  Nb8  1  0.000000  0.000000  0.303348  1
  Nb  Nb9  1  0.000000  0.000000  0.803348  1
  Nb  Nb10  1  0.333333  0.666667  0.564986  1
  Nb  Nb11  1  0.333333  0.666667  0.936292  1
  Nb  Nb12  1  0.666667  0.333333  0.064986  1
  Nb  Nb13  1  0.666667  0.333333  0.436292  1
  O  O14  1  0.005250  0.502625  0.994388  1
  O  O15  1  0.994750  0.497375  0.494388  1
  O  O16  1  0.163332  0.836668  0.258769  1
  O  O17  1  0.176439  0.823561  0.616149  1
  O  O18  1  0.169829  0.830171  0.877157  1
  O  O19  1  0.163332  0.326664  0.258769  1
  O  O20  1  0.176439  0.352879  0.616149  1
  O  O21  1  0.169829  0.339657  0.877157  1
  O  O22  1  0.673336  0.836668  0.258769  1
  O  O23  1  0.647121  0.823561  0.616149  1
  O  O24  1  0.660343  0.830171  0.877157  1
  O  O25  1  0.497375  0.502625  0.994388  1
  O  O26  1  0.502625  0.497375  0.494388  1
  O  O27  1  0.352879  0.176439  0.116149  1
  O  O28  1  0.339657  0.169829  0.377157  1
  O  O29  1  0.326664  0.163332  0.758769  1
  O  O30  1  0.497375  0.994750  0.994388  1
  O  O31  1  0.502625  0.005250  0.494388  1
  O  O32  1  0.823561  0.647121  0.116149  1
  O  O33  1  0.830171  0.660343  0.377157  1
  O  O34  1  0.836668  0.673336  0.758769  1
  O  O35  1  0.823561  0.176439  0.116149  1
  O  O36  1  0.830171  0.169829  0.377157  1
  O  O37  1  0.836668  0.163332  0.758769  1
