# generated using pymatgen
data_ZrSeO
_symmetry_space_group_name_H-M   'P 1'
_cell_length_a   5.88738203
_cell_length_b   5.88738203
_cell_length_c   5.88738203
_cell_angle_alpha   90.00000000
_cell_angle_beta   90.00000000
_cell_angle_gamma   90.00000000
_symmetry_Int_Tables_number   1
_chemical_formula_structural   ZrSeO
_chemical_formula_sum   'Zr4 Se4 O4'
_cell_volume   204.06412146
_cell_formula_units_Z   4
loop_
 _symmetry_equiv_pos_site_id
 _symmetry_equiv_pos_as_xyz
  1  'x, y, z'
loop_
 _atom_site_type_symbol
 _atom_site_label
 _atom_site_symmetry_multiplicity
 _atom_site_fract_x
 _atom_site_fract_y
 _atom_site_fract_z
 _atom_site_occupancy
  Zr  Zr0  1  0.077999  0.077999  0.077999  1
  Zr  Zr1  1  0.422001  0.922001  0.577999  1
  Zr  Zr2  1  0.577999  0.422001  0.922001  1
  Zr  Zr3  1  0.922001  0.577999  0.422001  1
  Se  Se4  1  0.159000  0.659000  0.841000  1
  Se  Se5  1  0.341000  0.341000  0.341000  1
  Se  Se6  1  0.659000  0.841000  0.159000  1
  Se  Se7  1  0.841000  0.159000  0.659000  1
  O  O8  1  0.151187  0.848813  0.348813  1
  O  O9  1  0.348813  0.151187  0.848813  1
  O  O10  1  0.651187  0.651187  0.651187  1
  O  O11  1  0.848813  0.348813  0.151187  1
