# generated using pymatgen
data_LiMn(PO3)4
_symmetry_space_group_name_H-M   'P 1'
_cell_length_a   7.32682537
_cell_length_b   7.32682537
_cell_length_c   9.88929274
_cell_angle_alpha   66.30960983
_cell_angle_beta   113.69039017
_cell_angle_gamma   112.08402466
_symmetry_Int_Tables_number   1
_chemical_formula_structural   LiMn(PO3)4
_chemical_formula_sum   'Li2 Mn2 P8 O24'
_cell_volume   430.36164611
_cell_formula_units_Z   2
loop_
 _symmetry_equiv_pos_site_id
 _symmetry_equiv_pos_as_xyz
  1  'x, y, z'
loop_
 _atom_site_type_symbol
 _atom_site_label
 _atom_site_symmetry_multiplicity
 _atom_site_fract_x
 _atom_site_fract_y
 _atom_site_fract_z
 _atom_site_occupancy
  Li  Li0  1  0.000000  0.500000  0.000000  1
  Li  Li1  1  0.500000  0.000000  0.500000  1
  Mn  Mn2  1  0.553851  0.553851  0.750000  1
  Mn  Mn3  1  0.446149  0.446149  0.250000  1
  P  P4  1  0.748479  0.770247  0.021330  1
  P  P5  1  0.792344  0.191620  0.801356  1
  P  P6  1  0.191620  0.792344  0.698644  1
  P  P7  1  0.770247  0.748479  0.478670  1
  P  P8  1  0.229753  0.251521  0.521330  1
  P  P9  1  0.808380  0.207656  0.301356  1
  P  P10  1  0.207656  0.808380  0.198644  1
  P  P11  1  0.251521  0.229753  0.978670  1
  O  O12  1  0.765528  0.689275  0.907855  1
  O  O13  1  0.309084  0.850611  0.348957  1
  O  O14  1  0.377115  0.778233  0.677272  1
  O  O15  1  0.963893  0.800923  0.150714  1
  O  O16  1  0.716560  0.996620  0.940683  1
  O  O17  1  0.579817  0.648040  0.096419  1
  O  O18  1  0.996620  0.716560  0.559317  1
  O  O19  1  0.149389  0.690916  0.848957  1
  O  O20  1  0.310725  0.234472  0.407855  1
  O  O21  1  0.648040  0.579817  0.403581  1
  O  O22  1  0.778233  0.377115  0.822728  1
  O  O23  1  0.199077  0.036107  0.650714  1
  O  O24  1  0.800923  0.963893  0.349286  1
  O  O25  1  0.221767  0.622885  0.177272  1
  O  O26  1  0.351960  0.420183  0.596419  1
  O  O27  1  0.689275  0.765528  0.592145  1
  O  O28  1  0.850611  0.309084  0.151043  1
  O  O29  1  0.003380  0.283440  0.440683  1
  O  O30  1  0.420183  0.351960  0.903581  1
  O  O31  1  0.283440  0.003380  0.059317  1
  O  O32  1  0.036107  0.199077  0.849286  1
  O  O33  1  0.622885  0.221767  0.322728  1
  O  O34  1  0.690916  0.149389  0.651043  1
  O  O35  1  0.234472  0.310725  0.092145  1
