# generated using pymatgen
data_Li4Mn5Sn3O16
_symmetry_space_group_name_H-M   'P 1'
_cell_length_a   6.09524219
_cell_length_b   6.09524219
_cell_length_c   9.86586315
_cell_angle_alpha   89.44622317
_cell_angle_beta   90.55377683
_cell_angle_gamma   119.61618802
_symmetry_Int_Tables_number   1
_chemical_formula_structural   Li4Mn5Sn3O16
_chemical_formula_sum   'Li4 Mn5 Sn3 O16'
_cell_volume   318.63038917
_cell_formula_units_Z   1
loop_
 _symmetry_equiv_pos_site_id
 _symmetry_equiv_pos_as_xyz
  1  'x, y, z'
loop_
 _atom_site_type_symbol
 _atom_site_label
 _atom_site_symmetry_multiplicity
 _atom_site_fract_x
 _atom_site_fract_y
 _atom_site_fract_z
 _atom_site_occupancy
  Li  Li0  1  0.322487  0.677513  0.116151  1
  Li  Li1  1  0.018290  0.981710  0.006766  1
  Li  Li2  1  0.014720  0.985280  0.499094  1
  Li  Li3  1  0.660377  0.339623  0.605612  1
  Mn  Mn4  1  0.330352  0.669648  0.503402  1
  Mn  Mn5  1  0.167300  0.832700  0.782463  1
  Mn  Mn6  1  0.659075  0.340925  0.009910  1
  Mn  Mn7  1  0.337308  0.174321  0.284804  1
  Mn  Mn8  1  0.825679  0.662692  0.284804  1
  Sn  Sn9  1  0.165748  0.338961  0.785361  1
  Sn  Sn10  1  0.661039  0.834252  0.785361  1
  Sn  Sn11  1  0.829404  0.170596  0.285787  1
  O  O12  1  0.166461  0.311629  0.398216  1
  O  O13  1  0.480933  0.519067  0.660498  1
  O  O14  1  0.325282  0.674718  0.899500  1
  O  O15  1  0.006131  0.993869  0.681511  1
  O  O16  1  0.007421  0.992579  0.189349  1
  O  O17  1  0.688371  0.833539  0.398216  1
  O  O18  1  0.029780  0.530853  0.665579  1
  O  O19  1  0.469147  0.970220  0.665579  1
  O  O20  1  0.846333  0.153667  0.906848  1
  O  O21  1  0.164082  0.835918  0.388818  1
  O  O22  1  0.504255  0.042851  0.167363  1
  O  O23  1  0.957149  0.495745  0.167363  1
  O  O24  1  0.656113  0.343887  0.393563  1
  O  O25  1  0.318776  0.145802  0.894323  1
  O  O26  1  0.511057  0.488943  0.171912  1
  O  O27  1  0.854198  0.681224  0.894323  1
