# generated using pymatgen
data_Li4TiCo3O8
_symmetry_space_group_name_H-M   'P 1'
_cell_length_a   5.10024480
_cell_length_b   5.56253640
_cell_length_c   6.46087965
_cell_angle_alpha   89.78467293
_cell_angle_beta   89.56704804
_cell_angle_gamma   89.62758246
_symmetry_Int_Tables_number   1
_chemical_formula_structural   Li4TiCo3O8
_chemical_formula_sum   'Li4 Ti1 Co3 O8'
_cell_volume   183.28671077
_cell_formula_units_Z   1
loop_
 _symmetry_equiv_pos_site_id
 _symmetry_equiv_pos_as_xyz
  1  'x, y, z'
loop_
 _atom_site_type_symbol
 _atom_site_label
 _atom_site_symmetry_multiplicity
 _atom_site_fract_x
 _atom_site_fract_y
 _atom_site_fract_z
 _atom_site_occupancy
  Li  Li0  1  0.003581  0.916008  0.621223  1
  Li  Li1  1  0.504830  0.578448  0.125380  1
  Li  Li2  1  0.002254  0.421060  0.875821  1
  Li  Li3  1  0.506871  0.087097  0.374585  1
  Ti  Ti4  1  0.501406  0.080540  0.876627  1
  Co  Co5  1  0.011239  0.911188  0.139224  1
  Co  Co6  1  0.503262  0.581483  0.621931  1
  Co  Co7  1  0.989952  0.426281  0.382573  1
  O  O8  1  0.631420  0.925862  0.108422  1
  O  O9  1  0.607636  0.924126  0.641099  1
  O  O10  1  0.107193  0.593519  0.131646  1
  O  O11  1  0.118623  0.574086  0.611514  1
  O  O12  1  0.632308  0.420620  0.372274  1
  O  O13  1  0.607000  0.393665  0.870521  1
  O  O14  1  0.108797  0.094404  0.359524  1
  O  O15  1  0.137230  0.071611  0.887639  1
