# generated using pymatgen
data_LiMnF4
_symmetry_space_group_name_H-M   'P 1'
_cell_length_a   4.62702401
_cell_length_b   5.11081138
_cell_length_c   11.35929567
_cell_angle_alpha   90.00000000
_cell_angle_beta   90.00000000
_cell_angle_gamma   90.00000000
_symmetry_Int_Tables_number   1
_chemical_formula_structural   LiMnF4
_chemical_formula_sum   'Li4 Mn4 F16'
_cell_volume   268.62288564
_cell_formula_units_Z   4
loop_
 _symmetry_equiv_pos_site_id
 _symmetry_equiv_pos_as_xyz
  1  'x, y, z'
loop_
 _atom_site_type_symbol
 _atom_site_label
 _atom_site_symmetry_multiplicity
 _atom_site_fract_x
 _atom_site_fract_y
 _atom_site_fract_z
 _atom_site_occupancy
  Li  Li0  1  0.000000  0.750000  0.058238  1
  Li  Li1  1  0.000000  0.250000  0.941762  1
  Li  Li2  1  0.500000  0.750000  0.558238  1
  Li  Li3  1  0.500000  0.250000  0.441762  1
  Mn  Mn4  1  0.000000  0.750000  0.322250  1
  Mn  Mn5  1  0.000000  0.250000  0.677750  1
  Mn  Mn6  1  0.500000  0.750000  0.822250  1
  Mn  Mn7  1  0.500000  0.250000  0.177750  1
  F  F8  1  0.780688  0.594014  0.197323  1
  F  F9  1  0.780688  0.094014  0.802677  1
  F  F10  1  0.743211  0.098469  0.064687  1
  F  F11  1  0.743211  0.598469  0.935313  1
  F  F12  1  0.756789  0.098469  0.564687  1
  F  F13  1  0.756789  0.598469  0.435313  1
  F  F14  1  0.719312  0.094014  0.302677  1
  F  F15  1  0.719312  0.594014  0.697323  1
  F  F16  1  0.280688  0.905986  0.697323  1
  F  F17  1  0.280688  0.405986  0.302677  1
  F  F18  1  0.243211  0.901531  0.435313  1
  F  F19  1  0.243211  0.401531  0.564687  1
  F  F20  1  0.256789  0.401531  0.064687  1
  F  F21  1  0.256789  0.901531  0.935313  1
  F  F22  1  0.219312  0.905986  0.197323  1
  F  F23  1  0.219312  0.405986  0.802677  1
