# generated using pymatgen
data_Li3SiBiBO7
_symmetry_space_group_name_H-M   'P 1'
_cell_length_a   5.13550848
_cell_length_b   6.88374069
_cell_length_c   8.86158410
_cell_angle_alpha   90.00000000
_cell_angle_beta   94.22902006
_cell_angle_gamma   90.00000000
_symmetry_Int_Tables_number   1
_chemical_formula_structural   Li3SiBiBO7
_chemical_formula_sum   'Li6 Si2 Bi2 B2 O14'
_cell_volume   312.41741214
_cell_formula_units_Z   2
loop_
 _symmetry_equiv_pos_site_id
 _symmetry_equiv_pos_as_xyz
  1  'x, y, z'
loop_
 _atom_site_type_symbol
 _atom_site_label
 _atom_site_symmetry_multiplicity
 _atom_site_fract_x
 _atom_site_fract_y
 _atom_site_fract_z
 _atom_site_occupancy
  Li  Li0  1  0.255709  0.750000  0.059747  1
  Li  Li1  1  0.752043  0.952241  0.247954  1
  Li  Li2  1  0.752043  0.547759  0.247954  1
  Li  Li3  1  0.247957  0.452241  0.752046  1
  Li  Li4  1  0.247957  0.047759  0.752046  1
  Li  Li5  1  0.744291  0.250000  0.940253  1
  Si  Si6  1  0.267763  0.750000  0.405917  1
  Si  Si7  1  0.732237  0.250000  0.594083  1
  Bi  Bi8  1  0.215255  0.250000  0.334737  1
  Bi  Bi9  1  0.784745  0.750000  0.665263  1
  B  B10  1  0.294834  0.250000  0.037682  1
  B  B11  1  0.705166  0.750000  0.962318  1
  O  O12  1  0.637908  0.750000  0.108337  1
  O  O13  1  0.043623  0.250000  0.085163  1
  O  O14  1  0.501256  0.250000  0.152654  1
  O  O15  1  0.144601  0.931367  0.301590  1
  O  O16  1  0.144601  0.568633  0.301590  1
  O  O17  1  0.591264  0.750000  0.416057  1
  O  O18  1  0.812148  0.250000  0.417888  1
  O  O19  1  0.187852  0.750000  0.582112  1
  O  O20  1  0.408736  0.250000  0.583943  1
  O  O21  1  0.855399  0.431367  0.698410  1
  O  O22  1  0.855399  0.068633  0.698410  1
  O  O23  1  0.498744  0.750000  0.847346  1
  O  O24  1  0.956377  0.750000  0.914837  1
  O  O25  1  0.362092  0.250000  0.891663  1
