# generated using pymatgen
data_FeP2O7
_symmetry_space_group_name_H-M   'P 1'
_cell_length_a   8.34487918
_cell_length_b   5.24319946
_cell_length_c   13.68062139
_cell_angle_alpha   90.00000000
_cell_angle_beta   109.55495432
_cell_angle_gamma   90.00000000
_symmetry_Int_Tables_number   1
_chemical_formula_structural   FeP2O7
_chemical_formula_sum   'Fe4 P8 O28'
_cell_volume   564.05451056
_cell_formula_units_Z   4
loop_
 _symmetry_equiv_pos_site_id
 _symmetry_equiv_pos_as_xyz
  1  'x, y, z'
loop_
 _atom_site_type_symbol
 _atom_site_label
 _atom_site_symmetry_multiplicity
 _atom_site_fract_x
 _atom_site_fract_y
 _atom_site_fract_z
 _atom_site_occupancy
  Fe  Fe0  1  0.232499  0.751428  0.143191  1
  Fe  Fe1  1  0.232499  0.748572  0.643191  1
  Fe  Fe2  1  0.767501  0.251428  0.356809  1
  Fe  Fe3  1  0.767501  0.248572  0.856809  1
  P  P4  1  0.329301  0.229662  0.302732  1
  P  P5  1  0.802454  0.761935  0.519972  1
  P  P6  1  0.197546  0.261935  0.980028  1
  P  P7  1  0.329301  0.270338  0.802732  1
  P  P8  1  0.670699  0.729662  0.197268  1
  P  P9  1  0.802454  0.738065  0.019972  1
  P  P10  1  0.197546  0.238065  0.480028  1
  P  P11  1  0.670699  0.770338  0.697268  1
  O  O12  1  0.668397  0.726829  0.580633  1
  O  O13  1  0.758543  0.028054  0.732981  1
  O  O14  1  0.768622  0.550756  0.764342  1
  O  O15  1  0.020123  0.212395  0.903127  1
  O  O16  1  0.784206  0.037821  0.481224  1
  O  O17  1  0.215794  0.537821  0.018776  1
  O  O18  1  0.979877  0.712395  0.596873  1
  O  O19  1  0.252161  0.070048  0.067706  1
  O  O20  1  0.514837  0.223360  0.310178  1
  O  O21  1  0.231378  0.050756  0.735658  1
  O  O22  1  0.485163  0.723360  0.189822  1
  O  O23  1  0.241457  0.528054  0.767019  1
  O  O24  1  0.331603  0.226829  0.919367  1
  O  O25  1  0.747839  0.570048  0.432294  1
  O  O26  1  0.252161  0.429952  0.567706  1
  O  O27  1  0.668397  0.773171  0.080633  1
  O  O28  1  0.758543  0.471946  0.232981  1
  O  O29  1  0.514837  0.276640  0.810178  1
  O  O30  1  0.768622  0.949244  0.264342  1
  O  O31  1  0.485163  0.776640  0.689822  1
  O  O32  1  0.747839  0.929952  0.932294  1
  O  O33  1  0.020123  0.287605  0.403127  1
  O  O34  1  0.784206  0.462179  0.981224  1
  O  O35  1  0.215794  0.962179  0.518776  1
  O  O36  1  0.979877  0.787605  0.096873  1
  O  O37  1  0.231378  0.449244  0.235658  1
  O  O38  1  0.241457  0.971946  0.267019  1
  O  O39  1  0.331603  0.273171  0.419367  1
