# generated using pymatgen
data_ErTa3O9
_symmetry_space_group_name_H-M   'P 1'
_cell_length_a   6.47126634
_cell_length_b   7.63995056
_cell_length_c   12.61082703
_cell_angle_alpha   90.00000000
_cell_angle_beta   90.00000000
_cell_angle_gamma   90.00000000
_symmetry_Int_Tables_number   1
_chemical_formula_structural   ErTa3O9
_chemical_formula_sum   'Er4 Ta12 O36'
_cell_volume   623.48124176
_cell_formula_units_Z   4
loop_
 _symmetry_equiv_pos_site_id
 _symmetry_equiv_pos_as_xyz
  1  'x, y, z'
loop_
 _atom_site_type_symbol
 _atom_site_label
 _atom_site_symmetry_multiplicity
 _atom_site_fract_x
 _atom_site_fract_y
 _atom_site_fract_z
 _atom_site_occupancy
  Er  Er0  1  0.055210  0.250000  0.461950  1
  Er  Er1  1  0.444790  0.750000  0.961950  1
  Er  Er2  1  0.555210  0.250000  0.038050  1
  Er  Er3  1  0.944790  0.750000  0.538050  1
  Ta  Ta4  1  0.000000  0.000000  0.000000  1
  Ta  Ta5  1  0.000000  0.500000  0.000000  1
  Ta  Ta6  1  0.207489  0.002671  0.713236  1
  Ta  Ta7  1  0.207489  0.497329  0.713236  1
  Ta  Ta8  1  0.292511  0.502671  0.213236  1
  Ta  Ta9  1  0.292511  0.997329  0.213236  1
  Ta  Ta10  1  0.500000  0.000000  0.500000  1
  Ta  Ta11  1  0.500000  0.500000  0.500000  1
  Ta  Ta12  1  0.707489  0.002671  0.786764  1
  Ta  Ta13  1  0.707489  0.497329  0.786764  1
  Ta  Ta14  1  0.792511  0.502671  0.286764  1
  Ta  Ta15  1  0.792511  0.997329  0.286764  1
  O  O16  1  0.017733  0.041291  0.843047  1
  O  O17  1  0.017733  0.458709  0.843047  1
  O  O18  1  0.082663  0.750000  0.975108  1
  O  O19  1  0.100536  0.034935  0.333420  1
  O  O20  1  0.100536  0.465065  0.333420  1
  O  O21  1  0.169954  0.250000  0.671416  1
  O  O22  1  0.204754  0.750000  0.698389  1
  O  O23  1  0.206102  0.537811  0.536940  1
  O  O24  1  0.206102  0.962189  0.536940  1
  O  O25  1  0.293898  0.037811  0.036940  1
  O  O26  1  0.293898  0.462189  0.036940  1
  O  O27  1  0.295246  0.250000  0.198389  1
  O  O28  1  0.330046  0.750000  0.171416  1
  O  O29  1  0.399464  0.534935  0.833420  1
  O  O30  1  0.399464  0.965065  0.833420  1
  O  O31  1  0.417337  0.250000  0.475108  1
  O  O32  1  0.482267  0.541291  0.343047  1
  O  O33  1  0.482267  0.958709  0.343047  1
  O  O34  1  0.517733  0.041291  0.656953  1
  O  O35  1  0.517733  0.458709  0.656953  1
  O  O36  1  0.582663  0.750000  0.524892  1
  O  O37  1  0.600536  0.034935  0.166580  1
  O  O38  1  0.600536  0.465065  0.166580  1
  O  O39  1  0.669954  0.250000  0.828584  1
  O  O40  1  0.704754  0.750000  0.801611  1
  O  O41  1  0.706102  0.537811  0.963060  1
  O  O42  1  0.706102  0.962189  0.963060  1
  O  O43  1  0.793898  0.037811  0.463060  1
  O  O44  1  0.793898  0.462189  0.463060  1
  O  O45  1  0.795246  0.250000  0.301611  1
  O  O46  1  0.830046  0.750000  0.328584  1
  O  O47  1  0.899464  0.534935  0.666580  1
  O  O48  1  0.899464  0.965065  0.666580  1
  O  O49  1  0.917337  0.250000  0.024892  1
  O  O50  1  0.982267  0.541291  0.156953  1
  O  O51  1  0.982267  0.958709  0.156953  1
