# generated using pymatgen
data_Li2Co(NiO3)2
_symmetry_space_group_name_H-M   'P 1'
_cell_length_a   4.84999428
_cell_length_b   4.84999428
_cell_length_c   9.87211731
_cell_angle_alpha   90.00000000
_cell_angle_beta   90.00000000
_cell_angle_gamma   118.49116627
_symmetry_Int_Tables_number   1
_chemical_formula_structural   Li2Co(NiO3)2
_chemical_formula_sum   'Li4 Co2 Ni4 O12'
_cell_volume   204.09276696
_cell_formula_units_Z   2
loop_
 _symmetry_equiv_pos_site_id
 _symmetry_equiv_pos_as_xyz
  1  'x, y, z'
loop_
 _atom_site_type_symbol
 _atom_site_label
 _atom_site_symmetry_multiplicity
 _atom_site_fract_x
 _atom_site_fract_y
 _atom_site_fract_z
 _atom_site_occupancy
  Li  Li0  1  0.146297  0.644911  0.249352  1
  Li  Li1  1  0.355089  0.853703  0.750648  1
  Li  Li2  1  0.646297  0.144911  0.250648  1
  Li  Li3  1  0.855089  0.353703  0.749352  1
  Co  Co4  1  0.997216  0.002784  0.000000  1
  Co  Co5  1  0.497216  0.502784  0.500000  1
  Ni  Ni6  1  0.335356  0.664644  0.000000  1
  Ni  Ni7  1  0.835356  0.164644  0.500000  1
  Ni  Ni8  1  0.164003  0.835997  0.500000  1
  Ni  Ni9  1  0.664003  0.335997  0.000000  1
  O  O10  1  0.170401  0.171080  0.403271  1
  O  O11  1  0.328920  0.329599  0.903271  1
  O  O12  1  0.670401  0.671080  0.096729  1
  O  O13  1  0.970855  0.316816  0.107169  1
  O  O14  1  0.828920  0.829599  0.596729  1
  O  O15  1  0.183184  0.529145  0.607169  1
  O  O16  1  0.470855  0.816816  0.392831  1
  O  O17  1  0.683184  0.029145  0.892831  1
  O  O18  1  0.996992  0.661536  0.899733  1
  O  O19  1  0.338464  0.003008  0.100267  1
  O  O20  1  0.496992  0.161536  0.600267  1
  O  O21  1  0.838464  0.503008  0.399733  1
