# generated using pymatgen
data_LiV(OF)2
_symmetry_space_group_name_H-M   'P 1'
_cell_length_a   5.42495396
_cell_length_b   6.87430077
_cell_length_c   8.94007327
_cell_angle_alpha   90.00000000
_cell_angle_beta   90.00000000
_cell_angle_gamma   90.00000000
_symmetry_Int_Tables_number   1
_chemical_formula_structural   LiV(OF)2
_chemical_formula_sum   'Li4 V4 O8 F8'
_cell_volume   333.40005319
_cell_formula_units_Z   4
loop_
 _symmetry_equiv_pos_site_id
 _symmetry_equiv_pos_as_xyz
  1  'x, y, z'
loop_
 _atom_site_type_symbol
 _atom_site_label
 _atom_site_symmetry_multiplicity
 _atom_site_fract_x
 _atom_site_fract_y
 _atom_site_fract_z
 _atom_site_occupancy
  Li  Li0  1  0.518233  0.371016  0.223886  1
  Li  Li1  1  0.518233  0.871016  0.276114  1
  Li  Li2  1  0.481767  0.371016  0.723886  1
  Li  Li3  1  0.481767  0.871016  0.776114  1
  V  V4  1  0.047562  0.993634  0.056347  1
  V  V5  1  0.952438  0.493634  0.943653  1
  V  V6  1  0.047562  0.493634  0.443653  1
  V  V7  1  0.952438  0.993634  0.556347  1
  O  O8  1  0.030388  0.735910  0.976734  1
  O  O9  1  0.198211  0.986946  0.217332  1
  O  O10  1  0.198211  0.486946  0.282668  1
  O  O11  1  0.030388  0.235910  0.523266  1
  O  O12  1  0.969612  0.735910  0.476734  1
  O  O13  1  0.801789  0.986946  0.717332  1
  O  O14  1  0.801789  0.486946  0.782668  1
  O  O15  1  0.969612  0.235910  0.023266  1
  F  F16  1  0.683414  0.511985  0.076837  1
  F  F17  1  0.722392  0.937109  0.115235  1
  F  F18  1  0.683414  0.011985  0.423163  1
  F  F19  1  0.722392  0.437109  0.384765  1
  F  F20  1  0.316586  0.511985  0.576837  1
  F  F21  1  0.277608  0.937109  0.615235  1
  F  F22  1  0.277608  0.437109  0.884765  1
  F  F23  1  0.316586  0.011985  0.923163  1
