# generated using pymatgen
data_Li5Mn6(BO3)6
_symmetry_space_group_name_H-M   'P 1'
_cell_length_a   5.21694602
_cell_length_b   7.94921269
_cell_length_c   9.70024082
_cell_angle_alpha   104.32918079
_cell_angle_beta   103.60545434
_cell_angle_gamma   88.12662283
_symmetry_Int_Tables_number   1
_chemical_formula_structural   Li5Mn6(BO3)6
_chemical_formula_sum   'Li5 Mn6 B6 O18'
_cell_volume   378.68366064
_cell_formula_units_Z   1
loop_
 _symmetry_equiv_pos_site_id
 _symmetry_equiv_pos_as_xyz
  1  'x, y, z'
loop_
 _atom_site_type_symbol
 _atom_site_label
 _atom_site_symmetry_multiplicity
 _atom_site_fract_x
 _atom_site_fract_y
 _atom_site_fract_z
 _atom_site_occupancy
  Li  Li0  1  0.758038  0.998029  0.688125  1
  Li  Li1  1  0.913054  0.673365  0.646047  1
  Li  Li2  1  0.567933  0.355553  0.987508  1
  Li  Li3  1  0.088800  0.327893  0.351238  1
  Li  Li4  1  0.242107  0.006668  0.314763  1
  Mn  Mn5  1  0.327124  0.916497  0.844066  1
  Mn  Mn6  1  0.347114  0.744418  0.496065  1
  Mn  Mn7  1  0.019535  0.421060  0.831097  1
  Mn  Mn8  1  0.985102  0.592891  0.166771  1
  Mn  Mn9  1  0.651024  0.252542  0.506142  1
  Mn  Mn10  1  0.679391  0.078440  0.164615  1
  B  B11  1  0.864664  0.795354  0.927340  1
  B  B12  1  0.796402  0.866333  0.395443  1
  B  B13  1  0.462932  0.529499  0.728285  1
  B  B14  1  0.540989  0.464457  0.275395  1
  B  B15  1  0.207025  0.138836  0.612283  1
  B  B16  1  0.127492  0.201264  0.060069  1
  O  O17  1  0.001136  0.655134  0.971009  1
  O  O18  1  0.655460  0.857623  0.987076  1
  O  O19  1  0.931025  0.866798  0.823552  1
  O  O20  1  0.027598  0.826764  0.345053  1
  O  O21  1  0.627768  0.987995  0.343632  1
  O  O22  1  0.303004  0.657312  0.678729  1
  O  O23  1  0.746517  0.796219  0.503183  1
  O  O24  1  0.397125  0.438419  0.817582  1
  O  O25  1  0.699702  0.493824  0.681537  1
  O  O26  1  0.305528  0.507462  0.322618  1
  O  O27  1  0.604687  0.534176  0.173493  1
  O  O28  1  0.252277  0.204244  0.500680  1
  O  O29  1  0.703367  0.341141  0.332399  1
  O  O30  1  0.368673  0.014383  0.663822  1
  O  O31  1  0.978293  0.188282  0.666810  1
  O  O32  1  0.076818  0.133524  0.169364  1
  O  O33  1  0.358707  0.157178  0.010775  1
  O  O34  1  0.960361  0.319410  0.001930  1
