# generated using pymatgen
data_NaMnPCO7
_symmetry_space_group_name_H-M   'P 1'
_cell_length_a   8.18021417
_cell_length_b   8.18021417
_cell_length_c   10.30199811
_cell_angle_alpha   72.15870898
_cell_angle_beta   107.84129102
_cell_angle_gamma   79.79093537
_symmetry_Int_Tables_number   1
_chemical_formula_structural   NaMnPCO7
_chemical_formula_sum   'Na4 Mn4 P4 C4 O28'
_cell_volume   596.04253685
_cell_formula_units_Z   4
loop_
 _symmetry_equiv_pos_site_id
 _symmetry_equiv_pos_as_xyz
  1  'x, y, z'
loop_
 _atom_site_type_symbol
 _atom_site_label
 _atom_site_symmetry_multiplicity
 _atom_site_fract_x
 _atom_site_fract_y
 _atom_site_fract_z
 _atom_site_occupancy
  Na  Na0  1  0.761050  0.528928  0.243496  1
  Na  Na1  1  0.471072  0.238950  0.243496  1
  Na  Na2  1  0.508211  0.241515  0.766135  1
  Na  Na3  1  0.758485  0.491789  0.766135  1
  Mn  Mn4  1  0.943959  0.056041  0.345391  1
  Mn  Mn5  1  0.428069  0.571931  0.339097  1
  Mn  Mn6  1  0.562339  0.937232  0.656807  1
  Mn  Mn7  1  0.062768  0.437661  0.656807  1
  P  P8  1  0.200025  0.297704  0.431709  1
  P  P9  1  0.702296  0.799975  0.431709  1
  P  P10  1  0.301353  0.698647  0.571956  1
  P  P11  1  0.795947  0.204053  0.563935  1
  C  C12  1  0.780458  0.219542  0.081406  1
  C  C13  1  0.275512  0.724488  0.072097  1
  C  C14  1  0.729474  0.783509  0.922034  1
  C  C15  1  0.216491  0.270526  0.922034  1
  O  O16  1  0.299645  0.187264  0.055516  1
  O  O17  1  0.812736  0.700355  0.055516  1
  O  O18  1  0.420768  0.579232  0.140303  1
  O  O19  1  0.921012  0.078988  0.142101  1
  O  O20  1  0.736837  0.263163  0.183603  1
  O  O21  1  0.229745  0.770255  0.171307  1
  O  O22  1  0.280862  0.410426  0.331101  1
  O  O23  1  0.082613  0.223011  0.329249  1
  O  O24  1  0.776989  0.917387  0.329249  1
  O  O25  1  0.589574  0.719138  0.331101  1
  O  O26  1  0.153076  0.846924  0.433800  1
  O  O27  1  0.579487  0.924129  0.475074  1
  O  O28  1  0.075871  0.420513  0.475074  1
  O  O29  1  0.649093  0.350907  0.419550  1
  O  O30  1  0.348431  0.150841  0.573243  1
  O  O31  1  0.424915  0.575085  0.526868  1
  O  O32  1  0.918421  0.081579  0.521465  1
  O  O33  1  0.849159  0.651569  0.573243  1
  O  O34  1  0.232478  0.572640  0.674876  1
  O  O35  1  0.427360  0.767522  0.674876  1
  O  O36  1  0.709686  0.098405  0.664020  1
  O  O37  1  0.901595  0.290314  0.664020  1
  O  O38  1  0.770770  0.741203  0.819050  1
  O  O39  1  0.258797  0.229230  0.819050  1
  O  O40  1  0.585333  0.924936  0.858953  1
  O  O41  1  0.075064  0.414667  0.858953  1
  O  O42  1  0.694885  0.305115  0.946152  1
  O  O43  1  0.197285  0.802715  0.938443  1
