# generated using pymatgen
data_Li2Cr2O7
_symmetry_space_group_name_H-M   'P 1'
_cell_length_a   6.10793147
_cell_length_b   7.32158743
_cell_length_c   13.94143144
_cell_angle_alpha   90.00000000
_cell_angle_beta   107.15771955
_cell_angle_gamma   90.00000000
_symmetry_Int_Tables_number   1
_chemical_formula_structural   Li2Cr2O7
_chemical_formula_sum   'Li8 Cr8 O28'
_cell_volume   595.71123665
_cell_formula_units_Z   4
loop_
 _symmetry_equiv_pos_site_id
 _symmetry_equiv_pos_as_xyz
  1  'x, y, z'
loop_
 _atom_site_type_symbol
 _atom_site_label
 _atom_site_symmetry_multiplicity
 _atom_site_fract_x
 _atom_site_fract_y
 _atom_site_fract_z
 _atom_site_occupancy
  Li  Li0  1  0.737860  0.141607  0.908886  1
  Li  Li1  1  0.264181  0.874480  0.833201  1
  Li  Li2  1  0.735819  0.374480  0.666799  1
  Li  Li3  1  0.262140  0.641607  0.591114  1
  Li  Li4  1  0.737860  0.358393  0.408886  1
  Li  Li5  1  0.264181  0.625520  0.333201  1
  Li  Li6  1  0.735819  0.125520  0.166799  1
  Li  Li7  1  0.262140  0.858393  0.091114  1
  Cr  Cr8  1  0.227528  0.352723  0.902348  1
  Cr  Cr9  1  0.803512  0.728754  0.882653  1
  Cr  Cr10  1  0.196488  0.228754  0.617347  1
  Cr  Cr11  1  0.772472  0.852723  0.597652  1
  Cr  Cr12  1  0.227528  0.147277  0.402348  1
  Cr  Cr13  1  0.803512  0.771246  0.382653  1
  Cr  Cr14  1  0.196488  0.271246  0.117347  1
  Cr  Cr15  1  0.772472  0.647277  0.097652  1
  O  O16  1  0.768298  0.572572  0.974103  1
  O  O17  1  0.432852  0.200864  0.919335  1
  O  O18  1  0.056119  0.832660  0.922057  1
  O  O19  1  0.271073  0.524155  0.837420  1
  O  O20  1  0.972321  0.260587  0.852390  1
  O  O21  1  0.602348  0.887291  0.864431  1
  O  O22  1  0.778758  0.614832  0.781442  1
  O  O23  1  0.221242  0.114832  0.718558  1
  O  O24  1  0.027679  0.760587  0.647610  1
  O  O25  1  0.728927  0.024155  0.662580  1
  O  O26  1  0.397652  0.387291  0.635569  1
  O  O27  1  0.943881  0.332660  0.577943  1
  O  O28  1  0.567148  0.700864  0.580665  1
  O  O29  1  0.231702  0.072572  0.525897  1
  O  O30  1  0.768298  0.927428  0.474103  1
  O  O31  1  0.432852  0.299136  0.419335  1
  O  O32  1  0.056119  0.667340  0.422057  1
  O  O33  1  0.602348  0.612709  0.364431  1
  O  O34  1  0.271073  0.975845  0.337420  1
  O  O35  1  0.972321  0.239413  0.352390  1
  O  O36  1  0.778758  0.885168  0.281442  1
  O  O37  1  0.221242  0.385168  0.218558  1
  O  O38  1  0.397652  0.112709  0.135569  1
  O  O39  1  0.027679  0.739413  0.147610  1
  O  O40  1  0.728927  0.475845  0.162580  1
  O  O41  1  0.943881  0.167340  0.077943  1
  O  O42  1  0.567148  0.799136  0.080665  1
  O  O43  1  0.231702  0.427428  0.025897  1
