# generated using pymatgen
data_V6O5F19
_symmetry_space_group_name_H-M   'P 1'
_cell_length_a   5.32856355
_cell_length_b   5.55107096
_cell_length_c   14.72219420
_cell_angle_alpha   100.39211020
_cell_angle_beta   89.70356051
_cell_angle_gamma   92.18668368
_symmetry_Int_Tables_number   1
_chemical_formula_structural   V6O5F19
_chemical_formula_sum   'V6 O5 F19'
_cell_volume   428.01535065
_cell_formula_units_Z   1
loop_
 _symmetry_equiv_pos_site_id
 _symmetry_equiv_pos_as_xyz
  1  'x, y, z'
loop_
 _atom_site_type_symbol
 _atom_site_label
 _atom_site_symmetry_multiplicity
 _atom_site_fract_x
 _atom_site_fract_y
 _atom_site_fract_z
 _atom_site_occupancy
  V  V0  1  0.034035  0.955378  0.995972  1
  V  V1  1  0.517408  0.888147  0.668400  1
  V  V2  1  0.966114  0.718353  0.337434  1
  V  V3  1  0.542702  0.466572  0.003862  1
  V  V4  1  0.970961  0.397227  0.670237  1
  V  V5  1  0.486807  0.180973  0.331773  1
  O  O6  1  0.797621  0.962843  0.357573  1
  O  O7  1  0.792352  0.636224  0.691742  1
  O  O8  1  0.773639  0.302119  0.021780  1
  O  O9  1  0.205506  0.718718  0.977827  1
  O  O10  1  0.708033  0.134381  0.690259  1
  F  F11  1  0.724710  0.785945  0.026833  1
  F  F12  1  0.282894  0.866010  0.309163  1
  F  F13  1  0.902938  0.958298  0.885436  1
  F  F14  1  0.588751  0.763723  0.552192  1
  F  F15  1  0.926722  0.608883  0.217884  1
  F  F16  1  0.416940  0.855113  0.780618  1
  F  F17  1  0.090468  0.692089  0.446321  1
  F  F18  1  0.406204  0.548265  0.114769  1
  F  F19  1  0.702037  0.481770  0.357050  1
  F  F20  1  0.274828  0.527134  0.642686  1
  F  F21  1  0.213086  0.350646  0.308080  1
  F  F22  1  0.564537  0.475493  0.884140  1
  F  F23  1  0.916969  0.268462  0.552678  1
  F  F24  1  0.595662  0.113244  0.216721  1
  F  F25  1  0.077609  0.355389  0.779907  1
  F  F26  1  0.430130  0.198301  0.451070  1
  F  F27  1  0.072439  0.071101  0.115520  1
  F  F28  1  0.287002  0.202658  0.972595  1
  F  F29  1  0.230895  0.016539  0.639479  1
