# generated using pymatgen
data_Li8NbNi3(PO4)6
_symmetry_space_group_name_H-M   'P 1'
_cell_length_a   8.79108376
_cell_length_b   8.79108376
_cell_length_c   8.79108376
_cell_angle_alpha   60.66072068
_cell_angle_beta   60.66072068
_cell_angle_gamma   60.66072068
_symmetry_Int_Tables_number   1
_chemical_formula_structural   Li8NbNi3(PO4)6
_chemical_formula_sum   'Li8 Nb1 Ni3 P6 O24'
_cell_volume   487.57625874
_cell_formula_units_Z   1
loop_
 _symmetry_equiv_pos_site_id
 _symmetry_equiv_pos_as_xyz
  1  'x, y, z'
loop_
 _atom_site_type_symbol
 _atom_site_label
 _atom_site_symmetry_multiplicity
 _atom_site_fract_x
 _atom_site_fract_y
 _atom_site_fract_z
 _atom_site_occupancy
  Li  Li0  1  0.310130  0.833009  0.650739  1
  Li  Li1  1  0.833009  0.650739  0.310130  1
  Li  Li2  1  0.650739  0.310130  0.833009  1
  Li  Li3  1  0.974026  0.974026  0.974026  1
  Li  Li4  1  0.332729  0.697576  0.158492  1
  Li  Li5  1  0.477321  0.477321  0.477321  1
  Li  Li6  1  0.158492  0.332729  0.697576  1
  Li  Li7  1  0.697576  0.158492  0.332729  1
  Nb  Nb8  1  0.146345  0.146345  0.146345  1
  Ni  Ni9  1  0.650527  0.650527  0.650527  1
  Ni  Ni10  1  0.852226  0.852226  0.852226  1
  Ni  Ni11  1  0.347994  0.347994  0.347994  1
  P  P12  1  0.554630  0.953700  0.247913  1
  P  P13  1  0.247913  0.554630  0.953700  1
  P  P14  1  0.953700  0.247913  0.554630  1
  P  P15  1  0.045814  0.746196  0.460003  1
  P  P16  1  0.746196  0.460003  0.045814  1
  P  P17  1  0.460003  0.045814  0.746196  1
  O  O18  1  0.272564  0.533440  0.125182  1
  O  O19  1  0.125182  0.272564  0.533440  1
  O  O20  1  0.533440  0.125182  0.272564  1
  O  O21  1  0.179367  0.399044  0.000809  1
  O  O22  1  0.000809  0.179367  0.399044  1
  O  O23  1  0.751386  0.895032  0.110801  1
  O  O24  1  0.399044  0.000809  0.179367  1
  O  O25  1  0.538530  0.784974  0.428655  1
  O  O26  1  0.110801  0.751386  0.895032  1
  O  O27  1  0.428655  0.538530  0.784974  1
  O  O28  1  0.784974  0.428655  0.538530  1
  O  O29  1  0.010349  0.804000  0.613168  1
  O  O30  1  0.100549  0.893809  0.261279  1
  O  O31  1  0.804000  0.613168  0.010349  1
  O  O32  1  0.895032  0.110801  0.751386  1
  O  O33  1  0.222806  0.570082  0.452853  1
  O  O34  1  0.570082  0.452853  0.222806  1
  O  O35  1  0.893809  0.261279  0.100549  1
  O  O36  1  0.452853  0.222806  0.570082  1
  O  O37  1  0.613168  0.010349  0.804000  1
  O  O38  1  0.261279  0.100549  0.893809  1
  O  O39  1  0.468290  0.880804  0.719940  1
  O  O40  1  0.880804  0.719940  0.468290  1
  O  O41  1  0.719940  0.468290  0.880804  1
