# generated using pymatgen
data_Li2Cr4O13
_symmetry_space_group_name_H-M   'P 1'
_cell_length_a   9.80376792
_cell_length_b   9.80376792
_cell_length_c   8.91970264
_cell_angle_alpha   90.00000000
_cell_angle_beta   90.00000000
_cell_angle_gamma   132.54253659
_symmetry_Int_Tables_number   1
_chemical_formula_structural   Li2Cr4O13
_chemical_formula_sum   'Li4 Cr8 O26'
_cell_volume   631.64292888
_cell_formula_units_Z   2
loop_
 _symmetry_equiv_pos_site_id
 _symmetry_equiv_pos_as_xyz
  1  'x, y, z'
loop_
 _atom_site_type_symbol
 _atom_site_label
 _atom_site_symmetry_multiplicity
 _atom_site_fract_x
 _atom_site_fract_y
 _atom_site_fract_z
 _atom_site_occupancy
  Li  Li0  1  0.589873  0.900008  0.140795  1
  Li  Li1  1  0.099992  0.410127  0.359205  1
  Li  Li2  1  0.900008  0.589873  0.859205  1
  Li  Li3  1  0.410127  0.099992  0.640795  1
  Cr  Cr4  1  0.162287  0.276524  0.721918  1
  Cr  Cr5  1  0.723476  0.837713  0.778082  1
  Cr  Cr6  1  0.076364  0.403362  0.011316  1
  Cr  Cr7  1  0.596638  0.923636  0.488684  1
  Cr  Cr8  1  0.403362  0.076364  0.988684  1
  Cr  Cr9  1  0.923636  0.596638  0.511316  1
  Cr  Cr10  1  0.837713  0.723476  0.221918  1
  Cr  Cr11  1  0.276524  0.162287  0.278082  1
  O  O12  1  0.256542  0.308276  0.316318  1
  O  O13  1  0.691724  0.743458  0.183682  1
  O  O14  1  0.942595  0.057405  0.750000  1
  O  O15  1  0.606537  0.778156  0.611314  1
  O  O16  1  0.221844  0.393463  0.888686  1
  O  O17  1  0.152304  0.378903  0.587142  1
  O  O18  1  0.621097  0.847696  0.912858  1
  O  O19  1  0.903868  0.198241  0.075291  1
  O  O20  1  0.801759  0.096132  0.424709  1
  O  O21  1  0.460347  0.798108  0.348388  1
  O  O22  1  0.201892  0.539653  0.151612  1
  O  O23  1  0.003438  0.483344  0.913489  1
  O  O24  1  0.516656  0.996562  0.586511  1
  O  O25  1  0.483344  0.003438  0.086511  1
  O  O26  1  0.996562  0.516656  0.413489  1
  O  O27  1  0.539653  0.201892  0.848388  1
  O  O28  1  0.798108  0.460347  0.651612  1
  O  O29  1  0.096132  0.801759  0.575291  1
  O  O30  1  0.198241  0.903868  0.924709  1
  O  O31  1  0.847696  0.621097  0.087142  1
  O  O32  1  0.378903  0.152304  0.412858  1
  O  O33  1  0.393463  0.221844  0.111314  1
  O  O34  1  0.778156  0.606537  0.388686  1
  O  O35  1  0.057405  0.942595  0.250000  1
  O  O36  1  0.308276  0.256542  0.683682  1
  O  O37  1  0.743458  0.691724  0.816318  1
