# generated using pymatgen
data_Li5Co5(SnO6)2
_symmetry_space_group_name_H-M   'P 1'
_cell_length_a   5.27154384
_cell_length_b   5.27154384
_cell_length_c   10.05268045
_cell_angle_alpha   84.22104865
_cell_angle_beta   95.77895135
_cell_angle_gamma   59.18689784
_symmetry_Int_Tables_number   1
_chemical_formula_structural   Li5Co5(SnO6)2
_chemical_formula_sum   'Li5 Co5 Sn2 O12'
_cell_volume   234.88262951
_cell_formula_units_Z   1
loop_
 _symmetry_equiv_pos_site_id
 _symmetry_equiv_pos_as_xyz
  1  'x, y, z'
loop_
 _atom_site_type_symbol
 _atom_site_label
 _atom_site_symmetry_multiplicity
 _atom_site_fract_x
 _atom_site_fract_y
 _atom_site_fract_z
 _atom_site_occupancy
  Li  Li0  1  0.317824  0.811979  0.750789  1
  Li  Li1  1  0.187347  0.670065  0.243326  1
  Li  Li2  1  0.811979  0.317824  0.249211  1
  Li  Li3  1  0.670065  0.187347  0.756674  1
  Li  Li4  1  0.085786  0.085786  0.000000  1
  Co  Co5  1  0.915856  0.915856  0.500000  1
  Co  Co6  1  0.496549  0.999514  0.246632  1
  Co  Co7  1  0.999514  0.496549  0.753368  1
  Co  Co8  1  0.582435  0.582435  0.500000  1
  Co  Co9  1  0.418726  0.418726  0.000000  1
  Sn  Sn10  1  0.749242  0.749242  0.000000  1
  Sn  Sn11  1  0.248995  0.248995  0.500000  1
  O  O12  1  0.761771  0.054538  0.116782  1
  O  O13  1  0.054538  0.761771  0.883218  1
  O  O14  1  0.626495  0.871397  0.623598  1
  O  O15  1  0.871397  0.626495  0.376402  1
  O  O16  1  0.472242  0.687093  0.115332  1
  O  O17  1  0.687093  0.472242  0.884668  1
  O  O18  1  0.286584  0.535949  0.618704  1
  O  O19  1  0.535949  0.286584  0.381296  1
  O  O20  1  0.154932  0.383323  0.113536  1
  O  O21  1  0.383323  0.154932  0.886464  1
  O  O22  1  0.968989  0.212370  0.624202  1
  O  O23  1  0.212370  0.968989  0.375798  1
