# generated using pymatgen
data_Mn(CO3)2
_symmetry_space_group_name_H-M   'P 1'
_cell_length_a   5.99198747
_cell_length_b   5.99198747
_cell_length_c   5.99198747
_cell_angle_alpha   45.99477484
_cell_angle_beta   45.99477484
_cell_angle_gamma   45.99477484
_symmetry_Int_Tables_number   1
_chemical_formula_structural   Mn(CO3)2
_chemical_formula_sum   'Mn1 C2 O6'
_cell_volume   101.52060186
_cell_formula_units_Z   1
loop_
 _symmetry_equiv_pos_site_id
 _symmetry_equiv_pos_as_xyz
  1  'x, y, z'
loop_
 _atom_site_type_symbol
 _atom_site_label
 _atom_site_symmetry_multiplicity
 _atom_site_fract_x
 _atom_site_fract_y
 _atom_site_fract_z
 _atom_site_occupancy
  Mn  Mn0  1  0.500000  0.500000  0.500000  1
  C  C1  1  0.765209  0.765209  0.765209  1
  C  C2  1  0.234791  0.234791  0.234791  1
  O  O3  1  0.272066  0.493142  0.945040  1
  O  O4  1  0.054960  0.727934  0.506858  1
  O  O5  1  0.506858  0.054960  0.727934  1
  O  O6  1  0.493142  0.945040  0.272066  1
  O  O7  1  0.945040  0.272066  0.493142  1
  O  O8  1  0.727934  0.506858  0.054960  1
