# generated using pymatgen
data_Mn7(PO4)6
_symmetry_space_group_name_H-M   'P 1'
_cell_length_a   6.30985919
_cell_length_b   8.24325031
_cell_length_c   9.54833638
_cell_angle_alpha   104.41424008
_cell_angle_beta   108.01336468
_cell_angle_gamma   101.00186846
_symmetry_Int_Tables_number   1
_chemical_formula_structural   Mn7(PO4)6
_chemical_formula_sum   'Mn7 P6 O24'
_cell_volume   437.66863829
_cell_formula_units_Z   1
loop_
 _symmetry_equiv_pos_site_id
 _symmetry_equiv_pos_as_xyz
  1  'x, y, z'
loop_
 _atom_site_type_symbol
 _atom_site_label
 _atom_site_symmetry_multiplicity
 _atom_site_fract_x
 _atom_site_fract_y
 _atom_site_fract_z
 _atom_site_occupancy
  Mn  Mn0  1  0.952526  0.275291  0.469133  1
  Mn  Mn1  1  0.731077  0.193888  0.720992  1
  Mn  Mn2  1  0.381538  0.451839  0.114647  1
  Mn  Mn3  1  0.618462  0.548161  0.885353  1
  Mn  Mn4  1  0.268923  0.806112  0.279008  1
  Mn  Mn5  1  0.047474  0.724709  0.530867  1
  Mn  Mn6  1  0.000000  0.000000  0.000000  1
  P  P7  1  0.904033  0.403348  0.167499  1
  P  P8  1  0.769494  0.856720  0.230170  1
  P  P9  1  0.399069  0.231452  0.370880  1
  P  P10  1  0.600931  0.768548  0.629120  1
  P  P11  1  0.230506  0.143280  0.769830  1
  P  P12  1  0.095967  0.596652  0.832501  1
  O  O13  1  0.884897  0.218800  0.080074  1
  O  O14  1  0.929999  0.441552  0.340372  1
  O  O15  1  0.791623  0.048081  0.294711  1
  O  O16  1  0.979863  0.807433  0.335539  1
  O  O17  1  0.780270  0.809990  0.064658  1
  O  O18  1  0.687337  0.461628  0.084711  1
  O  O19  1  0.878656  0.467099  0.837117  1
  O  O20  1  0.639522  0.239317  0.494274  1
  O  O21  1  0.744137  0.721124  0.528549  1
  O  O22  1  0.539101  0.744292  0.227460  1
  O  O23  1  0.445739  0.362470  0.289440  1
  O  O24  1  0.281030  0.044445  0.248056  1
  O  O25  1  0.718970  0.955555  0.751944  1
  O  O26  1  0.554261  0.637530  0.710560  1
  O  O27  1  0.460899  0.255708  0.772540  1
  O  O28  1  0.255863  0.278876  0.471451  1
  O  O29  1  0.360478  0.760683  0.505726  1
  O  O30  1  0.121344  0.532901  0.162883  1
  O  O31  1  0.312663  0.538372  0.915289  1
  O  O32  1  0.219730  0.190010  0.935342  1
  O  O33  1  0.020137  0.192567  0.664461  1
  O  O34  1  0.208377  0.951919  0.705289  1
  O  O35  1  0.070001  0.558448  0.659628  1
  O  O36  1  0.115103  0.781200  0.919926  1
