# generated using pymatgen
data_Al2O3
_symmetry_space_group_name_H-M   'P 1'
_cell_length_a   5.60159707
_cell_length_b   5.63349603
_cell_length_c   9.38272569
_cell_angle_alpha   92.27539368
_cell_angle_beta   99.57888615
_cell_angle_gamma   119.75137146
_symmetry_Int_Tables_number   1
_chemical_formula_structural   Al2O3
_chemical_formula_sum   'Al10 O15'
_cell_volume   250.87550473
_cell_formula_units_Z   5
loop_
 _symmetry_equiv_pos_site_id
 _symmetry_equiv_pos_as_xyz
  1  'x, y, z'
loop_
 _atom_site_type_symbol
 _atom_site_label
 _atom_site_symmetry_multiplicity
 _atom_site_fract_x
 _atom_site_fract_y
 _atom_site_fract_z
 _atom_site_occupancy
  Al  Al0  1  0.586338  0.255048  0.121660  1
  Al  Al1  1  0.921234  0.000717  0.015352  1
  Al  Al2  1  0.926529  0.951705  0.313216  1
  Al  Al3  1  0.470431  0.466695  0.329288  1
  Al  Al4  1  0.754081  0.870221  0.631034  1
  Al  Al5  1  0.335651  0.432830  0.823921  1
  Al  Al6  1  0.394930  0.173475  0.557847  1
  Al  Al7  1  0.026419  0.517645  0.495377  1
  Al  Al8  1  0.845955  0.438574  0.826308  1
  Al  Al9  1  0.331210  0.916240  0.820535  1
  O  O10  1  0.787704  0.100753  0.169559  1
  O  O11  1  0.174939  0.319404  0.429986  1
  O  O12  1  0.255695  0.144865  0.181803  1
  O  O13  1  0.718607  0.601348  0.204351  1
  O  O14  1  0.660254  0.815233  0.434469  1
  O  O15  1  0.138481  0.073456  0.690699  1
  O  O16  1  0.598205  0.526199  0.690627  1
  O  O17  1  0.152900  0.846297  0.438270  1
  O  O18  1  0.655982  0.328713  0.443340  1
  O  O19  1  0.045102  0.794290  0.923800  1
  O  O20  1  0.115619  0.561672  0.696211  1
  O  O21  1  0.600913  0.066679  0.689354  1
  O  O22  1  0.543556  0.279119  0.926515  1
  O  O23  1  0.549481  0.788096  0.914321  1
  O  O24  1  0.049782  0.300722  0.922158  1
