# generated using pymatgen
data_Li8Mn5Fe3(BO3)8
_symmetry_space_group_name_H-M   'P 1'
_cell_length_a   5.23504284
_cell_length_b   6.03604378
_cell_length_c   16.23099884
_cell_angle_alpha   82.07831076
_cell_angle_beta   88.93017150
_cell_angle_gamma   89.23767712
_symmetry_Int_Tables_number   1
_chemical_formula_structural   Li8Mn5Fe3(BO3)8
_chemical_formula_sum   'Li8 Mn5 Fe3 B8 O24'
_cell_volume   507.86985886
_cell_formula_units_Z   1
loop_
 _symmetry_equiv_pos_site_id
 _symmetry_equiv_pos_as_xyz
  1  'x, y, z'
loop_
 _atom_site_type_symbol
 _atom_site_label
 _atom_site_symmetry_multiplicity
 _atom_site_fract_x
 _atom_site_fract_y
 _atom_site_fract_z
 _atom_site_occupancy
  Li  Li0  1  0.847053  0.064330  0.387925  1
  Li  Li1  1  0.152709  0.436361  0.110643  1
  Li  Li2  1  0.654054  0.183213  0.862760  1
  Li  Li3  1  0.346992  0.316168  0.638179  1
  Li  Li4  1  0.652111  0.687046  0.358468  1
  Li  Li5  1  0.345034  0.814250  0.141473  1
  Li  Li6  1  0.847015  0.561635  0.892157  1
  Li  Li7  1  0.152524  0.937757  0.608538  1
  Mn  Mn8  1  0.170073  0.024511  0.789307  1
  Mn  Mn9  1  0.168690  0.522448  0.291103  1
  Mn  Mn10  1  0.829381  0.474802  0.710693  1
  Mn  Mn11  1  0.669091  0.774835  0.539291  1
  Mn  Mn12  1  0.330767  0.724118  0.960239  1
  Fe  Fe13  1  0.666010  0.273734  0.040808  1
  Fe  Fe14  1  0.328787  0.225504  0.460787  1
  Fe  Fe15  1  0.831549  0.977366  0.206567  1
  B  B16  1  0.329103  0.037349  0.296547  1
  B  B17  1  0.829062  0.287172  0.545039  1
  B  B18  1  0.671314  0.463093  0.202357  1
  B  B19  1  0.172615  0.211803  0.955072  1
  B  B20  1  0.828868  0.786094  0.048601  1
  B  B21  1  0.328958  0.532837  0.798159  1
  B  B22  1  0.171610  0.715428  0.452055  1
  B  B23  1  0.670860  0.966622  0.702128  1
  O  O24  1  0.588490  0.011164  0.307947  1
  O  O25  1  0.184830  0.168929  0.345892  1
  O  O26  1  0.709213  0.173462  0.487609  1
  O  O27  1  0.295823  0.324800  0.012042  1
  O  O28  1  0.786046  0.081658  0.760119  1
  O  O29  1  0.819731  0.330022  0.154430  1
  O  O30  1  0.316821  0.079777  0.906260  1
  O  O31  1  0.089300  0.262752  0.557076  1
  O  O32  1  0.411742  0.488872  0.188679  1
  O  O33  1  0.912707  0.237481  0.944276  1
  O  O34  1  0.683425  0.418525  0.593757  1
  O  O35  1  0.213772  0.418251  0.740144  1
  O  O36  1  0.789099  0.574874  0.260161  1
  O  O37  1  0.321681  0.580070  0.406183  1
  O  O38  1  0.088376  0.762067  0.061784  1
  O  O39  1  0.587596  0.509462  0.813139  1
  O  O40  1  0.912572  0.739398  0.437703  1
  O  O41  1  0.681070  0.919270  0.096536  1
  O  O42  1  0.177841  0.667547  0.844263  1
  O  O43  1  0.202645  0.927051  0.239302  1
  O  O44  1  0.711689  0.675383  0.990211  1
  O  O45  1  0.287693  0.829314  0.510091  1
  O  O46  1  0.821493  0.831591  0.656046  1
  O  O47  1  0.412114  0.989808  0.687450  1
