# generated using pymatgen
data_V3O7
_symmetry_space_group_name_H-M   'P 1'
_cell_length_a   10.19667592
_cell_length_b   10.19667592
_cell_length_c   10.19667592
_cell_angle_alpha   91.83957615
_cell_angle_beta   91.83957615
_cell_angle_gamma   159.35740508
_symmetry_Int_Tables_number   1
_chemical_formula_structural   V3O7
_chemical_formula_sum   'V9 O21'
_cell_volume   367.70207519
_cell_formula_units_Z   3
loop_
 _symmetry_equiv_pos_site_id
 _symmetry_equiv_pos_as_xyz
  1  'x, y, z'
loop_
 _atom_site_type_symbol
 _atom_site_label
 _atom_site_symmetry_multiplicity
 _atom_site_fract_x
 _atom_site_fract_y
 _atom_site_fract_z
 _atom_site_occupancy
  V  V0  1  0.183762  0.183762  0.367524  1
  V  V1  1  0.000000  0.000000  0.000000  1
  V  V2  1  1.000000  0.635406  0.635406  1
  V  V3  1  1.000000  0.364594  0.364594  1
  V  V4  1  0.183762  0.816238  0.000000  1
  V  V5  1  0.816238  0.183762  0.000000  1
  V  V6  1  0.816238  0.816238  0.632476  1
  V  V7  1  0.364594  1.000000  0.364594  1
  V  V8  1  0.635406  0.000000  0.635406  1
  O  O9  1  0.099477  0.099477  0.198953  1
  O  O10  1  0.292692  0.292692  0.585384  1
  O  O11  1  0.291096  0.093296  0.384392  1
  O  O12  1  0.500000  0.500000  0.000000  1
  O  O13  1  0.500000  0.093411  0.593411  1
  O  O14  1  0.093411  0.500000  0.593411  1
  O  O15  1  0.093296  0.708904  0.802200  1
  O  O16  1  0.093296  0.291096  0.384392  1
  O  O17  1  0.099477  0.900523  0.000000  1
  O  O18  1  0.708904  0.093296  0.802200  1
  O  O19  1  0.707308  0.292692  0.000000  1
  O  O20  1  0.707308  0.707308  0.414616  1
  O  O21  1  0.292692  0.707308  0.000000  1
  O  O22  1  0.291096  0.906704  0.197800  1
  O  O23  1  0.900523  0.900523  0.801047  1
  O  O24  1  0.900523  0.099477  0.000000  1
  O  O25  1  0.906704  0.291096  0.197800  1
  O  O26  1  0.906704  0.708904  0.615608  1
  O  O27  1  0.906589  0.500000  0.406589  1
  O  O28  1  0.500000  0.906589  0.406589  1
  O  O29  1  0.708904  0.906704  0.615608  1
