# generated using pymatgen
data_K2Li2NiO4
_symmetry_space_group_name_H-M   'P 1'
_cell_length_a   5.57038374
_cell_length_b   8.93794180
_cell_length_c   10.38329641
_cell_angle_alpha   86.78386306
_cell_angle_beta   81.73858143
_cell_angle_gamma   89.33037319
_symmetry_Int_Tables_number   1
_chemical_formula_structural   K2Li2NiO4
_chemical_formula_sum   'K8 Li8 Ni4 O16'
_cell_volume   510.78730287
_cell_formula_units_Z   4
loop_
 _symmetry_equiv_pos_site_id
 _symmetry_equiv_pos_as_xyz
  1  'x, y, z'
loop_
 _atom_site_type_symbol
 _atom_site_label
 _atom_site_symmetry_multiplicity
 _atom_site_fract_x
 _atom_site_fract_y
 _atom_site_fract_z
 _atom_site_occupancy
  K  K0  1  0.379807  0.781150  0.876410  1
  K  K1  1  0.650470  0.463200  0.682730  1
  K  K2  1  0.872377  0.702498  0.382542  1
  K  K3  1  0.795914  0.039027  0.853059  1
  K  K4  1  0.144643  0.996990  0.137609  1
  K  K5  1  0.161192  0.221638  0.625854  1
  K  K6  1  0.352744  0.491724  0.374752  1
  K  K7  1  0.673833  0.299270  0.097065  1
  Li  Li8  1  0.773722  0.972949  0.559510  1
  Li  Li9  1  0.915380  0.756758  0.695447  1
  Li  Li10  1  0.091669  0.242659  0.296117  1
  Li  Li11  1  0.189995  0.999460  0.426513  1
  Li  Li12  1  0.275844  0.516908  0.078857  1
  Li  Li13  1  0.063736  0.533713  0.813883  1
  Li  Li14  1  0.415161  0.753333  0.198235  1
  Li  Li15  1  0.602149  0.977115  0.292856  1
  Ni  Ni16  1  0.199876  0.290585  0.937487  1
  Ni  Ni17  1  0.676039  0.208419  0.430706  1
  Ni  Ni18  1  0.331302  0.778090  0.560539  1
  Ni  Ni19  1  0.825959  0.715033  0.061158  1
  O  O20  1  0.285346  0.106853  0.902733  1
  O  O21  1  0.341428  0.471099  0.897253  1
  O  O22  1  0.648644  0.177890  0.601432  1
  O  O23  1  0.618029  0.782658  0.621375  1
  O  O24  1  0.844221  0.378379  0.398512  1
  O  O25  1  0.880859  0.051051  0.366080  1
  O  O26  1  0.950110  0.325335  0.847503  1
  O  O27  1  0.892138  0.718519  0.884747  1
  O  O28  1  0.175953  0.301264  0.114043  1
  O  O29  1  0.110877  0.700758  0.130166  1
  O  O30  1  0.100226  0.926041  0.609374  1
  O  O31  1  0.163167  0.604514  0.621027  1
  O  O32  1  0.400387  0.174666  0.359169  1
  O  O33  1  0.374978  0.812302  0.377254  1
  O  O34  1  0.600720  0.582238  0.137678  1
  O  O35  1  0.672347  0.894438  0.111669  1
