# generated using pymatgen
data_LiP4WO13
_symmetry_space_group_name_H-M   'P 1'
_cell_length_a   5.24342161
_cell_length_b   8.09168181
_cell_length_c   14.02169654
_cell_angle_alpha   78.79997775
_cell_angle_beta   85.84363188
_cell_angle_gamma   80.10186437
_symmetry_Int_Tables_number   1
_chemical_formula_structural   LiP4WO13
_chemical_formula_sum   'Li2 P8 W2 O26'
_cell_volume   574.42660367
_cell_formula_units_Z   2
loop_
 _symmetry_equiv_pos_site_id
 _symmetry_equiv_pos_as_xyz
  1  'x, y, z'
loop_
 _atom_site_type_symbol
 _atom_site_label
 _atom_site_symmetry_multiplicity
 _atom_site_fract_x
 _atom_site_fract_y
 _atom_site_fract_z
 _atom_site_occupancy
  Li  Li0  1  0.555801  0.460938  0.997595  1
  Li  Li1  1  0.010192  0.609419  0.514042  1
  P  P2  1  0.127142  0.797085  0.128611  1
  P  P3  1  0.997453  0.878970  0.655169  1
  P  P4  1  0.348055  0.581174  0.312926  1
  P  P5  1  0.306936  0.653712  0.803609  1
  P  P6  1  0.673662  0.341254  0.204992  1
  P  P7  1  0.636974  0.427485  0.679177  1
  P  P8  1  0.984569  0.102111  0.350837  1
  P  P9  1  0.865438  0.207314  0.859314  1
  W  W10  1  0.432015  0.049010  0.753807  1
  W  W11  1  0.555765  0.948506  0.240387  1
  O  O12  1  0.162413  0.015920  0.666716  1
  O  O13  1  0.171631  0.637937  0.220319  1
  O  O14  1  0.270890  0.017425  0.329349  1
  O  O15  1  0.192663  0.557744  0.404615  1
  O  O16  1  0.164290  0.739605  0.034754  1
  O  O17  1  0.059086  0.797490  0.569205  1
  O  O18  1  0.031276  0.734805  0.757123  1
  O  O19  1  0.158833  0.129092  0.843871  1
  O  O20  1  0.299146  0.926912  0.145603  1
  O  O21  1  0.300721  0.511822  0.887057  1
  O  O22  1  0.541473  0.197752  0.180956  1
  O  O23  1  0.505878  0.400172  0.297318  1
  O  O24  1  0.455792  0.293225  0.684663  1
  O  O25  1  0.550228  0.702524  0.304372  1
  O  O26  1  0.467752  0.595722  0.709375  1
  O  O27  1  0.430396  0.805208  0.821604  1
  O  O28  1  0.692711  0.482132  0.121368  1
  O  O29  1  0.706547  0.072195  0.840379  1
  O  O30  1  0.840141  0.881386  0.152330  1
  O  O31  1  0.943105  0.254484  0.251858  1
  O  O32  1  0.937819  0.168476  0.441645  1
  O  O33  1  0.800019  0.269570  0.951505  1
  O  O34  1  0.773835  0.478407  0.585652  1
  O  O35  1  0.707176  0.962304  0.665709  1
  O  O36  1  0.834655  0.361909  0.765676  1
  O  O37  1  0.813581  0.969746  0.334958  1
