# generated using pymatgen
data_Fe3CuNi2(PO4)6
_symmetry_space_group_name_H-M   'P 1'
_cell_length_a   8.48152096
_cell_length_b   8.48152096
_cell_length_c   8.48152096
_cell_angle_alpha   60.96258117
_cell_angle_beta   60.96258117
_cell_angle_gamma   60.96258117
_symmetry_Int_Tables_number   1
_chemical_formula_structural   Fe3CuNi2(PO4)6
_chemical_formula_sum   'Fe3 Cu1 Ni2 P6 O24'
_cell_volume   440.78245869
_cell_formula_units_Z   1
loop_
 _symmetry_equiv_pos_site_id
 _symmetry_equiv_pos_as_xyz
  1  'x, y, z'
loop_
 _atom_site_type_symbol
 _atom_site_label
 _atom_site_symmetry_multiplicity
 _atom_site_fract_x
 _atom_site_fract_y
 _atom_site_fract_z
 _atom_site_occupancy
  Fe  Fe0  1  0.856321  0.856321  0.856321  1
  Fe  Fe1  1  0.644796  0.644796  0.644796  1
  Fe  Fe2  1  0.356366  0.356366  0.356366  1
  Cu  Cu3  1  0.144266  0.144266  0.144266  1
  Ni  Ni4  1  0.000415  0.000415  0.000415  1
  Ni  Ni5  1  0.500072  0.500072  0.500072  1
  P  P6  1  0.955381  0.249657  0.543985  1
  P  P7  1  0.543985  0.955381  0.249657  1
  P  P8  1  0.249657  0.543985  0.955381  1
  P  P9  1  0.751229  0.454234  0.047663  1
  P  P10  1  0.454234  0.047663  0.751229  1
  P  P11  1  0.047663  0.751229  0.454234  1
  O  O12  1  0.890917  0.682907  0.494274  1
  O  O13  1  0.682907  0.494274  0.890917  1
  O  O14  1  0.940791  0.091544  0.743893  1
  O  O15  1  0.494274  0.890917  0.682907  1
  O  O16  1  0.983582  0.186403  0.388335  1
  O  O17  1  0.754662  0.407925  0.563031  1
  O  O18  1  0.743893  0.940791  0.091544  1
  O  O19  1  0.563031  0.754662  0.407925  1
  O  O20  1  0.818146  0.611043  0.006736  1
  O  O21  1  0.407925  0.563031  0.754662  1
  O  O22  1  0.911087  0.255590  0.055840  1
  O  O23  1  0.611043  0.006736  0.818146  1
  O  O24  1  0.388335  0.983582  0.186403  1
  O  O25  1  0.091544  0.743893  0.940791  1
  O  O26  1  0.592885  0.438195  0.246192  1
  O  O27  1  0.186403  0.388335  0.983582  1
  O  O28  1  0.438195  0.246192  0.592885  1
  O  O29  1  0.255590  0.055840  0.911087  1
  O  O30  1  0.246192  0.592885  0.438195  1
  O  O31  1  0.006736  0.818146  0.611043  1
  O  O32  1  0.502781  0.111920  0.316931  1
  O  O33  1  0.055840  0.911087  0.255590  1
  O  O34  1  0.316931  0.502781  0.111920  1
  O  O35  1  0.111920  0.316931  0.502781  1
