# generated using pymatgen
data_LiMn2F7
_symmetry_space_group_name_H-M   'P 1'
_cell_length_a   5.61339660
_cell_length_b   6.74272007
_cell_length_c   8.39520087
_cell_angle_alpha   109.59156397
_cell_angle_beta   101.04856793
_cell_angle_gamma   86.46565536
_symmetry_Int_Tables_number   1
_chemical_formula_structural   LiMn2F7
_chemical_formula_sum   'Li2 Mn4 F14'
_cell_volume   293.80908749
_cell_formula_units_Z   2
loop_
 _symmetry_equiv_pos_site_id
 _symmetry_equiv_pos_as_xyz
  1  'x, y, z'
loop_
 _atom_site_type_symbol
 _atom_site_label
 _atom_site_symmetry_multiplicity
 _atom_site_fract_x
 _atom_site_fract_y
 _atom_site_fract_z
 _atom_site_occupancy
  Li  Li0  1  0.128374  0.019681  0.754372  1
  Li  Li1  1  0.871626  0.980319  0.245628  1
  Mn  Mn2  1  0.719491  0.718232  0.818499  1
  Mn  Mn3  1  0.206471  0.477733  0.671762  1
  Mn  Mn4  1  0.793529  0.522267  0.328238  1
  Mn  Mn5  1  0.280509  0.281768  0.181501  1
  F  F6  1  0.332232  0.176253  0.960214  1
  F  F7  1  0.069604  0.587074  0.869959  1
  F  F8  1  0.841906  0.964945  0.822042  1
  F  F9  1  0.566099  0.456091  0.776548  1
  F  F10  1  0.103265  0.209365  0.627318  1
  F  F11  1  0.315708  0.751197  0.696854  1
  F  F12  1  0.797929  0.592586  0.577975  1
  F  F13  1  0.202071  0.407414  0.422025  1
  F  F14  1  0.684292  0.248803  0.303146  1
  F  F15  1  0.896735  0.790635  0.372682  1
  F  F16  1  0.433901  0.543909  0.223452  1
  F  F17  1  0.158094  0.035055  0.177958  1
  F  F18  1  0.930396  0.412926  0.130041  1
  F  F19  1  0.667768  0.823747  0.039786  1
