# generated using pymatgen
data_Cu2W2O7
_symmetry_space_group_name_H-M   'P 1'
_cell_length_a   6.29419740
_cell_length_b   6.89682429
_cell_length_c   7.15349682
_cell_angle_alpha   103.00761410
_cell_angle_beta   90.55467676
_cell_angle_gamma   101.44017523
_symmetry_Int_Tables_number   1
_chemical_formula_structural   Cu2W2O7
_chemical_formula_sum   'Cu4 W4 O14'
_cell_volume   296.07342134
_cell_formula_units_Z   2
loop_
 _symmetry_equiv_pos_site_id
 _symmetry_equiv_pos_as_xyz
  1  'x, y, z'
loop_
 _atom_site_type_symbol
 _atom_site_label
 _atom_site_symmetry_multiplicity
 _atom_site_fract_x
 _atom_site_fract_y
 _atom_site_fract_z
 _atom_site_occupancy
  Cu  Cu0  1  0.716758  0.247425  0.710743  1
  Cu  Cu1  1  0.706127  0.720833  0.078768  1
  Cu  Cu2  1  0.293873  0.279167  0.921232  1
  Cu  Cu3  1  0.283242  0.752575  0.289257  1
  W  W4  1  0.723358  0.276961  0.209663  1
  W  W5  1  0.721456  0.705215  0.561159  1
  W  W6  1  0.278544  0.294785  0.438841  1
  W  W7  1  0.276642  0.723039  0.790337  1
  O  O8  1  0.987429  0.673498  0.664108  1
  O  O9  1  0.799438  0.295943  0.971508  1
  O  O10  1  0.666432  0.008136  0.189585  1
  O  O11  1  0.772304  0.611173  0.294752  1
  O  O12  1  0.771084  0.970135  0.581555  1
  O  O13  1  0.610240  0.354468  0.503541  1
  O  O14  1  0.590775  0.702319  0.817807  1
  O  O15  1  0.409225  0.297681  0.182193  1
  O  O16  1  0.389760  0.645532  0.496459  1
  O  O17  1  0.228916  0.029865  0.418445  1
  O  O18  1  0.227696  0.388827  0.705248  1
  O  O19  1  0.333568  0.991864  0.810415  1
  O  O20  1  0.200562  0.704057  0.028492  1
  O  O21  1  0.012571  0.326502  0.335892  1
