# generated using pymatgen
data_NaCa2V3Zn2O12
_symmetry_space_group_name_H-M   'P 1'
_cell_length_a   10.90971178
_cell_length_b   10.90971178
_cell_length_c   10.90971178
_cell_angle_alpha   109.47980517
_cell_angle_beta   109.47980517
_cell_angle_gamma   109.45405292
_symmetry_Int_Tables_number   1
_chemical_formula_structural   NaCa2V3Zn2O12
_chemical_formula_sum   'Na4 Ca8 V12 Zn8 O48'
_cell_volume   999.58081324
_cell_formula_units_Z   4
loop_
 _symmetry_equiv_pos_site_id
 _symmetry_equiv_pos_as_xyz
  1  'x, y, z'
loop_
 _atom_site_type_symbol
 _atom_site_label
 _atom_site_symmetry_multiplicity
 _atom_site_fract_x
 _atom_site_fract_y
 _atom_site_fract_z
 _atom_site_occupancy
  Na  Na0  1  0.250000  0.250000  0.000000  1
  Na  Na1  1  1.000000  0.500000  0.500000  1
  Na  Na2  1  0.750000  0.750000  0.000000  1
  Na  Na3  1  0.500000  0.000000  0.500000  1
  Ca  Ca4  1  0.625000  0.251767  0.126767  1
  Ca  Ca5  1  0.501767  0.375000  0.626767  1
  Ca  Ca6  1  0.625000  0.751767  0.626767  1
  Ca  Ca7  1  0.001767  0.375000  0.126767  1
  Ca  Ca8  1  0.125000  0.498233  0.873233  1
  Ca  Ca9  1  0.748233  0.875000  0.373233  1
  Ca  Ca10  1  0.125000  0.998233  0.373233  1
  Ca  Ca11  1  0.248233  0.875000  0.873233  1
  V  V12  1  0.750000  0.250000  0.500000  1
  V  V13  1  0.125000  0.249553  0.624553  1
  V  V14  1  0.250447  0.375000  0.375447  1
  V  V15  1  0.625000  0.500447  0.375447  1
  V  V16  1  0.750447  0.375000  0.875447  1
  V  V17  1  0.500000  0.500000  0.000000  1
  V  V18  1  0.250000  0.750000  0.500000  1
  V  V19  1  0.125000  0.749553  0.124553  1
  V  V20  1  0.499553  0.875000  0.124553  1
  V  V21  1  0.999553  0.875000  0.624553  1
  V  V22  1  0.625000  0.000447  0.875447  1
  V  V23  1  0.000000  0.000000  0.000000  1
  Zn  Zn24  1  0.375000  0.125000  0.250000  1
  Zn  Zn25  1  0.375000  0.125000  0.750000  1
  Zn  Zn26  1  0.875000  0.125000  0.250000  1
  Zn  Zn27  1  0.875000  0.125000  0.750000  1
  Zn  Zn28  1  0.375000  0.625000  0.250000  1
  Zn  Zn29  1  0.375000  0.625000  0.750000  1
  Zn  Zn30  1  0.875000  0.625000  0.250000  1
  Zn  Zn31  1  0.875000  0.625000  0.750000  1
  O  O32  1  0.568913  0.230927  0.737975  1
  O  O33  1  0.771910  0.142720  0.058593  1
  O  O34  1  0.779775  0.238678  0.349243  1
  O  O35  1  0.569467  0.220225  0.458902  1
  O  O36  1  0.271910  0.213317  0.629190  1
  O  O37  1  0.286683  0.228090  0.370810  1
  O  O38  1  0.480927  0.318913  0.237975  1
  O  O39  1  0.665873  0.536683  0.558593  1
  O  O40  1  0.769073  0.507048  0.337986  1
  O  O41  1  0.786683  0.415873  0.058593  1
  O  O42  1  0.169062  0.431087  0.662014  1
  O  O43  1  0.988678  0.139435  0.958902  1
  O  O44  1  0.470225  0.319467  0.958902  1
  O  O45  1  0.068913  0.330938  0.337986  1
  O  O46  1  0.392720  0.521910  0.558593  1
  O  O47  1  0.257048  0.419062  0.237975  1
  O  O48  1  0.889435  0.430533  0.650757  1
  O  O49  1  0.080938  0.242952  0.762025  1
  O  O50  1  0.757048  0.519073  0.837986  1
  O  O51  1  0.584127  0.642720  0.370810  1
  O  O52  1  0.680533  0.639435  0.150757  1
  O  O53  1  0.360565  0.511322  0.041098  1
  O  O54  1  0.261322  0.720225  0.650757  1
  O  O55  1  0.892720  0.334127  0.870810  1
  O  O56  1  0.857280  0.915873  0.629190  1
  O  O57  1  0.488678  0.529775  0.849243  1
  O  O58  1  0.389435  0.738678  0.458902  1
  O  O59  1  0.069467  0.610565  0.349243  1
  O  O60  1  0.165873  0.607280  0.129190  1
  O  O61  1  0.992952  0.730927  0.662014  1
  O  O62  1  0.669062  0.007048  0.737975  1
  O  O63  1  0.860565  0.819467  0.849243  1
  O  O64  1  0.492952  0.830938  0.262025  1
  O  O65  1  0.357280  0.728090  0.941407  1
  O  O66  1  0.681087  0.919062  0.162014  1
  O  O67  1  0.279775  0.930533  0.541098  1
  O  O68  1  0.761322  0.110565  0.541098  1
  O  O69  1  0.580938  0.818913  0.837986  1
  O  O70  1  0.963317  0.834127  0.441407  1
  O  O71  1  0.980927  0.742952  0.162014  1
  O  O72  1  0.084127  0.713317  0.941407  1
  O  O73  1  0.269073  0.931087  0.262025  1
  O  O74  1  0.463317  0.021910  0.129190  1
  O  O75  1  0.478090  0.036683  0.870810  1
  O  O76  1  0.180533  0.029775  0.041098  1
  O  O77  1  0.970225  0.011322  0.150757  1
  O  O78  1  0.978090  0.107280  0.441407  1
  O  O79  1  0.181087  0.019073  0.762025  1
