# generated using pymatgen
data_Dy2WO6
_symmetry_space_group_name_H-M   'P 1'
_cell_length_a   9.89402100
_cell_length_b   9.89402100
_cell_length_c   5.40824739
_cell_angle_alpha   75.81729221
_cell_angle_beta   104.18270779
_cell_angle_gamma   111.59277281
_symmetry_Int_Tables_number   1
_chemical_formula_structural   Dy2WO6
_chemical_formula_sum   'Dy8 W4 O24'
_cell_volume   470.17072286
_cell_formula_units_Z   4
loop_
 _symmetry_equiv_pos_site_id
 _symmetry_equiv_pos_as_xyz
  1  'x, y, z'
loop_
 _atom_site_type_symbol
 _atom_site_label
 _atom_site_symmetry_multiplicity
 _atom_site_fract_x
 _atom_site_fract_y
 _atom_site_fract_z
 _atom_site_occupancy
  Dy  Dy0  1  0.944033  0.284988  0.617202  1
  Dy  Dy1  1  0.715012  0.055967  0.117202  1
  Dy  Dy2  1  0.366038  0.366038  0.750000  1
  Dy  Dy3  1  0.894568  0.894568  0.750000  1
  Dy  Dy4  1  0.105432  0.105432  0.250000  1
  Dy  Dy5  1  0.633962  0.633962  0.250000  1
  Dy  Dy6  1  0.284988  0.944033  0.882798  1
  Dy  Dy7  1  0.055967  0.715012  0.382798  1
  W  W8  1  0.800359  0.494174  0.933597  1
  W  W9  1  0.505826  0.199641  0.433597  1
  W  W10  1  0.494174  0.800359  0.566403  1
  W  W11  1  0.199641  0.505826  0.066403  1
  O  O12  1  0.892624  0.075479  0.921818  1
  O  O13  1  0.924521  0.107376  0.421818  1
  O  O14  1  0.526569  0.060852  0.738642  1
  O  O15  1  0.784304  0.316369  0.852856  1
  O  O16  1  0.939148  0.473431  0.238642  1
  O  O17  1  0.683631  0.215696  0.352856  1
  O  O18  1  0.823958  0.620224  0.614867  1
  O  O19  1  0.379776  0.176042  0.114867  1
  O  O20  1  0.611328  0.455450  0.979669  1
  O  O21  1  0.312071  0.159723  0.578975  1
  O  O22  1  0.544550  0.388672  0.479669  1
  O  O23  1  0.840277  0.687929  0.078975  1
  O  O24  1  0.159723  0.312071  0.921025  1
  O  O25  1  0.455450  0.611328  0.520331  1
  O  O26  1  0.687929  0.840277  0.421025  1
  O  O27  1  0.388672  0.544550  0.020331  1
  O  O28  1  0.620224  0.823958  0.885133  1
  O  O29  1  0.176042  0.379776  0.385133  1
  O  O30  1  0.316369  0.784304  0.647144  1
  O  O31  1  0.060852  0.526569  0.761358  1
  O  O32  1  0.215696  0.683631  0.147144  1
  O  O33  1  0.473431  0.939148  0.261358  1
  O  O34  1  0.075479  0.892624  0.578182  1
  O  O35  1  0.107376  0.924521  0.078182  1
