# generated using pymatgen
data_LiFeF4
_symmetry_space_group_name_H-M   'P 1'
_cell_length_a   8.61416537
_cell_length_b   8.67545539
_cell_length_c   8.81932014
_cell_angle_alpha   90.00000000
_cell_angle_beta   90.00000000
_cell_angle_gamma   90.00000000
_symmetry_Int_Tables_number   1
_chemical_formula_structural   LiFeF4
_chemical_formula_sum   'Li8 Fe8 F32'
_cell_volume   659.08373401
_cell_formula_units_Z   8
loop_
 _symmetry_equiv_pos_site_id
 _symmetry_equiv_pos_as_xyz
  1  'x, y, z'
loop_
 _atom_site_type_symbol
 _atom_site_label
 _atom_site_symmetry_multiplicity
 _atom_site_fract_x
 _atom_site_fract_y
 _atom_site_fract_z
 _atom_site_occupancy
  Li  Li0  1  0.716925  0.807097  0.969690  1
  Li  Li1  1  0.716925  0.807097  0.530310  1
  Li  Li2  1  0.783075  0.307097  0.030310  1
  Li  Li3  1  0.783075  0.307097  0.469690  1
  Li  Li4  1  0.216925  0.692903  0.969690  1
  Li  Li5  1  0.216925  0.692903  0.530310  1
  Li  Li6  1  0.283075  0.192903  0.469690  1
  Li  Li7  1  0.283075  0.192903  0.030310  1
  Fe  Fe8  1  0.062769  0.385244  0.750000  1
  Fe  Fe9  1  0.887493  0.005556  0.750000  1
  Fe  Fe10  1  0.612507  0.505556  0.250000  1
  Fe  Fe11  1  0.437231  0.885244  0.250000  1
  Fe  Fe12  1  0.562769  0.114756  0.750000  1
  Fe  Fe13  1  0.387493  0.494444  0.750000  1
  Fe  Fe14  1  0.112507  0.994444  0.250000  1
  Fe  Fe15  1  0.937231  0.614756  0.250000  1
  F  F16  1  0.074161  0.130884  0.090443  1
  F  F17  1  0.074161  0.130884  0.409557  1
  F  F18  1  0.921578  0.408549  0.905172  1
  F  F19  1  0.921578  0.408549  0.594828  1
  F  F20  1  0.945311  0.847410  0.250000  1
  F  F21  1  0.839309  0.397420  0.250000  1
  F  F22  1  0.750953  0.134044  0.606688  1
  F  F23  1  0.750953  0.134044  0.893312  1
  F  F24  1  0.749047  0.634044  0.106688  1
  F  F25  1  0.749047  0.634044  0.393312  1
  F  F26  1  0.660691  0.897420  0.750000  1
  F  F27  1  0.554689  0.347410  0.750000  1
  F  F28  1  0.578422  0.908549  0.094828  1
  F  F29  1  0.578422  0.908549  0.405172  1
  F  F30  1  0.425839  0.630884  0.909557  1
  F  F31  1  0.425839  0.630884  0.590443  1
  F  F32  1  0.574161  0.369116  0.090443  1
  F  F33  1  0.574161  0.369116  0.409557  1
  F  F34  1  0.421578  0.091451  0.594828  1
  F  F35  1  0.421578  0.091451  0.905172  1
  F  F36  1  0.445311  0.652590  0.250000  1
  F  F37  1  0.339309  0.102580  0.250000  1
  F  F38  1  0.250953  0.365956  0.606688  1
  F  F39  1  0.250953  0.365956  0.893312  1
  F  F40  1  0.249047  0.865956  0.106688  1
  F  F41  1  0.249047  0.865956  0.393312  1
  F  F42  1  0.160691  0.602580  0.750000  1
  F  F43  1  0.054689  0.152590  0.750000  1
  F  F44  1  0.078422  0.591451  0.094828  1
  F  F45  1  0.078422  0.591451  0.405172  1
  F  F46  1  0.925839  0.869116  0.590443  1
  F  F47  1  0.925839  0.869116  0.909557  1
