# generated using pymatgen
data_BaTi8O16
_symmetry_space_group_name_H-M   'P 1'
_cell_length_a   10.47242212
_cell_length_b   10.47242212
_cell_length_c   14.32088778
_cell_angle_alpha   48.75949023
_cell_angle_beta   131.24050977
_cell_angle_gamma   146.94919443
_symmetry_Int_Tables_number   1
_chemical_formula_structural   BaTi8O16
_chemical_formula_sum   'Ba2 Ti16 O32'
_cell_volume   621.93043911
_cell_formula_units_Z   2
loop_
 _symmetry_equiv_pos_site_id
 _symmetry_equiv_pos_as_xyz
  1  'x, y, z'
loop_
 _atom_site_type_symbol
 _atom_site_label
 _atom_site_symmetry_multiplicity
 _atom_site_fract_x
 _atom_site_fract_y
 _atom_site_fract_z
 _atom_site_occupancy
  Ba  Ba0  1  0.980654  0.980654  0.500000  1
  Ba  Ba1  1  0.729337  0.729337  0.000000  1
  Ti  Ti2  1  0.159248  0.338043  0.670592  1
  Ti  Ti3  1  0.658573  0.844018  0.659425  1
  Ti  Ti4  1  0.589818  0.411740  0.828083  1
  Ti  Ti5  1  0.091482  0.906307  0.841597  1
  Ti  Ti6  1  0.018167  0.484239  0.855766  1
  Ti  Ti7  1  0.505705  0.992678  0.850413  1
  Ti  Ti8  1  0.265905  0.732320  0.355297  1
  Ti  Ti9  1  0.758176  0.244234  0.350945  1
  Ti  Ti10  1  0.244234  0.758176  0.649055  1
  Ti  Ti11  1  0.732320  0.265905  0.644703  1
  Ti  Ti12  1  0.484239  0.018167  0.144234  1
  Ti  Ti13  1  0.992678  0.505705  0.149587  1
  Ti  Ti14  1  0.906307  0.091482  0.158403  1
  Ti  Ti15  1  0.411740  0.589818  0.171917  1
  Ti  Ti16  1  0.338043  0.159248  0.329408  1
  Ti  Ti17  1  0.844018  0.658573  0.340575  1
  O  O18  1  0.475360  0.531935  0.793160  1
  O  O19  1  0.967242  0.022083  0.795715  1
  O  O20  1  0.397077  0.113733  0.958871  1
  O  O21  1  0.884389  0.607380  0.960308  1
  O  O22  1  0.864942  0.141757  0.539658  1
  O  O23  1  0.354036  0.637211  0.541096  1
  O  O24  1  0.781892  0.726780  0.704153  1
  O  O25  1  0.274063  0.217492  0.707210  1
  O  O26  1  0.700174  0.311042  0.848399  1
  O  O27  1  0.187412  0.803856  0.843797  1
  O  O28  1  0.439624  0.050901  0.347991  1
  O  O29  1  0.946981  0.562961  0.344055  1
  O  O30  1  0.817451  0.175136  0.840026  1
  O  O31  1  0.328358  0.681126  0.841106  1
  O  O32  1  0.575851  0.932444  0.340396  1
  O  O33  1  0.068292  0.421571  0.340825  1
  O  O34  1  0.932444  0.575851  0.659604  1
  O  O35  1  0.421571  0.068292  0.659175  1
  O  O36  1  0.681126  0.328358  0.158894  1
  O  O37  1  0.175136  0.817451  0.159974  1
  O  O38  1  0.050901  0.439624  0.652009  1
  O  O39  1  0.562961  0.946981  0.655945  1
  O  O40  1  0.803856  0.187412  0.156203  1
  O  O41  1  0.311042  0.700174  0.151601  1
  O  O42  1  0.217492  0.274063  0.292790  1
  O  O43  1  0.726780  0.781892  0.295847  1
  O  O44  1  0.141757  0.864942  0.460342  1
  O  O45  1  0.637211  0.354036  0.458904  1
  O  O46  1  0.607380  0.884389  0.039692  1
  O  O47  1  0.113733  0.397077  0.041129  1
  O  O48  1  0.022083  0.967242  0.204285  1
  O  O49  1  0.531935  0.475360  0.206840  1
