# generated using pymatgen
data_LiCr(PO3)4
_symmetry_space_group_name_H-M   'P 1'
_cell_length_a   7.19376340
_cell_length_b   7.19376340
_cell_length_c   10.01932873
_cell_angle_alpha   66.49173492
_cell_angle_beta   113.50826508
_cell_angle_gamma   109.83413471
_symmetry_Int_Tables_number   1
_chemical_formula_structural   LiCr(PO3)4
_chemical_formula_sum   'Li2 Cr2 P8 O24'
_cell_volume   425.87751252
_cell_formula_units_Z   2
loop_
 _symmetry_equiv_pos_site_id
 _symmetry_equiv_pos_as_xyz
  1  'x, y, z'
loop_
 _atom_site_type_symbol
 _atom_site_label
 _atom_site_symmetry_multiplicity
 _atom_site_fract_x
 _atom_site_fract_y
 _atom_site_fract_z
 _atom_site_occupancy
  Li  Li0  1  0.000000  0.500000  0.000000  1
  Li  Li1  1  0.500000  0.000000  0.500000  1
  Cr  Cr2  1  0.553485  0.553485  0.750000  1
  Cr  Cr3  1  0.446515  0.446515  0.250000  1
  P  P4  1  0.747814  0.766353  0.022024  1
  P  P5  1  0.786790  0.188457  0.801980  1
  P  P6  1  0.188457  0.786790  0.698020  1
  P  P7  1  0.766353  0.747814  0.477976  1
  P  P8  1  0.233647  0.252186  0.522024  1
  P  P9  1  0.811543  0.213210  0.301980  1
  P  P10  1  0.213210  0.811543  0.198020  1
  P  P11  1  0.252186  0.233647  0.977976  1
  O  O12  1  0.770467  0.688524  0.910322  1
  O  O13  1  0.312599  0.847288  0.347625  1
  O  O14  1  0.381804  0.763022  0.683158  1
  O  O15  1  0.965278  0.793279  0.152208  1
  O  O16  1  0.712919  0.999178  0.940357  1
  O  O17  1  0.581462  0.647822  0.095844  1
  O  O18  1  0.999178  0.712919  0.559643  1
  O  O19  1  0.152712  0.687401  0.847625  1
  O  O20  1  0.311476  0.229533  0.410322  1
  O  O21  1  0.647822  0.581462  0.404156  1
  O  O22  1  0.763022  0.381804  0.816842  1
  O  O23  1  0.206721  0.034722  0.652208  1
  O  O24  1  0.793279  0.965278  0.347792  1
  O  O25  1  0.236978  0.618196  0.183158  1
  O  O26  1  0.352178  0.418538  0.595844  1
  O  O27  1  0.688524  0.770467  0.589678  1
  O  O28  1  0.847288  0.312599  0.152375  1
  O  O29  1  0.000822  0.287081  0.440357  1
  O  O30  1  0.418538  0.352178  0.904156  1
  O  O31  1  0.287081  0.000822  0.059643  1
  O  O32  1  0.034722  0.206721  0.847792  1
  O  O33  1  0.618196  0.236978  0.316842  1
  O  O34  1  0.687401  0.152712  0.652375  1
  O  O35  1  0.229533  0.311476  0.089678  1
