# generated using pymatgen
data_Li4Y3VO8
_symmetry_space_group_name_H-M   'P 1'
_cell_length_a   5.94055246
_cell_length_b   5.94055246
_cell_length_c   6.17795863
_cell_angle_alpha   90.00000000
_cell_angle_beta   90.00000000
_cell_angle_gamma   117.46328384
_symmetry_Int_Tables_number   1
_chemical_formula_structural   Li4Y3VO8
_chemical_formula_sum   'Li4 Y3 V1 O8'
_cell_volume   193.45161205
_cell_formula_units_Z   1
loop_
 _symmetry_equiv_pos_site_id
 _symmetry_equiv_pos_as_xyz
  1  'x, y, z'
loop_
 _atom_site_type_symbol
 _atom_site_label
 _atom_site_symmetry_multiplicity
 _atom_site_fract_x
 _atom_site_fract_y
 _atom_site_fract_z
 _atom_site_occupancy
  Li  Li0  1  0.000000  0.500000  0.749572  1
  Li  Li1  1  0.000000  0.000000  0.500000  1
  Li  Li2  1  0.500000  0.000000  0.250428  1
  Li  Li3  1  0.500000  0.500000  0.000000  1
  Y  Y4  1  0.500000  0.500000  0.500000  1
  Y  Y5  1  0.500000  0.000000  0.756694  1
  Y  Y6  1  1.000000  0.500000  0.243306  1
  V  V7  1  0.000000  0.000000  0.000000  1
  O  O8  1  0.256422  0.223305  0.760535  1
  O  O9  1  0.721939  0.278061  0.500000  1
  O  O10  1  0.743578  0.776695  0.760535  1
  O  O11  1  0.776695  0.743578  0.239465  1
  O  O12  1  0.211487  0.788513  1.000000  1
  O  O13  1  0.278061  0.721939  0.500000  1
  O  O14  1  0.223305  0.256422  0.239465  1
  O  O15  1  0.788513  0.211487  0.000000  1
