# generated using pymatgen
data_EuSeO4
_symmetry_space_group_name_H-M   'P 1'
_cell_length_a   5.39576245
_cell_length_b   5.39576245
_cell_length_c   7.99607214
_cell_angle_alpha   90.00000000
_cell_angle_beta   90.00000000
_cell_angle_gamma   113.63187097
_symmetry_Int_Tables_number   1
_chemical_formula_structural   EuSeO4
_chemical_formula_sum   'Eu2 Se2 O8'
_cell_volume   213.27705797
_cell_formula_units_Z   2
loop_
 _symmetry_equiv_pos_site_id
 _symmetry_equiv_pos_as_xyz
  1  'x, y, z'
loop_
 _atom_site_type_symbol
 _atom_site_label
 _atom_site_symmetry_multiplicity
 _atom_site_fract_x
 _atom_site_fract_y
 _atom_site_fract_z
 _atom_site_occupancy
  Eu  Eu0  1  0.000000  0.000000  0.000000  1
  Eu  Eu1  1  0.000000  0.000000  0.500000  1
  Se  Se2  1  0.637054  0.362946  0.250000  1
  Se  Se3  1  0.362946  0.637054  0.750000  1
  O  O4  1  0.230301  0.289157  0.750000  1
  O  O5  1  0.289157  0.230301  0.250000  1
  O  O6  1  0.737420  0.262580  0.072920  1
  O  O7  1  0.737420  0.262580  0.427080  1
  O  O8  1  0.262580  0.737420  0.572920  1
  O  O9  1  0.262580  0.737420  0.927080  1
  O  O10  1  0.769699  0.710843  0.250000  1
  O  O11  1  0.710843  0.769699  0.750000  1
