# generated using pymatgen
data_Na2Mn2O3
_symmetry_space_group_name_H-M   'P 1'
_cell_length_a   5.93851458
_cell_length_b   6.34398373
_cell_length_c   6.19043533
_cell_angle_alpha   90.00000000
_cell_angle_beta   116.36509300
_cell_angle_gamma   90.00000000
_symmetry_Int_Tables_number   1
_chemical_formula_structural   Na2Mn2O3
_chemical_formula_sum   'Na4 Mn4 O6'
_cell_volume   208.95876738
_cell_formula_units_Z   2
loop_
 _symmetry_equiv_pos_site_id
 _symmetry_equiv_pos_as_xyz
  1  'x, y, z'
loop_
 _atom_site_type_symbol
 _atom_site_label
 _atom_site_symmetry_multiplicity
 _atom_site_fract_x
 _atom_site_fract_y
 _atom_site_fract_z
 _atom_site_occupancy
  Na  Na0  1  0.074535  0.351182  0.785313  1
  Na  Na1  1  0.574535  0.148818  0.785313  1
  Na  Na2  1  0.425465  0.851182  0.214687  1
  Na  Na3  1  0.925465  0.648818  0.214687  1
  Mn  Mn4  1  0.455697  0.627842  0.683047  1
  Mn  Mn5  1  0.044303  0.127842  0.316953  1
  Mn  Mn6  1  0.955697  0.872158  0.683047  1
  Mn  Mn7  1  0.544303  0.372158  0.316953  1
  O  O8  1  0.500000  0.500000  0.000000  1
  O  O9  1  0.000000  0.000000  0.000000  1
  O  O10  1  0.252195  0.901945  0.584385  1
  O  O11  1  0.247805  0.401945  0.415615  1
  O  O12  1  0.752195  0.598055  0.584385  1
  O  O13  1  0.747805  0.098055  0.415615  1
