# generated using pymatgen
data_Li12V3FeP4(CO7)4
_symmetry_space_group_name_H-M   'P 1'
_cell_length_a   8.48456478
_cell_length_b   6.59927160
_cell_length_c   10.01196121
_cell_angle_alpha   90.00000000
_cell_angle_beta   95.11703698
_cell_angle_gamma   90.00000000
_symmetry_Int_Tables_number   1
_chemical_formula_structural   Li12V3FeP4(CO7)4
_chemical_formula_sum   'Li12 V3 Fe1 P4 C4 O28'
_cell_volume   558.35502632
_cell_formula_units_Z   1
loop_
 _symmetry_equiv_pos_site_id
 _symmetry_equiv_pos_as_xyz
  1  'x, y, z'
loop_
 _atom_site_type_symbol
 _atom_site_label
 _atom_site_symmetry_multiplicity
 _atom_site_fract_x
 _atom_site_fract_y
 _atom_site_fract_z
 _atom_site_occupancy
  Li  Li0  1  0.905854  0.000000  0.380779  1
  Li  Li1  1  0.906957  0.000000  0.880543  1
  Li  Li2  1  0.722898  0.221919  0.123518  1
  Li  Li3  1  0.722898  0.778081  0.123518  1
  Li  Li4  1  0.723810  0.221186  0.623256  1
  Li  Li5  1  0.723810  0.778814  0.623256  1
  Li  Li6  1  0.276591  0.724982  0.376342  1
  Li  Li7  1  0.276591  0.275018  0.376342  1
  Li  Li8  1  0.276303  0.723450  0.876651  1
  Li  Li9  1  0.276303  0.276550  0.876651  1
  Li  Li10  1  0.093505  0.500000  0.118955  1
  Li  Li11  1  0.091801  0.500000  0.619326  1
  V  V12  1  0.670016  0.500000  0.396281  1
  V  V13  1  0.670112  0.500000  0.896697  1
  V  V14  1  0.330124  0.000000  0.103630  1
  Fe  Fe15  1  0.334569  0.000000  0.605268  1
  P  P16  1  0.588678  0.000000  0.359707  1
  P  P17  1  0.588991  0.000000  0.860015  1
  P  P18  1  0.410796  0.500000  0.140338  1
  P  P19  1  0.411071  0.500000  0.640411  1
  C  C20  1  0.965802  0.500000  0.350065  1
  C  C21  1  0.965617  0.500000  0.849988  1
  C  C22  1  0.034348  0.000000  0.149869  1
  C  C23  1  0.034510  0.000000  0.649008  1
  O  O24  1  0.925770  0.500000  0.472478  1
  O  O25  1  0.887939  0.000000  0.176993  1
  O  O26  1  0.925909  0.500000  0.972552  1
  O  O27  1  0.852386  0.500000  0.253073  1
  O  O28  1  0.887880  0.000000  0.678169  1
  O  O29  1  0.852149  0.500000  0.753146  1
  O  O30  1  0.691537  0.183015  0.413472  1
  O  O31  1  0.691537  0.816985  0.413472  1
  O  O32  1  0.691735  0.183120  0.913458  1
  O  O33  1  0.691735  0.816880  0.913458  1
  O  O34  1  0.578318  0.500000  0.090660  1
  O  O35  1  0.571188  0.000000  0.202759  1
  O  O36  1  0.578230  0.500000  0.590270  1
  O  O37  1  0.570740  0.000000  0.703320  1
  O  O38  1  0.429238  0.500000  0.296919  1
  O  O39  1  0.421273  0.000000  0.408691  1
  O  O40  1  0.429037  0.500000  0.797084  1
  O  O41  1  0.421829  0.000000  0.910032  1
  O  O42  1  0.308044  0.317093  0.086495  1
  O  O43  1  0.308044  0.682907  0.086495  1
  O  O44  1  0.309502  0.685331  0.587365  1
  O  O45  1  0.309502  0.314669  0.587365  1
  O  O46  1  0.147642  0.000000  0.246654  1
  O  O47  1  0.112114  0.500000  0.323063  1
  O  O48  1  0.147996  0.000000  0.745785  1
  O  O49  1  0.074045  0.000000  0.027304  1
  O  O50  1  0.111845  0.500000  0.822786  1
  O  O51  1  0.070885  0.000000  0.526269  1
