# generated using pymatgen
data_Li32Mn5Cr11O48
_symmetry_space_group_name_H-M   'P 1'
_cell_length_a   5.02216805
_cell_length_b   5.02216805
_cell_length_c   38.48053640
_cell_angle_alpha   88.94805286
_cell_angle_beta   91.05194714
_cell_angle_gamma   60.23714866
_symmetry_Int_Tables_number   1
_chemical_formula_structural   Li32Mn5Cr11O48
_chemical_formula_sum   'Li32 Mn5 Cr11 O48'
_cell_volume   841.96925239
_cell_formula_units_Z   1
loop_
 _symmetry_equiv_pos_site_id
 _symmetry_equiv_pos_as_xyz
  1  'x, y, z'
loop_
 _atom_site_type_symbol
 _atom_site_label
 _atom_site_symmetry_multiplicity
 _atom_site_fract_x
 _atom_site_fract_y
 _atom_site_fract_z
 _atom_site_occupancy
  Li  Li0  1  0.913319  0.533438  0.062579  1
  Li  Li1  1  0.001259  0.125243  0.312315  1
  Li  Li2  1  0.940190  0.188307  0.125028  1
  Li  Li3  1  0.878531  0.250793  0.937450  1
  Li  Li4  1  0.810299  0.312432  0.750074  1
  Li  Li5  1  0.749523  0.370612  0.562297  1
  Li  Li6  1  0.687711  0.437366  0.375025  1
  Li  Li7  1  0.966029  0.833087  0.187588  1
  Li  Li8  1  0.627231  0.503527  0.187527  1
  Li  Li9  1  0.833087  0.966029  0.812412  1
  Li  Li10  1  0.718503  0.087322  0.437734  1
  Li  Li11  1  0.561996  0.561996  0.000000  1
  Li  Li12  1  0.503527  0.627231  0.812473  1
  Li  Li13  1  0.586772  0.212681  0.062469  1
  Li  Li14  1  0.468696  0.336324  0.687774  1
  Li  Li15  1  0.782691  0.662229  0.687549  1
  Li  Li16  1  0.662229  0.782691  0.312451  1
  Li  Li17  1  0.336324  0.468696  0.312226  1
  Li  Li18  1  0.212681  0.586772  0.937531  1
  Li  Li19  1  0.533438  0.913319  0.937421  1
  Li  Li20  1  0.411960  0.036761  0.562354  1
  Li  Li21  1  0.437366  0.687711  0.624975  1
  Li  Li22  1  0.281646  0.164520  0.187451  1
  Li  Li23  1  0.164520  0.281646  0.812549  1
  Li  Li24  1  0.370612  0.749523  0.437703  1
  Li  Li25  1  0.036761  0.411960  0.437646  1
  Li  Li26  1  0.312432  0.810299  0.249926  1
  Li  Li27  1  0.250793  0.878531  0.062550  1
  Li  Li28  1  0.188307  0.940190  0.874972  1
  Li  Li29  1  0.125243  0.001259  0.687685  1
  Li  Li30  1  0.060701  0.060701  0.500000  1
  Li  Li31  1  0.087322  0.718503  0.562266  1
  Mn  Mn32  1  0.979602  0.479018  0.250019  1
  Mn  Mn33  1  0.855445  0.605123  0.875093  1
  Mn  Mn34  1  0.394700  0.394700  0.500000  1
  Mn  Mn35  1  0.605123  0.855445  0.124907  1
  Mn  Mn36  1  0.479018  0.979602  0.749981  1
  Cr  Cr37  1  0.896408  0.896408  0.000000  1
  Cr  Cr38  1  0.766646  0.016855  0.625046  1
  Cr  Cr39  1  0.643775  0.140855  0.249964  1
  Cr  Cr40  1  0.521494  0.274637  0.875061  1
  Cr  Cr41  1  0.726890  0.726890  0.500000  1
  Cr  Cr42  1  0.274637  0.521494  0.124939  1
  Cr  Cr43  1  0.358683  0.108318  0.375031  1
  Cr  Cr44  1  0.228216  0.228216  0.000000  1
  Cr  Cr45  1  0.108318  0.358683  0.624969  1
  Cr  Cr46  1  0.140855  0.643775  0.750036  1
  Cr  Cr47  1  0.016855  0.766646  0.374954  1
  O  O48  1  0.917806  0.563115  0.971979  1
  O  O49  1  0.941701  0.538159  0.153048  1
  O  O50  1  0.928334  0.196121  0.028816  1
  O  O51  1  0.806041  0.319017  0.653480  1
  O  O52  1  0.942077  0.181758  0.221620  1
  O  O53  1  0.823435  0.305531  0.846404  1
  O  O54  1  0.694530  0.427810  0.471495  1
  O  O55  1  0.680143  0.446604  0.278549  1
  O  O56  1  0.555909  0.570452  0.903573  1
  O  O57  1  0.931275  0.832887  0.097083  1
  O  O58  1  0.570452  0.555909  0.096427  1
  O  O59  1  0.799301  0.967231  0.721884  1
  O  O60  1  0.667727  0.092850  0.346602  1
  O  O61  1  0.967231  0.799301  0.278116  1
  O  O62  1  0.832887  0.931275  0.902917  1
  O  O63  1  0.711942  0.059057  0.528125  1
  O  O64  1  0.782006  0.707724  0.596573  1
  O  O65  1  0.821027  0.663637  0.777877  1
  O  O66  1  0.707724  0.782006  0.403427  1
  O  O67  1  0.561591  0.207018  0.971873  1
  O  O68  1  0.417896  0.343600  0.596684  1
  O  O69  1  0.581622  0.182132  0.152862  1
  O  O70  1  0.467963  0.297763  0.778232  1
  O  O71  1  0.343600  0.417896  0.403316  1
  O  O72  1  0.663637  0.821027  0.222123  1
  O  O73  1  0.538159  0.941701  0.846952  1
  O  O74  1  0.417853  0.067862  0.472165  1
  O  O75  1  0.563115  0.917806  0.028021  1
  O  O76  1  0.456985  0.031954  0.653329  1
  O  O77  1  0.297763  0.467963  0.221768  1
  O  O78  1  0.182132  0.581622  0.847138  1
  O  O79  1  0.207018  0.561591  0.028127  1
  O  O80  1  0.287951  0.190759  0.096736  1
  O  O81  1  0.165301  0.322520  0.722094  1
  O  O82  1  0.031954  0.456985  0.346671  1
  O  O83  1  0.322520  0.165301  0.277906  1
  O  O84  1  0.190759  0.287951  0.903264  1
  O  O85  1  0.427810  0.694530  0.528505  1
  O  O86  1  0.067862  0.417853  0.527835  1
  O  O87  1  0.446604  0.680143  0.721451  1
  O  O88  1  0.319017  0.806041  0.346520  1
  O  O89  1  0.305531  0.823435  0.153596  1
  O  O90  1  0.181758  0.942077  0.778380  1
  O  O91  1  0.055836  0.069726  0.403495  1
  O  O92  1  0.196121  0.928334  0.971184  1
  O  O93  1  0.069726  0.055836  0.596505  1
  O  O94  1  0.059057  0.711942  0.471875  1
  O  O95  1  0.092850  0.667727  0.653398  1
