# generated using pymatgen
data_Li3V3CrO8
_symmetry_space_group_name_H-M   'P 1'
_cell_length_a   6.50566799
_cell_length_b   6.50566799
_cell_length_c   6.51353707
_cell_angle_alpha   74.12534346
_cell_angle_beta   105.87465654
_cell_angle_gamma   143.29940262
_symmetry_Int_Tables_number   1
_chemical_formula_structural   Li3V3CrO8
_chemical_formula_sum   'Li3 V3 Cr1 O8'
_cell_volume   157.76397950
_cell_formula_units_Z   1
loop_
 _symmetry_equiv_pos_site_id
 _symmetry_equiv_pos_as_xyz
  1  'x, y, z'
loop_
 _atom_site_type_symbol
 _atom_site_label
 _atom_site_symmetry_multiplicity
 _atom_site_fract_x
 _atom_site_fract_y
 _atom_site_fract_z
 _atom_site_occupancy
  Li  Li0  1  0.056562  0.943438  0.362828  1
  Li  Li1  1  0.179680  0.820320  0.006878  1
  Li  Li2  1  0.937253  0.062747  0.637249  1
  V  V3  1  0.605389  0.394611  0.704327  1
  V  V4  1  0.290107  0.709893  0.696384  1
  V  V5  1  0.393738  0.606262  0.288078  1
  Cr  Cr6  1  0.717101  0.282899  0.316511  1
  O  O7  1  0.651458  0.348542  0.991495  1
  O  O8  1  0.564191  0.435809  0.369997  1
  O  O9  1  0.115953  0.884047  0.691162  1
  O  O10  1  0.764537  0.235463  0.643255  1
  O  O11  1  0.230311  0.769689  0.336178  1
  O  O12  1  0.879666  0.120334  0.321182  1
  O  O13  1  0.444757  0.555243  0.634569  1
  O  O14  1  0.340539  0.659461  0.992245  1
