# generated using pymatgen
data_LiV2OF5
_symmetry_space_group_name_H-M   'P 1'
_cell_length_a   4.58979573
_cell_length_b   8.72186684
_cell_length_c   8.73687421
_cell_angle_alpha   60.08726465
_cell_angle_beta   89.03711653
_cell_angle_gamma   88.23447786
_symmetry_Int_Tables_number   1
_chemical_formula_structural   LiV2OF5
_chemical_formula_sum   'Li3 V6 O3 F15'
_cell_volume   303.01485973
_cell_formula_units_Z   3
loop_
 _symmetry_equiv_pos_site_id
 _symmetry_equiv_pos_as_xyz
  1  'x, y, z'
loop_
 _atom_site_type_symbol
 _atom_site_label
 _atom_site_symmetry_multiplicity
 _atom_site_fract_x
 _atom_site_fract_y
 _atom_site_fract_z
 _atom_site_occupancy
  Li  Li0  1  0.510545  0.334574  0.331257  1
  Li  Li1  1  0.995526  0.002612  0.996858  1
  Li  Li2  1  0.497088  0.664702  0.664597  1
  V  V3  1  0.987293  0.352335  0.008570  1
  V  V4  1  0.513162  0.668202  0.004939  1
  V  V5  1  0.986455  0.661914  0.353077  1
  V  V6  1  0.511137  0.987382  0.326863  1
  V  V7  1  0.513111  0.304764  0.688298  1
  V  V8  1  0.987961  0.005849  0.659988  1
  O  O9  1  0.744720  0.462387  0.097981  1
  O  O10  1  0.732960  0.778658  0.431340  1
  O  O11  1  0.764813  0.110944  0.764415  1
  F  F12  1  0.759205  0.119619  0.108061  1
  F  F13  1  0.266986  0.223194  0.213394  1
  F  F14  1  0.746795  0.107309  0.433985  1
  F  F15  1  0.773908  0.772015  0.118612  1
  F  F16  1  0.264053  0.564473  0.226534  1
  F  F17  1  0.265665  0.212579  0.556850  1
  F  F18  1  0.233996  0.886327  0.222622  1
  F  F19  1  0.733752  0.437449  0.459318  1
  F  F20  1  0.256462  0.539282  0.562562  1
  F  F21  1  0.252578  0.895189  0.545286  1
  F  F22  1  0.234109  0.230849  0.890427  1
  F  F23  1  0.742190  0.436410  0.787957  1
  F  F24  1  0.730577  0.786749  0.771801  1
  F  F25  1  0.255791  0.566932  0.889320  1
  F  F26  1  0.239161  0.887301  0.884986  1
