# generated using pymatgen
data_Li4NbCu3O8
_symmetry_space_group_name_H-M   'P 1'
_cell_length_a   6.15726637
_cell_length_b   6.15726637
_cell_length_c   5.80418242
_cell_angle_alpha   63.08903229
_cell_angle_beta   116.91096771
_cell_angle_gamma   124.09962013
_symmetry_Int_Tables_number   1
_chemical_formula_structural   Li4NbCu3O8
_chemical_formula_sum   'Li4 Nb1 Cu3 O8'
_cell_volume   156.47858016
_cell_formula_units_Z   1
loop_
 _symmetry_equiv_pos_site_id
 _symmetry_equiv_pos_as_xyz
  1  'x, y, z'
loop_
 _atom_site_type_symbol
 _atom_site_label
 _atom_site_symmetry_multiplicity
 _atom_site_fract_x
 _atom_site_fract_y
 _atom_site_fract_z
 _atom_site_occupancy
  Li  Li0  1  0.500000  0.500000  0.000000  1
  Li  Li1  1  0.000000  0.500000  0.500000  1
  Li  Li2  1  0.000000  0.000000  0.000000  1
  Li  Li3  1  0.500000  0.000000  0.500000  1
  Nb  Nb4  1  0.000000  0.000000  0.500000  1
  Cu  Cu5  1  0.500000  0.000000  0.000000  1
  Cu  Cu6  1  0.500000  0.500000  0.500000  1
  Cu  Cu7  1  0.000000  0.500000  0.000000  1
  O  O8  1  0.271136  0.728864  0.238902  1
  O  O9  1  0.735587  0.779906  0.721268  1
  O  O10  1  0.774536  0.225464  0.252494  1
  O  O11  1  0.728864  0.271136  0.761098  1
  O  O12  1  0.220094  0.264413  0.721268  1
  O  O13  1  0.264413  0.220094  0.278732  1
  O  O14  1  0.225464  0.774536  0.747506  1
  O  O15  1  0.779906  0.735587  0.278732  1
