# generated using pymatgen
data_LiP4WO12
_symmetry_space_group_name_H-M   'P 1'
_cell_length_a   7.37142405
_cell_length_b   7.37142405
_cell_length_c   10.16235354
_cell_angle_alpha   66.41745092
_cell_angle_beta   113.58254908
_cell_angle_gamma   109.51747444
_symmetry_Int_Tables_number   1
_chemical_formula_structural   LiP4WO12
_chemical_formula_sum   'Li2 P8 W2 O24'
_cell_volume   453.75211944
_cell_formula_units_Z   2
loop_
 _symmetry_equiv_pos_site_id
 _symmetry_equiv_pos_as_xyz
  1  'x, y, z'
loop_
 _atom_site_type_symbol
 _atom_site_label
 _atom_site_symmetry_multiplicity
 _atom_site_fract_x
 _atom_site_fract_y
 _atom_site_fract_z
 _atom_site_occupancy
  Li  Li0  1  0.500000  0.000000  0.500000  1
  Li  Li1  1  0.000000  0.500000  0.000000  1
  P  P2  1  0.311320  0.708543  0.799066  1
  P  P3  1  0.279263  0.259827  0.977179  1
  P  P4  1  0.259827  0.279263  0.522821  1
  P  P5  1  0.291457  0.688680  0.299066  1
  P  P6  1  0.708543  0.311320  0.700934  1
  P  P7  1  0.740173  0.720737  0.477179  1
  P  P8  1  0.720737  0.740173  0.022821  1
  P  P9  1  0.688680  0.291457  0.200934  1
  W  W10  1  0.057047  0.057047  0.250000  1
  W  W11  1  0.942953  0.942953  0.750000  1
  O  O12  1  0.349511  0.810991  0.652165  1
  O  O13  1  0.199256  0.288017  0.082582  1
  O  O14  1  0.304558  0.469042  0.845440  1
  O  O15  1  0.164706  0.093494  0.909015  1
  O  O16  1  0.279143  0.877280  0.318618  1
  O  O17  1  0.505356  0.222932  0.061776  1
  O  O18  1  0.711983  0.800744  0.582582  1
  O  O19  1  0.093494  0.164706  0.590985  1
  O  O20  1  0.222932  0.505356  0.438224  1
  O  O21  1  0.189009  0.650489  0.152165  1
  O  O22  1  0.469042  0.304558  0.654560  1
  O  O23  1  0.877280  0.279143  0.181382  1
  O  O24  1  0.122720  0.720857  0.818618  1
  O  O25  1  0.530958  0.695442  0.345440  1
  O  O26  1  0.810991  0.349511  0.847835  1
  O  O27  1  0.777068  0.494644  0.561776  1
  O  O28  1  0.906506  0.835294  0.409015  1
  O  O29  1  0.288017  0.199256  0.417418  1
  O  O30  1  0.494644  0.777068  0.938224  1
  O  O31  1  0.720857  0.122720  0.681382  1
  O  O32  1  0.835294  0.906506  0.090985  1
  O  O33  1  0.695442  0.530958  0.154560  1
  O  O34  1  0.800744  0.711983  0.917418  1
  O  O35  1  0.650489  0.189009  0.347835  1
