# generated using pymatgen
data_LiCu2(CO3)3
_symmetry_space_group_name_H-M   'P 1'
_cell_length_a   7.59941250
_cell_length_b   7.64927678
_cell_length_c   7.75039395
_cell_angle_alpha   109.16305441
_cell_angle_beta   111.18824418
_cell_angle_gamma   107.29049955
_symmetry_Int_Tables_number   1
_chemical_formula_structural   LiCu2(CO3)3
_chemical_formula_sum   'Li2 Cu4 C6 O18'
_cell_volume   349.77817119
_cell_formula_units_Z   2
loop_
 _symmetry_equiv_pos_site_id
 _symmetry_equiv_pos_as_xyz
  1  'x, y, z'
loop_
 _atom_site_type_symbol
 _atom_site_label
 _atom_site_symmetry_multiplicity
 _atom_site_fract_x
 _atom_site_fract_y
 _atom_site_fract_z
 _atom_site_occupancy
  Li  Li0  1  0.533900  0.253888  0.732853  1
  Li  Li1  1  0.000024  0.837512  0.993323  1
  Cu  Cu2  1  0.870041  0.017516  0.457808  1
  Cu  Cu3  1  0.600875  0.160759  0.135763  1
  Cu  Cu4  1  0.034645  0.471920  0.041370  1
  Cu  Cu5  1  0.546231  0.565719  0.407969  1
  C  C6  1  0.184612  0.155364  0.875517  1
  C  C7  1  0.132057  0.269970  0.312609  1
  C  C8  1  0.814349  0.386432  0.588357  1
  C  C9  1  0.772545  0.578426  0.177015  1
  C  C10  1  0.403897  0.806417  0.212305  1
  C  C11  1  0.668589  0.954799  0.795404  1
  O  O12  1  0.139192  0.068150  0.679027  1
  O  O13  1  0.236461  0.068226  0.986302  1
  O  O14  1  0.037523  0.079036  0.269036  1
  O  O15  1  0.701718  0.092659  0.737429  1
  O  O16  1  0.684805  0.382606  0.414452  1
  O  O17  1  0.942812  0.314159  0.578836  1
  O  O18  1  0.632832  0.382256  0.045776  1
  O  O19  1  0.802905  0.465797  0.754387  1
  O  O20  1  0.336153  0.381604  0.445419  1
  O  O21  1  0.194608  0.335535  0.963581  1
  O  O22  1  0.015464  0.345402  0.225723  1
  O  O23  1  0.740434  0.696617  0.315829  1
  O  O24  1  0.941087  0.663608  0.172387  1
  O  O25  1  0.228180  0.739087  0.045420  1
  O  O26  1  0.404280  0.725982  0.334069  1
  O  O27  1  0.579516  0.961230  0.259873  1
  O  O28  1  0.556922  0.939827  0.888728  1
  O  O29  1  0.738258  0.820020  0.760295  1
