# generated using pymatgen
data_Li10Zn3(GeO4)4
_symmetry_space_group_name_H-M   'P 1'
_cell_length_a   5.23128469
_cell_length_b   6.39117048
_cell_length_c   10.99876996
_cell_angle_alpha   90.21476199
_cell_angle_beta   90.37444918
_cell_angle_gamma   90.42332063
_symmetry_Int_Tables_number   1
_chemical_formula_structural   Li10Zn3(GeO4)4
_chemical_formula_sum   'Li10 Zn3 Ge4 O16'
_cell_volume   367.71269012
_cell_formula_units_Z   1
loop_
 _symmetry_equiv_pos_site_id
 _symmetry_equiv_pos_as_xyz
  1  'x, y, z'
loop_
 _atom_site_type_symbol
 _atom_site_label
 _atom_site_symmetry_multiplicity
 _atom_site_fract_x
 _atom_site_fract_y
 _atom_site_fract_z
 _atom_site_occupancy
  Li  Li0  1  0.690897  0.745334  0.072000  1
  Li  Li1  1  0.322782  0.497190  0.164252  1
  Li  Li2  1  0.821809  0.996162  0.331545  1
  Li  Li3  1  0.192606  0.243378  0.424589  1
  Li  Li4  1  0.806350  0.764171  0.581059  1
  Li  Li5  1  0.192008  0.998451  0.662293  1
  Li  Li6  1  0.983057  0.221753  0.808353  1
  Li  Li7  1  0.643994  0.973515  0.832611  1
  Li  Li8  1  0.658943  0.520705  0.836269  1
  Li  Li9  1  0.358927  0.249914  0.935269  1
  Zn  Zn10  1  0.323704  0.001824  0.165523  1
  Zn  Zn11  1  0.819465  0.502382  0.330562  1
  Zn  Zn12  1  0.195142  0.507032  0.661411  1
  Ge  Ge13  1  0.829895  0.249315  0.081430  1
  Ge  Ge14  1  0.324568  0.748821  0.411114  1
  Ge  Ge15  1  0.685136  0.249280  0.586998  1
  Ge  Ge16  1  0.158333  0.757668  0.913022  1
  O  O17  1  0.296120  0.747103  0.061999  1
  O  O18  1  0.171790  0.250197  0.087887  1
  O  O19  1  0.711225  0.475056  0.159573  1
  O  O20  1  0.712173  0.024305  0.160228  1
  O  O21  1  0.210835  0.976477  0.335689  1
  O  O22  1  0.210279  0.519394  0.335953  1
  O  O23  1  0.666224  0.749463  0.412906  1
  O  O24  1  0.796214  0.246714  0.434493  1
  O  O25  1  0.205639  0.758284  0.561766  1
  O  O26  1  0.342086  0.251437  0.588559  1
  O  O27  1  0.801504  0.475446  0.668201  1
  O  O28  1  0.804622  0.035170  0.671855  1
  O  O29  1  0.265691  0.990812  0.838082  1
  O  O30  1  0.271480  0.519403  0.837921  1
  O  O31  1  0.821801  0.752141  0.912308  1
  O  O32  1  0.725799  0.251705  0.927881  1
