# generated using pymatgen
data_NaNiP2HO7
_symmetry_space_group_name_H-M   'P 1'
_cell_length_a   6.52505168
_cell_length_b   6.52977850
_cell_length_c   18.36861262
_cell_angle_alpha   84.08027633
_cell_angle_beta   86.61173530
_cell_angle_gamma   88.45839532
_symmetry_Int_Tables_number   1
_chemical_formula_structural   NaNiP2HO7
_chemical_formula_sum   'Na6 Ni6 P12 H6 O42'
_cell_volume   776.92916412
_cell_formula_units_Z   6
loop_
 _symmetry_equiv_pos_site_id
 _symmetry_equiv_pos_as_xyz
  1  'x, y, z'
loop_
 _atom_site_type_symbol
 _atom_site_label
 _atom_site_symmetry_multiplicity
 _atom_site_fract_x
 _atom_site_fract_y
 _atom_site_fract_z
 _atom_site_occupancy
  Na  Na0  1  0.519054  0.882849  0.747111  1
  Na  Na1  1  0.185679  0.882880  0.413781  1
  Na  Na2  1  0.779108  0.836137  0.086497  1
  Na  Na3  1  0.220640  0.163588  0.913494  1
  Na  Na4  1  0.888301  0.164439  0.579722  1
  Na  Na5  1  0.555131  0.164761  0.246224  1
  Ni  Ni6  1  0.992160  0.641013  0.703017  1
  Ni  Ni7  1  0.658973  0.640902  0.369793  1
  Ni  Ni8  1  0.680066  0.358344  0.964054  1
  Ni  Ni9  1  0.320083  0.641988  0.035737  1
  Ni  Ni10  1  0.346793  0.359930  0.630568  1
  Ni  Ni11  1  0.013109  0.359684  0.296994  1
  P  P12  1  0.672287  0.858682  0.927802  1
  P  P13  1  0.338877  0.858009  0.594681  1
  P  P14  1  0.005566  0.857854  0.261182  1
  P  P15  1  0.045609  0.620681  0.878404  1
  P  P16  1  0.712438  0.620787  0.545146  1
  P  P17  1  0.378901  0.621169  0.212065  1
  P  P18  1  0.620530  0.381062  0.787863  1
  P  P19  1  0.287180  0.381035  0.454496  1
  P  P20  1  0.954543  0.378902  0.121241  1
  P  P21  1  0.994170  0.142461  0.739104  1
  P  P22  1  0.660817  0.142450  0.405770  1
  P  P23  1  0.327588  0.141480  0.072315  1
  H  H24  1  0.344307  0.799281  0.897609  1
  H  H25  1  0.011127  0.799481  0.564300  1
  H  H26  1  0.678843  0.800673  0.231791  1
  H  H27  1  0.316523  0.197871  0.768856  1
  H  H28  1  0.983261  0.197930  0.435480  1
  H  H29  1  0.654483  0.199468  0.101538  1
  O  O30  1  0.494682  0.908110  0.876226  1
  O  O31  1  0.926402  0.961025  0.701675  1
  O  O32  1  0.861084  0.792632  0.874488  1
  O  O33  1  0.161102  0.908440  0.543176  1
  O  O34  1  0.593077  0.961013  0.368343  1
  O  O35  1  0.207674  0.706573  0.926581  1
  O  O36  1  0.621171  0.669955  0.983613  1
  O  O37  1  0.527665  0.792401  0.541228  1
  O  O38  1  0.826710  0.907836  0.210020  1
  O  O39  1  0.263990  0.960613  0.034137  1
  O  O40  1  0.874178  0.706878  0.593382  1
  O  O41  1  0.288255  0.669287  0.650131  1
  O  O42  1  0.194314  0.792206  0.207907  1
  O  O43  1  0.131220  0.614811  0.800582  1
  O  O44  1  0.706257  0.579692  0.749518  1
  O  O45  1  0.540270  0.706453  0.260489  1
  O  O46  1  0.954994  0.669185  0.316689  1
  O  O47  1  0.797912  0.614797  0.467298  1
  O  O48  1  0.372933  0.579680  0.416192  1
  O  O49  1  0.963195  0.420835  0.917323  1
  O  O50  1  0.534281  0.383365  0.866027  1
  O  O51  1  0.465677  0.617098  0.133982  1
  O  O52  1  0.036848  0.579536  0.083145  1
  O  O53  1  0.629962  0.420766  0.583948  1
  O  O54  1  0.200732  0.383410  0.532631  1
  O  O55  1  0.046008  0.329497  0.682877  1
  O  O56  1  0.461627  0.292359  0.739509  1
  O  O57  1  0.296564  0.420515  0.250239  1
  O  O58  1  0.867225  0.382841  0.199315  1
  O  O59  1  0.804991  0.207693  0.792115  1
  O  O60  1  0.712647  0.329493  0.349550  1
  O  O61  1  0.128304  0.292292  0.406129  1
  O  O62  1  0.736034  0.039278  0.966169  1
  O  O63  1  0.173562  0.093586  0.790106  1
  O  O64  1  0.471642  0.207699  0.458779  1
  O  O65  1  0.378622  0.330110  0.016504  1
  O  O66  1  0.792734  0.293837  0.073020  1
  O  O67  1  0.403612  0.039778  0.632338  1
  O  O68  1  0.840230  0.093569  0.456764  1
  O  O69  1  0.138789  0.207572  0.125545  1
  O  O70  1  0.070020  0.039798  0.298778  1
  O  O71  1  0.506189  0.092499  0.123632  1
