# generated using pymatgen
data_Ce5Dy2O13
_symmetry_space_group_name_H-M   'P 1'
_cell_length_a   22.39034563
_cell_length_b   22.39034563
_cell_length_c   22.39034563
_cell_angle_alpha   9.80025960
_cell_angle_beta   9.80025960
_cell_angle_gamma   9.80025960
_symmetry_Int_Tables_number   1
_chemical_formula_structural   Ce5Dy2O13
_chemical_formula_sum   'Ce5 Dy2 O13'
_cell_volume   282.33254126
_cell_formula_units_Z   1
loop_
 _symmetry_equiv_pos_site_id
 _symmetry_equiv_pos_as_xyz
  1  'x, y, z'
loop_
 _atom_site_type_symbol
 _atom_site_label
 _atom_site_symmetry_multiplicity
 _atom_site_fract_x
 _atom_site_fract_y
 _atom_site_fract_z
 _atom_site_occupancy
  Ce  Ce0  1  0.427888  0.427888  0.427888  1
  Ce  Ce1  1  0.142225  0.142225  0.142225  1
  Ce  Ce2  1  0.856535  0.856535  0.856535  1
  Ce  Ce3  1  0.570845  0.570845  0.570845  1
  Ce  Ce4  1  0.284974  0.284974  0.284974  1
  Dy  Dy5  1  0.999027  0.999027  0.999027  1
  Dy  Dy6  1  0.716332  0.716332  0.716331  1
  O  O7  1  0.392990  0.392990  0.392990  1
  O  O8  1  0.030846  0.030846  0.030846  1
  O  O9  1  0.107403  0.107403  0.107403  1
  O  O10  1  0.750215  0.750215  0.750215  1
  O  O11  1  0.464487  0.464487  0.464487  1
  O  O12  1  0.178795  0.178795  0.178795  1
  O  O13  1  0.821719  0.821719  0.821719  1
  O  O14  1  0.536033  0.536033  0.536033  1
  O  O15  1  0.893107  0.893107  0.893107  1
  O  O16  1  0.250394  0.250394  0.250394  1
  O  O17  1  0.326334  0.326334  0.326334  1
  O  O18  1  0.607237  0.607237  0.607237  1
  O  O19  1  0.964037  0.964037  0.964037  1
