# generated using pymatgen
data_V5Cr(PO4)6
_symmetry_space_group_name_H-M   'P 1'
_cell_length_a   8.53520610
_cell_length_b   8.53520610
_cell_length_c   8.53520610
_cell_angle_alpha   60.55283977
_cell_angle_beta   60.55283977
_cell_angle_gamma   60.55283977
_symmetry_Int_Tables_number   1
_chemical_formula_structural   V5Cr(PO4)6
_chemical_formula_sum   'V5 Cr1 P6 O24'
_cell_volume   445.16160129
_cell_formula_units_Z   1
loop_
 _symmetry_equiv_pos_site_id
 _symmetry_equiv_pos_as_xyz
  1  'x, y, z'
loop_
 _atom_site_type_symbol
 _atom_site_label
 _atom_site_symmetry_multiplicity
 _atom_site_fract_x
 _atom_site_fract_y
 _atom_site_fract_z
 _atom_site_occupancy
  V  V0  1  0.999759  0.999759  0.999759  1
  V  V1  1  0.643210  0.643210  0.643210  1
  V  V2  1  0.500861  0.500861  0.500861  1
  V  V3  1  0.857024  0.857024  0.857024  1
  V  V4  1  0.356552  0.356552  0.356552  1
  Cr  Cr5  1  0.141720  0.141720  0.141720  1
  P  P6  1  0.956994  0.250604  0.540806  1
  P  P7  1  0.540806  0.956994  0.250604  1
  P  P8  1  0.250604  0.540806  0.956994  1
  P  P9  1  0.750176  0.455581  0.043567  1
  P  P10  1  0.455581  0.043567  0.750176  1
  P  P11  1  0.043567  0.750176  0.455581  1
  O  O12  1  0.501592  0.116287  0.315919  1
  O  O13  1  0.315919  0.501592  0.116287  1
  O  O14  1  0.116287  0.315919  0.501592  1
  O  O15  1  0.942514  0.090051  0.741463  1
  O  O16  1  0.993109  0.187017  0.385762  1
  O  O17  1  0.758357  0.409777  0.561918  1
  O  O18  1  0.741463  0.942514  0.090051  1
  O  O19  1  0.561918  0.758357  0.409777  1
  O  O20  1  0.815098  0.613511  0.004936  1
  O  O21  1  0.409777  0.561918  0.758357  1
  O  O22  1  0.910135  0.257228  0.058760  1
  O  O23  1  0.613511  0.004936  0.815098  1
  O  O24  1  0.385762  0.993109  0.187017  1
  O  O25  1  0.090051  0.741463  0.942514  1
  O  O26  1  0.588399  0.438747  0.243425  1
  O  O27  1  0.187017  0.385762  0.993109  1
  O  O28  1  0.438747  0.243425  0.588399  1
  O  O29  1  0.257228  0.058760  0.910135  1
  O  O30  1  0.243425  0.588399  0.438747  1
  O  O31  1  0.004936  0.815098  0.613511  1
  O  O32  1  0.058760  0.910135  0.257228  1
  O  O33  1  0.888940  0.682284  0.497905  1
  O  O34  1  0.682284  0.497905  0.888940  1
  O  O35  1  0.497905  0.888940  0.682284  1
