# generated using pymatgen
data_NaAgF4
_symmetry_space_group_name_H-M   'P 1'
_cell_length_a   6.68873950
_cell_length_b   6.68873950
_cell_length_c   6.68873950
_cell_angle_alpha   129.86505447
_cell_angle_beta   129.86505447
_cell_angle_gamma   73.62258953
_symmetry_Int_Tables_number   1
_chemical_formula_structural   NaAgF4
_chemical_formula_sum   'Na2 Ag2 F8'
_cell_volume   172.02926165
_cell_formula_units_Z   2
loop_
 _symmetry_equiv_pos_site_id
 _symmetry_equiv_pos_as_xyz
  1  'x, y, z'
loop_
 _atom_site_type_symbol
 _atom_site_label
 _atom_site_symmetry_multiplicity
 _atom_site_fract_x
 _atom_site_fract_y
 _atom_site_fract_z
 _atom_site_occupancy
  Na  Na0  1  0.250000  0.250000  0.000000  1
  Na  Na1  1  0.750000  0.750000  0.000000  1
  Ag  Ag2  1  0.500000  1.000000  0.500000  1
  Ag  Ag3  1  1.000000  0.500000  0.500000  1
  F  F4  1  0.449687  0.949687  0.145277  1
  F  F5  1  0.195590  0.695590  0.145277  1
  F  F6  1  0.550313  0.050313  0.854723  1
  F  F7  1  0.050313  0.195590  0.500000  1
  F  F8  1  0.804410  0.304410  0.854723  1
  F  F9  1  0.304410  0.449687  0.500000  1
  F  F10  1  0.949687  0.804410  0.500000  1
  F  F11  1  0.695590  0.550313  0.500000  1
