# generated using pymatgen
data_LiCrPO4
_symmetry_space_group_name_H-M   'P 1'
_cell_length_a   8.70664668
_cell_length_b   8.70664668
_cell_length_c   8.70664668
_cell_angle_alpha   107.56171133
_cell_angle_beta   107.56171133
_cell_angle_gamma   107.56171133
_symmetry_Int_Tables_number   1
_chemical_formula_structural   LiCrPO4
_chemical_formula_sum   'Li6 Cr6 P6 O24'
_cell_volume   541.02211080
_cell_formula_units_Z   6
loop_
 _symmetry_equiv_pos_site_id
 _symmetry_equiv_pos_as_xyz
  1  'x, y, z'
loop_
 _atom_site_type_symbol
 _atom_site_label
 _atom_site_symmetry_multiplicity
 _atom_site_fract_x
 _atom_site_fract_y
 _atom_site_fract_z
 _atom_site_occupancy
  Li  Li0  1  0.333949  0.927204  0.146603  1
  Li  Li1  1  0.449370  0.854351  0.617101  1
  Li  Li2  1  0.854351  0.617101  0.449370  1
  Li  Li3  1  0.927204  0.146603  0.333949  1
  Li  Li4  1  0.617101  0.449370  0.854351  1
  Li  Li5  1  0.146603  0.333949  0.927204  1
  Cr  Cr6  1  0.952514  0.769728  0.184332  1
  Cr  Cr7  1  0.496821  0.658115  0.263288  1
  Cr  Cr8  1  0.184332  0.952514  0.769728  1
  Cr  Cr9  1  0.263288  0.496821  0.658115  1
  Cr  Cr10  1  0.658115  0.263288  0.496821  1
  Cr  Cr11  1  0.769728  0.184332  0.952514  1
  P  P12  1  0.597285  0.825183  0.004305  1
  P  P13  1  0.113686  0.510718  0.298435  1
  P  P14  1  0.510718  0.298435  0.113686  1
  P  P15  1  0.004305  0.597285  0.825183  1
  P  P16  1  0.298435  0.113687  0.510718  1
  P  P17  1  0.825183  0.004305  0.597285  1
  O  O18  1  0.079542  0.735810  0.021321  1
  O  O19  1  0.497012  0.808662  0.123671  1
  O  O20  1  0.698107  0.704923  0.006840  1
  O  O21  1  0.328372  0.020489  0.637718  1
  O  O22  1  0.759889  0.808746  0.458972  1
  O  O23  1  0.020489  0.637718  0.328372  1
  O  O24  1  0.393234  0.398325  0.071481  1
  O  O25  1  0.320360  0.629045  0.387071  1
  O  O26  1  0.042438  0.389986  0.097314  1
  O  O27  1  0.389986  0.097314  0.042438  1
  O  O28  1  0.629045  0.387071  0.320360  1
  O  O29  1  0.006840  0.698107  0.704923  1
  O  O30  1  0.071481  0.393234  0.398325  1
  O  O31  1  0.458972  0.759889  0.808746  1
  O  O32  1  0.735810  0.021321  0.079542  1
  O  O33  1  0.808746  0.458972  0.759889  1
  O  O34  1  0.398325  0.071481  0.393234  1
  O  O35  1  0.123671  0.497012  0.808662  1
  O  O36  1  0.097314  0.042438  0.389986  1
  O  O37  1  0.387071  0.320360  0.629045  1
  O  O38  1  0.808662  0.123671  0.497012  1
  O  O39  1  0.021321  0.079542  0.735810  1
  O  O40  1  0.637718  0.328372  0.020489  1
  O  O41  1  0.704923  0.006840  0.698107  1
