# generated using pymatgen
data_Li4Cu3F10
_symmetry_space_group_name_H-M   'P 1'
_cell_length_a   5.42966078
_cell_length_b   5.65694569
_cell_length_c   8.19928847
_cell_angle_alpha   104.26071437
_cell_angle_beta   94.22699768
_cell_angle_gamma   114.36013440
_symmetry_Int_Tables_number   1
_chemical_formula_structural   Li4Cu3F10
_chemical_formula_sum   'Li4 Cu3 F10'
_cell_volume   217.92488737
_cell_formula_units_Z   1
loop_
 _symmetry_equiv_pos_site_id
 _symmetry_equiv_pos_as_xyz
  1  'x, y, z'
loop_
 _atom_site_type_symbol
 _atom_site_label
 _atom_site_symmetry_multiplicity
 _atom_site_fract_x
 _atom_site_fract_y
 _atom_site_fract_z
 _atom_site_occupancy
  Li  Li0  1  0.060763  0.982280  0.691893  1
  Li  Li1  1  0.601847  0.080505  0.712067  1
  Li  Li2  1  0.398153  0.919495  0.287933  1
  Li  Li3  1  0.939237  0.017720  0.308107  1
  Cu  Cu4  1  0.320218  0.618368  0.850671  1
  Cu  Cu5  1  0.500000  0.500000  0.500000  1
  Cu  Cu6  1  0.679782  0.381632  0.149329  1
  F  F7  1  0.987395  0.285143  0.778633  1
  F  F8  1  0.715442  0.739798  0.720372  1
  F  F9  1  0.237098  0.754531  0.674624  1
  F  F10  1  0.635254  0.811520  0.414487  1
  F  F11  1  0.364746  0.188480  0.585513  1
  F  F12  1  0.762902  0.245469  0.325376  1
  F  F13  1  0.284558  0.260202  0.279628  1
  F  F14  1  0.012605  0.714857  0.221367  1
  F  F15  1  0.500000  0.000000  0.000000  1
  F  F16  1  0.500000  0.500000  0.000000  1
