# generated using pymatgen
data_Ba3Y2O6
_symmetry_space_group_name_H-M   'P 1'
_cell_length_a   3.59433075
_cell_length_b   12.52616735
_cell_length_c   18.15577304
_cell_angle_alpha   90.00000000
_cell_angle_beta   90.00000000
_cell_angle_gamma   90.00000000
_symmetry_Int_Tables_number   1
_chemical_formula_structural   Ba3Y2O6
_chemical_formula_sum   'Ba12 Y8 O24'
_cell_volume   817.43079168
_cell_formula_units_Z   4
loop_
 _symmetry_equiv_pos_site_id
 _symmetry_equiv_pos_as_xyz
  1  'x, y, z'
loop_
 _atom_site_type_symbol
 _atom_site_label
 _atom_site_symmetry_multiplicity
 _atom_site_fract_x
 _atom_site_fract_y
 _atom_site_fract_z
 _atom_site_occupancy
  Ba  Ba0  1  0.500000  0.104404  0.845815  1
  Ba  Ba1  1  0.500000  0.133976  0.447841  1
  Ba  Ba2  1  0.500000  0.151410  0.232740  1
  Ba  Ba3  1  0.500000  0.348590  0.732740  1
  Ba  Ba4  1  0.500000  0.366024  0.947841  1
  Ba  Ba5  1  0.500000  0.395596  0.345815  1
  Ba  Ba6  1  0.500000  0.604404  0.654185  1
  Ba  Ba7  1  0.500000  0.633976  0.052159  1
  Ba  Ba8  1  0.500000  0.651410  0.267260  1
  Ba  Ba9  1  0.500000  0.848590  0.767260  1
  Ba  Ba10  1  0.500000  0.866024  0.552159  1
  Ba  Ba11  1  0.500000  0.895596  0.154185  1
  Y  Y12  1  0.000000  0.113250  0.638605  1
  Y  Y13  1  0.000000  0.128854  0.040815  1
  Y  Y14  1  0.000000  0.371146  0.540815  1
  Y  Y15  1  0.000000  0.386750  0.138605  1
  Y  Y16  1  0.000000  0.613250  0.861395  1
  Y  Y17  1  0.000000  0.628854  0.459185  1
  Y  Y18  1  0.000000  0.871146  0.959185  1
  Y  Y19  1  0.000000  0.886750  0.361395  1
  O  O20  1  0.500000  0.000000  0.000000  1
  O  O21  1  0.000000  0.000000  0.500000  1
  O  O22  1  0.500000  0.987910  0.338974  1
  O  O23  1  0.000000  0.056549  0.152026  1
  O  O24  1  0.000000  0.194073  0.741905  1
  O  O25  1  0.500000  0.246479  0.582987  1
  O  O26  1  0.000000  0.208741  0.932077  1
  O  O27  1  0.000000  0.291259  0.432077  1
  O  O28  1  0.500000  0.253521  0.082987  1
  O  O29  1  0.000000  0.305927  0.241905  1
  O  O30  1  0.000000  0.443451  0.652026  1
  O  O31  1  0.500000  0.512090  0.838974  1
  O  O32  1  0.000000  0.500000  0.000000  1
  O  O33  1  0.500000  0.500000  0.500000  1
  O  O34  1  0.500000  0.487910  0.161026  1
  O  O35  1  0.000000  0.556549  0.347974  1
  O  O36  1  0.000000  0.694073  0.758095  1
  O  O37  1  0.500000  0.746479  0.917013  1
  O  O38  1  0.000000  0.708741  0.567923  1
  O  O39  1  0.000000  0.791259  0.067923  1
  O  O40  1  0.500000  0.753521  0.417013  1
  O  O41  1  0.000000  0.805927  0.258095  1
  O  O42  1  0.000000  0.943451  0.847974  1
  O  O43  1  0.500000  0.012090  0.661026  1
