# generated using pymatgen
data_LiSnPO4
_symmetry_space_group_name_H-M   'P 1'
_cell_length_a   9.51006409
_cell_length_b   7.38777125
_cell_length_c   19.24558962
_cell_angle_alpha   90.00000000
_cell_angle_beta   119.24616874
_cell_angle_gamma   90.00000000
_symmetry_Int_Tables_number   1
_chemical_formula_structural   LiSnPO4
_chemical_formula_sum   'Li12 Sn12 P12 O48'
_cell_volume   1179.79843296
_cell_formula_units_Z   12
loop_
 _symmetry_equiv_pos_site_id
 _symmetry_equiv_pos_as_xyz
  1  'x, y, z'
loop_
 _atom_site_type_symbol
 _atom_site_label
 _atom_site_symmetry_multiplicity
 _atom_site_fract_x
 _atom_site_fract_y
 _atom_site_fract_z
 _atom_site_occupancy
  Li  Li0  1  0.705645  0.065239  0.424974  1
  Li  Li1  1  0.339378  0.938062  0.086232  1
  Li  Li2  1  0.000121  0.224619  0.751504  1
  Li  Li3  1  0.999879  0.724619  0.748496  1
  Li  Li4  1  0.660622  0.438062  0.413768  1
  Li  Li5  1  0.294355  0.565239  0.075026  1
  Li  Li6  1  0.705645  0.434761  0.924974  1
  Li  Li7  1  0.339378  0.561938  0.586232  1
  Li  Li8  1  0.000121  0.275381  0.251504  1
  Li  Li9  1  0.999879  0.775381  0.248496  1
  Li  Li10  1  0.660622  0.061938  0.913768  1
  Li  Li11  1  0.294355  0.934761  0.575026  1
  Sn  Sn12  1  0.931277  0.780774  0.894292  1
  Sn  Sn13  1  0.376811  0.718400  0.287621  1
  Sn  Sn14  1  0.697235  0.762924  0.561635  1
  Sn  Sn15  1  0.302765  0.262924  0.938365  1
  Sn  Sn16  1  0.623189  0.218400  0.212379  1
  Sn  Sn17  1  0.068723  0.280774  0.605708  1
  Sn  Sn18  1  0.931277  0.719226  0.394292  1
  Sn  Sn19  1  0.376811  0.781600  0.787621  1
  Sn  Sn20  1  0.697235  0.737076  0.061635  1
  Sn  Sn21  1  0.302765  0.237076  0.438365  1
  Sn  Sn22  1  0.623189  0.281600  0.712379  1
  Sn  Sn23  1  0.068723  0.219226  0.105708  1
  P  P24  1  0.964030  0.303103  0.911103  1
  P  P25  1  0.368973  0.185584  0.269936  1
  P  P26  1  0.685681  0.287112  0.566140  1
  P  P27  1  0.314319  0.787112  0.933860  1
  P  P28  1  0.631027  0.685584  0.230064  1
  P  P29  1  0.035970  0.803103  0.588897  1
  P  P30  1  0.964030  0.196897  0.411103  1
  P  P31  1  0.368973  0.314416  0.769936  1
  P  P32  1  0.685681  0.212888  0.066140  1
  P  P33  1  0.314319  0.712888  0.433860  1
  P  P34  1  0.631027  0.814416  0.730064  1
  P  P35  1  0.035970  0.696897  0.088897  1
  O  O36  1  0.124092  0.509771  0.114802  1
  O  O37  1  0.463788  0.694094  0.418299  1
  O  O38  1  0.146003  0.816428  0.070521  1
  O  O39  1  0.810522  0.785052  0.752765  1
  O  O40  1  0.646690  0.145814  0.501234  1
  O  O41  1  0.439781  0.005240  0.315551  1
  O  O42  1  0.361581  0.178341  0.184790  1
  O  O43  1  0.001027  0.225658  0.847236  1
  O  O44  1  0.713419  0.472466  0.535051  1
  O  O45  1  0.136334  0.324787  0.987958  1
  O  O46  1  0.834278  0.235042  0.646414  1
  O  O47  1  0.479633  0.339270  0.320203  1
  O  O48  1  0.165722  0.735042  0.853586  1
  O  O49  1  0.520367  0.839270  0.179797  1
  O  O50  1  0.863666  0.824787  0.512042  1
  O  O51  1  0.286581  0.972466  0.964949  1
  O  O52  1  0.998973  0.725658  0.652764  1
  O  O53  1  0.638419  0.678341  0.315210  1
  O  O54  1  0.560219  0.505240  0.184449  1
  O  O55  1  0.189478  0.285052  0.747235  1
  O  O56  1  0.353310  0.645814  0.998766  1
  O  O57  1  0.853997  0.316428  0.429479  1
  O  O58  1  0.536212  0.194094  0.081701  1
  O  O59  1  0.875908  0.009771  0.385198  1
  O  O60  1  0.124092  0.990229  0.614802  1
  O  O61  1  0.463788  0.805906  0.918299  1
  O  O62  1  0.146003  0.683572  0.570521  1
  O  O63  1  0.646690  0.354186  0.001234  1
  O  O64  1  0.810522  0.714948  0.252765  1
  O  O65  1  0.439781  0.494760  0.815551  1
  O  O66  1  0.361581  0.321659  0.684790  1
  O  O67  1  0.001027  0.274342  0.347236  1
  O  O68  1  0.713419  0.027534  0.035051  1
  O  O69  1  0.136334  0.175213  0.487958  1
  O  O70  1  0.479633  0.160730  0.820203  1
  O  O71  1  0.834278  0.264958  0.146414  1
  O  O72  1  0.520367  0.660730  0.679797  1
  O  O73  1  0.165722  0.764958  0.353586  1
  O  O74  1  0.863666  0.675213  0.012042  1
  O  O75  1  0.286581  0.527534  0.464949  1
  O  O76  1  0.998973  0.774342  0.152764  1
  O  O77  1  0.638419  0.821659  0.815210  1
  O  O78  1  0.560219  0.994760  0.684449  1
  O  O79  1  0.353310  0.854186  0.498766  1
  O  O80  1  0.189478  0.214948  0.247235  1
  O  O81  1  0.853997  0.183572  0.929479  1
  O  O82  1  0.536212  0.305906  0.581701  1
  O  O83  1  0.875908  0.490229  0.885198  1
