# generated using pymatgen
data_Li7MnP4O14F
_symmetry_space_group_name_H-M   'P 1'
_cell_length_a   6.39248216
_cell_length_b   6.39248216
_cell_length_c   14.67585382
_cell_angle_alpha   83.81733539
_cell_angle_beta   96.18266461
_cell_angle_gamma   101.07571623
_symmetry_Int_Tables_number   1
_chemical_formula_structural   Li7MnP4O14F
_chemical_formula_sum   'Li14 Mn2 P8 O28 F2'
_cell_volume   582.78690768
_cell_formula_units_Z   2
loop_
 _symmetry_equiv_pos_site_id
 _symmetry_equiv_pos_as_xyz
  1  'x, y, z'
loop_
 _atom_site_type_symbol
 _atom_site_label
 _atom_site_symmetry_multiplicity
 _atom_site_fract_x
 _atom_site_fract_y
 _atom_site_fract_z
 _atom_site_occupancy
  Li  Li0  1  0.988105  0.605601  0.175998  1
  Li  Li1  1  0.366653  0.174524  0.165008  1
  Li  Li2  1  0.394399  0.011895  0.675998  1
  Li  Li3  1  0.825476  0.633347  0.665008  1
  Li  Li4  1  0.104219  0.050855  0.506332  1
  Li  Li5  1  0.476706  0.673834  0.179024  1
  Li  Li6  1  0.949145  0.895781  0.006332  1
  Li  Li7  1  0.122172  0.418554  0.026015  1
  Li  Li8  1  0.326166  0.523294  0.679024  1
  Li  Li9  1  0.581446  0.877828  0.526015  1
  Li  Li10  1  0.474160  0.963623  0.013784  1
  Li  Li11  1  0.036377  0.525840  0.513784  1
  Li  Li12  1  0.302471  0.866924  0.340618  1
  Li  Li13  1  0.133076  0.697529  0.840618  1
  Mn  Mn14  1  0.720753  0.279169  0.342956  1
  Mn  Mn15  1  0.720831  0.279247  0.842956  1
  P  P16  1  0.862131  0.086529  0.168605  1
  P  P17  1  0.913471  0.137869  0.668605  1
  P  P18  1  0.619839  0.470693  0.018252  1
  P  P19  1  0.529307  0.380161  0.518252  1
  P  P20  1  0.839656  0.808910  0.343747  1
  P  P21  1  0.191090  0.160344  0.843747  1
  P  P22  1  0.250900  0.380593  0.345356  1
  P  P23  1  0.619407  0.749100  0.845356  1
  O  O24  1  0.704961  0.208258  0.202121  1
  O  O25  1  0.791742  0.295039  0.702121  1
  O  O26  1  0.854898  0.579643  0.039380  1
  O  O27  1  0.743910  0.386751  0.481124  1
  O  O28  1  0.420357  0.145102  0.539380  1
  O  O29  1  0.613249  0.256090  0.981124  1
  O  O30  1  0.372593  0.215614  0.316311  1
  O  O31  1  0.738145  0.611823  0.291841  1
  O  O32  1  0.458036  0.462561  0.088978  1
  O  O33  1  0.964032  0.962522  0.262025  1
  O  O34  1  0.784386  0.627407  0.816311  1
  O  O35  1  0.388177  0.261855  0.791841  1
  O  O36  1  0.537439  0.541964  0.588978  1
  O  O37  1  0.037478  0.035968  0.762025  1
  O  O38  1  0.059973  0.230062  0.132042  1
  O  O39  1  0.752482  0.914410  0.106111  1
  O  O40  1  0.386456  0.492306  0.433502  1
  O  O41  1  0.044144  0.272875  0.387036  1
  O  O42  1  0.769938  0.940027  0.632042  1
  O  O43  1  0.667980  0.914658  0.378931  1
  O  O44  1  0.085590  0.247517  0.606111  1
  O  O45  1  0.507694  0.613544  0.933502  1
  O  O46  1  0.235222  0.572025  0.273919  1
  O  O47  1  0.727125  0.955856  0.887036  1
  O  O48  1  0.085342  0.332020  0.878931  1
  O  O49  1  0.427975  0.764778  0.773919  1
  O  O50  1  0.028561  0.788939  0.416275  1
  O  O51  1  0.211061  0.971439  0.916275  1
  F  F52  1  0.291746  0.873578  0.117276  1
  F  F53  1  0.126422  0.708254  0.617276  1
