# generated using pymatgen
data_LiFe2(CO3)4
_symmetry_space_group_name_H-M   'P 1'
_cell_length_a   5.58868305
_cell_length_b   6.34023085
_cell_length_c   8.31993840
_cell_angle_alpha   81.66083508
_cell_angle_beta   72.68934528
_cell_angle_gamma   63.89366431
_symmetry_Int_Tables_number   1
_chemical_formula_structural   LiFe2(CO3)4
_chemical_formula_sum   'Li1 Fe2 C4 O12'
_cell_volume   252.70363645
_cell_formula_units_Z   1
loop_
 _symmetry_equiv_pos_site_id
 _symmetry_equiv_pos_as_xyz
  1  'x, y, z'
loop_
 _atom_site_type_symbol
 _atom_site_label
 _atom_site_symmetry_multiplicity
 _atom_site_fract_x
 _atom_site_fract_y
 _atom_site_fract_z
 _atom_site_occupancy
  Li  Li0  1  0.286978  0.437725  0.159257  1
  Fe  Fe1  1  0.642112  0.509583  0.503753  1
  Fe  Fe2  1  0.912107  0.988914  0.997799  1
  C  C3  1  0.355151  0.599375  0.791648  1
  C  C4  1  0.896957  0.103779  0.709592  1
  C  C5  1  0.708866  0.898496  0.286492  1
  C  C6  1  0.753247  0.390831  0.206302  1
  O  O7  1  0.200794  0.651447  0.944720  1
  O  O8  1  0.603567  0.585876  0.746023  1
  O  O9  1  0.105997  0.073218  0.761921  1
  O  O10  1  0.707602  0.054564  0.822963  1
  O  O11  1  0.872785  0.175835  0.561944  1
  O  O12  1  0.272314  0.557468  0.674575  1
  O  O13  1  0.602158  0.836292  0.432124  1
  O  O14  1  0.933888  0.416971  0.259865  1
  O  O15  1  0.571919  0.982009  0.170712  1
  O  O16  1  0.959271  0.882957  0.237456  1
  O  O17  1  0.510428  0.445076  0.313832  1
  O  O18  1  0.801063  0.319900  0.058772  1
