# generated using pymatgen
data_NbCo3O8
_symmetry_space_group_name_H-M   'P 1'
_cell_length_a   5.68403625
_cell_length_b   5.68403625
_cell_length_c   9.22388008
_cell_angle_alpha   89.90236527
_cell_angle_beta   90.09763473
_cell_angle_gamma   60.34698661
_symmetry_Int_Tables_number   1
_chemical_formula_structural   NbCo3O8
_chemical_formula_sum   'Nb2 Co6 O16'
_cell_volume   258.97829264
_cell_formula_units_Z   2
loop_
 _symmetry_equiv_pos_site_id
 _symmetry_equiv_pos_as_xyz
  1  'x, y, z'
loop_
 _atom_site_type_symbol
 _atom_site_label
 _atom_site_symmetry_multiplicity
 _atom_site_fract_x
 _atom_site_fract_y
 _atom_site_fract_z
 _atom_site_occupancy
  Nb  Nb0  1  0.327179  0.339174  0.498748  1
  Nb  Nb1  1  0.660826  0.672821  0.998748  1
  Co  Co2  1  0.168906  0.662361  0.214276  1
  Co  Co3  1  0.662143  0.170016  0.214210  1
  Co  Co4  1  0.167513  0.168908  0.216336  1
  Co  Co5  1  0.831092  0.832487  0.716336  1
  Co  Co6  1  0.337639  0.831094  0.714276  1
  Co  Co7  1  0.829984  0.337857  0.714210  1
  O  O8  1  0.163102  0.673257  0.600149  1
  O  O9  1  0.486737  0.477758  0.328341  1
  O  O10  1  0.329091  0.330949  0.111109  1
  O  O11  1  0.004485  0.002513  0.310650  1
  O  O12  1  0.997487  0.995515  0.810650  1
  O  O13  1  0.675411  0.165265  0.601637  1
  O  O14  1  0.036154  0.478834  0.331718  1
  O  O15  1  0.485992  0.032697  0.328594  1
  O  O16  1  0.835016  0.840203  0.102090  1
  O  O17  1  0.159797  0.164984  0.602090  1
  O  O18  1  0.521166  0.963846  0.831718  1
  O  O19  1  0.967303  0.514008  0.828594  1
  O  O20  1  0.669051  0.670909  0.611109  1
  O  O21  1  0.326743  0.836898  0.100149  1
  O  O22  1  0.522242  0.513263  0.828341  1
  O  O23  1  0.834735  0.324589  0.101637  1
