# generated using pymatgen
data_CaB3H5O8
_symmetry_space_group_name_H-M   'P 1'
_cell_length_a   6.16583281
_cell_length_b   11.24484793
_cell_length_c   8.86216733
_cell_angle_alpha   90.00000000
_cell_angle_beta   110.44261381
_cell_angle_gamma   90.00000000
_symmetry_Int_Tables_number   1
_chemical_formula_structural   CaB3H5O8
_chemical_formula_sum   'Ca4 B12 H20 O32'
_cell_volume   575.75177665
_cell_formula_units_Z   4
loop_
 _symmetry_equiv_pos_site_id
 _symmetry_equiv_pos_as_xyz
  1  'x, y, z'
loop_
 _atom_site_type_symbol
 _atom_site_label
 _atom_site_symmetry_multiplicity
 _atom_site_fract_x
 _atom_site_fract_y
 _atom_site_fract_z
 _atom_site_occupancy
  Ca  Ca0  1  0.262351  0.292922  0.863568  1
  Ca  Ca1  1  0.737649  0.792922  0.636432  1
  Ca  Ca2  1  0.737649  0.707078  0.136432  1
  Ca  Ca3  1  0.262351  0.207078  0.363568  1
  B  B4  1  0.687335  0.291018  0.166636  1
  B  B5  1  0.312665  0.791018  0.333364  1
  B  B6  1  0.312665  0.708982  0.833364  1
  B  B7  1  0.687335  0.208982  0.666636  1
  B  B8  1  0.836249  0.328841  0.462626  1
  B  B9  1  0.163751  0.828841  0.037374  1
  B  B10  1  0.163751  0.671159  0.537374  1
  B  B11  1  0.836249  0.171159  0.962626  1
  B  B12  1  0.501085  0.448611  0.280744  1
  B  B13  1  0.498915  0.948611  0.219256  1
  B  B14  1  0.498915  0.551389  0.719256  1
  B  B15  1  0.501085  0.051389  0.780744  1
  H  H16  1  0.135244  0.419385  0.579000  1
  H  H17  1  0.864756  0.919385  0.921000  1
  H  H18  1  0.864756  0.580615  0.421000  1
  H  H19  1  0.135244  0.080615  0.079000  1
  H  H20  1  0.331393  0.604875  0.181265  1
  H  H21  1  0.668607  0.104875  0.318735  1
  H  H22  1  0.668607  0.395125  0.818735  1
  H  H23  1  0.331393  0.895125  0.681265  1
  H  H24  1  0.302681  0.474664  0.425388  1
  H  H25  1  0.697319  0.974664  0.074612  1
  H  H26  1  0.697319  0.525336  0.574612  1
  H  H27  1  0.302681  0.025336  0.925388  1
  H  H28  1  0.950241  0.521826  0.798712  1
  H  H29  1  0.049759  0.021826  0.701288  1
  H  H30  1  0.049759  0.478174  0.201288  1
  H  H31  1  0.950241  0.978174  0.298712  1
  H  H32  1  0.155600  0.529928  0.967613  1
  H  H33  1  0.844400  0.029928  0.532387  1
  H  H34  1  0.844400  0.470072  0.032387  1
  H  H35  1  0.155600  0.970072  0.467613  1
  O  O36  1  0.689082  0.249223  0.520768  1
  O  O37  1  0.310918  0.749223  0.979232  1
  O  O38  1  0.310918  0.750777  0.479232  1
  O  O39  1  0.689082  0.250777  0.020768  1
  O  O40  1  0.859056  0.269926  0.313006  1
  O  O41  1  0.140944  0.769926  0.186994  1
  O  O42  1  0.140944  0.730074  0.686994  1
  O  O43  1  0.859056  0.230074  0.813006  1
  O  O44  1  0.070120  0.338653  0.581161  1
  O  O45  1  0.929880  0.838653  0.918839  1
  O  O46  1  0.929880  0.661347  0.418839  1
  O  O47  1  0.070120  0.161347  0.081161  1
  O  O48  1  0.490856  0.354295  0.158939  1
  O  O49  1  0.509144  0.854295  0.341061  1
  O  O50  1  0.509144  0.645705  0.841061  1
  O  O51  1  0.490856  0.145705  0.658939  1
  O  O52  1  0.722557  0.444491  0.417421  1
  O  O53  1  0.277443  0.944491  0.082579  1
  O  O54  1  0.277443  0.555509  0.582579  1
  O  O55  1  0.722557  0.055509  0.917421  1
  O  O56  1  0.483203  0.568128  0.208140  1
  O  O57  1  0.516797  0.068128  0.291860  1
  O  O58  1  0.516797  0.431872  0.791860  1
  O  O59  1  0.483203  0.931872  0.708140  1
  O  O60  1  0.298427  0.423947  0.331461  1
  O  O61  1  0.701573  0.923947  0.168539  1
  O  O62  1  0.701573  0.576053  0.668539  1
  O  O63  1  0.298427  0.076053  0.831461  1
  O  O64  1  0.085059  0.477631  0.875845  1
  O  O65  1  0.914941  0.977631  0.624155  1
  O  O66  1  0.914941  0.522369  0.124155  1
  O  O67  1  0.085059  0.022369  0.375845  1
