# generated using pymatgen
data_Mn3O5F
_symmetry_space_group_name_H-M   'P 1'
_cell_length_a   4.54381196
_cell_length_b   5.44152567
_cell_length_c   7.56431996
_cell_angle_alpha   86.30812456
_cell_angle_beta   88.76585918
_cell_angle_gamma   88.69518307
_symmetry_Int_Tables_number   1
_chemical_formula_structural   Mn3O5F
_chemical_formula_sum   'Mn6 O10 F2'
_cell_volume   186.55555341
_cell_formula_units_Z   2
loop_
 _symmetry_equiv_pos_site_id
 _symmetry_equiv_pos_as_xyz
  1  'x, y, z'
loop_
 _atom_site_type_symbol
 _atom_site_label
 _atom_site_symmetry_multiplicity
 _atom_site_fract_x
 _atom_site_fract_y
 _atom_site_fract_z
 _atom_site_occupancy
  Mn  Mn0  1  0.482824  0.321453  0.659169  1
  Mn  Mn1  1  0.517176  0.678547  0.340831  1
  Mn  Mn2  1  0.500000  0.000000  0.000000  1
  Mn  Mn3  1  0.987427  0.155876  0.331092  1
  Mn  Mn4  1  0.000000  0.500000  0.000000  1
  Mn  Mn5  1  0.012573  0.844124  0.668908  1
  O  O6  1  0.805896  0.202381  0.103929  1
  O  O7  1  0.807542  0.871105  0.439125  1
  O  O8  1  0.694238  0.036946  0.767331  1
  O  O9  1  0.698114  0.372488  0.435917  1
  O  O10  1  0.689750  0.702510  0.104590  1
  O  O11  1  0.305762  0.963054  0.232669  1
  O  O12  1  0.310250  0.297490  0.895410  1
  O  O13  1  0.301886  0.627512  0.564083  1
  O  O14  1  0.194104  0.797619  0.896071  1
  O  O15  1  0.192458  0.128895  0.560875  1
  F  F16  1  0.792582  0.538203  0.753617  1
  F  F17  1  0.207418  0.461797  0.246383  1
