# generated using pymatgen
data_Li4Si2NiO7
_symmetry_space_group_name_H-M   'P 1'
_cell_length_a   4.50084904
_cell_length_b   5.31337140
_cell_length_c   6.76507130
_cell_angle_alpha   98.11073034
_cell_angle_beta   91.31329766
_cell_angle_gamma   114.58887921
_symmetry_Int_Tables_number   1
_chemical_formula_structural   Li4Si2NiO7
_chemical_formula_sum   'Li4 Si2 Ni1 O7'
_cell_volume   145.04192462
_cell_formula_units_Z   1
loop_
 _symmetry_equiv_pos_site_id
 _symmetry_equiv_pos_as_xyz
  1  'x, y, z'
loop_
 _atom_site_type_symbol
 _atom_site_label
 _atom_site_symmetry_multiplicity
 _atom_site_fract_x
 _atom_site_fract_y
 _atom_site_fract_z
 _atom_site_occupancy
  Li  Li0  1  0.132778  0.299057  0.438039  1
  Li  Li1  1  0.707856  0.435064  0.143584  1
  Li  Li2  1  0.284752  0.582150  0.853234  1
  Li  Li3  1  0.840486  0.706731  0.566921  1
  Si  Si4  1  0.586152  0.147499  0.708613  1
  Si  Si5  1  0.432067  0.852323  0.286383  1
  Ni  Ni6  1  0.010803  0.026079  0.006759  1
  O  O7  1  0.762605  0.105836  0.226327  1
  O  O8  1  0.404996  0.262208  0.883263  1
  O  O9  1  0.909876  0.403830  0.654624  1
  O  O10  1  0.498819  0.591629  0.340635  1
  O  O11  1  0.133807  0.743319  0.106077  1
  O  O12  1  0.669861  0.895372  0.776007  1
  O  O13  1  0.315574  0.997923  0.496718  1
