# generated using pymatgen
data_Ba2YBr7
_symmetry_space_group_name_H-M   'P 1'
_cell_length_a   9.80623956
_cell_length_b   9.80623956
_cell_length_c   11.36325924
_cell_angle_alpha   55.67535327
_cell_angle_beta   124.32464673
_cell_angle_gamma   127.54723741
_symmetry_Int_Tables_number   1
_chemical_formula_structural   Ba2YBr7
_chemical_formula_sum   'Ba4 Y2 Br14'
_cell_volume   673.80073383
_cell_formula_units_Z   2
loop_
 _symmetry_equiv_pos_site_id
 _symmetry_equiv_pos_as_xyz
  1  'x, y, z'
loop_
 _atom_site_type_symbol
 _atom_site_label
 _atom_site_symmetry_multiplicity
 _atom_site_fract_x
 _atom_site_fract_y
 _atom_site_fract_z
 _atom_site_occupancy
  Ba  Ba0  1  0.708723  0.318685  0.299639  1
  Ba  Ba1  1  0.681315  0.291277  0.799639  1
  Ba  Ba2  1  0.318685  0.708723  0.200361  1
  Ba  Ba3  1  0.291277  0.681315  0.700361  1
  Y  Y4  1  0.052011  0.052011  0.250000  1
  Y  Y5  1  0.947989  0.947989  0.750000  1
  Br  Br6  1  0.936602  0.315914  0.160738  1
  Br  Br7  1  0.684086  0.063398  0.660738  1
  Br  Br8  1  0.931667  0.751520  0.056615  1
  Br  Br9  1  0.898074  0.656648  0.435711  1
  Br  Br10  1  0.399546  0.399546  0.250000  1
  Br  Br11  1  0.248480  0.068333  0.556615  1
  Br  Br12  1  0.656648  0.898074  0.064289  1
  Br  Br13  1  0.343352  0.101926  0.935711  1
  Br  Br14  1  0.751520  0.931667  0.443385  1
  Br  Br15  1  0.600454  0.600454  0.750000  1
  Br  Br16  1  0.101926  0.343352  0.564289  1
  Br  Br17  1  0.068333  0.248480  0.943385  1
  Br  Br18  1  0.315914  0.936602  0.339262  1
  Br  Br19  1  0.063398  0.684086  0.839262  1
