# generated using pymatgen
data_Li3V(PO4)2
_symmetry_space_group_name_H-M   'P 1'
_cell_length_a   7.00150567
_cell_length_b   5.36663127
_cell_length_c   8.62654717
_cell_angle_alpha   90.00000000
_cell_angle_beta   97.07510805
_cell_angle_gamma   90.00000000
_symmetry_Int_Tables_number   1
_chemical_formula_structural   Li3V(PO4)2
_chemical_formula_sum   'Li6 V2 P4 O16'
_cell_volume   321.67005384
_cell_formula_units_Z   2
loop_
 _symmetry_equiv_pos_site_id
 _symmetry_equiv_pos_as_xyz
  1  'x, y, z'
loop_
 _atom_site_type_symbol
 _atom_site_label
 _atom_site_symmetry_multiplicity
 _atom_site_fract_x
 _atom_site_fract_y
 _atom_site_fract_z
 _atom_site_occupancy
  Li  Li0  1  0.651617  0.750000  0.027669  1
  Li  Li1  1  0.590082  0.250000  0.682127  1
  Li  Li2  1  0.286263  0.750000  0.658523  1
  Li  Li3  1  0.713737  0.250000  0.341477  1
  Li  Li4  1  0.409918  0.750000  0.317873  1
  Li  Li5  1  0.348383  0.250000  0.972331  1
  V  V6  1  0.025273  0.250000  0.749606  1
  V  V7  1  0.974727  0.750000  0.250394  1
  P  P8  1  0.216487  0.750000  0.952487  1
  P  P9  1  0.743612  0.750000  0.589564  1
  P  P10  1  0.256388  0.250000  0.410436  1
  P  P11  1  0.783513  0.250000  0.047513  1
  O  O12  1  0.032213  0.750000  0.030097  1
  O  O13  1  0.604275  0.250000  0.926289  1
  O  O14  1  0.225772  0.521968  0.839030  1
  O  O15  1  0.225772  0.978032  0.839030  1
  O  O16  1  0.819771  0.506873  0.675062  1
  O  O17  1  0.819771  0.993127  0.675062  1
  O  O18  1  0.522971  0.750000  0.575994  1
  O  O19  1  0.188111  0.250000  0.574331  1
  O  O20  1  0.811889  0.750000  0.425669  1
  O  O21  1  0.477029  0.250000  0.424006  1
  O  O22  1  0.180229  0.006873  0.324938  1
  O  O23  1  0.180229  0.493127  0.324938  1
  O  O24  1  0.774228  0.021968  0.160970  1
  O  O25  1  0.774228  0.478032  0.160970  1
  O  O26  1  0.395725  0.750000  0.073711  1
  O  O27  1  0.967787  0.250000  0.969903  1
