# generated using pymatgen
data_Li3CrFe3O8
_symmetry_space_group_name_H-M   'P 1'
_cell_length_a   5.89277639
_cell_length_b   5.89277639
_cell_length_c   9.58604787
_cell_angle_alpha   90.00000000
_cell_angle_beta   90.00000000
_cell_angle_gamma   120.00000000
_symmetry_Int_Tables_number   1
_chemical_formula_structural   Li3CrFe3O8
_chemical_formula_sum   'Li6 Cr2 Fe6 O16'
_cell_volume   288.27710292
_cell_formula_units_Z   2
loop_
 _symmetry_equiv_pos_site_id
 _symmetry_equiv_pos_as_xyz
  1  'x, y, z'
loop_
 _atom_site_type_symbol
 _atom_site_label
 _atom_site_symmetry_multiplicity
 _atom_site_fract_x
 _atom_site_fract_y
 _atom_site_fract_z
 _atom_site_occupancy
  Li  Li0  1  0.657438  0.828719  0.055933  1
  Li  Li1  1  0.171281  0.342562  0.055933  1
  Li  Li2  1  0.171281  0.828719  0.055933  1
  Li  Li3  1  0.828719  0.171281  0.555933  1
  Li  Li4  1  0.828719  0.657438  0.555933  1
  Li  Li5  1  0.342562  0.171281  0.555933  1
  Cr  Cr6  1  0.333333  0.666667  0.511870  1
  Cr  Cr7  1  0.666667  0.333333  0.011870  1
  Fe  Fe8  1  0.661982  0.830991  0.787090  1
  Fe  Fe9  1  0.169009  0.338018  0.787090  1
  Fe  Fe10  1  0.169009  0.830991  0.787090  1
  Fe  Fe11  1  0.830991  0.169009  0.287090  1
  Fe  Fe12  1  0.830991  0.661982  0.287090  1
  Fe  Fe13  1  0.338018  0.169009  0.287090  1
  O  O14  1  0.664907  0.832453  0.407758  1
  O  O15  1  0.480124  0.519876  0.651071  1
  O  O16  1  0.333333  0.666667  0.903745  1
  O  O17  1  0.480124  0.960247  0.651071  1
  O  O18  1  0.167547  0.335093  0.407758  1
  O  O19  1  0.039753  0.519876  0.651071  1
  O  O20  1  0.167547  0.832453  0.407758  1
  O  O21  1  0.832453  0.167547  0.907758  1
  O  O22  1  0.960247  0.480124  0.151071  1
  O  O23  1  0.666667  0.333333  0.403745  1
  O  O24  1  0.519876  0.039753  0.151071  1
  O  O25  1  0.832453  0.664907  0.907758  1
  O  O26  1  0.000000  0.000000  0.677655  1
  O  O27  1  0.000000  0.000000  0.177655  1
  O  O28  1  0.519876  0.480124  0.151071  1
  O  O29  1  0.335093  0.167547  0.907758  1
