# generated using pymatgen
data_ZrH6O3F4
_symmetry_space_group_name_H-M   'P 1'
_cell_length_a   5.99548440
_cell_length_b   6.69733046
_cell_length_c   7.61988763
_cell_angle_alpha   76.94892376
_cell_angle_beta   75.05894882
_cell_angle_gamma   66.84951999
_symmetry_Int_Tables_number   1
_chemical_formula_structural   ZrH6O3F4
_chemical_formula_sum   'Zr2 H12 O6 F8'
_cell_volume   269.13731856
_cell_formula_units_Z   2
loop_
 _symmetry_equiv_pos_site_id
 _symmetry_equiv_pos_as_xyz
  1  'x, y, z'
loop_
 _atom_site_type_symbol
 _atom_site_label
 _atom_site_symmetry_multiplicity
 _atom_site_fract_x
 _atom_site_fract_y
 _atom_site_fract_z
 _atom_site_occupancy
  Zr  Zr0  1  0.120495  0.146839  0.781642  1
  Zr  Zr1  1  0.879505  0.853161  0.218358  1
  H  H2  1  0.803699  0.215348  0.522752  1
  H  H3  1  0.196301  0.784652  0.477248  1
  H  H4  1  0.769590  0.449264  0.565558  1
  H  H5  1  0.230410  0.550736  0.434442  1
  H  H6  1  0.642247  0.939611  0.822495  1
  H  H7  1  0.357753  0.060389  0.177505  1
  H  H8  1  0.612559  0.834852  0.660727  1
  H  H9  1  0.387441  0.165148  0.339273  1
  H  H10  1  0.243073  0.443695  0.934799  1
  H  H11  1  0.756927  0.556305  0.065201  1
  H  H12  1  0.490759  0.328044  0.787108  1
  H  H13  1  0.509241  0.671956  0.212892  1
  O  O14  1  0.783879  0.296912  0.624651  1
  O  O15  1  0.216121  0.703088  0.375349  1
  O  O16  1  0.524566  0.931305  0.757297  1
  O  O17  1  0.475434  0.068695  0.242703  1
  O  O18  1  0.323405  0.331410  0.849198  1
  O  O19  1  0.676595  0.668590  0.150802  1
  F  F20  1  0.861481  0.408642  0.897806  1
  F  F21  1  0.138519  0.591358  0.102194  1
  F  F22  1  0.831013  0.003151  0.940339  1
  F  F23  1  0.168987  0.996849  0.059661  1
  F  F24  1  0.165166  0.898184  0.647716  1
  F  F25  1  0.834834  0.101816  0.352284  1
  F  F26  1  0.246101  0.299043  0.524548  1
  F  F27  1  0.753899  0.700957  0.475452  1
