# generated using pymatgen
data_CoOF
_symmetry_space_group_name_H-M   'P 1'
_cell_length_a   4.71035930
_cell_length_b   2.89012017
_cell_length_c   13.95811571
_cell_angle_alpha   90.00000000
_cell_angle_beta   94.30844139
_cell_angle_gamma   90.00000000
_symmetry_Int_Tables_number   1
_chemical_formula_structural   CoOF
_chemical_formula_sum   'Co6 O6 F6'
_cell_volume   189.48189097
_cell_formula_units_Z   6
loop_
 _symmetry_equiv_pos_site_id
 _symmetry_equiv_pos_as_xyz
  1  'x, y, z'
loop_
 _atom_site_type_symbol
 _atom_site_label
 _atom_site_symmetry_multiplicity
 _atom_site_fract_x
 _atom_site_fract_y
 _atom_site_fract_z
 _atom_site_occupancy
  Co  Co0  1  0.084404  0.000000  0.164804  1
  Co  Co1  1  0.915596  0.000000  0.835196  1
  Co  Co2  1  0.000000  0.000000  0.500000  1
  Co  Co3  1  0.500000  0.500000  0.000000  1
  Co  Co4  1  0.466625  0.500000  0.671017  1
  Co  Co5  1  0.533375  0.500000  0.328983  1
  O  O6  1  0.760509  0.500000  0.896253  1
  O  O7  1  0.714850  0.000000  0.393434  1
  O  O8  1  0.636686  0.000000  0.736718  1
  O  O9  1  0.285150  0.000000  0.606566  1
  O  O10  1  0.363314  0.000000  0.263282  1
  O  O11  1  0.239491  0.500000  0.103747  1
  F  F12  1  0.889939  0.500000  0.227634  1
  F  F13  1  0.789633  0.500000  0.566234  1
  F  F14  1  0.748770  0.000000  0.070050  1
  F  F15  1  0.251230  0.000000  0.929950  1
  F  F16  1  0.110061  0.500000  0.772366  1
  F  F17  1  0.210367  0.500000  0.433766  1
