# generated using pymatgen
data_Fe3(OF2)2
_symmetry_space_group_name_H-M   'P 1'
_cell_length_a   4.74472767
_cell_length_b   4.74472767
_cell_length_c   9.41868495
_cell_angle_alpha   90.00000000
_cell_angle_beta   90.00000000
_cell_angle_gamma   90.00000000
_symmetry_Int_Tables_number   1
_chemical_formula_structural   Fe3(OF2)2
_chemical_formula_sum   'Fe6 O4 F8'
_cell_volume   212.03758582
_cell_formula_units_Z   2
loop_
 _symmetry_equiv_pos_site_id
 _symmetry_equiv_pos_as_xyz
  1  'x, y, z'
loop_
 _atom_site_type_symbol
 _atom_site_label
 _atom_site_symmetry_multiplicity
 _atom_site_fract_x
 _atom_site_fract_y
 _atom_site_fract_z
 _atom_site_occupancy
  Fe  Fe0  1  0.000000  0.000000  0.856781  1
  Fe  Fe1  1  0.000000  0.000000  0.143219  1
  Fe  Fe2  1  0.000000  0.000000  0.500000  1
  Fe  Fe3  1  0.500000  0.500000  0.000000  1
  Fe  Fe4  1  0.500000  0.500000  0.643219  1
  Fe  Fe5  1  0.500000  0.500000  0.356781  1
  O  O6  1  0.213652  0.786348  0.000000  1
  O  O7  1  0.286348  0.286348  0.500000  1
  O  O8  1  0.713652  0.713652  0.500000  1
  O  O9  1  0.786348  0.213652  0.000000  1
  F  F10  1  0.193587  0.806413  0.327589  1
  F  F11  1  0.193587  0.806413  0.672411  1
  F  F12  1  0.306413  0.306413  0.827589  1
  F  F13  1  0.306413  0.306413  0.172411  1
  F  F14  1  0.693587  0.693587  0.827589  1
  F  F15  1  0.693587  0.693587  0.172411  1
  F  F16  1  0.806413  0.193587  0.672411  1
  F  F17  1  0.806413  0.193587  0.327589  1
