# generated using pymatgen
data_LaHoO3
_symmetry_space_group_name_H-M   'P 1'
_cell_length_a   5.88351861
_cell_length_b   6.07552416
_cell_length_c   8.57596929
_cell_angle_alpha   90.00000000
_cell_angle_beta   90.00000000
_cell_angle_gamma   90.00000000
_symmetry_Int_Tables_number   1
_chemical_formula_structural   LaHoO3
_chemical_formula_sum   'La4 Ho4 O12'
_cell_volume   306.55196259
_cell_formula_units_Z   4
loop_
 _symmetry_equiv_pos_site_id
 _symmetry_equiv_pos_as_xyz
  1  'x, y, z'
loop_
 _atom_site_type_symbol
 _atom_site_label
 _atom_site_symmetry_multiplicity
 _atom_site_fract_x
 _atom_site_fract_y
 _atom_site_fract_z
 _atom_site_occupancy
  La  La0  1  0.981674  0.046691  0.250000  1
  La  La1  1  0.481674  0.453309  0.750000  1
  La  La2  1  0.518326  0.546691  0.250000  1
  La  La3  1  0.018326  0.953309  0.750000  1
  Ho  Ho4  1  0.500000  0.000000  0.000000  1
  Ho  Ho5  1  0.500000  0.000000  0.500000  1
  Ho  Ho6  1  0.000000  0.500000  0.000000  1
  Ho  Ho7  1  0.000000  0.500000  0.500000  1
  O  O8  1  0.631397  0.056553  0.750000  1
  O  O9  1  0.196701  0.197895  0.571530  1
  O  O10  1  0.196701  0.197895  0.928470  1
  O  O11  1  0.696701  0.302105  0.428470  1
  O  O12  1  0.696701  0.302105  0.071530  1
  O  O13  1  0.131397  0.443447  0.250000  1
  O  O14  1  0.868603  0.556553  0.750000  1
  O  O15  1  0.303299  0.697895  0.928470  1
  O  O16  1  0.303299  0.697895  0.571530  1
  O  O17  1  0.803299  0.802105  0.071530  1
  O  O18  1  0.803299  0.802105  0.428470  1
  O  O19  1  0.368603  0.943447  0.250000  1
