# generated using pymatgen
data_MnV3O8
_symmetry_space_group_name_H-M   'P 1'
_cell_length_a   5.69099985
_cell_length_b   5.70249632
_cell_length_c   7.57949600
_cell_angle_alpha   90.27221836
_cell_angle_beta   90.31736361
_cell_angle_gamma   90.59492742
_symmetry_Int_Tables_number   1
_chemical_formula_structural   MnV3O8
_chemical_formula_sum   'Mn1 V3 O8'
_cell_volume   245.95679186
_cell_formula_units_Z   1
loop_
 _symmetry_equiv_pos_site_id
 _symmetry_equiv_pos_as_xyz
  1  'x, y, z'
loop_
 _atom_site_type_symbol
 _atom_site_label
 _atom_site_symmetry_multiplicity
 _atom_site_fract_x
 _atom_site_fract_y
 _atom_site_fract_z
 _atom_site_occupancy
  Mn  Mn0  1  0.069184  0.511240  0.876670  1
  V  V1  1  0.936004  0.013823  0.129134  1
  V  V2  1  0.565882  0.494593  0.619519  1
  V  V3  1  0.438199  0.994462  0.375957  1
  O  O4  1  0.961411  0.301455  0.078215  1
  O  O5  1  0.854173  0.453978  0.664092  1
  O  O6  1  0.639483  0.941834  0.197432  1
  O  O7  1  0.517289  0.790817  0.547028  1
  O  O8  1  0.469886  0.296056  0.447575  1
  O  O9  1  0.405909  0.449987  0.805386  1
  O  O10  1  0.135223  0.951640  0.307955  1
  O  O11  1  0.007357  0.848515  0.951037  1
