# generated using pymatgen
data_Li3Bi(BO3)2
_symmetry_space_group_name_H-M   'P 1'
_cell_length_a   6.37794359
_cell_length_b   8.39667013
_cell_length_c   11.50710328
_cell_angle_alpha   90.00000000
_cell_angle_beta   117.37809969
_cell_angle_gamma   90.00000000
_symmetry_Int_Tables_number   1
_chemical_formula_structural   Li3Bi(BO3)2
_chemical_formula_sum   'Li12 Bi4 B8 O24'
_cell_volume   547.22061590
_cell_formula_units_Z   4
loop_
 _symmetry_equiv_pos_site_id
 _symmetry_equiv_pos_as_xyz
  1  'x, y, z'
loop_
 _atom_site_type_symbol
 _atom_site_label
 _atom_site_symmetry_multiplicity
 _atom_site_fract_x
 _atom_site_fract_y
 _atom_site_fract_z
 _atom_site_occupancy
  Li  Li0  1  0.440204  0.231937  0.368680  1
  Li  Li1  1  0.985874  0.295078  0.927567  1
  Li  Li2  1  0.294180  0.061056  0.118062  1
  Li  Li3  1  0.705820  0.561056  0.381938  1
  Li  Li4  1  0.559796  0.731937  0.131320  1
  Li  Li5  1  0.985874  0.204922  0.427567  1
  Li  Li6  1  0.014126  0.795078  0.572433  1
  Li  Li7  1  0.440204  0.268063  0.868680  1
  Li  Li8  1  0.294180  0.438944  0.618062  1
  Li  Li9  1  0.705820  0.938944  0.881938  1
  Li  Li10  1  0.014126  0.704922  0.072433  1
  Li  Li11  1  0.559796  0.768063  0.631320  1
  Bi  Bi12  1  0.899077  0.123277  0.667285  1
  Bi  Bi13  1  0.100923  0.623277  0.832715  1
  Bi  Bi14  1  0.899077  0.376723  0.167285  1
  Bi  Bi15  1  0.100923  0.876723  0.332715  1
  B  B16  1  0.372597  0.403879  0.137081  1
  B  B17  1  0.802347  0.450083  0.601666  1
  B  B18  1  0.627403  0.903879  0.362919  1
  B  B19  1  0.197653  0.950083  0.898334  1
  B  B20  1  0.802347  0.049917  0.101666  1
  B  B21  1  0.372597  0.096121  0.637081  1
  B  B22  1  0.197653  0.549917  0.398334  1
  B  B23  1  0.627403  0.596121  0.862919  1
  O  O24  1  0.286452  0.282154  0.185828  1
  O  O25  1  0.401280  0.966596  0.290447  1
  O  O26  1  0.226170  0.460892  0.013689  1
  O  O27  1  0.721705  0.341971  0.498748  1
  O  O28  1  0.862099  0.394058  0.729249  1
  O  O29  1  0.773830  0.960892  0.486311  1
  O  O30  1  0.845316  0.607812  0.586255  1
  O  O31  1  0.154684  0.107812  0.913745  1
  O  O32  1  0.137901  0.894058  0.770751  1
  O  O33  1  0.278295  0.841971  0.001252  1
  O  O34  1  0.598720  0.466596  0.209553  1
  O  O35  1  0.713548  0.782154  0.314172  1
  O  O36  1  0.286452  0.217846  0.685828  1
  O  O37  1  0.401280  0.533404  0.790447  1
  O  O38  1  0.721705  0.158029  0.998748  1
  O  O39  1  0.862099  0.105942  0.229249  1
  O  O40  1  0.845316  0.892188  0.086255  1
  O  O41  1  0.154684  0.392188  0.413745  1
  O  O42  1  0.226170  0.039108  0.513689  1
  O  O43  1  0.137901  0.605942  0.270751  1
  O  O44  1  0.278295  0.658029  0.501252  1
  O  O45  1  0.773830  0.539108  0.986311  1
  O  O46  1  0.598720  0.033404  0.709553  1
  O  O47  1  0.713548  0.717846  0.814172  1
