# generated using pymatgen
data_Li2Mg11(WO4)12
_symmetry_space_group_name_H-M   'P 1'
_cell_length_a   10.51339763
_cell_length_b   10.79198119
_cell_length_c   17.84812123
_cell_angle_alpha   90.00000000
_cell_angle_beta   90.51636832
_cell_angle_gamma   90.00000000
_symmetry_Int_Tables_number   1
_chemical_formula_structural   Li2Mg11(WO4)12
_chemical_formula_sum   'Li4 Mg22 W24 O96'
_cell_volume   2024.97254707
_cell_formula_units_Z   2
loop_
 _symmetry_equiv_pos_site_id
 _symmetry_equiv_pos_as_xyz
  1  'x, y, z'
loop_
 _atom_site_type_symbol
 _atom_site_label
 _atom_site_symmetry_multiplicity
 _atom_site_fract_x
 _atom_site_fract_y
 _atom_site_fract_z
 _atom_site_occupancy
  Li  Li0  1  0.381098  0.500000  0.291472  1
  Li  Li1  1  0.622695  0.000000  0.706738  1
  Li  Li2  1  0.877910  0.500000  0.291215  1
  Li  Li3  1  0.949400  0.000000  0.249135  1
  Mg  Mg4  1  0.050530  0.500000  0.749493  1
  Mg  Mg5  1  0.129222  0.828368  0.528558  1
  Mg  Mg6  1  0.129222  0.171632  0.528558  1
  Mg  Mg7  1  0.120168  0.323522  0.031495  1
  Mg  Mg8  1  0.120168  0.676478  0.031495  1
  Mg  Mg9  1  0.211847  0.000000  0.250259  1
  Mg  Mg10  1  0.300359  0.500000  0.751202  1
  Mg  Mg11  1  0.377982  0.828545  0.971796  1
  Mg  Mg12  1  0.377982  0.171455  0.971796  1
  Mg  Mg13  1  0.370258  0.323190  0.468287  1
  Mg  Mg14  1  0.370258  0.676810  0.468287  1
  Mg  Mg15  1  0.550279  0.500000  0.749609  1
  Mg  Mg16  1  0.628554  0.826420  0.528112  1
  Mg  Mg17  1  0.628554  0.173580  0.528112  1
  Mg  Mg18  1  0.620384  0.676843  0.031513  1
  Mg  Mg19  1  0.620384  0.323157  0.031513  1
  Mg  Mg20  1  0.683284  0.000000  0.248017  1
  Mg  Mg21  1  0.801005  0.500000  0.750764  1
  Mg  Mg22  1  0.880116  0.172840  0.971962  1
  Mg  Mg23  1  0.880116  0.827160  0.971962  1
  Mg  Mg24  1  0.871823  0.322767  0.469265  1
  Mg  Mg25  1  0.871823  0.677233  0.469265  1
  W  W26  1  0.110496  0.000000  0.056410  1
  W  W27  1  0.110036  0.276801  0.342144  1
  W  W28  1  0.110036  0.723199  0.342144  1
  W  W29  1  0.137863  0.773020  0.843309  1
  W  W30  1  0.137863  0.226980  0.843309  1
  W  W31  1  0.140197  0.500000  0.556378  1
  W  W32  1  0.360469  0.000000  0.444934  1
  W  W33  1  0.362813  0.725442  0.157001  1
  W  W34  1  0.362813  0.274558  0.157001  1
  W  W35  1  0.391930  0.774177  0.656289  1
  W  W36  1  0.391930  0.225823  0.656289  1
  W  W37  1  0.389914  0.500000  0.943221  1
  W  W38  1  0.611774  0.000000  0.053654  1
  W  W39  1  0.611778  0.281030  0.342914  1
  W  W40  1  0.611778  0.718970  0.342914  1
  W  W41  1  0.639207  0.772897  0.843425  1
  W  W42  1  0.639207  0.227103  0.843425  1
  W  W43  1  0.640419  0.500000  0.557003  1
  W  W44  1  0.858526  0.000000  0.443277  1
  W  W45  1  0.861311  0.728347  0.158278  1
  W  W46  1  0.861311  0.271653  0.158278  1
  W  W47  1  0.889646  0.776140  0.657699  1
  W  W48  1  0.889646  0.223860  0.657699  1
  W  W49  1  0.890015  0.500000  0.943213  1
  O  O50  1  0.024381  0.857336  0.620024  1
  O  O51  1  0.024381  0.142664  0.620024  1
  O  O52  1  0.031911  0.500000  0.004466  1
  O  O53  1  0.038325  0.264379  0.927431  1
  O  O54  1  0.038325  0.735621  0.927431  1
  O  O55  1  0.041001  0.366981  0.534964  1
  O  O56  1  0.041001  0.633019  0.534964  1
  O  O57  1  0.038670  0.862734  0.785430  1
  O  O58  1  0.038670  0.137266  0.785430  1
  O  O59  1  0.079330  0.130034  0.294663  1
  O  O60  1  0.079330  0.869966  0.294663  1
  O  O61  1  0.076366  0.000000  0.154544  1
  O  O62  1  0.176038  0.500000  0.656768  1
  O  O63  1  0.176157  0.374331  0.793829  1
  O  O64  1  0.176157  0.625669  0.793829  1
  O  O65  1  0.208145  0.865539  0.033641  1
  O  O66  1  0.208145  0.134461  0.033641  1
  O  O67  1  0.205866  0.761135  0.428769  1
  O  O68  1  0.205866  0.238865  0.428769  1
  O  O69  1  0.215992  0.370086  0.290978  1
  O  O70  1  0.215992  0.629914  0.290978  1
  O  O71  1  0.218879  0.000000  0.506810  1
  O  O72  1  0.228600  0.360623  0.119806  1
  O  O73  1  0.228600  0.639377  0.119806  1
  O  O74  1  0.273909  0.857328  0.878544  1
  O  O75  1  0.273909  0.142672  0.878544  1
  O  O76  1  0.281787  0.500000  0.496118  1
  O  O77  1  0.291262  0.367043  0.964228  1
  O  O78  1  0.291262  0.632957  0.964228  1
  O  O79  1  0.291170  0.262654  0.572258  1
  O  O80  1  0.291170  0.737346  0.572258  1
  O  O81  1  0.293157  0.864934  0.711577  1
  O  O82  1  0.293157  0.135066  0.711577  1
  O  O83  1  0.312881  0.000000  0.349758  1
  O  O84  1  0.311930  0.865043  0.201992  1
  O  O85  1  0.311930  0.134957  0.201992  1
  O  O86  1  0.426844  0.500000  0.843060  1
  O  O87  1  0.425932  0.373662  0.706450  1
  O  O88  1  0.425932  0.626338  0.706450  1
  O  O89  1  0.458338  0.863301  0.465684  1
  O  O90  1  0.458338  0.136699  0.465684  1
  O  O91  1  0.457636  0.365988  0.219326  1
  O  O92  1  0.457636  0.634012  0.219326  1
  O  O93  1  0.462946  0.764431  0.072160  1
  O  O94  1  0.462946  0.235569  0.072160  1
  O  O95  1  0.465900  0.000000  0.993517  1
  O  O96  1  0.470686  0.364935  0.377511  1
  O  O97  1  0.470686  0.635065  0.377511  1
  O  O98  1  0.530235  0.861470  0.623343  1
  O  O99  1  0.530235  0.138530  0.623343  1
  O  O100  1  0.532511  0.500000  0.004214  1
  O  O101  1  0.537820  0.262940  0.926040  1
  O  O102  1  0.537820  0.737060  0.926040  1
  O  O103  1  0.541062  0.366379  0.536371  1
  O  O104  1  0.541062  0.633621  0.536371  1
  O  O105  1  0.547154  0.868249  0.783509  1
  O  O106  1  0.547154  0.131751  0.783509  1
  O  O107  1  0.580597  0.864359  0.297513  1
  O  O108  1  0.580597  0.135641  0.297513  1
  O  O109  1  0.577836  0.000000  0.150722  1
  O  O110  1  0.676325  0.500000  0.657330  1
  O  O111  1  0.676492  0.374151  0.793956  1
  O  O112  1  0.676492  0.625849  0.793956  1
  O  O113  1  0.710146  0.864787  0.032369  1
  O  O114  1  0.710146  0.135213  0.032369  1
  O  O115  1  0.707637  0.759357  0.429540  1
  O  O116  1  0.707637  0.240643  0.429540  1
  O  O117  1  0.719764  0.371125  0.290308  1
  O  O118  1  0.719764  0.628875  0.290308  1
  O  O119  1  0.717535  0.000000  0.505775  1
  O  O120  1  0.727537  0.357674  0.121158  1
  O  O121  1  0.727537  0.642326  0.121158  1
  O  O122  1  0.775417  0.855490  0.878497  1
  O  O123  1  0.775417  0.144510  0.878497  1
  O  O124  1  0.781372  0.500000  0.496312  1
  O  O125  1  0.790601  0.367243  0.964314  1
  O  O126  1  0.790601  0.632757  0.964314  1
  O  O127  1  0.791167  0.264268  0.573369  1
  O  O128  1  0.791167  0.735732  0.573369  1
  O  O129  1  0.784210  0.870489  0.708777  1
  O  O130  1  0.784210  0.129511  0.708777  1
  O  O131  1  0.817012  0.000000  0.346141  1
  O  O132  1  0.816837  0.872019  0.204756  1
  O  O133  1  0.816837  0.127981  0.204756  1
  O  O134  1  0.925947  0.500000  0.843036  1
  O  O135  1  0.924926  0.372727  0.706870  1
  O  O136  1  0.924926  0.627273  0.706870  1
  O  O137  1  0.957694  0.864875  0.464489  1
  O  O138  1  0.957694  0.135125  0.464489  1
  O  O139  1  0.957331  0.364907  0.218385  1
  O  O140  1  0.957331  0.635093  0.218385  1
  O  O141  1  0.961688  0.235734  0.073581  1
  O  O142  1  0.961688  0.764266  0.073581  1
  O  O143  1  0.966163  0.000000  0.995191  1
  O  O144  1  0.970903  0.362383  0.376845  1
  O  O145  1  0.970903  0.637617  0.376845  1
