# generated using pymatgen
data_MoO2
_symmetry_space_group_name_H-M   'P 1'
_cell_length_a   6.43542663
_cell_length_b   6.43542663
_cell_length_c   6.43542663
_cell_angle_alpha   121.57381666
_cell_angle_beta   121.57381666
_cell_angle_gamma   87.29502129
_symmetry_Int_Tables_number   1
_chemical_formula_structural   MoO2
_chemical_formula_sum   'Mo4 O8'
_cell_volume   183.75335388
_cell_formula_units_Z   4
loop_
 _symmetry_equiv_pos_site_id
 _symmetry_equiv_pos_as_xyz
  1  'x, y, z'
loop_
 _atom_site_type_symbol
 _atom_site_label
 _atom_site_symmetry_multiplicity
 _atom_site_fract_x
 _atom_site_fract_y
 _atom_site_fract_z
 _atom_site_occupancy
  Mo  Mo0  1  0.375000  0.625000  0.750000  1
  Mo  Mo1  1  0.875000  0.625000  0.250000  1
  Mo  Mo2  1  0.375000  0.625000  0.250000  1
  Mo  Mo3  1  0.375000  0.125000  0.750000  1
  O  O4  1  0.147208  0.435051  0.287844  1
  O  O5  1  0.140636  0.852792  0.287844  1
  O  O6  1  0.602792  0.814949  0.212156  1
  O  O7  1  0.185051  0.397208  0.787844  1
  O  O8  1  0.609364  0.397208  0.212156  1
  O  O9  1  0.602792  0.390636  0.787844  1
  O  O10  1  0.564949  0.852792  0.712156  1
  O  O11  1  0.147208  0.859364  0.712156  1
