# generated using pymatgen
data_Li2MnFe(BO3)2
_symmetry_space_group_name_H-M   'P 1'
_cell_length_a   5.17115488
_cell_length_b   6.20926759
_cell_length_c   8.05511358
_cell_angle_alpha   78.53711952
_cell_angle_beta   88.58951429
_cell_angle_gamma   87.60159004
_symmetry_Int_Tables_number   1
_chemical_formula_structural   Li2MnFe(BO3)2
_chemical_formula_sum   'Li4 Mn2 Fe2 B4 O12'
_cell_volume   253.22621522
_cell_formula_units_Z   2
loop_
 _symmetry_equiv_pos_site_id
 _symmetry_equiv_pos_as_xyz
  1  'x, y, z'
loop_
 _atom_site_type_symbol
 _atom_site_label
 _atom_site_symmetry_multiplicity
 _atom_site_fract_x
 _atom_site_fract_y
 _atom_site_fract_z
 _atom_site_occupancy
  Li  Li0  1  0.915217  0.523912  0.148674  1
  Li  Li1  1  0.416684  0.024056  0.652370  1
  Li  Li2  1  0.583316  0.975944  0.347630  1
  Li  Li3  1  0.084783  0.476088  0.851326  1
  Mn  Mn4  1  0.903294  0.256585  0.505656  1
  Mn  Mn5  1  0.096706  0.743415  0.494344  1
  Fe  Fe6  1  0.411608  0.757710  0.012072  1
  Fe  Fe7  1  0.588392  0.242290  0.987928  1
  B  B8  1  0.094519  0.093962  0.166626  1
  B  B9  1  0.400615  0.409734  0.329957  1
  B  B10  1  0.599385  0.590266  0.670043  1
  B  B11  1  0.905481  0.906038  0.833374  1
  O  O12  1  0.980724  0.252082  0.042225  1
  O  O13  1  0.956885  0.006563  0.313637  1
  O  O14  1  0.356629  0.027589  0.149924  1
  O  O15  1  0.542835  0.500872  0.185566  1
  O  O16  1  0.508741  0.246509  0.453675  1
  O  O17  1  0.142263  0.480803  0.345404  1
  O  O18  1  0.857737  0.519197  0.654596  1
  O  O19  1  0.491259  0.753491  0.546325  1
  O  O20  1  0.457165  0.499128  0.814434  1
  O  O21  1  0.643371  0.972411  0.850076  1
  O  O22  1  0.043115  0.993437  0.686363  1
  O  O23  1  0.019276  0.747918  0.957775  1
