# generated using pymatgen
data_FePHO5
_symmetry_space_group_name_H-M   'P 1'
_cell_length_a   5.25427926
_cell_length_b   5.32016009
_cell_length_c   7.36043437
_cell_angle_alpha   106.76919034
_cell_angle_beta   109.41265246
_cell_angle_gamma   97.22300670
_symmetry_Int_Tables_number   1
_chemical_formula_structural   FePHO5
_chemical_formula_sum   'Fe2 P2 H2 O10'
_cell_volume   180.11897897
_cell_formula_units_Z   2
loop_
 _symmetry_equiv_pos_site_id
 _symmetry_equiv_pos_as_xyz
  1  'x, y, z'
loop_
 _atom_site_type_symbol
 _atom_site_label
 _atom_site_symmetry_multiplicity
 _atom_site_fract_x
 _atom_site_fract_y
 _atom_site_fract_z
 _atom_site_occupancy
  Fe  Fe0  1  0.000000  0.000000  0.500000  1
  Fe  Fe1  1  0.000000  0.000000  0.000000  1
  P  P2  1  0.667154  0.348282  0.228839  1
  P  P3  1  0.332846  0.651718  0.771161  1
  H  H4  1  0.351020  0.027900  0.326024  1
  H  H5  1  0.648980  0.972100  0.673976  1
  O  O6  1  0.854806  0.033417  0.726599  1
  O  O7  1  0.709876  0.192952  0.381472  1
  O  O8  1  0.291486  0.346451  0.660567  1
  O  O9  1  0.367055  0.234770  0.065145  1
  O  O10  1  0.878307  0.319121  0.122733  1
  O  O11  1  0.121693  0.680879  0.877267  1
  O  O12  1  0.632945  0.765230  0.934855  1
  O  O13  1  0.708514  0.653549  0.339433  1
  O  O14  1  0.290124  0.807048  0.618528  1
  O  O15  1  0.145194  0.966583  0.273401  1
