# generated using pymatgen
data_Mn8O13F3
_symmetry_space_group_name_H-M   'P 1'
_cell_length_a   4.51754180
_cell_length_b   5.55272225
_cell_length_c   9.96303591
_cell_angle_alpha   89.65844724
_cell_angle_beta   89.58087213
_cell_angle_gamma   87.49677549
_symmetry_Int_Tables_number   1
_chemical_formula_structural   Mn8O13F3
_chemical_formula_sum   'Mn8 O13 F3'
_cell_volume   249.67017354
_cell_formula_units_Z   1
loop_
 _symmetry_equiv_pos_site_id
 _symmetry_equiv_pos_as_xyz
  1  'x, y, z'
loop_
 _atom_site_type_symbol
 _atom_site_label
 _atom_site_symmetry_multiplicity
 _atom_site_fract_x
 _atom_site_fract_y
 _atom_site_fract_z
 _atom_site_occupancy
  Mn  Mn0  1  0.984666  0.838859  0.628257  1
  Mn  Mn1  1  0.996080  0.146199  0.368945  1
  Mn  Mn2  1  0.019679  0.862119  0.123477  1
  Mn  Mn3  1  0.978889  0.136685  0.875406  1
  Mn  Mn4  1  0.502269  0.660968  0.881280  1
  Mn  Mn5  1  0.493936  0.649084  0.379382  1
  Mn  Mn6  1  0.486912  0.338711  0.121938  1
  Mn  Mn7  1  0.522862  0.360060  0.623387  1
  O  O8  1  0.772524  0.889321  0.460387  1
  O  O9  1  0.773291  0.895091  0.966567  1
  O  O10  1  0.774623  0.113314  0.210264  1
  O  O11  1  0.760988  0.112286  0.709636  1
  O  O12  1  0.743920  0.393096  0.460034  1
  O  O13  1  0.725072  0.608290  0.713724  1
  O  O14  1  0.725135  0.382520  0.960333  1
  O  O15  1  0.265148  0.616124  0.041062  1
  O  O16  1  0.273449  0.387988  0.290031  1
  O  O17  1  0.271160  0.610684  0.540678  1
  O  O18  1  0.243548  0.891502  0.288777  1
  O  O19  1  0.225546  0.104267  0.033334  1
  O  O20  1  0.221129  0.883837  0.788300  1
  F  F21  1  0.745755  0.625790  0.211465  1
  F  F22  1  0.252788  0.372651  0.785190  1
  F  F23  1  0.240628  0.120555  0.538148  1
