# generated using pymatgen
data_Na2Li(NiO2)3
_symmetry_space_group_name_H-M   'P 1'
_cell_length_a   6.65392036
_cell_length_b   6.65392036
_cell_length_c   6.16213986
_cell_angle_alpha   73.26255721
_cell_angle_beta   106.73744279
_cell_angle_gamma   153.93846518
_symmetry_Int_Tables_number   1
_chemical_formula_structural   Na2Li(NiO2)3
_chemical_formula_sum   'Na2 Li1 Ni3 O6'
_cell_volume   114.50622665
_cell_formula_units_Z   1
loop_
 _symmetry_equiv_pos_site_id
 _symmetry_equiv_pos_as_xyz
  1  'x, y, z'
loop_
 _atom_site_type_symbol
 _atom_site_label
 _atom_site_symmetry_multiplicity
 _atom_site_fract_x
 _atom_site_fract_y
 _atom_site_fract_z
 _atom_site_occupancy
  Na  Na0  1  0.335435  0.664565  0.168746  1
  Na  Na1  1  0.664565  0.335435  0.831254  1
  Li  Li2  1  1.000000  0.000000  0.500000  1
  Ni  Ni3  1  0.000000  0.000000  0.000000  1
  Ni  Ni4  1  0.333545  0.666455  0.663003  1
  Ni  Ni5  1  0.666455  0.333545  0.336997  1
  O  O6  1  0.820480  0.179520  0.437636  1
  O  O7  1  0.179520  0.820480  0.562364  1
  O  O8  1  0.152867  0.847133  0.108878  1
  O  O9  1  0.514950  0.485050  0.245503  1
  O  O10  1  0.485050  0.514950  0.754497  1
  O  O11  1  0.847133  0.152867  0.891122  1
