# generated using pymatgen
data_LiFePCO7
_symmetry_space_group_name_H-M   'P 1'
_cell_length_a   5.20294830
_cell_length_b   6.43013285
_cell_length_c   8.45524426
_cell_angle_alpha   90.00000000
_cell_angle_beta   95.86776744
_cell_angle_gamma   90.00000000
_symmetry_Int_Tables_number   1
_chemical_formula_structural   LiFePCO7
_chemical_formula_sum   'Li2 Fe2 P2 C2 O14'
_cell_volume   281.39355188
_cell_formula_units_Z   2
loop_
 _symmetry_equiv_pos_site_id
 _symmetry_equiv_pos_as_xyz
  1  'x, y, z'
loop_
 _atom_site_type_symbol
 _atom_site_label
 _atom_site_symmetry_multiplicity
 _atom_site_fract_x
 _atom_site_fract_y
 _atom_site_fract_z
 _atom_site_occupancy
  Li  Li0  1  0.771757  0.250000  0.888493  1
  Li  Li1  1  0.228243  0.750000  0.111507  1
  Fe  Fe2  1  0.800589  0.750000  0.665910  1
  Fe  Fe3  1  0.199411  0.250000  0.334090  1
  P  P4  1  0.734894  0.250000  0.576361  1
  P  P5  1  0.265106  0.750000  0.423639  1
  C  C6  1  0.702457  0.750000  0.955904  1
  C  C7  1  0.297543  0.250000  0.044096  1
  O  O8  1  0.943496  0.750000  0.931041  1
  O  O9  1  0.385291  0.250000  0.910484  1
  O  O10  1  0.539346  0.750000  0.827669  1
  O  O11  1  0.800529  0.062550  0.689453  1
  O  O12  1  0.800529  0.437450  0.689453  1
  O  O13  1  0.117351  0.750000  0.571942  1
  O  O14  1  0.443362  0.250000  0.518827  1
  O  O15  1  0.556638  0.750000  0.481173  1
  O  O16  1  0.882649  0.250000  0.428058  1
  O  O17  1  0.199471  0.562550  0.310547  1
  O  O18  1  0.199471  0.937450  0.310547  1
  O  O19  1  0.460654  0.250000  0.172331  1
  O  O20  1  0.614709  0.750000  0.089516  1
  O  O21  1  0.056504  0.250000  0.068959  1
