# generated using pymatgen
data_Li3NbHO2F7
_symmetry_space_group_name_H-M   'P 1'
_cell_length_a   6.56382034
_cell_length_b   13.00190049
_cell_length_c   14.25184531
_cell_angle_alpha   90.00000000
_cell_angle_beta   90.00000000
_cell_angle_gamma   90.00000000
_symmetry_Int_Tables_number   1
_chemical_formula_structural   Li3NbHO2F7
_chemical_formula_sum   'Li24 Nb8 H8 O16 F56'
_cell_volume   1216.28296195
_cell_formula_units_Z   8
loop_
 _symmetry_equiv_pos_site_id
 _symmetry_equiv_pos_as_xyz
  1  'x, y, z'
loop_
 _atom_site_type_symbol
 _atom_site_label
 _atom_site_symmetry_multiplicity
 _atom_site_fract_x
 _atom_site_fract_y
 _atom_site_fract_z
 _atom_site_occupancy
  Li  Li0  1  0.797221  0.654636  0.766915  1
  Li  Li1  1  0.797221  0.154636  0.233085  1
  Li  Li2  1  0.768685  0.633457  0.495881  1
  Li  Li3  1  0.768685  0.133457  0.504119  1
  Li  Li4  1  0.769156  0.437302  0.619176  1
  Li  Li5  1  0.769156  0.937302  0.380824  1
  Li  Li6  1  0.730844  0.937302  0.880824  1
  Li  Li7  1  0.730844  0.437302  0.119176  1
  Li  Li8  1  0.731315  0.633457  0.995881  1
  Li  Li9  1  0.731315  0.133457  0.004119  1
  Li  Li10  1  0.702779  0.154636  0.733085  1
  Li  Li11  1  0.702779  0.654636  0.266915  1
  Li  Li12  1  0.297221  0.345364  0.733085  1
  Li  Li13  1  0.297221  0.845364  0.266915  1
  Li  Li14  1  0.268685  0.866543  0.995881  1
  Li  Li15  1  0.268685  0.366543  0.004119  1
  Li  Li16  1  0.269156  0.562698  0.880824  1
  Li  Li17  1  0.269156  0.062698  0.119176  1
  Li  Li18  1  0.230844  0.562698  0.380824  1
  Li  Li19  1  0.230844  0.062698  0.619176  1
  Li  Li20  1  0.231315  0.866543  0.495881  1
  Li  Li21  1  0.231315  0.366543  0.504119  1
  Li  Li22  1  0.202779  0.845364  0.766915  1
  Li  Li23  1  0.202779  0.345364  0.233085  1
  Nb  Nb24  1  0.758227  0.391187  0.868458  1
  Nb  Nb25  1  0.758227  0.891187  0.131542  1
  Nb  Nb26  1  0.741773  0.891187  0.631542  1
  Nb  Nb27  1  0.741773  0.391187  0.368458  1
  Nb  Nb28  1  0.258227  0.608813  0.631542  1
  Nb  Nb29  1  0.258227  0.108813  0.368458  1
  Nb  Nb30  1  0.241773  0.108813  0.868458  1
  Nb  Nb31  1  0.241773  0.608813  0.131542  1
  H  H32  1  0.000000  0.750000  0.901360  1
  H  H33  1  0.000000  0.250000  0.616470  1
  H  H34  1  0.000000  0.750000  0.383530  1
  H  H35  1  0.000000  0.250000  0.098640  1
  H  H36  1  0.500000  0.250000  0.116470  1
  H  H37  1  0.500000  0.250000  0.598640  1
  H  H38  1  0.500000  0.750000  0.401360  1
  H  H39  1  0.500000  0.750000  0.883530  1
  O  O40  1  0.970962  0.646729  0.176784  1
  O  O41  1  0.970962  0.146729  0.823216  1
  O  O42  1  0.956336  0.573847  0.098834  1
  O  O43  1  0.956336  0.073847  0.901166  1
  O  O44  1  0.543664  0.573847  0.598834  1
  O  O45  1  0.543664  0.073847  0.401166  1
  O  O46  1  0.529038  0.646729  0.676784  1
  O  O47  1  0.529038  0.146729  0.323216  1
  O  O48  1  0.470962  0.853271  0.676784  1
  O  O49  1  0.470962  0.353271  0.323216  1
  O  O50  1  0.456336  0.926153  0.598834  1
  O  O51  1  0.456336  0.426153  0.401166  1
  O  O52  1  0.043664  0.426153  0.901166  1
  O  O53  1  0.043664  0.926153  0.098834  1
  O  O54  1  0.029038  0.353271  0.823216  1
  O  O55  1  0.029038  0.853271  0.176784  1
  F  F56  1  0.960657  0.663190  0.899800  1
  F  F57  1  0.960657  0.163190  0.100200  1
  F  F58  1  0.978166  0.161712  0.615623  1
  F  F59  1  0.978166  0.661712  0.384377  1
  F  F60  1  0.948437  0.592487  0.632290  1
  F  F61  1  0.948437  0.092487  0.367710  1
  F  F62  1  0.817860  0.801997  0.742144  1
  F  F63  1  0.817860  0.301997  0.257856  1
  F  F64  1  0.786769  0.982294  0.517431  1
  F  F65  1  0.786769  0.482294  0.482569  1
  F  F66  1  0.777707  0.774827  0.546286  1
  F  F67  1  0.777707  0.274827  0.453714  1
  F  F68  1  0.752913  0.006193  0.722503  1
  F  F69  1  0.752913  0.506193  0.277497  1
  F  F70  1  0.747087  0.506193  0.777497  1
  F  F71  1  0.747087  0.006193  0.222503  1
  F  F72  1  0.722293  0.274827  0.953714  1
  F  F73  1  0.722293  0.774827  0.046286  1
  F  F74  1  0.713231  0.982294  0.017431  1
  F  F75  1  0.713231  0.482294  0.982569  1
  F  F76  1  0.682140  0.301997  0.757856  1
  F  F77  1  0.682140  0.801997  0.242144  1
  F  F78  1  0.551563  0.592487  0.132290  1
  F  F79  1  0.551563  0.092487  0.867710  1
  F  F80  1  0.521834  0.161712  0.115623  1
  F  F81  1  0.521834  0.661712  0.884377  1
  F  F82  1  0.539343  0.163190  0.600200  1
  F  F83  1  0.539343  0.663190  0.399800  1
  F  F84  1  0.460657  0.336810  0.600200  1
  F  F85  1  0.460657  0.836810  0.399800  1
  F  F86  1  0.478166  0.338288  0.115623  1
  F  F87  1  0.478166  0.838288  0.884377  1
  F  F88  1  0.448437  0.907513  0.132290  1
  F  F89  1  0.448437  0.407513  0.867710  1
  F  F90  1  0.317860  0.198003  0.757856  1
  F  F91  1  0.317860  0.698003  0.242144  1
  F  F92  1  0.286769  0.017706  0.982569  1
  F  F93  1  0.286769  0.517706  0.017431  1
  F  F94  1  0.277707  0.225173  0.953714  1
  F  F95  1  0.277707  0.725173  0.046286  1
  F  F96  1  0.252913  0.493807  0.222503  1
  F  F97  1  0.252913  0.993807  0.777497  1
  F  F98  1  0.247087  0.493807  0.722503  1
  F  F99  1  0.247087  0.993807  0.277497  1
  F  F100  1  0.222293  0.725173  0.546286  1
  F  F101  1  0.222293  0.225173  0.453714  1
  F  F102  1  0.213231  0.517706  0.517431  1
  F  F103  1  0.213231  0.017706  0.482569  1
  F  F104  1  0.182140  0.698003  0.742144  1
  F  F105  1  0.182140  0.198003  0.257856  1
  F  F106  1  0.051563  0.907513  0.632290  1
  F  F107  1  0.051563  0.407513  0.367710  1
  F  F108  1  0.021834  0.338288  0.615623  1
  F  F109  1  0.021834  0.838288  0.384377  1
  F  F110  1  0.039343  0.836810  0.899800  1
  F  F111  1  0.039343  0.336810  0.100200  1
