# generated using pymatgen
data_Na3Nb6O11
_symmetry_space_group_name_H-M   'P 1'
_cell_length_a   6.21241887
_cell_length_b   6.21241887
_cell_length_c   8.05988499
_cell_angle_alpha   90.00000000
_cell_angle_beta   90.00000000
_cell_angle_gamma   120.00000000
_symmetry_Int_Tables_number   1
_chemical_formula_structural   Na3Nb6O11
_chemical_formula_sum   'Na3 Nb6 O11'
_cell_volume   269.38966891
_cell_formula_units_Z   1
loop_
 _symmetry_equiv_pos_site_id
 _symmetry_equiv_pos_as_xyz
  1  'x, y, z'
loop_
 _atom_site_type_symbol
 _atom_site_label
 _atom_site_symmetry_multiplicity
 _atom_site_fract_x
 _atom_site_fract_y
 _atom_site_fract_z
 _atom_site_occupancy
  Na  Na0  1  0.000000  0.000000  0.500000  1
  Na  Na1  1  0.333333  0.666667  0.571492  1
  Na  Na2  1  0.666667  0.333333  0.428508  1
  Nb  Nb3  1  0.157588  0.842412  0.146921  1
  Nb  Nb4  1  0.157588  0.315176  0.146921  1
  Nb  Nb5  1  0.315176  0.157588  0.853079  1
  Nb  Nb6  1  0.684824  0.842412  0.146921  1
  Nb  Nb7  1  0.842412  0.684824  0.853079  1
  Nb  Nb8  1  0.842412  0.157588  0.853079  1
  O  O9  1  0.151148  0.848852  0.709433  1
  O  O10  1  0.000000  0.500000  0.000000  1
  O  O11  1  0.333333  0.666667  0.280918  1
  O  O12  1  0.151148  0.302297  0.709433  1
  O  O13  1  0.302297  0.151148  0.290567  1
  O  O14  1  0.500000  0.500000  0.000000  1
  O  O15  1  0.697703  0.848852  0.709433  1
  O  O16  1  0.666667  0.333333  0.719082  1
  O  O17  1  0.848852  0.697703  0.290567  1
  O  O18  1  0.500000  0.000000  0.000000  1
  O  O19  1  0.848852  0.151148  0.290567  1
