# generated using pymatgen
data_Na2CoPCO7
_symmetry_space_group_name_H-M   'P 1'
_cell_length_a   5.26713755
_cell_length_b   6.44163668
_cell_length_c   8.96685579
_cell_angle_alpha   90.00000000
_cell_angle_beta   91.60829732
_cell_angle_gamma   90.00000000
_symmetry_Int_Tables_number   1
_chemical_formula_structural   Na2CoPCO7
_chemical_formula_sum   'Na4 Co2 P2 C2 O14'
_cell_volume   304.11647764
_cell_formula_units_Z   2
loop_
 _symmetry_equiv_pos_site_id
 _symmetry_equiv_pos_as_xyz
  1  'x, y, z'
loop_
 _atom_site_type_symbol
 _atom_site_label
 _atom_site_symmetry_multiplicity
 _atom_site_fract_x
 _atom_site_fract_y
 _atom_site_fract_z
 _atom_site_occupancy
  Na  Na0  1  0.237509  0.496902  0.765515  1
  Na  Na1  1  0.237509  0.003098  0.765515  1
  Na  Na2  1  0.762491  0.503098  0.234485  1
  Na  Na3  1  0.762491  0.996902  0.234485  1
  Co  Co4  1  0.783716  0.750000  0.651373  1
  Co  Co5  1  0.216284  0.250000  0.348627  1
  P  P6  1  0.711979  0.250000  0.573386  1
  P  P7  1  0.288021  0.750000  0.426614  1
  C  C8  1  0.722327  0.750000  0.925404  1
  C  C9  1  0.277673  0.250000  0.074596  1
  O  O10  1  0.312301  0.250000  0.936734  1
  O  O11  1  0.946507  0.750000  0.865741  1
  O  O12  1  0.533584  0.750000  0.825723  1
  O  O13  1  0.796148  0.055259  0.664972  1
  O  O14  1  0.796148  0.444741  0.664972  1
  O  O15  1  0.156989  0.750000  0.578359  1
  O  O16  1  0.416740  0.250000  0.551192  1
  O  O17  1  0.583260  0.750000  0.448808  1
  O  O18  1  0.843011  0.250000  0.421641  1
  O  O19  1  0.203852  0.555259  0.335028  1
  O  O20  1  0.203852  0.944741  0.335028  1
  O  O21  1  0.466416  0.250000  0.174277  1
  O  O22  1  0.053493  0.250000  0.134259  1
  O  O23  1  0.687699  0.750000  0.063266  1
