# generated using pymatgen
data_Li4Cr5BiO12
_symmetry_space_group_name_H-M   'P 1'
_cell_length_a   5.27355819
_cell_length_b   5.27355819
_cell_length_c   10.12533916
_cell_angle_alpha   86.46201223
_cell_angle_beta   93.53798777
_cell_angle_gamma   59.83760492
_symmetry_Int_Tables_number   1
_chemical_formula_structural   Li4Cr5BiO12
_chemical_formula_sum   'Li4 Cr5 Bi1 O12'
_cell_volume   241.59333653
_cell_formula_units_Z   1
loop_
 _symmetry_equiv_pos_site_id
 _symmetry_equiv_pos_as_xyz
  1  'x, y, z'
loop_
 _atom_site_type_symbol
 _atom_site_label
 _atom_site_symmetry_multiplicity
 _atom_site_fract_x
 _atom_site_fract_y
 _atom_site_fract_z
 _atom_site_occupancy
  Li  Li0  1  0.442935  0.218347  0.270432  1
  Li  Li1  1  0.218347  0.442935  0.729568  1
  Li  Li2  1  0.781653  0.557065  0.270432  1
  Li  Li3  1  0.557065  0.781653  0.729568  1
  Cr  Cr4  1  0.164023  0.164023  0.500000  1
  Cr  Cr5  1  0.666047  0.666047  0.000000  1
  Cr  Cr6  1  0.333953  0.333953  0.000000  1
  Cr  Cr7  1  0.835977  0.835977  0.500000  1
  Cr  Cr8  1  0.500000  0.500000  0.500000  1
  Bi  Bi9  1  0.000000  0.000000  0.000000  1
  O  O10  1  0.339050  0.026224  0.889123  1
  O  O11  1  0.026224  0.339050  0.110877  1
  O  O12  1  0.513761  0.142465  0.602337  1
  O  O13  1  0.857535  0.486239  0.602337  1
  O  O14  1  0.142465  0.513761  0.397663  1
  O  O15  1  0.799490  0.200510  0.397668  1
  O  O16  1  0.486239  0.857535  0.397663  1
  O  O17  1  0.973776  0.660950  0.889123  1
  O  O18  1  0.607106  0.392894  0.890145  1
  O  O19  1  0.660950  0.973776  0.110877  1
  O  O20  1  0.392894  0.607106  0.109855  1
  O  O21  1  0.200510  0.799490  0.602332  1
