# generated using pymatgen
data_MnP2O7
_symmetry_space_group_name_H-M   'P 1'
_cell_length_a   7.13042534
_cell_length_b   7.83844801
_cell_length_c   9.41204838
_cell_angle_alpha   90.00000000
_cell_angle_beta   113.05814640
_cell_angle_gamma   90.00000000
_symmetry_Int_Tables_number   1
_chemical_formula_structural   MnP2O7
_chemical_formula_sum   'Mn4 P8 O28'
_cell_volume   484.02568092
_cell_formula_units_Z   4
loop_
 _symmetry_equiv_pos_site_id
 _symmetry_equiv_pos_as_xyz
  1  'x, y, z'
loop_
 _atom_site_type_symbol
 _atom_site_label
 _atom_site_symmetry_multiplicity
 _atom_site_fract_x
 _atom_site_fract_y
 _atom_site_fract_z
 _atom_site_occupancy
  Mn  Mn0  1  0.000000  0.000000  0.500000  1
  Mn  Mn1  1  0.500000  0.000000  0.000000  1
  Mn  Mn2  1  0.500000  0.500000  0.500000  1
  Mn  Mn3  1  0.000000  0.500000  0.000000  1
  P  P4  1  0.157395  0.747744  0.794054  1
  P  P5  1  0.842605  0.247744  0.705946  1
  P  P6  1  0.568642  0.821683  0.319238  1
  P  P7  1  0.431358  0.321683  0.180762  1
  P  P8  1  0.568642  0.678317  0.819238  1
  P  P9  1  0.431358  0.178317  0.680762  1
  P  P10  1  0.157395  0.752256  0.294054  1
  P  P11  1  0.842605  0.252256  0.205946  1
  O  O12  1  0.235586  0.901966  0.900722  1
  O  O13  1  0.050723  0.795404  0.623227  1
  O  O14  1  0.990497  0.137041  0.665504  1
  O  O15  1  0.009503  0.637041  0.834496  1
  O  O16  1  0.652495  0.374629  0.186296  1
  O  O17  1  0.949277  0.295404  0.876773  1
  O  O18  1  0.710266  0.957923  0.423829  1
  O  O19  1  0.560845  0.820210  0.154083  1
  O  O20  1  0.764414  0.401966  0.599278  1
  O  O21  1  0.611836  0.639265  0.383730  1
  O  O22  1  0.388164  0.139265  0.116270  1
  O  O23  1  0.652495  0.125371  0.686296  1
  O  O24  1  0.439155  0.320210  0.345917  1
  O  O25  1  0.289734  0.457923  0.076171  1
  O  O26  1  0.710266  0.542077  0.923829  1
  O  O27  1  0.560845  0.679790  0.654083  1
  O  O28  1  0.347505  0.874629  0.313704  1
  O  O29  1  0.611836  0.860735  0.883730  1
  O  O30  1  0.388164  0.360735  0.616270  1
  O  O31  1  0.235586  0.598034  0.400722  1
  O  O32  1  0.439155  0.179790  0.845917  1
  O  O33  1  0.289734  0.042077  0.576171  1
  O  O34  1  0.050723  0.704596  0.123227  1
  O  O35  1  0.347505  0.625371  0.813704  1
  O  O36  1  0.990497  0.362959  0.165504  1
  O  O37  1  0.009503  0.862959  0.334496  1
  O  O38  1  0.949277  0.204596  0.376773  1
  O  O39  1  0.764414  0.098034  0.099278  1
