# generated using pymatgen
data_Li3MnF6
_symmetry_space_group_name_H-M   'P 1'
_cell_length_a   5.15088886
_cell_length_b   5.15088886
_cell_length_c   9.64674189
_cell_angle_alpha   88.70504304
_cell_angle_beta   91.29495696
_cell_angle_gamma   59.34179475
_symmetry_Int_Tables_number   1
_chemical_formula_structural   Li3MnF6
_chemical_formula_sum   'Li6 Mn2 F12'
_cell_volume   219.93975789
_cell_formula_units_Z   2
loop_
 _symmetry_equiv_pos_site_id
 _symmetry_equiv_pos_as_xyz
  1  'x, y, z'
loop_
 _atom_site_type_symbol
 _atom_site_label
 _atom_site_symmetry_multiplicity
 _atom_site_fract_x
 _atom_site_fract_y
 _atom_site_fract_z
 _atom_site_occupancy
  Li  Li0  1  0.355692  0.331436  0.948877  1
  Li  Li1  1  0.993408  0.019501  0.250919  1
  Li  Li2  1  0.980499  0.006592  0.750919  1
  Li  Li3  1  0.324999  0.334438  0.551439  1
  Li  Li4  1  0.665562  0.675001  0.051439  1
  Li  Li5  1  0.668564  0.644308  0.448877  1
  Mn  Mn6  1  0.333274  0.334552  0.249706  1
  Mn  Mn7  1  0.665448  0.666726  0.749706  1
  F  F8  1  0.321748  0.637020  0.366770  1
  F  F9  1  0.036017  0.644343  0.131457  1
  F  F10  1  0.657713  0.331725  0.125283  1
  F  F11  1  0.639389  0.025809  0.366273  1
  F  F12  1  0.022098  0.319140  0.376274  1
  F  F13  1  0.680860  0.977902  0.876274  1
  F  F14  1  0.329985  0.039218  0.133279  1
  F  F15  1  0.960782  0.670015  0.633279  1
  F  F16  1  0.355657  0.963983  0.631457  1
  F  F17  1  0.362980  0.678252  0.866770  1
  F  F18  1  0.974191  0.360611  0.866273  1
  F  F19  1  0.668275  0.342287  0.625283  1
