# generated using pymatgen
data_Li2MnV(P2O7)2
_symmetry_space_group_name_H-M   'P 1'
_cell_length_a   7.05997602
_cell_length_b   8.30273567
_cell_length_c   9.71423873
_cell_angle_alpha   90.00000000
_cell_angle_beta   108.86720958
_cell_angle_gamma   90.00000000
_symmetry_Int_Tables_number   1
_chemical_formula_structural   Li2MnV(P2O7)2
_chemical_formula_sum   'Li4 Mn2 V2 P8 O28'
_cell_volume   538.82600651
_cell_formula_units_Z   2
loop_
 _symmetry_equiv_pos_site_id
 _symmetry_equiv_pos_as_xyz
  1  'x, y, z'
loop_
 _atom_site_type_symbol
 _atom_site_label
 _atom_site_symmetry_multiplicity
 _atom_site_fract_x
 _atom_site_fract_y
 _atom_site_fract_z
 _atom_site_occupancy
  Li  Li0  1  0.672602  0.860790  0.336357  1
  Li  Li1  1  0.327398  0.360790  0.663643  1
  Li  Li2  1  0.675555  0.859625  0.839631  1
  Li  Li3  1  0.324445  0.359625  0.160369  1
  Mn  Mn4  1  0.730413  0.497903  0.856441  1
  Mn  Mn5  1  0.269587  0.997903  0.143559  1
  V  V6  1  0.726984  0.500251  0.357046  1
  V  V7  1  0.273016  0.000251  0.642954  1
  P  P8  1  0.521580  0.179583  0.449829  1
  P  P9  1  0.086705  0.784713  0.356120  1
  P  P10  1  0.913295  0.284713  0.643880  1
  P  P11  1  0.478420  0.679583  0.550171  1
  P  P12  1  0.517551  0.178260  0.950355  1
  P  P13  1  0.089337  0.787002  0.857191  1
  P  P14  1  0.910663  0.287002  0.142809  1
  P  P15  1  0.482449  0.678260  0.049645  1
  O  O16  1  0.846441  0.328116  0.274478  1
  O  O17  1  0.887037  0.695677  0.318300  1
  O  O18  1  0.480949  0.037040  0.343483  1
  O  O19  1  0.507011  0.343274  0.374317  1
  O  O20  1  0.604868  0.676804  0.448092  1
  O  O21  1  0.914421  0.433778  0.551823  1
  O  O22  1  0.752002  0.153039  0.548467  1
  O  O23  1  0.247998  0.653039  0.451533  1
  O  O24  1  0.085579  0.933778  0.448177  1
  O  O25  1  0.395132  0.176804  0.551908  1
  O  O26  1  0.492989  0.843274  0.625683  1
  O  O27  1  0.519051  0.537040  0.656517  1
  O  O28  1  0.855962  0.324303  0.778768  1
  O  O29  1  0.886787  0.704758  0.812327  1
  O  O30  1  0.112963  0.195677  0.681700  1
  O  O31  1  0.153559  0.828116  0.725522  1
  O  O32  1  0.483185  0.035841  0.844267  1
  O  O33  1  0.493560  0.340346  0.873850  1
  O  O34  1  0.607903  0.672002  0.946045  1
  O  O35  1  0.910022  0.437023  0.048950  1
  O  O36  1  0.750688  0.155452  0.048240  1
  O  O37  1  0.249312  0.655452  0.951760  1
  O  O38  1  0.089978  0.937023  0.951050  1
  O  O39  1  0.392097  0.172002  0.053955  1
  O  O40  1  0.506440  0.840346  0.126150  1
  O  O41  1  0.516815  0.535841  0.155733  1
  O  O42  1  0.113213  0.204758  0.187673  1
  O  O43  1  0.144038  0.824304  0.221232  1
