# generated using pymatgen
data_LiFe2(BO3)2
_symmetry_space_group_name_H-M   'P 1'
_cell_length_a   5.26374972
_cell_length_b   9.06588900
_cell_length_c   11.36978237
_cell_angle_alpha   90.00000000
_cell_angle_beta   115.84275476
_cell_angle_gamma   90.00000000
_symmetry_Int_Tables_number   1
_chemical_formula_structural   LiFe2(BO3)2
_chemical_formula_sum   'Li4 Fe8 B8 O24'
_cell_volume   488.31186042
_cell_formula_units_Z   4
loop_
 _symmetry_equiv_pos_site_id
 _symmetry_equiv_pos_as_xyz
  1  'x, y, z'
loop_
 _atom_site_type_symbol
 _atom_site_label
 _atom_site_symmetry_multiplicity
 _atom_site_fract_x
 _atom_site_fract_y
 _atom_site_fract_z
 _atom_site_occupancy
  Li  Li0  1  0.506074  0.258777  0.849097  1
  Li  Li1  1  0.449005  0.248758  0.108893  1
  Li  Li2  1  0.449005  0.751242  0.608893  1
  Li  Li3  1  0.506074  0.741223  0.349097  1
  Fe  Fe4  1  0.963032  0.415802  0.121250  1
  Fe  Fe5  1  0.532803  0.411484  0.369506  1
  Fe  Fe6  1  0.532803  0.588516  0.869506  1
  Fe  Fe7  1  0.963032  0.584198  0.621250  1
  Fe  Fe8  1  0.027311  0.917877  0.370712  1
  Fe  Fe9  1  0.465383  0.085911  0.621663  1
  Fe  Fe10  1  0.465383  0.914089  0.121663  1
  Fe  Fe11  1  0.027311  0.082123  0.870712  1
  B  B12  1  0.472759  0.418818  0.624682  1
  B  B13  1  0.049371  0.583447  0.374242  1
  B  B14  1  0.049371  0.416553  0.874242  1
  B  B15  1  0.472759  0.581182  0.124682  1
  B  B16  1  0.522385  0.918783  0.866581  1
  B  B17  1  0.947477  0.917162  0.618992  1
  B  B18  1  0.947477  0.082838  0.118992  1
  B  B19  1  0.522385  0.081217  0.366581  1
  O  O20  1  0.393681  0.284725  0.653844  1
  O  O21  1  0.815962  0.429435  0.901885  1
  O  O22  1  0.191936  0.284649  0.895739  1
  O  O23  1  0.139192  0.461950  0.328366  1
  O  O24  1  0.388742  0.549250  0.664325  1
  O  O25  1  0.388742  0.450750  0.164325  1
  O  O26  1  0.643356  0.429586  0.560771  1
  O  O27  1  0.643356  0.570414  0.060771  1
  O  O28  1  0.191936  0.715351  0.395739  1
  O  O29  1  0.815962  0.570565  0.401885  1
  O  O30  1  0.139192  0.538050  0.828366  1
  O  O31  1  0.607890  0.785798  0.840869  1
  O  O32  1  0.393681  0.715275  0.153844  1
  O  O33  1  0.860638  0.958680  0.163707  1
  O  O34  1  0.176795  0.929502  0.587913  1
  O  O35  1  0.808162  0.786010  0.602320  1
  O  O36  1  0.351746  0.930204  0.930795  1
  O  O37  1  0.351746  0.069796  0.430795  1
  O  O38  1  0.600632  0.049860  0.824604  1
  O  O39  1  0.600632  0.950140  0.324604  1
  O  O40  1  0.860638  0.041320  0.663707  1
  O  O41  1  0.808162  0.213990  0.102320  1
  O  O42  1  0.176795  0.070498  0.087913  1
  O  O43  1  0.607890  0.214202  0.340869  1
