# generated using pymatgen
data_LiMnP2H5O9
_symmetry_space_group_name_H-M   'P 1'
_cell_length_a   7.68039360
_cell_length_b   7.69960096
_cell_length_c   7.81734318
_cell_angle_alpha   115.25660911
_cell_angle_beta   84.04311267
_cell_angle_gamma   107.58905677
_symmetry_Int_Tables_number   1
_chemical_formula_structural   LiMnP2H5O9
_chemical_formula_sum   'Li2 Mn2 P4 H10 O18'
_cell_volume   398.37805773
_cell_formula_units_Z   2
loop_
 _symmetry_equiv_pos_site_id
 _symmetry_equiv_pos_as_xyz
  1  'x, y, z'
loop_
 _atom_site_type_symbol
 _atom_site_label
 _atom_site_symmetry_multiplicity
 _atom_site_fract_x
 _atom_site_fract_y
 _atom_site_fract_z
 _atom_site_occupancy
  Li  Li0  1  0.849319  0.780609  0.771997  1
  Li  Li1  1  0.150681  0.219391  0.228003  1
  Mn  Mn2  1  0.738853  0.225285  0.960589  1
  Mn  Mn3  1  0.261147  0.774715  0.039411  1
  P  P4  1  0.913284  0.682934  0.269524  1
  P  P5  1  0.634447  0.040803  0.257173  1
  P  P6  1  0.365553  0.959197  0.742827  1
  P  P7  1  0.086716  0.317066  0.730476  1
  H  H8  1  0.861743  0.295137  0.572175  1
  H  H9  1  0.797800  0.926001  0.454638  1
  H  H10  1  0.565877  0.344068  0.721758  1
  H  H11  1  0.538185  0.302374  0.451501  1
  H  H12  1  0.468280  0.494527  0.730468  1
  H  H13  1  0.531720  0.505473  0.269532  1
  H  H14  1  0.461815  0.697626  0.548499  1
  H  H15  1  0.434123  0.655932  0.278242  1
  H  H16  1  0.202200  0.073999  0.545362  1
  H  H17  1  0.138257  0.704863  0.427825  1
  O  O18  1  0.977148  0.181122  0.824365  1
  O  O19  1  0.957286  0.411290  0.671358  1
  O  O20  1  0.746834  0.089524  0.432291  1
  O  O21  1  0.757431  0.047856  0.089187  1
  O  O22  1  0.757326  0.512206  0.145180  1
  O  O23  1  0.835159  0.810332  0.463476  1
  O  O24  1  0.512536  0.163072  0.804206  1
  O  O25  1  0.578693  0.451553  0.677187  1
  O  O26  1  0.529453  0.208265  0.310629  1
  O  O27  1  0.470547  0.791735  0.689371  1
  O  O28  1  0.421307  0.548447  0.322813  1
  O  O29  1  0.487464  0.836928  0.195794  1
  O  O30  1  0.164841  0.189668  0.536524  1
  O  O31  1  0.242674  0.487794  0.854820  1
  O  O32  1  0.242569  0.952144  0.910813  1
  O  O33  1  0.253166  0.910476  0.567709  1
  O  O34  1  0.042714  0.588710  0.328642  1
  O  O35  1  0.022852  0.818878  0.175635  1
