# generated using pymatgen
data_Li2Fe2Si3O10
_symmetry_space_group_name_H-M   'P 1'
_cell_length_a   5.42851656
_cell_length_b   5.46281518
_cell_length_c   16.93056801
_cell_angle_alpha   93.90952896
_cell_angle_beta   90.82880724
_cell_angle_gamma   119.48513627
_symmetry_Int_Tables_number   1
_chemical_formula_structural   Li2Fe2Si3O10
_chemical_formula_sum   'Li4 Fe4 Si6 O20'
_cell_volume   435.36437455
_cell_formula_units_Z   2
loop_
 _symmetry_equiv_pos_site_id
 _symmetry_equiv_pos_as_xyz
  1  'x, y, z'
loop_
 _atom_site_type_symbol
 _atom_site_label
 _atom_site_symmetry_multiplicity
 _atom_site_fract_x
 _atom_site_fract_y
 _atom_site_fract_z
 _atom_site_occupancy
  Li  Li0  1  0.567887  0.384807  0.232889  1
  Li  Li1  1  0.432181  0.607870  0.749535  1
  Li  Li2  1  0.346463  0.507871  0.451514  1
  Li  Li3  1  0.156340  0.495333  0.952271  1
  Fe  Fe4  1  0.992901  0.817454  0.421368  1
  Fe  Fe5  1  0.821605  0.809675  0.919179  1
  Fe  Fe6  1  0.000923  0.199313  0.586911  1
  Fe  Fe7  1  0.186280  0.183858  0.088984  1
  Si  Si8  1  0.863118  0.996460  0.251512  1
  Si  Si9  1  0.533954  0.838797  0.098553  1
  Si  Si10  1  0.315886  0.853341  0.596993  1
  Si  Si11  1  0.666026  0.154308  0.398403  1
  Si  Si12  1  0.481986  0.147994  0.901942  1
  Si  Si13  1  0.135584  0.999234  0.749974  1
  O  O14  1  0.810471  0.907579  0.044530  1
  O  O15  1  0.910458  0.797467  0.308819  1
  O  O16  1  0.611997  0.766562  0.185677  1
  O  O17  1  0.860916  0.815103  0.801936  1
  O  O18  1  0.370432  0.866608  0.412976  1
  O  O19  1  0.663743  0.444205  0.428013  1
  O  O20  1  0.939383  0.149187  0.441699  1
  O  O21  1  0.484243  0.848324  0.906779  1
  O  O22  1  0.258849  0.548483  0.061904  1
  O  O23  1  0.724788  0.171977  0.300787  1
  O  O24  1  0.775326  0.437290  0.932095  1
  O  O25  1  0.226675  0.801758  0.692078  1
  O  O26  1  0.295465  0.558568  0.562407  1
  O  O27  1  0.077785  0.901423  0.548976  1
  O  O28  1  0.490770  0.113847  0.107580  1
  O  O29  1  0.628561  0.120116  0.592762  1
  O  O30  1  0.134050  0.205106  0.203055  1
  O  O31  1  0.419899  0.192092  0.810315  1
  O  O32  1  0.113896  0.226901  0.698615  1
  O  O33  1  0.206593  0.124571  0.949391  1
