# generated using pymatgen
data_Na2AlSi3HO9
_symmetry_space_group_name_H-M   'P 1'
_cell_length_a   7.27138287
_cell_length_b   7.34453577
_cell_length_c   8.79266787
_cell_angle_alpha   80.42183151
_cell_angle_beta   79.14772570
_cell_angle_gamma   64.45523317
_symmetry_Int_Tables_number   1
_chemical_formula_structural   Na2AlSi3HO9
_chemical_formula_sum   'Na4 Al2 Si6 H2 O18'
_cell_volume   414.16551805
_cell_formula_units_Z   2
loop_
 _symmetry_equiv_pos_site_id
 _symmetry_equiv_pos_as_xyz
  1  'x, y, z'
loop_
 _atom_site_type_symbol
 _atom_site_label
 _atom_site_symmetry_multiplicity
 _atom_site_fract_x
 _atom_site_fract_y
 _atom_site_fract_z
 _atom_site_occupancy
  Na  Na0  1  0.611996  0.214529  0.055889  1
  Na  Na1  1  0.388004  0.785471  0.944111  1
  Na  Na2  1  0.761050  0.412645  0.441902  1
  Na  Na3  1  0.238950  0.587355  0.558098  1
  Al  Al4  1  0.953385  0.803962  0.853499  1
  Al  Al5  1  0.046615  0.196038  0.146501  1
  Si  Si6  1  0.805773  0.947349  0.362459  1
  Si  Si7  1  0.194227  0.052651  0.637541  1
  Si  Si8  1  0.585499  0.095548  0.692719  1
  Si  Si9  1  0.414501  0.904452  0.307281  1
  Si  Si10  1  0.897949  0.400656  0.813980  1
  Si  Si11  1  0.102051  0.599344  0.186020  1
  H  H12  1  0.590117  0.430216  0.752141  1
  H  H13  1  0.409883  0.569784  0.247859  1
  O  O14  1  0.863246  0.133404  0.280632  1
  O  O15  1  0.136754  0.866596  0.719368  1
  O  O16  1  0.526682  0.333591  0.652386  1
  O  O17  1  0.473318  0.666409  0.347614  1
  O  O18  1  0.001081  0.723065  0.346339  1
  O  O19  1  0.998919  0.276935  0.653661  1
  O  O20  1  0.701727  0.996566  0.848672  1
  O  O21  1  0.298273  0.003434  0.151328  1
  O  O22  1  0.978370  0.577541  0.794326  1
  O  O23  1  0.021630  0.422459  0.205674  1
  O  O24  1  0.619165  0.958714  0.275759  1
  O  O25  1  0.380835  0.041286  0.724241  1
  O  O26  1  0.965708  0.236584  0.963947  1
  O  O27  1  0.034292  0.763416  0.036053  1
  O  O28  1  0.644941  0.494801  0.823017  1
  O  O29  1  0.355059  0.505199  0.176983  1
  O  O30  1  0.738370  0.962349  0.548320  1
  O  O31  1  0.261630  0.037651  0.451680  1
