# generated using pymatgen
data_Mn12O7F17
_symmetry_space_group_name_H-M   'P 1'
_cell_length_a   4.78120213
_cell_length_b   5.72463198
_cell_length_c   16.00249100
_cell_angle_alpha   90.09302967
_cell_angle_beta   90.30160087
_cell_angle_gamma   92.53724078
_symmetry_Int_Tables_number   1
_chemical_formula_structural   Mn12O7F17
_chemical_formula_sum   'Mn12 O7 F17'
_cell_volume   437.56193598
_cell_formula_units_Z   1
loop_
 _symmetry_equiv_pos_site_id
 _symmetry_equiv_pos_as_xyz
  1  'x, y, z'
loop_
 _atom_site_type_symbol
 _atom_site_label
 _atom_site_symmetry_multiplicity
 _atom_site_fract_x
 _atom_site_fract_y
 _atom_site_fract_z
 _atom_site_occupancy
  Mn  Mn0  1  0.019092  0.823918  0.581352  1
  Mn  Mn1  1  0.012892  0.163300  0.758752  1
  Mn  Mn2  1  0.994004  0.844911  0.920785  1
  Mn  Mn3  1  0.047455  0.828821  0.243521  1
  Mn  Mn4  1  0.019751  0.167165  0.425048  1
  Mn  Mn5  1  0.013444  0.159902  0.090797  1
  Mn  Mn6  1  0.479164  0.662916  0.423214  1
  Mn  Mn7  1  0.506805  0.650204  0.079854  1
  Mn  Mn8  1  0.524817  0.666401  0.738565  1
  Mn  Mn9  1  0.489907  0.350266  0.915939  1
  Mn  Mn10  1  0.492512  0.346723  0.581019  1
  Mn  Mn11  1  0.486536  0.345049  0.244853  1
  O  O12  1  0.220570  0.115698  0.869528  1
  O  O13  1  0.233813  0.103005  0.533545  1
  O  O14  1  0.235700  0.112618  0.193651  1
  O  O15  1  0.263718  0.595377  0.526271  1
  O  O16  1  0.299622  0.602241  0.185394  1
  O  O17  1  0.709965  0.618183  0.971593  1
  O  O18  1  0.736340  0.604461  0.629858  1
  F  F19  1  0.217285  0.887575  0.697503  1
  F  F20  1  0.229313  0.892990  0.360665  1
  F  F21  1  0.222327  0.878746  0.028940  1
  F  F22  1  0.255701  0.613058  0.855656  1
  F  F23  1  0.269614  0.385188  0.694406  1
  F  F24  1  0.262064  0.399982  0.355961  1
  F  F25  1  0.264934  0.384478  0.023329  1
  F  F26  1  0.717625  0.385344  0.808697  1
  F  F27  1  0.719711  0.385959  0.466731  1
  F  F28  1  0.744066  0.392769  0.136456  1
  F  F29  1  0.733222  0.616128  0.303792  1
  F  F30  1  0.764131  0.888317  0.812992  1
  F  F31  1  0.767828  0.889860  0.473100  1
  F  F32  1  0.758841  0.110989  0.643417  1
  F  F33  1  0.760440  0.118698  0.980949  1
  F  F34  1  0.767429  0.882129  0.139033  1
  F  F35  1  0.759364  0.126630  0.304832  1
