# generated using pymatgen
data_Li4Mn2Co3Cu3O16
_symmetry_space_group_name_H-M   'P 1'
_cell_length_a   5.78825587
_cell_length_b   5.78825587
_cell_length_c   9.29604395
_cell_angle_alpha   88.54085099
_cell_angle_beta   91.45914901
_cell_angle_gamma   120.56331971
_symmetry_Int_Tables_number   1
_chemical_formula_structural   Li4Mn2Co3Cu3O16
_chemical_formula_sum   'Li4 Mn2 Co3 Cu3 O16'
_cell_volume   268.06749957
_cell_formula_units_Z   1
loop_
 _symmetry_equiv_pos_site_id
 _symmetry_equiv_pos_as_xyz
  1  'x, y, z'
loop_
 _atom_site_type_symbol
 _atom_site_label
 _atom_site_symmetry_multiplicity
 _atom_site_fract_x
 _atom_site_fract_y
 _atom_site_fract_z
 _atom_site_occupancy
  Li  Li0  1  0.663388  0.336612  0.103581  1
  Li  Li1  1  0.999895  0.000105  0.005727  1
  Li  Li2  1  0.998973  0.001027  0.505627  1
  Li  Li3  1  0.338222  0.661778  0.598115  1
  Mn  Mn4  1  0.671511  0.328489  0.507584  1
  Mn  Mn5  1  0.329123  0.670877  0.020234  1
  Co  Co6  1  0.830242  0.169758  0.789016  1
  Co  Co7  1  0.659718  0.828963  0.286666  1
  Co  Co8  1  0.171037  0.340282  0.286666  1
  Cu  Cu9  1  0.831382  0.660206  0.786138  1
  Cu  Cu10  1  0.339794  0.168618  0.786138  1
  Cu  Cu11  1  0.168435  0.831565  0.288134  1
  O  O12  1  0.829222  0.669004  0.406996  1
  O  O13  1  0.526199  0.473801  0.648929  1
  O  O14  1  0.671622  0.328378  0.889946  1
  O  O15  1  0.993784  0.006216  0.697155  1
  O  O16  1  0.995559  0.004441  0.195997  1
  O  O17  1  0.330996  0.170778  0.406996  1
  O  O18  1  0.964700  0.463587  0.655306  1
  O  O19  1  0.536413  0.035300  0.655306  1
  O  O20  1  0.164313  0.835687  0.906479  1
  O  O21  1  0.834738  0.165262  0.398629  1
  O  O22  1  0.487737  0.962045  0.157092  1
  O  O23  1  0.037955  0.512263  0.157092  1
  O  O24  1  0.337669  0.662331  0.386841  1
  O  O25  1  0.663238  0.848231  0.901590  1
  O  O26  1  0.479723  0.520277  0.162774  1
  O  O27  1  0.151769  0.336762  0.901590  1
