# generated using pymatgen
data_Lu2(WO4)3
_symmetry_space_group_name_H-M   'P 1'
_cell_length_a   6.84509889
_cell_length_b   6.84509889
_cell_length_c   11.26501301
_cell_angle_alpha   79.26015150
_cell_angle_beta   100.73984850
_cell_angle_gamma   67.84662252
_symmetry_Int_Tables_number   1
_chemical_formula_structural   Lu2(WO4)3
_chemical_formula_sum   'Lu4 W6 O24'
_cell_volume   460.80273379
_cell_formula_units_Z   2
loop_
 _symmetry_equiv_pos_site_id
 _symmetry_equiv_pos_as_xyz
  1  'x, y, z'
loop_
 _atom_site_type_symbol
 _atom_site_label
 _atom_site_symmetry_multiplicity
 _atom_site_fract_x
 _atom_site_fract_y
 _atom_site_fract_z
 _atom_site_occupancy
  Lu  Lu0  1  0.712838  0.042960  0.407878  1
  Lu  Lu1  1  0.957040  0.287162  0.907878  1
  Lu  Lu2  1  0.042960  0.712838  0.092122  1
  Lu  Lu3  1  0.287162  0.957040  0.592122  1
  W  W4  1  0.539577  0.244343  0.050324  1
  W  W5  1  0.755657  0.460423  0.550324  1
  W  W6  1  0.131814  0.131814  0.250000  1
  W  W7  1  0.868186  0.868186  0.750000  1
  W  W8  1  0.244343  0.539577  0.449676  1
  W  W9  1  0.460423  0.755657  0.949676  1
  O  O10  1  0.548384  0.093023  0.205075  1
  O  O11  1  0.867938  0.210105  0.280717  1
  O  O12  1  0.077282  0.342654  0.103655  1
  O  O13  1  0.768487  0.672696  0.437451  1
  O  O14  1  0.822219  0.078458  0.038264  1
  O  O15  1  0.529088  0.393614  0.423955  1
  O  O16  1  0.906977  0.451617  0.705075  1
  O  O17  1  0.393614  0.529088  0.076045  1
  O  O18  1  0.078458  0.822219  0.461736  1
  O  O19  1  0.672696  0.768487  0.062549  1
  O  O20  1  0.342654  0.077282  0.396345  1
  O  O21  1  0.789895  0.132062  0.780717  1
  O  O22  1  0.210105  0.867938  0.219283  1
  O  O23  1  0.657346  0.922718  0.603655  1
  O  O24  1  0.327304  0.231513  0.937451  1
  O  O25  1  0.921542  0.177781  0.538264  1
  O  O26  1  0.606386  0.470912  0.923955  1
  O  O27  1  0.093023  0.548384  0.294925  1
  O  O28  1  0.470912  0.606386  0.576045  1
  O  O29  1  0.177781  0.921542  0.961736  1
  O  O30  1  0.231513  0.327304  0.562549  1
  O  O31  1  0.922718  0.657346  0.896345  1
  O  O32  1  0.132062  0.789895  0.719283  1
  O  O33  1  0.451616  0.906977  0.794925  1
