# generated using pymatgen
data_LiCoPO4
_symmetry_space_group_name_H-M   'P 1'
_cell_length_a   5.39887513
_cell_length_b   5.39887513
_cell_length_c   6.80952979
_cell_angle_alpha   77.70999812
_cell_angle_beta   102.29000188
_cell_angle_gamma   125.91472543
_symmetry_Int_Tables_number   1
_chemical_formula_structural   LiCoPO4
_chemical_formula_sum   'Li2 Co2 P2 O8'
_cell_volume   156.09155821
_cell_formula_units_Z   2
loop_
 _symmetry_equiv_pos_site_id
 _symmetry_equiv_pos_as_xyz
  1  'x, y, z'
loop_
 _atom_site_type_symbol
 _atom_site_label
 _atom_site_symmetry_multiplicity
 _atom_site_fract_x
 _atom_site_fract_y
 _atom_site_fract_z
 _atom_site_occupancy
  Li  Li0  1  0.053464  0.053464  0.000000  1
  Li  Li1  1  0.052436  0.052436  0.500000  1
  Co  Co2  1  0.626717  0.356830  0.238269  1
  Co  Co3  1  0.356830  0.626717  0.761731  1
  P  P4  1  0.670572  0.307675  0.734021  1
  P  P5  1  0.307675  0.670572  0.265979  1
  O  O6  1  0.048920  0.723026  0.174393  1
  O  O7  1  0.461633  0.306784  0.863726  1
  O  O8  1  0.503170  0.229630  0.519021  1
  O  O9  1  0.978285  0.629031  0.731483  1
  O  O10  1  0.629031  0.978285  0.268517  1
  O  O11  1  0.229630  0.503170  0.480979  1
  O  O12  1  0.306784  0.461633  0.136274  1
  O  O13  1  0.723026  0.048920  0.825607  1
