# generated using pymatgen
data_LiVF4
_symmetry_space_group_name_H-M   'P 1'
_cell_length_a   6.67634040
_cell_length_b   6.67634040
_cell_length_c   6.64613933
_cell_angle_alpha   73.79191513
_cell_angle_beta   106.20808487
_cell_angle_gamma   144.42569281
_symmetry_Int_Tables_number   1
_chemical_formula_structural   LiVF4
_chemical_formula_sum   'Li2 V2 F8'
_cell_volume   164.77015414
_cell_formula_units_Z   2
loop_
 _symmetry_equiv_pos_site_id
 _symmetry_equiv_pos_as_xyz
  1  'x, y, z'
loop_
 _atom_site_type_symbol
 _atom_site_label
 _atom_site_symmetry_multiplicity
 _atom_site_fract_x
 _atom_site_fract_y
 _atom_site_fract_z
 _atom_site_occupancy
  Li  Li0  1  0.912612  0.087388  0.295828  1
  Li  Li1  1  0.087388  0.912612  0.704172  1
  V  V2  1  0.796100  0.203900  0.701974  1
  V  V3  1  0.203900  0.796100  0.298026  1
  F  F4  1  0.928188  0.071812  0.616668  1
  F  F5  1  0.861978  0.138022  0.990213  1
  F  F6  1  0.276253  0.723747  0.642057  1
  F  F7  1  0.352905  0.647095  0.295803  1
  F  F8  1  0.647095  0.352905  0.704197  1
  F  F9  1  0.723747  0.276253  0.357943  1
  F  F10  1  0.138022  0.861978  0.009787  1
  F  F11  1  0.071812  0.928188  0.383332  1
