# generated using pymatgen
data_Na5Co2As(CO4)4
_symmetry_space_group_name_H-M   'P 1'
_cell_length_a   10.02301401
_cell_length_b   10.01654385
_cell_length_c   9.98430602
_cell_angle_alpha   60.14924107
_cell_angle_beta   60.08485506
_cell_angle_gamma   59.76590387
_symmetry_Int_Tables_number   1
_chemical_formula_structural   Na5Co2As(CO4)4
_chemical_formula_sum   'Na10 Co4 As2 C8 O32'
_cell_volume   708.77435350
_cell_formula_units_Z   2
loop_
 _symmetry_equiv_pos_site_id
 _symmetry_equiv_pos_as_xyz
  1  'x, y, z'
loop_
 _atom_site_type_symbol
 _atom_site_label
 _atom_site_symmetry_multiplicity
 _atom_site_fract_x
 _atom_site_fract_y
 _atom_site_fract_z
 _atom_site_occupancy
  Na  Na0  1  0.963558  0.963558  0.536442  1
  Na  Na1  1  0.963685  0.536315  0.536315  1
  Na  Na2  1  0.536187  0.963813  0.536187  1
  Na  Na3  1  0.715476  0.284524  0.284524  1
  Na  Na4  1  0.963813  0.536187  0.963813  1
  Na  Na5  1  0.284710  0.715290  0.284710  1
  Na  Na6  1  0.536442  0.536442  0.963558  1
  Na  Na7  1  0.536315  0.963685  0.963685  1
  Na  Na8  1  0.715290  0.284710  0.715290  1
  Na  Na9  1  0.284524  0.715476  0.715476  1
  Co  Co10  1  0.127062  0.127233  0.120521  1
  Co  Co11  1  0.120521  0.625184  0.127062  1
  Co  Co12  1  0.625184  0.120521  0.127233  1
  Co  Co13  1  0.127233  0.127062  0.625184  1
  As  As14  1  0.500000  0.500000  0.500000  1
  As  As15  1  0.750000  0.750000  0.750000  1
  C  C16  1  0.987237  0.337795  0.338129  1
  C  C17  1  0.912109  0.913500  0.264170  1
  C  C18  1  0.913500  0.912109  0.910222  1
  C  C19  1  0.910222  0.264170  0.913500  1
  C  C20  1  0.337795  0.987237  0.336839  1
  C  C21  1  0.336839  0.338129  0.337795  1
  C  C22  1  0.338129  0.336839  0.987237  1
  C  C23  1  0.264170  0.910222  0.912109  1
  O  O24  1  0.980018  0.226429  0.481876  1
  O  O25  1  0.024754  0.770566  0.268037  1
  O  O26  1  0.992636  0.475662  0.309980  1
  O  O27  1  0.941573  0.024740  0.267680  1
  O  O28  1  0.980488  0.312946  0.225927  1
  O  O29  1  0.585627  0.290196  0.562419  1
  O  O30  1  0.562419  0.561758  0.585627  1
  O  O31  1  0.769961  0.944054  0.267348  1
  O  O32  1  0.018638  0.267348  0.944054  1
  O  O33  1  0.944054  0.769961  0.018638  1
  O  O34  1  0.290196  0.585627  0.561758  1
  O  O35  1  0.561758  0.562419  0.290196  1
  O  O36  1  0.312946  0.980488  0.480639  1
  O  O37  1  0.480639  0.225927  0.312946  1
  O  O38  1  0.024740  0.941573  0.766007  1
  O  O39  1  0.766007  0.267680  0.024740  1
  O  O40  1  0.221722  0.309980  0.475662  1
  O  O41  1  0.475662  0.992636  0.221722  1
  O  O42  1  0.770566  0.024754  0.936643  1
  O  O43  1  0.936643  0.268037  0.770566  1
  O  O44  1  0.678574  0.678923  0.960400  1
  O  O45  1  0.960400  0.682102  0.678574  1
  O  O46  1  0.226429  0.980018  0.311677  1
  O  O47  1  0.311677  0.481876  0.226429  1
  O  O48  1  0.481876  0.311677  0.980018  1
  O  O49  1  0.682102  0.960400  0.678923  1
  O  O50  1  0.678923  0.678574  0.682102  1
  O  O51  1  0.268037  0.936643  0.024754  1
  O  O52  1  0.309980  0.221722  0.992636  1
  O  O53  1  0.267680  0.766007  0.941573  1
  O  O54  1  0.225927  0.480639  0.980488  1
  O  O55  1  0.267348  0.018638  0.769961  1
