# generated using pymatgen
data_Li3SiNiO5
_symmetry_space_group_name_H-M   'P 1'
_cell_length_a   4.99222474
_cell_length_b   5.49002876
_cell_length_c   6.49500739
_cell_angle_alpha   77.39072654
_cell_angle_beta   74.38642187
_cell_angle_gamma   74.00361109
_symmetry_Int_Tables_number   1
_chemical_formula_structural   Li3SiNiO5
_chemical_formula_sum   'Li6 Si2 Ni2 O10'
_cell_volume   162.79498314
_cell_formula_units_Z   2
loop_
 _symmetry_equiv_pos_site_id
 _symmetry_equiv_pos_as_xyz
  1  'x, y, z'
loop_
 _atom_site_type_symbol
 _atom_site_label
 _atom_site_symmetry_multiplicity
 _atom_site_fract_x
 _atom_site_fract_y
 _atom_site_fract_z
 _atom_site_occupancy
  Li  Li0  1  0.487762  0.249312  0.004790  1
  Li  Li1  1  0.298500  0.450142  0.403846  1
  Li  Li2  1  0.295779  0.950172  0.405426  1
  Li  Li3  1  0.704221  0.049828  0.594574  1
  Li  Li4  1  0.701500  0.549858  0.596154  1
  Li  Li5  1  0.512238  0.750688  0.995210  1
  Si  Si6  1  0.906596  0.843036  0.224428  1
  Si  Si7  1  0.093404  0.156964  0.775572  1
  Ni  Ni8  1  0.901348  0.348453  0.203639  1
  Ni  Ni9  1  0.098652  0.651547  0.796361  1
  O  O10  1  0.644554  0.127429  0.278355  1
  O  O11  1  0.647512  0.659102  0.277888  1
  O  O12  1  0.154691  0.050585  0.099403  1
  O  O13  1  0.994436  0.760911  0.468375  1
  O  O14  1  0.159081  0.570297  0.113451  1
  O  O15  1  0.840919  0.429703  0.886549  1
  O  O16  1  0.005564  0.239089  0.531625  1
  O  O17  1  0.845309  0.949415  0.900597  1
  O  O18  1  0.352488  0.340898  0.722112  1
  O  O19  1  0.355446  0.872571  0.721645  1
