# generated using pymatgen
data_Li3Sb3(PO4)4
_symmetry_space_group_name_H-M   'P 1'
_cell_length_a   8.97708606
_cell_length_b   9.10816293
_cell_length_c   13.37540637
_cell_angle_alpha   89.14518071
_cell_angle_beta   89.70399906
_cell_angle_gamma   88.62216143
_symmetry_Int_Tables_number   1
_chemical_formula_structural   Li3Sb3(PO4)4
_chemical_formula_sum   'Li9 Sb9 P12 O48'
_cell_volume   1093.18639549
_cell_formula_units_Z   3
loop_
 _symmetry_equiv_pos_site_id
 _symmetry_equiv_pos_as_xyz
  1  'x, y, z'
loop_
 _atom_site_type_symbol
 _atom_site_label
 _atom_site_symmetry_multiplicity
 _atom_site_fract_x
 _atom_site_fract_y
 _atom_site_fract_z
 _atom_site_occupancy
  Li  Li0  1  0.647883  0.468592  0.164390  1
  Li  Li1  1  0.013204  0.530180  0.506993  1
  Li  Li2  1  0.560120  0.160333  0.173503  1
  Li  Li3  1  0.938557  0.669422  0.825386  1
  Li  Li4  1  0.185341  0.002907  0.165286  1
  Li  Li5  1  0.474231  0.993049  0.503515  1
  Li  Li6  1  0.842217  0.967990  0.833963  1
  Li  Li7  1  0.105574  0.829323  0.493227  1
  Li  Li8  1  0.305404  0.505951  0.831098  1
  Sb  Sb9  1  0.790115  0.843146  0.135036  1
  Sb  Sb10  1  0.872439  0.145944  0.529785  1
  Sb  Sb11  1  0.299100  0.660369  0.137362  1
  Sb  Sb12  1  0.634648  0.669878  0.471808  1
  Sb  Sb13  1  0.040833  0.336106  0.198903  1
  Sb  Sb14  1  0.371632  0.341800  0.525904  1
  Sb  Sb15  1  0.716259  0.352978  0.864242  1
  Sb  Sb16  1  0.463116  0.829408  0.797824  1
  Sb  Sb17  1  0.202899  0.161511  0.867345  1
  P  P18  1  0.853123  0.202457  0.056967  1
  P  P19  1  0.994226  0.723309  0.280923  1
  P  P20  1  0.353058  0.294854  0.059909  1
  P  P21  1  0.678110  0.276236  0.384019  1
  P  P22  1  0.489894  0.803841  0.277921  1
  P  P23  1  0.818207  0.798455  0.615269  1
  P  P24  1  0.177934  0.195595  0.389755  1
  P  P25  1  0.508899  0.213506  0.723088  1
  P  P26  1  0.316271  0.701987  0.605288  1
  P  P27  1  0.651985  0.694896  0.948406  1
  P  P28  1  0.014284  0.303162  0.719377  1
  P  P29  1  0.150019  0.794334  0.936387  1
  O  O30  1  0.000526  0.882766  0.239726  1
  O  O31  1  0.833528  0.364873  0.089319  1
  O  O32  1  0.734641  0.099814  0.097854  1
  O  O33  1  0.641828  0.674204  0.064073  1
  O  O34  1  0.838709  0.668789  0.241515  1
  O  O35  1  0.495048  0.368743  0.089891  1
  O  O36  1  0.832292  0.330997  0.422225  1
  O  O37  1  0.652612  0.293714  0.273143  1
  O  O38  1  0.610449  0.900798  0.223165  1
  O  O39  1  0.017732  0.337325  0.607025  1
  O  O40  1  0.928441  0.901920  0.560534  1
  O  O41  1  0.508597  0.638100  0.261456  1
  O  O42  1  0.346536  0.134413  0.091127  1
  O  O43  1  0.832531  0.637588  0.575286  1
  O  O44  1  0.675619  0.115149  0.426518  1
  O  O45  1  0.215755  0.388742  0.110193  1
  O  O46  1  0.176043  0.815758  0.052744  1
  O  O47  1  0.556447  0.377043  0.442351  1
  O  O48  1  0.492026  0.841367  0.390276  1
  O  O49  1  0.886189  0.400589  0.770096  1
  O  O50  1  0.336130  0.848280  0.227289  1
  O  O51  1  0.826246  0.807207  0.727999  1
  O  O52  1  0.655710  0.843745  0.571406  1
  O  O53  1  0.005017  0.870912  0.906980  1
  O  O54  1  0.011170  0.156390  0.101856  1
  O  O55  1  0.332010  0.149349  0.437994  1
  O  O56  1  0.173908  0.162836  0.276146  1
  O  O57  1  0.663885  0.162621  0.765210  1
  O  O58  1  0.115056  0.620350  0.222965  1
  O  O59  1  0.497987  0.174539  0.609748  1
  O  O60  1  0.454294  0.609222  0.555378  1
  O  O61  1  0.861105  0.195987  0.939479  1
  O  O62  1  0.775387  0.592508  0.904265  1
  O  O63  1  0.323503  0.863494  0.577469  1
  O  O64  1  0.162847  0.361950  0.406906  1
  O  O65  1  0.670140  0.858222  0.920026  1
  O  O66  1  0.485440  0.377678  0.739746  1
  O  O67  1  0.056722  0.099327  0.442707  1
  O  O68  1  0.014201  0.700528  0.391984  1
  O  O69  1  0.386523  0.117720  0.778678  1
  O  O70  1  0.337672  0.676011  0.722162  1
  O  O71  1  0.175407  0.629619  0.571894  1
  O  O72  1  0.498808  0.651707  0.897495  1
  O  O73  1  0.162598  0.348706  0.773648  1
  O  O74  1  0.327943  0.318694  0.943380  1
  O  O75  1  0.284247  0.885735  0.885064  1
  O  O76  1  0.159022  0.634263  0.906731  1
  O  O77  1  0.001890  0.138188  0.743999  1
