# generated using pymatgen
data_BaV8O16
_symmetry_space_group_name_H-M   'P 1'
_cell_length_a   5.78019316
_cell_length_b   7.39737302
_cell_length_c   7.40060873
_cell_angle_alpha   87.80878700
_cell_angle_beta   78.72888751
_cell_angle_gamma   78.74644815
_symmetry_Int_Tables_number   1
_chemical_formula_structural   BaV8O16
_chemical_formula_sum   'Ba1 V8 O16'
_cell_volume   304.36728612
_cell_formula_units_Z   1
loop_
 _symmetry_equiv_pos_site_id
 _symmetry_equiv_pos_as_xyz
  1  'x, y, z'
loop_
 _atom_site_type_symbol
 _atom_site_label
 _atom_site_symmetry_multiplicity
 _atom_site_fract_x
 _atom_site_fract_y
 _atom_site_fract_z
 _atom_site_occupancy
  Ba  Ba0  1  0.212318  0.000081  0.000555  1
  V  V1  1  0.081285  0.185132  0.481725  1
  V  V2  1  0.583952  0.181953  0.474310  1
  V  V3  1  0.322877  0.517282  0.184992  1
  V  V4  1  0.820485  0.526730  0.181834  1
  V  V5  1  0.175066  0.481850  0.815235  1
  V  V6  1  0.673963  0.474007  0.817806  1
  V  V7  1  0.415411  0.815532  0.516841  1
  V  V8  1  0.911150  0.817438  0.527112  1
  O  O9  1  0.395044  0.044651  0.353212  1
  O  O10  1  0.901262  0.043610  0.354906  1
  O  O11  1  0.079592  0.374395  0.293785  1
  O  O12  1  0.581189  0.377621  0.296213  1
  O  O13  1  0.077572  0.647288  0.044087  1
  O  O14  1  0.572465  0.644594  0.043965  1
  O  O15  1  0.269193  0.294494  0.625466  1
  O  O16  1  0.767296  0.295191  0.622732  1
  O  O17  1  0.226414  0.706110  0.374608  1
  O  O18  1  0.729856  0.704197  0.377006  1
  O  O19  1  0.417378  0.353219  0.956128  1
  O  O20  1  0.923220  0.354722  0.955853  1
  O  O21  1  0.416143  0.625895  0.705205  1
  O  O22  1  0.915594  0.622185  0.704782  1
  O  O23  1  0.594447  0.955984  0.644285  1
  O  O24  1  0.099405  0.955838  0.647357  1
