# generated using pymatgen
data_V2Ni(PO4)3
_symmetry_space_group_name_H-M   'P 1'
_cell_length_a   8.47442964
_cell_length_b   8.47442964
_cell_length_c   8.47442964
_cell_angle_alpha   61.10142311
_cell_angle_beta   61.10142311
_cell_angle_gamma   61.10142311
_symmetry_Int_Tables_number   1
_chemical_formula_structural   V2Ni(PO4)3
_chemical_formula_sum   'V4 Ni2 P6 O24'
_cell_volume   441.01392720
_cell_formula_units_Z   2
loop_
 _symmetry_equiv_pos_site_id
 _symmetry_equiv_pos_as_xyz
  1  'x, y, z'
loop_
 _atom_site_type_symbol
 _atom_site_label
 _atom_site_symmetry_multiplicity
 _atom_site_fract_x
 _atom_site_fract_y
 _atom_site_fract_z
 _atom_site_occupancy
  V  V0  1  0.857970  0.857970  0.857970  1
  V  V1  1  0.642030  0.642030  0.642030  1
  V  V2  1  0.357970  0.357970  0.357970  1
  V  V3  1  0.142030  0.142030  0.142030  1
  Ni  Ni4  1  0.000000  0.000000  0.000000  1
  Ni  Ni5  1  0.500000  0.500000  0.500000  1
  P  P6  1  0.543670  0.956330  0.250000  1
  P  P7  1  0.250000  0.543670  0.956330  1
  P  P8  1  0.956330  0.250000  0.543670  1
  P  P9  1  0.043670  0.750000  0.456330  1
  P  P10  1  0.750000  0.456330  0.043670  1
  P  P11  1  0.456330  0.043670  0.750000  1
  O  O12  1  0.495837  0.885357  0.684033  1
  O  O13  1  0.885357  0.684033  0.495837  1
  O  O14  1  0.742260  0.940994  0.090056  1
  O  O15  1  0.684033  0.495837  0.885357  1
  O  O16  1  0.385357  0.995837  0.184033  1
  O  O17  1  0.559006  0.757740  0.409944  1
  O  O18  1  0.090056  0.742260  0.940994  1
  O  O19  1  0.409944  0.559006  0.757740  1
  O  O20  1  0.004163  0.815967  0.614643  1
  O  O21  1  0.757740  0.409944  0.559006  1
  O  O22  1  0.059006  0.909944  0.257740  1
  O  O23  1  0.815967  0.614643  0.004163  1
  O  O24  1  0.184033  0.385357  0.995837  1
  O  O25  1  0.940994  0.090056  0.742260  1
  O  O26  1  0.242260  0.590056  0.440994  1
  O  O27  1  0.995837  0.184033  0.385357  1
  O  O28  1  0.590056  0.440994  0.242260  1
  O  O29  1  0.909944  0.257740  0.059006  1
  O  O30  1  0.440994  0.242260  0.590056  1
  O  O31  1  0.614643  0.004163  0.815967  1
  O  O32  1  0.315967  0.504163  0.114643  1
  O  O33  1  0.257740  0.059006  0.909944  1
  O  O34  1  0.114643  0.315967  0.504163  1
  O  O35  1  0.504163  0.114643  0.315967  1
