# generated using pymatgen
data_CaHgH16(BrO2)4
_symmetry_space_group_name_H-M   'P 1'
_cell_length_a   10.56805589
_cell_length_b   10.56805589
_cell_length_c   15.09041951
_cell_angle_alpha   90.00000000
_cell_angle_beta   90.00000000
_cell_angle_gamma   100.54939954
_symmetry_Int_Tables_number   1
_chemical_formula_structural   CaHgH16(BrO2)4
_chemical_formula_sum   'Ca4 Hg4 H64 Br16 O32'
_cell_volume   1656.86862203
_cell_formula_units_Z   4
loop_
 _symmetry_equiv_pos_site_id
 _symmetry_equiv_pos_as_xyz
  1  'x, y, z'
loop_
 _atom_site_type_symbol
 _atom_site_label
 _atom_site_symmetry_multiplicity
 _atom_site_fract_x
 _atom_site_fract_y
 _atom_site_fract_z
 _atom_site_occupancy
  Ca  Ca0  1  0.750991  0.249009  0.500000  1
  Ca  Ca1  1  0.749009  0.250991  0.000000  1
  Ca  Ca2  1  0.250991  0.749009  0.000000  1
  Ca  Ca3  1  0.249009  0.750991  0.500000  1
  Hg  Hg4  1  0.277000  0.277000  0.280782  1
  Hg  Hg5  1  0.723000  0.723000  0.719218  1
  Hg  Hg6  1  0.223000  0.223000  0.780782  1
  Hg  Hg7  1  0.777000  0.777000  0.219218  1
  H  H8  1  0.931532  0.091015  0.391890  1
  H  H9  1  0.908985  0.068468  0.608110  1
  H  H10  1  0.793689  0.022620  0.364928  1
  H  H11  1  0.977380  0.206311  0.635072  1
  H  H12  1  0.877064  0.226176  0.179388  1
  H  H13  1  0.773824  0.122936  0.820612  1
  H  H14  1  0.754360  0.122773  0.186785  1
  H  H15  1  0.877227  0.245640  0.813215  1
  H  H16  1  0.387503  0.027817  0.489181  1
  H  H17  1  0.472183  0.112497  0.989181  1
  H  H18  1  0.972183  0.612497  0.510819  1
  H  H19  1  0.887503  0.527817  0.010819  1
  H  H20  1  0.505138  0.149282  0.892552  1
  H  H21  1  0.005138  0.649282  0.607448  1
  H  H22  1  0.350718  0.994862  0.392552  1
  H  H23  1  0.850718  0.494862  0.107448  1
  H  H24  1  0.745640  0.377227  0.686785  1
  H  H25  1  0.622773  0.254360  0.313215  1
  H  H26  1  0.726176  0.377064  0.320612  1
  H  H27  1  0.622936  0.273824  0.679388  1
  H  H28  1  0.952724  0.797805  0.040543  1
  H  H29  1  0.758344  0.539525  0.445390  1
  H  H30  1  0.702195  0.547276  0.540543  1
  H  H31  1  0.258344  0.039525  0.054610  1
  H  H32  1  0.960475  0.741656  0.945390  1
  H  H33  1  0.452724  0.297805  0.459457  1
  H  H34  1  0.460475  0.241656  0.554610  1
  H  H35  1  0.202195  0.047276  0.959457  1
  H  H36  1  0.522620  0.293689  0.135072  1
  H  H37  1  0.706311  0.477380  0.864928  1
  H  H38  1  0.591015  0.431532  0.108110  1
  H  H39  1  0.568468  0.408985  0.891890  1
  H  H40  1  0.431532  0.591015  0.108110  1
  H  H41  1  0.408985  0.568468  0.891890  1
  H  H42  1  0.293689  0.522620  0.135072  1
  H  H43  1  0.477380  0.706311  0.864928  1
  H  H44  1  0.539525  0.758344  0.445390  1
  H  H45  1  0.039525  0.258344  0.054610  1
  H  H46  1  0.547276  0.702195  0.540543  1
  H  H47  1  0.797805  0.952724  0.040543  1
  H  H48  1  0.297805  0.452724  0.459457  1
  H  H49  1  0.241656  0.460475  0.554610  1
  H  H50  1  0.047276  0.202195  0.959457  1
  H  H51  1  0.741656  0.960475  0.945390  1
  H  H52  1  0.273824  0.622936  0.679388  1
  H  H53  1  0.377064  0.726176  0.320612  1
  H  H54  1  0.377227  0.745640  0.686785  1
  H  H55  1  0.254360  0.622773  0.313215  1
  H  H56  1  0.994862  0.350718  0.392552  1
  H  H57  1  0.494862  0.850718  0.107448  1
  H  H58  1  0.649282  0.005138  0.607448  1
  H  H59  1  0.149282  0.505138  0.892552  1
  H  H60  1  0.027817  0.387503  0.489181  1
  H  H61  1  0.112497  0.472183  0.989181  1
  H  H62  1  0.527817  0.887503  0.010819  1
  H  H63  1  0.612497  0.972183  0.510819  1
  H  H64  1  0.122773  0.754360  0.186785  1
  H  H65  1  0.245640  0.877227  0.813215  1
  H  H66  1  0.226176  0.877064  0.179388  1
  H  H67  1  0.122936  0.773824  0.820612  1
  H  H68  1  0.022620  0.793689  0.364928  1
  H  H69  1  0.206311  0.977380  0.635072  1
  H  H70  1  0.091015  0.931532  0.391890  1
  H  H71  1  0.068468  0.908985  0.608110  1
  Br  Br72  1  0.878265  0.595635  0.302410  1
  Br  Br73  1  0.378265  0.095635  0.197590  1
  Br  Br74  1  0.904365  0.621735  0.802410  1
  Br  Br75  1  0.404365  0.121735  0.697590  1
  Br  Br76  1  0.687461  0.687461  0.063849  1
  Br  Br77  1  0.474885  0.474885  0.289970  1
  Br  Br78  1  0.025115  0.025115  0.789970  1
  Br  Br79  1  0.187461  0.187461  0.436151  1
  Br  Br80  1  0.525115  0.525115  0.710030  1
  Br  Br81  1  0.974885  0.974885  0.210030  1
  Br  Br82  1  0.812539  0.812539  0.563849  1
  Br  Br83  1  0.312539  0.312539  0.936151  1
  Br  Br84  1  0.095635  0.378265  0.197590  1
  Br  Br85  1  0.121735  0.404365  0.697590  1
  Br  Br86  1  0.595635  0.878265  0.302410  1
  Br  Br87  1  0.621735  0.904365  0.802410  1
  O  O88  1  0.761169  0.009727  0.000351  1
  O  O89  1  0.990273  0.238831  0.999649  1
  O  O90  1  0.840928  0.079071  0.409873  1
  O  O91  1  0.920929  0.159072  0.590127  1
  O  O92  1  0.789432  0.202701  0.155934  1
  O  O93  1  0.797299  0.210568  0.844066  1
  O  O94  1  0.956692  0.374353  0.447362  1
  O  O95  1  0.625647  0.043308  0.552638  1
  O  O96  1  0.874353  0.456692  0.052638  1
  O  O97  1  0.543308  0.125647  0.947362  1
  O  O98  1  0.710568  0.297299  0.655934  1
  O  O99  1  0.702701  0.289432  0.344066  1
  O  O100  1  0.659072  0.420929  0.909873  1
  O  O101  1  0.579071  0.340928  0.090127  1
  O  O102  1  0.738831  0.490273  0.500351  1
  O  O103  1  0.509727  0.261169  0.499649  1
  O  O104  1  0.261169  0.509727  0.499649  1
  O  O105  1  0.490273  0.738831  0.500351  1
  O  O106  1  0.340928  0.579071  0.090127  1
  O  O107  1  0.420929  0.659072  0.909873  1
  O  O108  1  0.297299  0.710568  0.655934  1
  O  O109  1  0.289432  0.702701  0.344066  1
  O  O110  1  0.456692  0.874353  0.052638  1
  O  O111  1  0.125647  0.543308  0.947362  1
  O  O112  1  0.043308  0.625647  0.552638  1
  O  O113  1  0.374353  0.956692  0.447362  1
  O  O114  1  0.202701  0.789432  0.155934  1
  O  O115  1  0.210568  0.797299  0.844066  1
  O  O116  1  0.079071  0.840928  0.409873  1
  O  O117  1  0.159072  0.920929  0.590127  1
  O  O118  1  0.238831  0.990273  0.999649  1
  O  O119  1  0.009727  0.761169  0.000351  1
