# generated using pymatgen
data_Ni4P2O9
_symmetry_space_group_name_H-M   'P 1'
_cell_length_a   6.34730313
_cell_length_b   8.46451783
_cell_length_c   13.26822776
_cell_angle_alpha   90.00000000
_cell_angle_beta   90.00000000
_cell_angle_gamma   90.00000000
_symmetry_Int_Tables_number   1
_chemical_formula_structural   Ni4P2O9
_chemical_formula_sum   'Ni16 P8 O36'
_cell_volume   712.86022267
_cell_formula_units_Z   4
loop_
 _symmetry_equiv_pos_site_id
 _symmetry_equiv_pos_as_xyz
  1  'x, y, z'
loop_
 _atom_site_type_symbol
 _atom_site_label
 _atom_site_symmetry_multiplicity
 _atom_site_fract_x
 _atom_site_fract_y
 _atom_site_fract_z
 _atom_site_occupancy
  Ni  Ni0  1  0.750000  0.426782  0.916364  1
  Ni  Ni1  1  0.250000  0.354987  0.564351  1
  Ni  Ni2  1  0.984566  0.356499  0.354159  1
  Ni  Ni3  1  0.515434  0.356499  0.354159  1
  Ni  Ni4  1  0.484566  0.143501  0.854159  1
  Ni  Ni5  1  0.015434  0.143501  0.854159  1
  Ni  Ni6  1  0.750000  0.145013  0.064351  1
  Ni  Ni7  1  0.250000  0.073218  0.416364  1
  Ni  Ni8  1  0.750000  0.926782  0.583636  1
  Ni  Ni9  1  0.250000  0.854987  0.935649  1
  Ni  Ni10  1  0.984566  0.856499  0.145841  1
  Ni  Ni11  1  0.515434  0.856499  0.145841  1
  Ni  Ni12  1  0.484566  0.643501  0.645841  1
  Ni  Ni13  1  0.015434  0.643501  0.645841  1
  Ni  Ni14  1  0.750000  0.645013  0.435649  1
  Ni  Ni15  1  0.250000  0.573218  0.083636  1
  P  P16  1  0.250000  0.493921  0.844618  1
  P  P17  1  0.750000  0.334096  0.576356  1
  P  P18  1  0.250000  0.165904  0.076356  1
  P  P19  1  0.750000  0.006079  0.344618  1
  P  P20  1  0.250000  0.993921  0.655382  1
  P  P21  1  0.750000  0.834096  0.923644  1
  P  P22  1  0.250000  0.665904  0.423644  1
  P  P23  1  0.750000  0.506079  0.155382  1
  O  O24  1  0.954415  0.403897  0.624092  1
  O  O25  1  0.545585  0.403897  0.624092  1
  O  O26  1  0.750000  0.390975  0.460825  1
  O  O27  1  0.750000  0.408372  0.255689  1
  O  O28  1  0.450592  0.389243  0.850626  1
  O  O29  1  0.049408  0.389243  0.850626  1
  O  O30  1  0.750000  0.384834  0.067922  1
  O  O31  1  0.250000  0.343216  0.086042  1
  O  O32  1  0.250000  0.306430  0.417575  1
  O  O33  1  0.750000  0.193570  0.917575  1
  O  O34  1  0.750000  0.156784  0.586042  1
  O  O35  1  0.250000  0.115166  0.567922  1
  O  O36  1  0.950592  0.110757  0.350626  1
  O  O37  1  0.549408  0.110757  0.350626  1
  O  O38  1  0.250000  0.091628  0.755689  1
  O  O39  1  0.250000  0.109025  0.960825  1
  O  O40  1  0.454415  0.096103  0.124092  1
  O  O41  1  0.045585  0.096103  0.124092  1
  O  O42  1  0.954415  0.903897  0.875908  1
  O  O43  1  0.545585  0.903897  0.875908  1
  O  O44  1  0.750000  0.890975  0.039175  1
  O  O45  1  0.750000  0.908372  0.244311  1
  O  O46  1  0.450592  0.889243  0.649374  1
  O  O47  1  0.049408  0.889243  0.649374  1
  O  O48  1  0.750000  0.884834  0.432078  1
  O  O49  1  0.250000  0.843216  0.413958  1
  O  O50  1  0.250000  0.806430  0.082425  1
  O  O51  1  0.750000  0.693570  0.582425  1
  O  O52  1  0.750000  0.656784  0.913958  1
  O  O53  1  0.250000  0.615166  0.932078  1
  O  O54  1  0.950592  0.610757  0.149374  1
  O  O55  1  0.549408  0.610757  0.149374  1
  O  O56  1  0.250000  0.591628  0.744311  1
  O  O57  1  0.250000  0.609025  0.539175  1
  O  O58  1  0.454415  0.596103  0.375908  1
  O  O59  1  0.045585  0.596103  0.375908  1
