# generated using pymatgen
data_Be4Si2H2O9
_symmetry_space_group_name_H-M   'P 1'
_cell_length_a   8.86411538
_cell_length_b   8.86411538
_cell_length_c   4.61165676
_cell_angle_alpha   90.00000000
_cell_angle_beta   90.00000000
_cell_angle_gamma   120.61995764
_symmetry_Int_Tables_number   1
_chemical_formula_structural   Be4Si2H2O9
_chemical_formula_sum   'Be8 Si4 H4 O18'
_cell_volume   311.82525420
_cell_formula_units_Z   2
loop_
 _symmetry_equiv_pos_site_id
 _symmetry_equiv_pos_as_xyz
  1  'x, y, z'
loop_
 _atom_site_type_symbol
 _atom_site_label
 _atom_site_symmetry_multiplicity
 _atom_site_fract_x
 _atom_site_fract_y
 _atom_site_fract_z
 _atom_site_occupancy
  Be  Be0  1  0.879715  0.774883  0.994224  1
  Be  Be1  1  0.225117  0.120285  0.994224  1
  Be  Be2  1  0.120285  0.225117  0.494224  1
  Be  Be3  1  0.774883  0.879715  0.494224  1
  Be  Be4  1  0.894132  0.454347  0.998531  1
  Be  Be5  1  0.545653  0.105868  0.998531  1
  Be  Be6  1  0.105868  0.545653  0.498531  1
  Be  Be7  1  0.454347  0.894132  0.498531  1
  Si  Si8  1  0.209927  0.438714  0.997313  1
  Si  Si9  1  0.561286  0.790073  0.997313  1
  Si  Si10  1  0.790073  0.561286  0.497313  1
  Si  Si11  1  0.438714  0.209927  0.497313  1
  H  H12  1  0.864068  0.135932  0.683995  1
  H  H13  1  0.135932  0.864068  0.183995  1
  H  H14  1  0.801939  0.198061  0.196709  1
  H  H15  1  0.198061  0.801939  0.696709  1
  O  O16  1  0.163740  0.412824  0.649663  1
  O  O17  1  0.587176  0.836260  0.649663  1
  O  O18  1  0.836260  0.587176  0.149663  1
  O  O19  1  0.412824  0.163740  0.149663  1
  O  O20  1  0.168018  0.252670  0.145781  1
  O  O21  1  0.747330  0.831982  0.145781  1
  O  O22  1  0.831982  0.747330  0.645781  1
  O  O23  1  0.252670  0.168018  0.645781  1
  O  O24  1  0.081639  0.499689  0.150683  1
  O  O25  1  0.500311  0.918361  0.150683  1
  O  O26  1  0.918361  0.500311  0.650683  1
  O  O27  1  0.499689  0.081639  0.650683  1
  O  O28  1  0.585680  0.414320  0.556565  1
  O  O29  1  0.414320  0.585680  0.056565  1
  O  O30  1  0.912342  0.087658  0.546668  1
  O  O31  1  0.087658  0.912342  0.046668  1
  O  O32  1  0.754495  0.245505  0.055871  1
  O  O33  1  0.245505  0.754495  0.555871  1
