# generated using pymatgen
data_Li3MnPCO7
_symmetry_space_group_name_H-M   'P 1'
_cell_length_a   5.07680641
_cell_length_b   6.80162219
_cell_length_c   8.79294891
_cell_angle_alpha   95.28374817
_cell_angle_beta   92.38941949
_cell_angle_gamma   95.29358853
_symmetry_Int_Tables_number   1
_chemical_formula_structural   Li3MnPCO7
_chemical_formula_sum   'Li6 Mn2 P2 C2 O14'
_cell_volume   300.65959341
_cell_formula_units_Z   2
loop_
 _symmetry_equiv_pos_site_id
 _symmetry_equiv_pos_as_xyz
  1  'x, y, z'
loop_
 _atom_site_type_symbol
 _atom_site_label
 _atom_site_symmetry_multiplicity
 _atom_site_fract_x
 _atom_site_fract_y
 _atom_site_fract_z
 _atom_site_occupancy
  Li  Li0  1  0.135257  0.589998  0.265923  1
  Li  Li1  1  0.237732  0.951000  0.301116  1
  Li  Li2  1  0.460974  0.285468  0.247972  1
  Li  Li3  1  0.539026  0.714532  0.752028  1
  Li  Li4  1  0.762268  0.049000  0.698884  1
  Li  Li5  1  0.864743  0.410002  0.734077  1
  Mn  Mn6  1  0.681763  0.767430  0.131417  1
  Mn  Mn7  1  0.318237  0.232570  0.868583  1
  P  P8  1  0.846453  0.260103  0.081114  1
  P  P9  1  0.153547  0.739897  0.918886  1
  C  C10  1  0.718193  0.778884  0.439517  1
  C  C11  1  0.281807  0.221116  0.560483  1
  O  O12  1  0.260871  0.214601  0.414289  1
  O  O13  1  0.488840  0.753782  0.364129  1
  O  O14  1  0.927042  0.796275  0.358461  1
  O  O15  1  0.762307  0.452706  0.169012  1
  O  O16  1  0.702591  0.086661  0.157121  1
  O  O17  1  0.154169  0.264323  0.092283  1
  O  O18  1  0.247097  0.752351  0.091683  1
  O  O19  1  0.752903  0.247649  0.908317  1
  O  O20  1  0.845831  0.735677  0.907717  1
  O  O21  1  0.237693  0.547294  0.830988  1
  O  O22  1  0.297409  0.913339  0.842879  1
  O  O23  1  0.072958  0.203725  0.641539  1
  O  O24  1  0.511160  0.246218  0.635871  1
  O  O25  1  0.739129  0.785399  0.585711  1
