# generated using pymatgen
data_KHSeO4
_symmetry_space_group_name_H-M   'P 1'
_cell_length_a   8.79933078
_cell_length_b   10.18129758
_cell_length_c   19.72191740
_cell_angle_alpha   90.00000000
_cell_angle_beta   90.00000000
_cell_angle_gamma   90.00000000
_symmetry_Int_Tables_number   1
_chemical_formula_structural   KHSeO4
_chemical_formula_sum   'K16 H16 Se16 O64'
_cell_volume   1766.85907126
_cell_formula_units_Z   16
loop_
 _symmetry_equiv_pos_site_id
 _symmetry_equiv_pos_as_xyz
  1  'x, y, z'
loop_
 _atom_site_type_symbol
 _atom_site_label
 _atom_site_symmetry_multiplicity
 _atom_site_fract_x
 _atom_site_fract_y
 _atom_site_fract_z
 _atom_site_occupancy
  K  K0  1  0.884572  0.176069  0.374740  1
  K  K1  1  0.384572  0.323931  0.625260  1
  K  K2  1  0.115428  0.676069  0.125260  1
  K  K3  1  0.615428  0.823931  0.874740  1
  K  K4  1  0.115428  0.823931  0.625260  1
  K  K5  1  0.615428  0.676069  0.374740  1
  K  K6  1  0.884572  0.323931  0.874740  1
  K  K7  1  0.384572  0.176069  0.125260  1
  K  K8  1  0.375027  0.319411  0.380940  1
  K  K9  1  0.875027  0.180589  0.619060  1
  K  K10  1  0.624973  0.819411  0.119060  1
  K  K11  1  0.124973  0.680589  0.880940  1
  K  K12  1  0.624973  0.680589  0.619060  1
  K  K13  1  0.124973  0.819411  0.380940  1
  K  K14  1  0.375027  0.180589  0.880940  1
  K  K15  1  0.875027  0.319411  0.119060  1
  H  H16  1  0.911261  0.608046  0.499862  1
  H  H17  1  0.411261  0.891954  0.500138  1
  H  H18  1  0.088739  0.108046  0.000138  1
  H  H19  1  0.588739  0.391954  0.999862  1
  H  H20  1  0.088739  0.391954  0.500138  1
  H  H21  1  0.588739  0.108046  0.499862  1
  H  H22  1  0.911261  0.891954  0.999862  1
  H  H23  1  0.411261  0.608046  0.000138  1
  H  H24  1  0.226204  0.069478  0.278537  1
  H  H25  1  0.726204  0.430522  0.721463  1
  H  H26  1  0.773796  0.569478  0.221463  1
  H  H27  1  0.273796  0.930522  0.778537  1
  H  H28  1  0.773796  0.930522  0.721463  1
  H  H29  1  0.273796  0.569478  0.278537  1
  H  H30  1  0.226204  0.430522  0.778537  1
  H  H31  1  0.726204  0.069478  0.221463  1
  Se  Se32  1  0.755007  0.423005  0.497328  1
  Se  Se33  1  0.255007  0.076995  0.502672  1
  Se  Se34  1  0.244993  0.923005  0.002672  1
  Se  Se35  1  0.744993  0.576995  0.997328  1
  Se  Se36  1  0.244993  0.576995  0.502672  1
  Se  Se37  1  0.744993  0.923005  0.497328  1
  Se  Se38  1  0.755007  0.076995  0.997328  1
  Se  Se39  1  0.255007  0.423005  0.002672  1
  Se  Se40  1  0.482565  0.015684  0.295151  1
  Se  Se41  1  0.982565  0.484316  0.704849  1
  Se  Se42  1  0.517435  0.515684  0.204849  1
  Se  Se43  1  0.017435  0.984316  0.795151  1
  Se  Se44  1  0.517435  0.984316  0.704849  1
  Se  Se45  1  0.017435  0.515684  0.295151  1
  Se  Se46  1  0.482565  0.484316  0.795151  1
  Se  Se47  1  0.982565  0.015684  0.204849  1
  O  O48  1  0.795707  0.594028  0.499366  1
  O  O49  1  0.295707  0.905972  0.500634  1
  O  O50  1  0.204293  0.094028  0.000634  1
  O  O51  1  0.704293  0.405972  0.999366  1
  O  O52  1  0.204293  0.405972  0.500634  1
  O  O53  1  0.704293  0.094028  0.499366  1
  O  O54  1  0.795707  0.905972  0.999366  1
  O  O55  1  0.295707  0.594028  0.000634  1
  O  O56  1  0.919131  0.342460  0.493419  1
  O  O57  1  0.419131  0.157540  0.506581  1
  O  O58  1  0.080869  0.842460  0.006581  1
  O  O59  1  0.580869  0.657540  0.993419  1
  O  O60  1  0.080869  0.657540  0.506581  1
  O  O61  1  0.580869  0.842460  0.493419  1
  O  O62  1  0.919131  0.157540  0.993419  1
  O  O63  1  0.419131  0.342460  0.006581  1
  O  O64  1  0.665086  0.395324  0.569426  1
  O  O65  1  0.165086  0.104676  0.430574  1
  O  O66  1  0.334914  0.895324  0.930574  1
  O  O67  1  0.834914  0.604676  0.069426  1
  O  O68  1  0.334914  0.604676  0.430574  1
  O  O69  1  0.834914  0.895324  0.569426  1
  O  O70  1  0.665086  0.104676  0.069426  1
  O  O71  1  0.165086  0.395324  0.930574  1
  O  O72  1  0.652624  0.402298  0.428045  1
  O  O73  1  0.152624  0.097702  0.571955  1
  O  O74  1  0.347376  0.902298  0.071955  1
  O  O75  1  0.847376  0.597702  0.928045  1
  O  O76  1  0.347376  0.597702  0.571955  1
  O  O77  1  0.847376  0.902298  0.428045  1
  O  O78  1  0.652624  0.097702  0.928045  1
  O  O79  1  0.152624  0.402298  0.071955  1
  O  O80  1  0.569607  0.002372  0.219749  1
  O  O81  1  0.069607  0.497628  0.780251  1
  O  O82  1  0.430393  0.502372  0.280251  1
  O  O83  1  0.930393  0.997628  0.719749  1
  O  O84  1  0.430393  0.997628  0.780251  1
  O  O85  1  0.930393  0.502372  0.219749  1
  O  O86  1  0.569607  0.497628  0.719749  1
  O  O87  1  0.069607  0.002372  0.280251  1
  O  O88  1  0.327839  0.120985  0.276443  1
  O  O89  1  0.827839  0.379015  0.723557  1
  O  O90  1  0.672161  0.620985  0.223557  1
  O  O91  1  0.172161  0.879015  0.776443  1
  O  O92  1  0.672161  0.879015  0.723557  1
  O  O93  1  0.172161  0.620985  0.276443  1
  O  O94  1  0.327839  0.379015  0.776443  1
  O  O95  1  0.827839  0.120985  0.223557  1
  O  O96  1  0.415352  0.874306  0.322661  1
  O  O97  1  0.915352  0.625694  0.677339  1
  O  O98  1  0.584648  0.374306  0.177339  1
  O  O99  1  0.084648  0.125694  0.822661  1
  O  O100  1  0.584648  0.125694  0.677339  1
  O  O101  1  0.084648  0.374306  0.322661  1
  O  O102  1  0.415352  0.625694  0.822661  1
  O  O103  1  0.915352  0.874306  0.177339  1
  O  O104  1  0.583422  0.101665  0.349560  1
  O  O105  1  0.083422  0.398335  0.650440  1
  O  O106  1  0.416578  0.601665  0.150440  1
  O  O107  1  0.916578  0.898335  0.849560  1
  O  O108  1  0.416578  0.898335  0.650440  1
  O  O109  1  0.916578  0.601665  0.349560  1
  O  O110  1  0.583422  0.398335  0.849560  1
  O  O111  1  0.083422  0.101665  0.150440  1
