# generated using pymatgen
data_Li3V2P4(HO8)2
_symmetry_space_group_name_H-M   'P 1'
_cell_length_a   4.85610995
_cell_length_b   7.55388687
_cell_length_c   8.03441703
_cell_angle_alpha   89.35912748
_cell_angle_beta   89.46518377
_cell_angle_gamma   75.35373329
_symmetry_Int_Tables_number   1
_chemical_formula_structural   Li3V2P4(HO8)2
_chemical_formula_sum   'Li3 V2 P4 H2 O16'
_cell_volume   285.12134062
_cell_formula_units_Z   1
loop_
 _symmetry_equiv_pos_site_id
 _symmetry_equiv_pos_as_xyz
  1  'x, y, z'
loop_
 _atom_site_type_symbol
 _atom_site_label
 _atom_site_symmetry_multiplicity
 _atom_site_fract_x
 _atom_site_fract_y
 _atom_site_fract_z
 _atom_site_occupancy
  Li  Li0  1  0.384590  0.155151  0.865763  1
  Li  Li1  1  0.605830  0.842438  0.134725  1
  Li  Li2  1  0.903336  0.649797  0.632604  1
  V  V3  1  0.493561  0.003065  0.497301  1
  V  V4  1  0.000005  0.499839  0.004797  1
  P  P5  1  0.131897  0.732379  0.350110  1
  P  P6  1  0.367581  0.768925  0.848388  1
  P  P7  1  0.630697  0.237627  0.155642  1
  P  P8  1  0.871183  0.262795  0.651612  1
  H  H9  1  0.521194  0.491584  0.506314  1
  H  H10  1  0.967727  0.012040  0.009708  1
  O  O11  1  0.128464  0.145086  0.550003  1
  O  O12  1  0.019975  0.692560  0.180545  1
  O  O13  1  0.150269  0.652001  0.826673  1
  O  O14  1  0.260453  0.560679  0.452004  1
  O  O15  1  0.376849  0.335876  0.047207  1
  O  O16  1  0.539813  0.178706  0.326957  1
  O  O17  1  0.241188  0.949191  0.940954  1
  O  O18  1  0.342423  0.858320  0.326918  1
  O  O19  1  0.650464  0.146217  0.671913  1
  O  O20  1  0.754860  0.052444  0.057714  1
  O  O21  1  0.485382  0.813986  0.676290  1
  O  O22  1  0.618838  0.659918  0.955311  1
  O  O23  1  0.739217  0.446249  0.560639  1
  O  O24  1  0.845154  0.352659  0.170067  1
  O  O25  1  0.985057  0.309918  0.817951  1
  O  O26  1  0.868440  0.845850  0.454855  1
