# generated using pymatgen
data_PH5NO4
_symmetry_space_group_name_H-M   'P 1'
_cell_length_a   4.50824764
_cell_length_b   8.07528899
_cell_length_c   10.78601194
_cell_angle_alpha   90.00000000
_cell_angle_beta   99.40575139
_cell_angle_gamma   90.00000000
_symmetry_Int_Tables_number   1
_chemical_formula_structural   PH5NO4
_chemical_formula_sum   'P4 H20 N4 O16'
_cell_volume   387.38996946
_cell_formula_units_Z   4
loop_
 _symmetry_equiv_pos_site_id
 _symmetry_equiv_pos_as_xyz
  1  'x, y, z'
loop_
 _atom_site_type_symbol
 _atom_site_label
 _atom_site_symmetry_multiplicity
 _atom_site_fract_x
 _atom_site_fract_y
 _atom_site_fract_z
 _atom_site_occupancy
  P  P0  1  0.997551  0.665796  0.326205  1
  P  P1  1  0.002449  0.165796  0.173795  1
  P  P2  1  0.002449  0.334204  0.673795  1
  P  P3  1  0.997551  0.834204  0.826205  1
  H  H4  1  0.838482  0.350221  0.296445  1
  H  H5  1  0.161518  0.850221  0.203555  1
  H  H6  1  0.161518  0.649779  0.703555  1
  H  H7  1  0.838482  0.149779  0.796445  1
  H  H8  1  0.546306  0.055799  0.143115  1
  H  H9  1  0.453694  0.555799  0.356885  1
  H  H10  1  0.453694  0.944201  0.856885  1
  H  H11  1  0.546306  0.444201  0.643115  1
  H  H12  1  0.590168  0.569845  0.126584  1
  H  H13  1  0.409832  0.069845  0.373416  1
  H  H14  1  0.409832  0.430155  0.873416  1
  H  H15  1  0.590168  0.930155  0.626584  1
  H  H16  1  0.652953  0.654897  0.983252  1
  H  H17  1  0.347047  0.154897  0.516748  1
  H  H18  1  0.347047  0.345103  0.016748  1
  H  H19  1  0.652953  0.845103  0.483252  1
  H  H20  1  0.283983  0.628344  0.013737  1
  H  H21  1  0.716017  0.128344  0.486263  1
  H  H22  1  0.716017  0.371656  0.986263  1
  H  H23  1  0.283983  0.871656  0.513737  1
  N  N24  1  0.504298  0.581112  0.028993  1
  N  N25  1  0.495702  0.081112  0.471007  1
  N  N26  1  0.495702  0.418888  0.971007  1
  N  N27  1  0.504298  0.918888  0.528993  1
  O  O28  1  0.923883  0.809941  0.405620  1
  O  O29  1  0.076117  0.309941  0.094380  1
  O  O30  1  0.076117  0.190059  0.594380  1
  O  O31  1  0.923883  0.690059  0.905620  1
  O  O32  1  0.898924  0.229014  0.299793  1
  O  O33  1  0.101076  0.729014  0.200207  1
  O  O34  1  0.101076  0.770986  0.700207  1
  O  O35  1  0.898924  0.270986  0.799793  1
  O  O36  1  0.727872  0.066413  0.098989  1
  O  O37  1  0.272128  0.566413  0.401011  1
  O  O38  1  0.272128  0.933587  0.901011  1
  O  O39  1  0.727872  0.433587  0.598989  1
  O  O40  1  0.735907  0.543549  0.284699  1
  O  O41  1  0.264093  0.043549  0.215301  1
  O  O42  1  0.264093  0.456451  0.715301  1
  O  O43  1  0.735907  0.956451  0.784699  1
