# generated using pymatgen
data_Li10Mn3Cr2Ni3O16
_symmetry_space_group_name_H-M   'P 1'
_cell_length_a   5.96447322
_cell_length_b   5.96447322
_cell_length_c   9.78053386
_cell_angle_alpha   89.38106551
_cell_angle_beta   90.61893449
_cell_angle_gamma   120.33454498
_symmetry_Int_Tables_number   1
_chemical_formula_structural   Li10Mn3Cr2Ni3O16
_chemical_formula_sum   'Li10 Mn3 Cr2 Ni3 O16'
_cell_volume   300.28231978
_cell_formula_units_Z   1
loop_
 _symmetry_equiv_pos_site_id
 _symmetry_equiv_pos_as_xyz
  1  'x, y, z'
loop_
 _atom_site_type_symbol
 _atom_site_label
 _atom_site_symmetry_multiplicity
 _atom_site_fract_x
 _atom_site_fract_y
 _atom_site_fract_z
 _atom_site_occupancy
  Li  Li0  1  0.377979  0.185661  0.943292  1
  Li  Li1  1  0.814339  0.622021  0.943292  1
  Li  Li2  1  0.664694  0.335306  0.733370  1
  Li  Li3  1  0.798210  0.201790  0.959171  1
  Li  Li4  1  0.002062  0.997938  0.019407  1
  Li  Li5  1  0.199492  0.800508  0.451644  1
  Li  Li6  1  0.335184  0.664816  0.233556  1
  Li  Li7  1  0.186965  0.392777  0.460328  1
  Li  Li8  1  0.009528  0.990472  0.521106  1
  Li  Li9  1  0.607223  0.813035  0.460328  1
  Mn  Mn10  1  0.339953  0.167858  0.219617  1
  Mn  Mn11  1  0.832142  0.660047  0.219617  1
  Mn  Mn12  1  0.180087  0.819913  0.720024  1
  Cr  Cr13  1  0.341050  0.658950  0.974686  1
  Cr  Cr14  1  0.675657  0.324343  0.477992  1
  Ni  Ni15  1  0.834051  0.165949  0.221375  1
  Ni  Ni16  1  0.173691  0.327376  0.719915  1
  Ni  Ni17  1  0.672624  0.826309  0.719915  1
  O  O18  1  0.341188  0.141522  0.602379  1
  O  O19  1  0.508160  0.491840  0.361287  1
  O  O20  1  0.020664  0.979336  0.828261  1
  O  O21  1  0.659115  0.340885  0.108689  1
  O  O22  1  0.013943  0.986057  0.324492  1
  O  O23  1  0.507256  0.020240  0.345298  1
  O  O24  1  0.858478  0.658812  0.602379  1
  O  O25  1  0.979760  0.492744  0.345298  1
  O  O26  1  0.174320  0.825680  0.088479  1
  O  O27  1  0.025691  0.511352  0.843169  1
  O  O28  1  0.844170  0.155830  0.584975  1
  O  O29  1  0.488648  0.974309  0.843169  1
  O  O30  1  0.331271  0.668729  0.605086  1
  O  O31  1  0.171415  0.328735  0.096241  1
  O  O32  1  0.495519  0.504481  0.847575  1
  O  O33  1  0.671265  0.828585  0.096241  1
