# generated using pymatgen
data_Li8Cr2O9
_symmetry_space_group_name_H-M   'P 1'
_cell_length_a   5.73663757
_cell_length_b   8.65098336
_cell_length_c   14.74196842
_cell_angle_alpha   87.12485438
_cell_angle_beta   101.16959535
_cell_angle_gamma   109.12024438
_symmetry_Int_Tables_number   1
_chemical_formula_structural   Li8Cr2O9
_chemical_formula_sum   'Li32 Cr8 O36'
_cell_volume   678.08415772
_cell_formula_units_Z   4
loop_
 _symmetry_equiv_pos_site_id
 _symmetry_equiv_pos_as_xyz
  1  'x, y, z'
loop_
 _atom_site_type_symbol
 _atom_site_label
 _atom_site_symmetry_multiplicity
 _atom_site_fract_x
 _atom_site_fract_y
 _atom_site_fract_z
 _atom_site_occupancy
  Li  Li0  1  0.893652  0.118185  0.966770  1
  Li  Li1  1  0.178146  0.632718  0.946438  1
  Li  Li2  1  0.664409  0.630880  0.955116  1
  Li  Li3  1  0.438873  0.122743  0.957251  1
  Li  Li4  1  0.261276  0.412607  0.842338  1
  Li  Li5  1  0.977068  0.848202  0.846986  1
  Li  Li6  1  0.595599  0.629889  0.760206  1
  Li  Li7  1  0.055232  0.631085  0.758756  1
  Li  Li8  1  0.788368  0.118268  0.744891  1
  Li  Li9  1  0.333054  0.115878  0.744062  1
  Li  Li10  1  0.127316  0.339680  0.658337  1
  Li  Li11  1  0.404242  0.896367  0.649649  1
  Li  Li12  1  0.488440  0.629908  0.543277  1
  Li  Li13  1  0.710623  0.120880  0.541261  1
  Li  Li14  1  0.932238  0.623994  0.529859  1
  Li  Li15  1  0.794090  0.882100  0.452506  1
  Li  Li16  1  0.205910  0.117900  0.547494  1
  Li  Li17  1  0.067762  0.376006  0.470141  1
  Li  Li18  1  0.289377  0.879120  0.458739  1
  Li  Li19  1  0.511560  0.370092  0.456723  1
  Li  Li20  1  0.595758  0.103633  0.350351  1
  Li  Li21  1  0.872684  0.660320  0.341663  1
  Li  Li22  1  0.666946  0.884122  0.255938  1
  Li  Li23  1  0.211632  0.881732  0.255109  1
  Li  Li24  1  0.944768  0.368915  0.241244  1
  Li  Li25  1  0.404401  0.370111  0.239794  1
  Li  Li26  1  0.022932  0.151798  0.153014  1
  Li  Li27  1  0.738724  0.587393  0.157662  1
  Li  Li28  1  0.561127  0.877257  0.042749  1
  Li  Li29  1  0.335591  0.369120  0.044884  1
  Li  Li30  1  0.821854  0.367282  0.053562  1
  Li  Li31  1  0.106348  0.881815  0.033230  1
  Cr  Cr32  1  0.497646  0.874811  0.850755  1
  Cr  Cr33  1  0.747667  0.376590  0.860340  1
  Cr  Cr34  1  0.892720  0.871100  0.643717  1
  Cr  Cr35  1  0.635678  0.357710  0.646313  1
  Cr  Cr36  1  0.364322  0.642290  0.353687  1
  Cr  Cr37  1  0.107280  0.128900  0.356283  1
  Cr  Cr38  1  0.252333  0.623410  0.139660  1
  Cr  Cr39  1  0.502354  0.125189  0.149245  1
  O  O40  1  0.770872  0.881530  0.940083  1
  O  O41  1  0.298306  0.881707  0.933544  1
  O  O42  1  0.017253  0.356792  0.931318  1
  O  O43  1  0.538804  0.367043  0.937495  1
  O  O44  1  0.377952  0.649080  0.846127  1
  O  O45  1  0.857829  0.598757  0.860146  1
  O  O46  1  0.610830  0.120715  0.848618  1
  O  O47  1  0.684381  0.875938  0.754129  1
  O  O48  1  0.199298  0.873757  0.748850  1
  O  O49  1  0.916376  0.379812  0.746349  1
  O  O50  1  0.475725  0.374081  0.751610  1
  O  O51  1  0.004633  0.090627  0.658332  1
  O  O52  1  0.779563  0.648966  0.654658  1
  O  O53  1  0.525210  0.147005  0.641280  1
  O  O54  1  0.610541  0.870510  0.559435  1
  O  O55  1  0.368897  0.391891  0.570899  1
  O  O56  1  0.075568  0.864990  0.556593  1
  O  O57  1  0.841521  0.387176  0.563165  1
  O  O58  1  0.158479  0.612824  0.436835  1
  O  O59  1  0.924432  0.135010  0.443407  1
  O  O60  1  0.631103  0.608109  0.429101  1
  O  O61  1  0.389459  0.129490  0.440565  1
  O  O62  1  0.474790  0.852995  0.358720  1
  O  O63  1  0.220437  0.351034  0.345342  1
  O  O64  1  0.995367  0.909373  0.341668  1
  O  O65  1  0.524275  0.625919  0.248390  1
  O  O66  1  0.083624  0.620188  0.253651  1
  O  O67  1  0.800702  0.126243  0.251150  1
  O  O68  1  0.315619  0.124062  0.245871  1
  O  O69  1  0.389170  0.879285  0.151382  1
  O  O70  1  0.142171  0.401243  0.139854  1
  O  O71  1  0.622048  0.350920  0.153873  1
  O  O72  1  0.461196  0.632957  0.062505  1
  O  O73  1  0.982747  0.643208  0.068682  1
  O  O74  1  0.701694  0.118293  0.066456  1
  O  O75  1  0.229128  0.118470  0.059917  1
