# generated using pymatgen
data_Li4V(PO4)2
_symmetry_space_group_name_H-M   'P 1'
_cell_length_a   8.31851214
_cell_length_b   10.35666479
_cell_length_c   8.50604918
_cell_angle_alpha   90.00000000
_cell_angle_beta   107.87636037
_cell_angle_gamma   90.00000000
_symmetry_Int_Tables_number   1
_chemical_formula_structural   Li4V(PO4)2
_chemical_formula_sum   'Li16 V4 P8 O32'
_cell_volume   697.43409955
_cell_formula_units_Z   4
loop_
 _symmetry_equiv_pos_site_id
 _symmetry_equiv_pos_as_xyz
  1  'x, y, z'
loop_
 _atom_site_type_symbol
 _atom_site_label
 _atom_site_symmetry_multiplicity
 _atom_site_fract_x
 _atom_site_fract_y
 _atom_site_fract_z
 _atom_site_occupancy
  Li  Li0  1  0.399926  0.659924  0.897505  1
  Li  Li1  1  0.347257  0.160436  0.840753  1
  Li  Li2  1  0.842373  0.338170  0.857686  1
  Li  Li3  1  0.516405  0.426411  0.759123  1
  Li  Li4  1  0.483595  0.926411  0.740877  1
  Li  Li5  1  0.157627  0.838170  0.642314  1
  Li  Li6  1  0.652743  0.660436  0.659247  1
  Li  Li7  1  0.600074  0.159924  0.602495  1
  Li  Li8  1  0.399926  0.840076  0.397505  1
  Li  Li9  1  0.347257  0.339564  0.340753  1
  Li  Li10  1  0.842373  0.161830  0.357686  1
  Li  Li11  1  0.516405  0.073589  0.259123  1
  Li  Li12  1  0.483595  0.573589  0.240877  1
  Li  Li13  1  0.157627  0.661830  0.142314  1
  Li  Li14  1  0.652743  0.839564  0.159247  1
  Li  Li15  1  0.600074  0.340076  0.102495  1
  V  V16  1  0.880199  0.856118  0.872073  1
  V  V17  1  0.119801  0.356118  0.627927  1
  V  V18  1  0.880199  0.643882  0.372073  1
  V  V19  1  0.119801  0.143882  0.127927  1
  P  P20  1  0.222769  0.415758  0.963591  1
  P  P21  1  0.710252  0.092272  0.982508  1
  P  P22  1  0.289748  0.592272  0.517492  1
  P  P23  1  0.222769  0.084242  0.463591  1
  P  P24  1  0.777231  0.915758  0.536409  1
  P  P25  1  0.710252  0.407728  0.482508  1
  P  P26  1  0.289748  0.907728  0.017492  1
  P  P27  1  0.777231  0.584242  0.036409  1
  O  O28  1  0.255280  0.054528  0.981220  1
  O  O29  1  0.345638  0.356591  0.871938  1
  O  O30  1  0.044572  0.416059  0.831674  1
  O  O31  1  0.714395  0.447736  0.973691  1
  O  O32  1  0.342109  0.844900  0.874077  1
  O  O33  1  0.869318  0.160420  0.960882  1
  O  O34  1  0.780430  0.672266  0.891602  1
  O  O35  1  0.564826  0.105803  0.815986  1
  O  O36  1  0.435174  0.605803  0.684014  1
  O  O37  1  0.219570  0.172266  0.608398  1
  O  O38  1  0.130682  0.660420  0.539118  1
  O  O39  1  0.657891  0.344900  0.625923  1
  O  O40  1  0.285605  0.947736  0.526309  1
  O  O41  1  0.955428  0.916059  0.668326  1
  O  O42  1  0.255280  0.445472  0.481220  1
  O  O43  1  0.654362  0.856591  0.628062  1
  O  O44  1  0.345638  0.143409  0.371938  1
  O  O45  1  0.744720  0.554528  0.518780  1
  O  O46  1  0.044572  0.083941  0.331674  1
  O  O47  1  0.714395  0.052264  0.473691  1
  O  O48  1  0.342109  0.655100  0.374077  1
  O  O49  1  0.869318  0.339580  0.460882  1
  O  O50  1  0.780430  0.827734  0.391602  1
  O  O51  1  0.564826  0.394197  0.315986  1
  O  O52  1  0.435174  0.894197  0.184014  1
  O  O53  1  0.219570  0.327734  0.108398  1
  O  O54  1  0.130682  0.839580  0.039118  1
  O  O55  1  0.657891  0.155100  0.125923  1
  O  O56  1  0.285605  0.552264  0.026309  1
  O  O57  1  0.955428  0.583941  0.168326  1
  O  O58  1  0.654362  0.643409  0.128062  1
  O  O59  1  0.744720  0.945472  0.018780  1
