# generated using pymatgen
data_Na2FePCO7
_symmetry_space_group_name_H-M   'P 1'
_cell_length_a   5.23497965
_cell_length_b   6.55367770
_cell_length_c   17.93641169
_cell_angle_alpha   90.00000000
_cell_angle_beta   90.45835782
_cell_angle_gamma   90.00000000
_symmetry_Int_Tables_number   1
_chemical_formula_structural   Na2FePCO7
_chemical_formula_sum   'Na8 Fe4 P4 C4 O28'
_cell_volume   615.34934643
_cell_formula_units_Z   4
loop_
 _symmetry_equiv_pos_site_id
 _symmetry_equiv_pos_as_xyz
  1  'x, y, z'
loop_
 _atom_site_type_symbol
 _atom_site_label
 _atom_site_symmetry_multiplicity
 _atom_site_fract_x
 _atom_site_fract_y
 _atom_site_fract_z
 _atom_site_occupancy
  Na  Na0  1  0.763560  0.279907  0.459865  1
  Na  Na1  1  0.250970  0.011074  0.368731  1
  Na  Na2  1  0.749030  0.511074  0.131269  1
  Na  Na3  1  0.236440  0.779907  0.040135  1
  Na  Na4  1  0.763560  0.220093  0.959865  1
  Na  Na5  1  0.250970  0.488926  0.868731  1
  Na  Na6  1  0.749030  0.988926  0.631269  1
  Na  Na7  1  0.236440  0.720093  0.540135  1
  Fe  Fe8  1  0.784272  0.734400  0.327169  1
  Fe  Fe9  1  0.215728  0.234400  0.172831  1
  Fe  Fe10  1  0.784272  0.765600  0.827169  1
  Fe  Fe11  1  0.215728  0.265600  0.672831  1
  P  P12  1  0.709725  0.245078  0.287695  1
  P  P13  1  0.290275  0.745078  0.212305  1
  P  P14  1  0.709725  0.254922  0.787695  1
  P  P15  1  0.290275  0.754922  0.712305  1
  C  C16  1  0.729900  0.764057  0.467134  1
  C  C17  1  0.270100  0.264057  0.032866  1
  C  C18  1  0.729900  0.735943  0.967134  1
  C  C19  1  0.270100  0.235943  0.532866  1
  O  O20  1  0.298336  0.233584  0.462430  1
  O  O21  1  0.956476  0.759888  0.436001  1
  O  O22  1  0.535951  0.758297  0.420525  1
  O  O23  1  0.774488  0.056913  0.336897  1
  O  O24  1  0.760238  0.433073  0.338520  1
  O  O25  1  0.128986  0.756433  0.284013  1
  O  O26  1  0.422051  0.235179  0.264919  1
  O  O27  1  0.577949  0.735179  0.235081  1
  O  O28  1  0.871014  0.256433  0.215987  1
  O  O29  1  0.225512  0.556913  0.163103  1
  O  O30  1  0.239762  0.933073  0.161480  1
  O  O31  1  0.464049  0.258297  0.079475  1
  O  O32  1  0.043524  0.259888  0.063999  1
  O  O33  1  0.701664  0.733584  0.037570  1
  O  O34  1  0.298336  0.266416  0.962430  1
  O  O35  1  0.956476  0.740112  0.936001  1
  O  O36  1  0.535951  0.741703  0.920525  1
  O  O37  1  0.760238  0.066927  0.838520  1
  O  O38  1  0.774488  0.443087  0.836897  1
  O  O39  1  0.128986  0.743567  0.784013  1
  O  O40  1  0.422051  0.264821  0.764919  1
  O  O41  1  0.577949  0.764821  0.735081  1
  O  O42  1  0.871014  0.243567  0.715987  1
  O  O43  1  0.239762  0.566927  0.661480  1
  O  O44  1  0.225512  0.943087  0.663103  1
  O  O45  1  0.464049  0.241703  0.579475  1
  O  O46  1  0.043524  0.240112  0.563999  1
  O  O47  1  0.701664  0.766416  0.537570  1
