# generated using pymatgen
data_Li4ZrO4
_symmetry_space_group_name_H-M   'P 1'
_cell_length_a   5.58378186
_cell_length_b   5.58378186
_cell_length_c   6.46217665
_cell_angle_alpha   90.00000000
_cell_angle_beta   90.00000000
_cell_angle_gamma   95.89578341
_symmetry_Int_Tables_number   1
_chemical_formula_structural   Li4ZrO4
_chemical_formula_sum   'Li8 Zr2 O8'
_cell_volume   200.41598731
_cell_formula_units_Z   2
loop_
 _symmetry_equiv_pos_site_id
 _symmetry_equiv_pos_as_xyz
  1  'x, y, z'
loop_
 _atom_site_type_symbol
 _atom_site_label
 _atom_site_symmetry_multiplicity
 _atom_site_fract_x
 _atom_site_fract_y
 _atom_site_fract_z
 _atom_site_occupancy
  Li  Li0  1  0.843496  0.156504  0.000000  1
  Li  Li1  1  0.843496  0.156504  0.500000  1
  Li  Li2  1  0.881865  0.598550  0.250000  1
  Li  Li3  1  0.401450  0.118135  0.750000  1
  Li  Li4  1  0.598550  0.881865  0.250000  1
  Li  Li5  1  0.118135  0.401450  0.750000  1
  Li  Li6  1  0.156504  0.843496  0.000000  1
  Li  Li7  1  0.156504  0.843496  0.500000  1
  Zr  Zr8  1  0.654267  0.654267  0.750000  1
  Zr  Zr9  1  0.345733  0.345733  0.250000  1
  O  O10  1  0.690575  0.273204  0.250000  1
  O  O11  1  0.726796  0.309425  0.750000  1
  O  O12  1  0.201952  0.201952  0.511036  1
  O  O13  1  0.201952  0.201952  0.988964  1
  O  O14  1  0.798048  0.798048  0.011036  1
  O  O15  1  0.798048  0.798048  0.488964  1
  O  O16  1  0.273204  0.690575  0.250000  1
  O  O17  1  0.309425  0.726796  0.750000  1
