# generated using pymatgen
data_Li4MnCrO6
_symmetry_space_group_name_H-M   'P 1'
_cell_length_a   5.00436114
_cell_length_b   5.00436114
_cell_length_c   9.73588077
_cell_angle_alpha   85.31663947
_cell_angle_beta   94.68336053
_cell_angle_gamma   60.51185161
_symmetry_Int_Tables_number   1
_chemical_formula_structural   Li4MnCrO6
_chemical_formula_sum   'Li8 Mn2 Cr2 O12'
_cell_volume   209.43143366
_cell_formula_units_Z   2
loop_
 _symmetry_equiv_pos_site_id
 _symmetry_equiv_pos_as_xyz
  1  'x, y, z'
loop_
 _atom_site_type_symbol
 _atom_site_label
 _atom_site_symmetry_multiplicity
 _atom_site_fract_x
 _atom_site_fract_y
 _atom_site_fract_z
 _atom_site_occupancy
  Li  Li0  1  1.000000  0.500000  0.000000  1
  Li  Li1  1  0.752077  0.752077  0.250000  1
  Li  Li2  1  0.845181  0.331245  0.500554  1
  Li  Li3  1  0.500000  0.000000  0.500000  1
  Li  Li4  1  0.668755  0.154819  0.000554  1
  Li  Li5  1  0.331245  0.845181  0.999446  1
  Li  Li6  1  0.154819  0.668755  0.499446  1
  Li  Li7  1  0.247923  0.247923  0.750000  1
  Mn  Mn8  1  0.917298  0.917298  0.750000  1
  Mn  Mn9  1  0.082702  0.082702  0.250000  1
  Cr  Cr10  1  0.579295  0.579295  0.750000  1
  Cr  Cr11  1  0.420705  0.420705  0.250000  1
  O  O12  1  0.853472  0.646902  0.635994  1
  O  O13  1  0.646902  0.853472  0.864006  1
  O  O14  1  0.712485  0.426317  0.138396  1
  O  O15  1  0.934141  0.207740  0.863018  1
  O  O16  1  0.792260  0.065859  0.363018  1
  O  O17  1  0.426317  0.712485  0.361604  1
  O  O18  1  0.573683  0.287515  0.638396  1
  O  O19  1  0.207740  0.934141  0.636982  1
  O  O20  1  0.065859  0.792260  0.136982  1
  O  O21  1  0.287515  0.573683  0.861604  1
  O  O22  1  0.353098  0.146528  0.135994  1
  O  O23  1  0.146528  0.353098  0.364006  1
