# generated using pymatgen
data_LiAgF2
_symmetry_space_group_name_H-M   'P 1'
_cell_length_a   5.57883280
_cell_length_b   5.69887037
_cell_length_c   7.21747289
_cell_angle_alpha   90.00000000
_cell_angle_beta   90.00000000
_cell_angle_gamma   90.00000000
_symmetry_Int_Tables_number   1
_chemical_formula_structural   LiAgF2
_chemical_formula_sum   'Li4 Ag4 F8'
_cell_volume   229.46543997
_cell_formula_units_Z   4
loop_
 _symmetry_equiv_pos_site_id
 _symmetry_equiv_pos_as_xyz
  1  'x, y, z'
loop_
 _atom_site_type_symbol
 _atom_site_label
 _atom_site_symmetry_multiplicity
 _atom_site_fract_x
 _atom_site_fract_y
 _atom_site_fract_z
 _atom_site_occupancy
  Li  Li0  1  0.000296  0.072584  0.627120  1
  Li  Li1  1  0.500296  0.427416  0.127120  1
  Li  Li2  1  0.000296  0.572584  0.872880  1
  Li  Li3  1  0.500296  0.927416  0.372880  1
  Ag  Ag4  1  0.995429  0.071220  0.134386  1
  Ag  Ag5  1  0.495429  0.428780  0.634386  1
  Ag  Ag6  1  0.995429  0.571220  0.365614  1
  Ag  Ag7  1  0.495429  0.928780  0.865614  1
  F  F8  1  0.331419  0.039031  0.580993  1
  F  F9  1  0.425345  0.104414  0.158062  1
  F  F10  1  0.925345  0.395586  0.658062  1
  F  F11  1  0.831419  0.460969  0.080993  1
  F  F12  1  0.331419  0.539031  0.919007  1
  F  F13  1  0.425345  0.604414  0.341938  1
  F  F14  1  0.925345  0.895586  0.841938  1
  F  F15  1  0.831419  0.960969  0.419007  1
