# generated using pymatgen
data_LiMn3Al2(HO2)6
_symmetry_space_group_name_H-M   'P 1'
_cell_length_a   5.87796734
_cell_length_b   7.95150008
_cell_length_c   9.69124498
_cell_angle_alpha   100.93401589
_cell_angle_beta   89.77266730
_cell_angle_gamma   100.93891040
_symmetry_Int_Tables_number   1
_chemical_formula_structural   LiMn3Al2(HO2)6
_chemical_formula_sum   'Li2 Mn6 Al4 H12 O24'
_cell_volume   436.41114943
_cell_formula_units_Z   2
loop_
 _symmetry_equiv_pos_site_id
 _symmetry_equiv_pos_as_xyz
  1  'x, y, z'
loop_
 _atom_site_type_symbol
 _atom_site_label
 _atom_site_symmetry_multiplicity
 _atom_site_fract_x
 _atom_site_fract_y
 _atom_site_fract_z
 _atom_site_occupancy
  Li  Li0  1  0.658319  0.655253  0.500358  1
  Li  Li1  1  0.341681  0.344747  0.499642  1
  Mn  Mn2  1  0.917987  0.664538  0.006860  1
  Mn  Mn3  1  0.082013  0.335462  0.993140  1
  Mn  Mn4  1  0.418551  0.664319  0.006054  1
  Mn  Mn5  1  0.581449  0.335681  0.993946  1
  Mn  Mn6  1  0.249950  0.000221  0.000335  1
  Mn  Mn7  1  0.750050  0.999779  0.999665  1
  Al  Al8  1  0.169269  0.659779  0.499271  1
  Al  Al9  1  0.830731  0.340221  0.500729  1
  Al  Al10  1  0.000000  0.000000  0.500000  1
  Al  Al11  1  0.500000  0.000000  0.500000  1
  H  H12  1  0.211116  0.836444  0.288213  1
  H  H13  1  0.710608  0.846766  0.295921  1
  H  H14  1  0.969664  0.824522  0.699641  1
  H  H15  1  0.887858  0.501778  0.291395  1
  H  H16  1  0.446259  0.829702  0.704687  1
  H  H17  1  0.112142  0.498222  0.708605  1
  H  H18  1  0.359247  0.516749  0.290945  1
  H  H19  1  0.030336  0.175478  0.300359  1
  H  H20  1  0.640753  0.483251  0.709055  1
  H  H21  1  0.553741  0.170298  0.295313  1
  H  H22  1  0.788884  0.163556  0.711787  1
  H  H23  1  0.289392  0.153234  0.704079  1
  O  O24  1  0.198188  0.780839  0.114257  1
  O  O25  1  0.215866  0.869075  0.393616  1
  O  O26  1  0.720927  0.883419  0.399499  1
  O  O27  1  0.697602  0.780798  0.113438  1
  O  O28  1  0.968891  0.808614  0.596825  1
  O  O29  1  0.968301  0.854632  0.904005  1
  O  O30  1  0.897567  0.520891  0.394705  1
  O  O31  1  0.865125  0.464770  0.101567  1
  O  O32  1  0.467305  0.854963  0.903940  1
  O  O33  1  0.134875  0.535230  0.898433  1
  O  O34  1  0.436052  0.811656  0.601709  1
  O  O35  1  0.102433  0.479109  0.605295  1
  O  O36  1  0.031109  0.191386  0.403175  1
  O  O37  1  0.363820  0.464538  0.099959  1
  O  O38  1  0.368844  0.545842  0.393487  1
  O  O39  1  0.031699  0.145368  0.095995  1
  O  O40  1  0.636180  0.535462  0.900041  1
  O  O41  1  0.631156  0.454158  0.606513  1
  O  O42  1  0.563948  0.188344  0.398291  1
  O  O43  1  0.532695  0.145037  0.096060  1
  O  O44  1  0.801812  0.219161  0.885743  1
  O  O45  1  0.784134  0.130925  0.606384  1
  O  O46  1  0.279073  0.116581  0.600501  1
  O  O47  1  0.302398  0.219202  0.886562  1
