# generated using pymatgen
data_Sr5Nb4O15
_symmetry_space_group_name_H-M   'P 1'
_cell_length_a   5.73788920
_cell_length_b   5.73788920
_cell_length_c   23.29696990
_cell_angle_alpha   90.00000000
_cell_angle_beta   90.00000000
_cell_angle_gamma   120.00000000
_symmetry_Int_Tables_number   1
_chemical_formula_structural   Sr5Nb4O15
_chemical_formula_sum   'Sr10 Nb8 O30'
_cell_volume   664.25431766
_cell_formula_units_Z   2
loop_
 _symmetry_equiv_pos_site_id
 _symmetry_equiv_pos_as_xyz
  1  'x, y, z'
loop_
 _atom_site_type_symbol
 _atom_site_label
 _atom_site_symmetry_multiplicity
 _atom_site_fract_x
 _atom_site_fract_y
 _atom_site_fract_z
 _atom_site_occupancy
  Sr  Sr0  1  0.333333  0.666667  0.140196  1
  Sr  Sr1  1  0.333333  0.666667  0.470882  1
  Sr  Sr2  1  0.000000  0.000000  0.250000  1
  Sr  Sr3  1  0.000000  0.000000  0.750000  1
  Sr  Sr4  1  0.333333  0.666667  0.640196  1
  Sr  Sr5  1  0.333333  0.666667  0.970882  1
  Sr  Sr6  1  0.666667  0.333333  0.029118  1
  Sr  Sr7  1  0.666667  0.333333  0.359804  1
  Sr  Sr8  1  0.666667  0.333333  0.529118  1
  Sr  Sr9  1  0.666667  0.333333  0.859804  1
  Nb  Nb10  1  0.333333  0.666667  0.302626  1
  Nb  Nb11  1  0.000000  0.000000  0.090786  1
  Nb  Nb12  1  0.000000  0.000000  0.409214  1
  Nb  Nb13  1  0.000000  0.000000  0.590786  1
  Nb  Nb14  1  0.000000  0.000000  0.909214  1
  Nb  Nb15  1  0.333333  0.666667  0.802626  1
  Nb  Nb16  1  0.666667  0.333333  0.197374  1
  Nb  Nb17  1  0.666667  0.333333  0.697374  1
  O  O18  1  0.100949  0.768105  0.555108  1
  O  O19  1  0.118320  0.787124  0.346287  1
  O  O20  1  0.000000  0.544000  0.750000  1
  O  O21  1  0.000000  0.456000  0.250000  1
  O  O22  1  0.212876  0.881680  0.846287  1
  O  O23  1  0.231895  0.899051  0.055108  1
  O  O24  1  0.100949  0.332844  0.055108  1
  O  O25  1  0.118320  0.331196  0.846287  1
  O  O26  1  0.212876  0.331196  0.346287  1
  O  O27  1  0.231895  0.332844  0.555108  1
  O  O28  1  0.332844  0.231895  0.944892  1
  O  O29  1  0.667156  0.899051  0.555108  1
  O  O30  1  0.668804  0.881680  0.346287  1
  O  O31  1  0.331196  0.212876  0.153713  1
  O  O32  1  0.456000  0.456000  0.750000  1
  O  O33  1  0.544000  0.544000  0.250000  1
  O  O34  1  0.668804  0.787124  0.846287  1
  O  O35  1  0.331196  0.118320  0.653713  1
  O  O36  1  0.332844  0.100949  0.444892  1
  O  O37  1  0.667156  0.768105  0.055108  1
  O  O38  1  0.768105  0.667156  0.444892  1
  O  O39  1  0.787124  0.668804  0.653713  1
  O  O40  1  0.456000  0.000000  0.250000  1
  O  O41  1  0.544000  0.000000  0.750000  1
  O  O42  1  0.881680  0.668804  0.153713  1
  O  O43  1  0.899051  0.667156  0.944892  1
  O  O44  1  0.768105  0.100949  0.944892  1
  O  O45  1  0.787124  0.118320  0.153713  1
  O  O46  1  0.881680  0.212876  0.653713  1
  O  O47  1  0.899051  0.231895  0.444892  1
