# generated using pymatgen
data_LiMnH4(SO5)2
_symmetry_space_group_name_H-M   'P 1'
_cell_length_a   5.33400901
_cell_length_b   12.84485967
_cell_length_c   5.54271945
_cell_angle_alpha   90.00000000
_cell_angle_beta   100.46482742
_cell_angle_gamma   90.00000000
_symmetry_Int_Tables_number   1
_chemical_formula_structural   LiMnH4(SO5)2
_chemical_formula_sum   'Li2 Mn2 H8 S4 O20'
_cell_volume   373.44053458
_cell_formula_units_Z   2
loop_
 _symmetry_equiv_pos_site_id
 _symmetry_equiv_pos_as_xyz
  1  'x, y, z'
loop_
 _atom_site_type_symbol
 _atom_site_label
 _atom_site_symmetry_multiplicity
 _atom_site_fract_x
 _atom_site_fract_y
 _atom_site_fract_z
 _atom_site_occupancy
  Li  Li0  1  0.010490  0.616374  0.582534  1
  Li  Li1  1  0.989510  0.116374  0.417466  1
  Mn  Mn2  1  0.745056  0.497634  0.994853  1
  Mn  Mn3  1  0.254944  0.997634  0.005147  1
  H  H4  1  0.759993  0.703862  0.903018  1
  H  H5  1  0.258271  0.798682  0.912214  1
  H  H6  1  0.570239  0.650683  0.682043  1
  H  H7  1  0.073366  0.853320  0.686864  1
  H  H8  1  0.429761  0.150683  0.317957  1
  H  H9  1  0.926634  0.353320  0.313136  1
  H  H10  1  0.240007  0.203862  0.096982  1
  H  H11  1  0.741729  0.298682  0.087786  1
  S  S12  1  0.683087  0.115933  0.773878  1
  S  S13  1  0.181449  0.381021  0.771512  1
  S  S14  1  0.316913  0.615933  0.226122  1
  S  S15  1  0.818551  0.881021  0.228488  1
  O  O16  1  0.264762  0.673318  0.992757  1
  O  O17  1  0.774022  0.822377  0.998968  1
  O  O18  1  0.387895  0.458369  0.764816  1
  O  O19  1  0.733684  0.637713  0.802014  1
  O  O20  1  0.428149  0.059440  0.753469  1
  O  O21  1  0.894290  0.040790  0.760587  1
  O  O22  1  0.227696  0.865104  0.818581  1
  O  O23  1  0.935649  0.448706  0.751957  1
  O  O24  1  0.659675  0.181990  0.552796  1
  O  O25  1  0.340325  0.681990  0.447204  1
  O  O26  1  0.137989  0.314494  0.553552  1
  O  O27  1  0.862011  0.814494  0.446448  1
  O  O28  1  0.571851  0.559440  0.246531  1
  O  O29  1  0.266316  0.137713  0.197986  1
  O  O30  1  0.612105  0.958369  0.235184  1
  O  O31  1  0.064351  0.948706  0.248043  1
  O  O32  1  0.772304  0.365104  0.181419  1
  O  O33  1  0.105710  0.540790  0.239413  1
  O  O34  1  0.735238  0.173318  0.007243  1
  O  O35  1  0.225978  0.322377  0.001032  1
