# generated using pymatgen
data_Li4Mn2Si3O10
_symmetry_space_group_name_H-M   'P 1'
_cell_length_a   5.40043802
_cell_length_b   5.40043802
_cell_length_c   17.20884939
_cell_angle_alpha   81.45669011
_cell_angle_beta   98.54330989
_cell_angle_gamma   119.18181143
_symmetry_Int_Tables_number   1
_chemical_formula_structural   Li4Mn2Si3O10
_chemical_formula_sum   'Li8 Mn4 Si6 O20'
_cell_volume   431.64008478
_cell_formula_units_Z   2
loop_
 _symmetry_equiv_pos_site_id
 _symmetry_equiv_pos_as_xyz
  1  'x, y, z'
loop_
 _atom_site_type_symbol
 _atom_site_label
 _atom_site_symmetry_multiplicity
 _atom_site_fract_x
 _atom_site_fract_y
 _atom_site_fract_z
 _atom_site_occupancy
  Li  Li0  1  0.830976  0.322568  0.052560  1
  Li  Li1  1  0.578978  0.209802  0.229263  1
  Li  Li2  1  0.677432  0.169024  0.552560  1
  Li  Li3  1  0.790198  0.421022  0.729263  1
  Li  Li4  1  0.209802  0.578978  0.270737  1
  Li  Li5  1  0.322568  0.830976  0.447440  1
  Li  Li6  1  0.421022  0.790198  0.770737  1
  Li  Li7  1  0.169024  0.677432  0.947440  1
  Mn  Mn8  1  0.197493  0.986356  0.084076  1
  Mn  Mn9  1  0.013644  0.802507  0.584076  1
  Mn  Mn10  1  0.986356  0.197493  0.415924  1
  Mn  Mn11  1  0.802507  0.013644  0.915924  1
  Si  Si12  1  0.659398  0.535783  0.400878  1
  Si  Si13  1  0.883664  0.883664  0.250000  1
  Si  Si14  1  0.535783  0.659398  0.099122  1
  Si  Si15  1  0.464217  0.340602  0.900878  1
  Si  Si16  1  0.116336  0.116336  0.750000  1
  Si  Si17  1  0.340602  0.464217  0.599122  1
  O  O18  1  0.918597  0.160126  0.286584  1
  O  O19  1  0.839874  0.081403  0.786584  1
  O  O20  1  0.610713  0.219220  0.435237  1
  O  O21  1  0.571019  0.370876  0.111432  1
  O  O22  1  0.780402  0.588688  0.312084  1
  O  O23  1  0.780541  0.924193  0.047798  1
  O  O24  1  0.924193  0.780541  0.452202  1
  O  O25  1  0.780780  0.389287  0.935237  1
  O  O26  1  0.629124  0.428981  0.611432  1
  O  O27  1  0.588688  0.780402  0.187916  1
  O  O28  1  0.411312  0.219598  0.812084  1
  O  O29  1  0.370876  0.571019  0.388568  1
  O  O30  1  0.219220  0.610713  0.064763  1
  O  O31  1  0.075807  0.219459  0.547798  1
  O  O32  1  0.219459  0.075807  0.952202  1
  O  O33  1  0.219598  0.411312  0.687916  1
  O  O34  1  0.428981  0.629124  0.888568  1
  O  O35  1  0.389287  0.780780  0.564763  1
  O  O36  1  0.160126  0.918597  0.213416  1
  O  O37  1  0.081403  0.839874  0.713416  1
