# generated using pymatgen
data_GdAsO4
_symmetry_space_group_name_H-M   'P 1'
_cell_length_a   6.70887161
_cell_length_b   7.07727573
_cell_length_c   8.24131561
_cell_angle_alpha   90.00000000
_cell_angle_beta   126.25356214
_cell_angle_gamma   90.00000000
_symmetry_Int_Tables_number   1
_chemical_formula_structural   GdAsO4
_chemical_formula_sum   'Gd4 As4 O16'
_cell_volume   315.54905522
_cell_formula_units_Z   4
loop_
 _symmetry_equiv_pos_site_id
 _symmetry_equiv_pos_as_xyz
  1  'x, y, z'
loop_
 _atom_site_type_symbol
 _atom_site_label
 _atom_site_symmetry_multiplicity
 _atom_site_fract_x
 _atom_site_fract_y
 _atom_site_fract_z
 _atom_site_occupancy
  Gd  Gd0  1  0.809883  0.852830  0.218285  1
  Gd  Gd1  1  0.190117  0.352830  0.281715  1
  Gd  Gd2  1  0.809883  0.647170  0.718285  1
  Gd  Gd3  1  0.190117  0.147170  0.781715  1
  As  As4  1  0.310995  0.838704  0.198852  1
  As  As5  1  0.689005  0.338704  0.301148  1
  As  As6  1  0.310995  0.661296  0.698852  1
  As  As7  1  0.689005  0.161296  0.801148  1
  O  O8  1  0.355514  0.894717  0.018222  1
  O  O9  1  0.107407  0.652499  0.104637  1
  O  O10  1  0.384987  0.287455  0.112239  1
  O  O11  1  0.833920  0.506337  0.254060  1
  O  O12  1  0.615013  0.787455  0.387761  1
  O  O13  1  0.166080  0.006337  0.245940  1
  O  O14  1  0.892593  0.152499  0.395363  1
  O  O15  1  0.644486  0.394717  0.481778  1
  O  O16  1  0.355514  0.605283  0.518222  1
  O  O17  1  0.107407  0.847501  0.604637  1
  O  O18  1  0.833920  0.993663  0.754060  1
  O  O19  1  0.384987  0.212545  0.612239  1
  O  O20  1  0.166080  0.493663  0.745940  1
  O  O21  1  0.615013  0.712545  0.887761  1
  O  O22  1  0.892593  0.347501  0.895363  1
  O  O23  1  0.644486  0.105283  0.981778  1
