# generated using pymatgen
data_HfMnO3
_symmetry_space_group_name_H-M   'P 1'
_cell_length_a   5.41662298
_cell_length_b   5.61570279
_cell_length_c   7.91616303
_cell_angle_alpha   90.00000000
_cell_angle_beta   90.00000000
_cell_angle_gamma   90.00000000
_symmetry_Int_Tables_number   1
_chemical_formula_structural   HfMnO3
_chemical_formula_sum   'Hf4 Mn4 O12'
_cell_volume   240.79499316
_cell_formula_units_Z   4
loop_
 _symmetry_equiv_pos_site_id
 _symmetry_equiv_pos_as_xyz
  1  'x, y, z'
loop_
 _atom_site_type_symbol
 _atom_site_label
 _atom_site_symmetry_multiplicity
 _atom_site_fract_x
 _atom_site_fract_y
 _atom_site_fract_z
 _atom_site_occupancy
  Hf  Hf0  1  0.000000  0.000000  0.000000  1
  Hf  Hf1  1  0.000000  0.000000  0.500000  1
  Hf  Hf2  1  0.500000  0.500000  0.000000  1
  Hf  Hf3  1  0.500000  0.500000  0.500000  1
  Mn  Mn4  1  0.008697  0.455037  0.750000  1
  Mn  Mn5  1  0.491303  0.955037  0.750000  1
  Mn  Mn6  1  0.508697  0.044963  0.250000  1
  Mn  Mn7  1  0.991303  0.544963  0.250000  1
  O  O8  1  0.123614  0.938953  0.250000  1
  O  O9  1  0.181954  0.686763  0.566223  1
  O  O10  1  0.181954  0.686763  0.933777  1
  O  O11  1  0.318046  0.186763  0.566223  1
  O  O12  1  0.318046  0.186763  0.933777  1
  O  O13  1  0.376386  0.438953  0.250000  1
  O  O14  1  0.623614  0.561047  0.750000  1
  O  O15  1  0.681954  0.813237  0.066223  1
  O  O16  1  0.681954  0.813237  0.433777  1
  O  O17  1  0.818046  0.313237  0.066223  1
  O  O18  1  0.818046  0.313237  0.433777  1
  O  O19  1  0.876386  0.061047  0.750000  1
