# generated using pymatgen
data_AgAuO3
_symmetry_space_group_name_H-M   'P 1'
_cell_length_a   6.42351954
_cell_length_b   6.42351954
_cell_length_c   7.53973250
_cell_angle_alpha   90.00000000
_cell_angle_beta   90.00000000
_cell_angle_gamma   108.91902886
_symmetry_Int_Tables_number   1
_chemical_formula_structural   AgAuO3
_chemical_formula_sum   'Ag4 Au4 O12'
_cell_volume   294.29504401
_cell_formula_units_Z   4
loop_
 _symmetry_equiv_pos_site_id
 _symmetry_equiv_pos_as_xyz
  1  'x, y, z'
loop_
 _atom_site_type_symbol
 _atom_site_label
 _atom_site_symmetry_multiplicity
 _atom_site_fract_x
 _atom_site_fract_y
 _atom_site_fract_z
 _atom_site_occupancy
  Ag  Ag0  1  0.638093  0.361907  0.250000  1
  Ag  Ag1  1  0.999503  0.000497  0.750000  1
  Ag  Ag2  1  0.361907  0.638093  0.750000  1
  Ag  Ag3  1  0.000497  0.999503  0.250000  1
  Au  Au4  1  0.500000  1.000000  1.000000  1
  Au  Au5  1  0.500000  1.000000  0.500000  1
  Au  Au6  1  0.000000  0.500000  0.000000  1
  Au  Au7  1  0.000000  0.500000  0.500000  1
  O  O8  1  0.476943  0.186009  0.750000  1
  O  O9  1  0.186009  0.476943  0.250000  1
  O  O10  1  0.267979  0.307028  0.250000  1
  O  O11  1  0.307028  0.267979  0.750000  1
  O  O12  1  0.838988  0.161012  0.018784  1
  O  O13  1  0.838988  0.161012  0.481216  1
  O  O14  1  0.161012  0.838988  0.518784  1
  O  O15  1  0.161012  0.838988  0.981216  1
  O  O16  1  0.732021  0.692972  0.750000  1
  O  O17  1  0.692972  0.732021  0.250000  1
  O  O18  1  0.523057  0.813991  0.250000  1
  O  O19  1  0.813991  0.523057  0.750000  1
