# generated using pymatgen
data_Sb4I2O5
_symmetry_space_group_name_H-M   'P 1'
_cell_length_a   7.09031301
_cell_length_b   5.29847634
_cell_length_c   13.97119249
_cell_angle_alpha   90.00000000
_cell_angle_beta   95.78132689
_cell_angle_gamma   90.00000000
_symmetry_Int_Tables_number   1
_chemical_formula_structural   Sb4I2O5
_chemical_formula_sum   'Sb8 I4 O10'
_cell_volume   522.19805164
_cell_formula_units_Z   2
loop_
 _symmetry_equiv_pos_site_id
 _symmetry_equiv_pos_as_xyz
  1  'x, y, z'
loop_
 _atom_site_type_symbol
 _atom_site_label
 _atom_site_symmetry_multiplicity
 _atom_site_fract_x
 _atom_site_fract_y
 _atom_site_fract_z
 _atom_site_occupancy
  Sb  Sb0  1  0.819856  0.607720  0.704638  1
  Sb  Sb1  1  0.180144  0.107720  0.795362  1
  Sb  Sb2  1  0.180144  0.392280  0.295362  1
  Sb  Sb3  1  0.819856  0.892280  0.204638  1
  Sb  Sb4  1  0.164281  0.721489  0.547525  1
  Sb  Sb5  1  0.835719  0.221489  0.952475  1
  Sb  Sb6  1  0.835719  0.278511  0.452475  1
  Sb  Sb7  1  0.164281  0.778511  0.047525  1
  I  I8  1  0.499827  0.703593  0.881851  1
  I  I9  1  0.500173  0.203593  0.618149  1
  I  I10  1  0.500173  0.296407  0.118149  1
  I  I11  1  0.499827  0.796407  0.381851  1
  O  O12  1  0.065542  0.504401  0.418863  1
  O  O13  1  0.934458  0.004401  0.081137  1
  O  O14  1  0.934458  0.495599  0.581137  1
  O  O15  1  0.065542  0.995599  0.918863  1
  O  O16  1  0.066866  0.826390  0.710896  1
  O  O17  1  0.933134  0.326390  0.789104  1
  O  O18  1  0.933134  0.173610  0.289104  1
  O  O19  1  0.066866  0.673610  0.210896  1
  O  O20  1  0.000000  0.500000  0.000000  1
  O  O21  1  0.000000  0.000000  0.500000  1
