# generated using pymatgen
data_Li3VS4
_symmetry_space_group_name_H-M   'P 1'
_cell_length_a   12.67818211
_cell_length_b   12.67818211
_cell_length_c   7.41486506
_cell_angle_alpha   90.00000000
_cell_angle_beta   90.00000000
_cell_angle_gamma   90.00000000
_symmetry_Int_Tables_number   1
_chemical_formula_structural   Li3VS4
_chemical_formula_sum   'Li24 V8 S32'
_cell_volume   1191.83798671
_cell_formula_units_Z   8
loop_
 _symmetry_equiv_pos_site_id
 _symmetry_equiv_pos_as_xyz
  1  'x, y, z'
loop_
 _atom_site_type_symbol
 _atom_site_label
 _atom_site_symmetry_multiplicity
 _atom_site_fract_x
 _atom_site_fract_y
 _atom_site_fract_z
 _atom_site_occupancy
  Li  Li0  1  0.000000  0.000000  0.208791  1
  Li  Li1  1  0.000000  0.000000  0.791209  1
  Li  Li2  1  0.000000  0.500000  0.083246  1
  Li  Li3  1  0.000000  0.500000  0.583246  1
  Li  Li4  1  0.048013  0.745780  0.360822  1
  Li  Li5  1  0.199945  0.253072  0.069332  1
  Li  Li6  1  0.245780  0.548013  0.860822  1
  Li  Li7  1  0.253072  0.800055  0.930668  1
  Li  Li8  1  0.246928  0.300055  0.569332  1
  Li  Li9  1  0.254220  0.048013  0.639178  1
  Li  Li10  1  0.300055  0.753072  0.430668  1
  Li  Li11  1  0.451987  0.245780  0.139178  1
  Li  Li12  1  0.500000  0.500000  0.291209  1
  Li  Li13  1  0.500000  0.500000  0.708791  1
  Li  Li14  1  0.500000  0.000000  0.416754  1
  Li  Li15  1  0.500000  0.000000  0.916754  1
  Li  Li16  1  0.548013  0.754220  0.139178  1
  Li  Li17  1  0.699945  0.246928  0.430668  1
  Li  Li18  1  0.745780  0.951987  0.639178  1
  Li  Li19  1  0.753072  0.699945  0.569332  1
  Li  Li20  1  0.746928  0.199945  0.930668  1
  Li  Li21  1  0.754220  0.451987  0.860822  1
  Li  Li22  1  0.800055  0.746928  0.069332  1
  Li  Li23  1  0.951987  0.254220  0.360822  1
  V  V24  1  0.011493  0.263060  0.782446  1
  V  V25  1  0.236940  0.488507  0.282446  1
  V  V26  1  0.263060  0.988507  0.217554  1
  V  V27  1  0.488507  0.763060  0.717554  1
  V  V28  1  0.511493  0.236940  0.717554  1
  V  V29  1  0.736940  0.011493  0.217554  1
  V  V30  1  0.763060  0.511493  0.282446  1
  V  V31  1  0.988507  0.736940  0.782446  1
  S  S32  1  0.999818  0.816917  0.035849  1
  S  S33  1  0.082019  0.153908  0.596119  1
  S  S34  1  0.111455  0.399410  0.822842  1
  S  S35  1  0.100590  0.388545  0.322842  1
  S  S36  1  0.140614  0.690324  0.675179  1
  S  S37  1  0.153908  0.917981  0.403881  1
  S  S38  1  0.183083  0.999818  0.964151  1
  S  S39  1  0.190324  0.640614  0.175179  1
  S  S40  1  0.309676  0.140614  0.324821  1
  S  S41  1  0.316917  0.499818  0.535849  1
  S  S42  1  0.346092  0.417981  0.096119  1
  S  S43  1  0.359386  0.190324  0.824821  1
  S  S44  1  0.399410  0.888545  0.177158  1
  S  S45  1  0.388545  0.899410  0.677158  1
  S  S46  1  0.417981  0.653908  0.903881  1
  S  S47  1  0.500182  0.316917  0.464151  1
  S  S48  1  0.499818  0.683083  0.464151  1
  S  S49  1  0.582019  0.346092  0.903881  1
  S  S50  1  0.611455  0.100590  0.677158  1
  S  S51  1  0.600590  0.111455  0.177158  1
  S  S52  1  0.640614  0.809676  0.824821  1
  S  S53  1  0.653908  0.582019  0.096119  1
  S  S54  1  0.683083  0.500182  0.535849  1
  S  S55  1  0.690324  0.859386  0.324821  1
  S  S56  1  0.809676  0.359386  0.175179  1
  S  S57  1  0.816917  0.000182  0.964151  1
  S  S58  1  0.846092  0.082019  0.403881  1
  S  S59  1  0.859386  0.309676  0.675179  1
  S  S60  1  0.899410  0.611455  0.322842  1
  S  S61  1  0.888545  0.600590  0.822842  1
  S  S62  1  0.917981  0.846092  0.596119  1
  S  S63  1  0.000182  0.183083  0.035849  1
