# generated using pymatgen
data_Na2LiFePCO7
_symmetry_space_group_name_H-M   'P 1'
_cell_length_a   6.66255578
_cell_length_b   8.85570565
_cell_length_c   10.31479975
_cell_angle_alpha   88.36064618
_cell_angle_beta   89.54361688
_cell_angle_gamma   89.40483912
_symmetry_Int_Tables_number   1
_chemical_formula_structural   Na2LiFePCO7
_chemical_formula_sum   'Na8 Li4 Fe4 P4 C4 O28'
_cell_volume   608.29021179
_cell_formula_units_Z   4
loop_
 _symmetry_equiv_pos_site_id
 _symmetry_equiv_pos_as_xyz
  1  'x, y, z'
loop_
 _atom_site_type_symbol
 _atom_site_label
 _atom_site_symmetry_multiplicity
 _atom_site_fract_x
 _atom_site_fract_y
 _atom_site_fract_z
 _atom_site_occupancy
  Na  Na0  1  0.756727  0.918274  0.119028  1
  Na  Na1  1  0.754377  0.918395  0.619963  1
  Na  Na2  1  0.000451  0.739512  0.374476  1
  Na  Na3  1  0.499956  0.739946  0.375360  1
  Na  Na4  1  0.499198  0.740452  0.873550  1
  Na  Na5  1  0.496692  0.258625  0.124459  1
  Na  Na6  1  0.497125  0.261665  0.622321  1
  Na  Na7  1  0.003880  0.260603  0.626070  1
  Li  Li8  1  0.983981  0.724429  0.881515  1
  Li  Li9  1  0.014585  0.271170  0.123488  1
  Li  Li10  1  0.241361  0.093074  0.373507  1
  Li  Li11  1  0.236012  0.089102  0.875109  1
  Fe  Fe12  1  0.249620  0.649232  0.107081  1
  Fe  Fe13  1  0.247427  0.648089  0.609845  1
  Fe  Fe14  1  0.752491  0.351646  0.387942  1
  Fe  Fe15  1  0.752401  0.348876  0.891178  1
  P  P16  1  0.755930  0.583027  0.145881  1
  P  P17  1  0.753535  0.588318  0.649149  1
  P  P18  1  0.247241  0.404634  0.349463  1
  P  P19  1  0.244992  0.410998  0.854183  1
  C  C20  1  0.240896  0.954043  0.135221  1
  C  C21  1  0.247458  0.946713  0.640214  1
  C  C22  1  0.753629  0.060259  0.361900  1
  C  C23  1  0.759606  0.052632  0.866307  1
  O  O24  1  0.746720  0.915229  0.353770  1
  O  O25  1  0.773647  0.906889  0.860411  1
  O  O26  1  0.250818  0.911207  0.015449  1
  O  O27  1  0.248461  0.907311  0.518669  1
  O  O28  1  0.247063  0.851607  0.229247  1
  O  O29  1  0.240097  0.843150  0.732286  1
  O  O30  1  0.935197  0.684483  0.100494  1
  O  O31  1  0.561944  0.670848  0.103637  1
  O  O32  1  0.936075  0.684137  0.601933  1
  O  O33  1  0.562251  0.683447  0.612791  1
  O  O34  1  0.753873  0.565657  0.297172  1
  O  O35  1  0.252426  0.559421  0.415640  1
  O  O36  1  0.764000  0.567798  0.800280  1
  O  O37  1  0.228427  0.568754  0.915293  1
  O  O38  1  0.770559  0.424568  0.087082  1
  O  O39  1  0.232360  0.429840  0.199133  1
  O  O40  1  0.750187  0.432635  0.585549  1
  O  O41  1  0.242442  0.433734  0.703780  1
  O  O42  1  0.437304  0.307025  0.382022  1
  O  O43  1  0.069019  0.304846  0.397886  1
  O  O44  1  0.439246  0.322748  0.893977  1
  O  O45  1  0.070322  0.303992  0.899165  1
  O  O46  1  0.762608  0.146815  0.258404  1
  O  O47  1  0.754945  0.137193  0.760689  1
  O  O48  1  0.751624  0.122581  0.475395  1
  O  O49  1  0.749536  0.118519  0.977257  1
  O  O50  1  0.225499  0.094959  0.164102  1
  O  O51  1  0.253776  0.086892  0.671279  1
