# generated using pymatgen
data_Li4MnFe2(BO3)4
_symmetry_space_group_name_H-M   'P 1'
_cell_length_a   5.29164720
_cell_length_b   9.00665469
_cell_length_c   11.20197930
_cell_angle_alpha   90.00000000
_cell_angle_beta   117.28848360
_cell_angle_gamma   90.00000000
_symmetry_Int_Tables_number   1
_chemical_formula_structural   Li4MnFe2(BO3)4
_chemical_formula_sum   'Li8 Mn2 Fe4 B8 O24'
_cell_volume   474.47019397
_cell_formula_units_Z   2
loop_
 _symmetry_equiv_pos_site_id
 _symmetry_equiv_pos_as_xyz
  1  'x, y, z'
loop_
 _atom_site_type_symbol
 _atom_site_label
 _atom_site_symmetry_multiplicity
 _atom_site_fract_x
 _atom_site_fract_y
 _atom_site_fract_z
 _atom_site_occupancy
  Li  Li0  1  0.434317  0.894683  0.602358  1
  Li  Li1  1  0.928681  0.235290  0.087027  1
  Li  Li2  1  0.536911  0.408372  0.887758  1
  Li  Li3  1  0.490727  0.729406  0.836898  1
  Li  Li4  1  0.928681  0.764710  0.587027  1
  Li  Li5  1  0.434317  0.105317  0.102358  1
  Li  Li6  1  0.536911  0.591628  0.387758  1
  Li  Li7  1  0.490727  0.270594  0.336898  1
  Mn  Mn8  1  0.523189  0.222223  0.668748  1
  Mn  Mn9  1  0.523189  0.777777  0.168748  1
  Fe  Fe10  1  0.974324  0.564506  0.126166  1
  Fe  Fe11  1  0.018984  0.073587  0.369057  1
  Fe  Fe12  1  0.974324  0.435494  0.626166  1
  Fe  Fe13  1  0.018984  0.926413  0.869057  1
  B  B14  1  0.455241  0.580472  0.623464  1
  B  B15  1  0.972101  0.915644  0.128272  1
  B  B16  1  0.540592  0.067095  0.880656  1
  B  B17  1  0.030844  0.410043  0.372126  1
  B  B18  1  0.972101  0.084356  0.628272  1
  B  B19  1  0.455241  0.419528  0.123464  1
  B  B20  1  0.030844  0.589957  0.872126  1
  B  B21  1  0.540592  0.932905  0.380656  1
  O  O22  1  0.830491  0.575027  0.920001  1
  O  O23  1  0.315171  0.934618  0.410436  1
  O  O24  1  0.663314  0.200457  0.875299  1
  O  O25  1  0.641784  0.933508  0.855231  1
  O  O26  1  0.119477  0.527539  0.320346  1
  O  O27  1  0.154065  0.271052  0.373826  1
  O  O28  1  0.369092  0.438453  0.646033  1
  O  O29  1  0.868241  0.774037  0.131642  1
  O  O30  1  0.860926  0.038481  0.163799  1
  O  O31  1  0.321719  0.702319  0.638702  1
  O  O32  1  0.184997  0.068837  0.589137  1
  O  O33  1  0.677752  0.412374  0.088743  1
  O  O34  1  0.315171  0.065382  0.910436  1
  O  O35  1  0.830491  0.424973  0.420001  1
  O  O36  1  0.119477  0.472461  0.820346  1
  O  O37  1  0.663314  0.799543  0.375299  1
  O  O38  1  0.154065  0.728948  0.873826  1
  O  O39  1  0.641784  0.066492  0.355231  1
  O  O40  1  0.868241  0.225963  0.631642  1
  O  O41  1  0.369092  0.561547  0.146033  1
  O  O42  1  0.860926  0.961519  0.663799  1
  O  O43  1  0.321719  0.297681  0.138702  1
  O  O44  1  0.677752  0.587626  0.588743  1
  O  O45  1  0.184997  0.931163  0.089137  1
