# generated using pymatgen
data_Li4Mn2V3Cr3O16
_symmetry_space_group_name_H-M   'P 1'
_cell_length_a   5.88277585
_cell_length_b   5.88277585
_cell_length_c   9.64238475
_cell_angle_alpha   87.53895644
_cell_angle_beta   92.46104356
_cell_angle_gamma   119.38679714
_symmetry_Int_Tables_number   1
_chemical_formula_structural   Li4Mn2V3Cr3O16
_chemical_formula_sum   'Li4 Mn2 V3 Cr3 O16'
_cell_volume   290.39714356
_cell_formula_units_Z   1
loop_
 _symmetry_equiv_pos_site_id
 _symmetry_equiv_pos_as_xyz
  1  'x, y, z'
loop_
 _atom_site_type_symbol
 _atom_site_label
 _atom_site_symmetry_multiplicity
 _atom_site_fract_x
 _atom_site_fract_y
 _atom_site_fract_z
 _atom_site_occupancy
  Li  Li0  1  0.336226  0.663774  0.895014  1
  Li  Li1  1  0.990033  0.009967  0.994607  1
  Li  Li2  1  0.994920  0.005080  0.494748  1
  Li  Li3  1  0.666398  0.333602  0.395642  1
  Mn  Mn4  1  0.336355  0.663645  0.486577  1
  Mn  Mn5  1  0.668211  0.331789  0.988860  1
  V  V6  1  0.837654  0.660962  0.714548  1
  V  V7  1  0.167346  0.832654  0.209160  1
  V  V8  1  0.339038  0.162346  0.714548  1
  Cr  Cr9  1  0.659386  0.832238  0.215661  1
  Cr  Cr10  1  0.167762  0.340614  0.215661  1
  Cr  Cr11  1  0.830744  0.169256  0.711915  1
  O  O12  1  0.672030  0.829807  0.602674  1
  O  O13  1  0.485781  0.514219  0.332557  1
  O  O14  1  0.319173  0.680827  0.104935  1
  O  O15  1  0.008519  0.991481  0.310309  1
  O  O16  1  0.005962  0.994038  0.810777  1
  O  O17  1  0.170193  0.327970  0.602674  1
  O  O18  1  0.471571  0.957996  0.336946  1
  O  O19  1  0.042004  0.528429  0.336946  1
  O  O20  1  0.833441  0.166559  0.098035  1
  O  O21  1  0.156934  0.843066  0.605892  1
  O  O22  1  0.965837  0.485386  0.833389  1
  O  O23  1  0.514614  0.034163  0.833389  1
  O  O24  1  0.659259  0.340741  0.603078  1
  O  O25  1  0.851265  0.683655  0.106578  1
  O  O26  1  0.523562  0.476438  0.843419  1
  O  O27  1  0.316345  0.148735  0.106578  1
