# generated using pymatgen
data_Li3Co2CuO6
_symmetry_space_group_name_H-M   'P 1'
_cell_length_a   6.59726713
_cell_length_b   6.59726713
_cell_length_c   5.91997916
_cell_angle_alpha   76.74348897
_cell_angle_beta   103.25651103
_cell_angle_gamma   154.29972109
_symmetry_Int_Tables_number   1
_chemical_formula_structural   Li3Co2CuO6
_chemical_formula_sum   'Li3 Co2 Cu1 O6'
_cell_volume   108.60343620
_cell_formula_units_Z   1
loop_
 _symmetry_equiv_pos_site_id
 _symmetry_equiv_pos_as_xyz
  1  'x, y, z'
loop_
 _atom_site_type_symbol
 _atom_site_label
 _atom_site_symmetry_multiplicity
 _atom_site_fract_x
 _atom_site_fract_y
 _atom_site_fract_z
 _atom_site_occupancy
  Li  Li0  1  0.162463  0.837537  0.835118  1
  Li  Li1  1  0.500000  0.500000  0.500000  1
  Li  Li2  1  0.837537  0.162463  0.164881  1
  Co  Co3  1  0.164315  0.835685  0.334644  1
  Co  Co4  1  0.835685  0.164315  0.665356  1
  Cu  Cu5  1  0.500000  0.500000  0.000000  1
  O  O6  1  0.662004  0.337996  0.095999  1
  O  O7  1  0.993803  0.006197  0.762132  1
  O  O8  1  0.326429  0.673571  0.430081  1
  O  O9  1  0.006197  0.993803  0.237868  1
  O  O10  1  0.337996  0.662004  0.904001  1
  O  O11  1  0.673571  0.326429  0.569919  1
