# generated using pymatgen
data_Zr15VO32
_symmetry_space_group_name_H-M   'P 1'
_cell_length_a   5.26837127
_cell_length_b   10.38895064
_cell_length_c   10.76278047
_cell_angle_alpha   99.62009262
_cell_angle_beta   90.10545205
_cell_angle_gamma   90.16377379
_symmetry_Int_Tables_number   1
_chemical_formula_structural   Zr15VO32
_chemical_formula_sum   'Zr15 V1 O32'
_cell_volume   580.78975268
_cell_formula_units_Z   1
loop_
 _symmetry_equiv_pos_site_id
 _symmetry_equiv_pos_as_xyz
  1  'x, y, z'
loop_
 _atom_site_type_symbol
 _atom_site_label
 _atom_site_symmetry_multiplicity
 _atom_site_fract_x
 _atom_site_fract_y
 _atom_site_fract_z
 _atom_site_occupancy
  Zr  Zr0  1  0.542237  0.863270  0.146677  1
  Zr  Zr1  1  0.956054  0.864638  0.394521  1
  Zr  Zr2  1  0.543848  0.862656  0.644472  1
  Zr  Zr3  1  0.957961  0.861100  0.895230  1
  Zr  Zr4  1  0.042845  0.638502  0.105117  1
  Zr  Zr5  1  0.453844  0.636744  0.355353  1
  Zr  Zr6  1  0.042857  0.637139  0.603357  1
  Zr  Zr7  1  0.458184  0.637660  0.853986  1
  Zr  Zr8  1  0.543023  0.359616  0.147894  1
  Zr  Zr9  1  0.953155  0.355012  0.394619  1
  Zr  Zr10  1  0.540815  0.358750  0.641470  1
  Zr  Zr11  1  0.955052  0.362090  0.895380  1
  Zr  Zr12  1  0.041717  0.139623  0.107642  1
  Zr  Zr13  1  0.043041  0.141312  0.603614  1
  Zr  Zr14  1  0.455629  0.138419  0.854936  1
  V  V15  1  0.446806  0.129444  0.349800  1
  O  O16  1  0.836503  0.965191  0.080005  1
  O  O17  1  0.665607  0.977811  0.331109  1
  O  O18  1  0.839889  0.966105  0.575607  1
  O  O19  1  0.667561  0.965986  0.827816  1
  O  O20  1  0.259049  0.777064  0.011389  1
  O  O21  1  0.242098  0.776763  0.260939  1
  O  O22  1  0.255946  0.777130  0.509532  1
  O  O23  1  0.756942  0.730764  0.241286  1
  O  O24  1  0.243022  0.775473  0.759910  1
  O  O25  1  0.742228  0.725970  0.488610  1
  O  O26  1  0.757783  0.724381  0.738763  1
  O  O27  1  0.742794  0.724603  0.989859  1
  O  O28  1  0.333650  0.534249  0.172274  1
  O  O29  1  0.164148  0.533195  0.421560  1
  O  O30  1  0.832954  0.465369  0.078895  1
  O  O31  1  0.334427  0.533883  0.670707  1
  O  O32  1  0.669107  0.466241  0.328010  1
  O  O33  1  0.165152  0.535460  0.922303  1
  O  O34  1  0.834746  0.461949  0.577507  1
  O  O35  1  0.665422  0.464846  0.827504  1
  O  O36  1  0.256245  0.276037  0.012120  1
  O  O37  1  0.249271  0.269314  0.264494  1
  O  O38  1  0.254901  0.273850  0.508094  1
  O  O39  1  0.756646  0.222718  0.239947  1
  O  O40  1  0.241972  0.275808  0.760285  1
  O  O41  1  0.730594  0.218574  0.484927  1
  O  O42  1  0.757917  0.224349  0.738472  1
  O  O43  1  0.742299  0.223847  0.990052  1
  O  O44  1  0.339316  0.038794  0.179983  1
  O  O45  1  0.182786  0.039527  0.417534  1
  O  O46  1  0.332480  0.034671  0.671452  1
  O  O47  1  0.169484  0.034099  0.924988  1
