# generated using pymatgen
data_Bi11PO20
_symmetry_space_group_name_H-M   'P 1'
_cell_length_a   8.81050021
_cell_length_b   8.95354833
_cell_length_c   8.97081036
_cell_angle_alpha   109.78217142
_cell_angle_beta   110.49122716
_cell_angle_gamma   107.71382403
_symmetry_Int_Tables_number   1
_chemical_formula_structural   Bi11PO20
_chemical_formula_sum   'Bi11 P1 O20'
_cell_volume   547.34894367
_cell_formula_units_Z   1
loop_
 _symmetry_equiv_pos_site_id
 _symmetry_equiv_pos_as_xyz
  1  'x, y, z'
loop_
 _atom_site_type_symbol
 _atom_site_label
 _atom_site_symmetry_multiplicity
 _atom_site_fract_x
 _atom_site_fract_y
 _atom_site_fract_z
 _atom_site_occupancy
  Bi  Bi0  1  0.298357  0.144397  0.494815  1
  Bi  Bi1  1  0.720241  0.214377  0.860608  1
  Bi  Bi2  1  0.159130  0.498309  0.287697  1
  Bi  Bi3  1  0.212138  0.858423  0.708227  1
  Bi  Bi4  1  0.473934  0.625123  0.785749  1
  Bi  Bi5  1  0.491313  0.303059  0.148899  1
  Bi  Bi6  1  0.808605  0.489725  0.666959  1
  Bi  Bi7  1  0.851596  0.150824  0.374279  1
  Bi  Bi8  1  0.665711  0.802671  0.521764  1
  Bi  Bi9  1  0.340359  0.823997  0.125939  1
  Bi  Bi10  1  0.850634  0.698734  0.203955  1
  P  P11  1  0.002824  0.994222  0.002654  1
  O  O12  1  0.988105  0.958963  0.813256  1
  O  O13  1  0.003044  0.996480  0.412133  1
  O  O14  1  0.371298  0.116511  0.742207  1
  O  O15  1  0.240042  0.650560  0.845875  1
  O  O16  1  0.243744  0.365041  0.571107  1
  O  O17  1  0.184468  0.167406  0.163600  1
  O  O18  1  0.625739  0.379072  0.753097  1
  O  O19  1  0.407584  0.014069  0.009610  1
  O  O20  1  0.993590  0.444008  0.011092  1
  O  O21  1  0.390771  0.758106  0.640197  1
  O  O22  1  0.116751  0.738340  0.370233  1
  O  O23  1  0.837266  0.228072  0.624968  1
  O  O24  1  0.621685  0.274371  0.378614  1
  O  O25  1  0.602906  0.598415  0.601559  1
  O  O26  1  0.387715  0.630860  0.264230  1
  O  O27  1  0.833583  0.016894  0.003328  1
  O  O28  1  0.998782  0.826312  0.024104  1
  O  O29  1  0.736258  0.365068  0.116078  1
  O  O30  1  0.767999  0.646354  0.392525  1
  O  O31  1  0.629819  0.880320  0.237032  1
