# generated using pymatgen
data_SmYO3
_symmetry_space_group_name_H-M   'P 1'
_cell_length_a   5.87908371
_cell_length_b   6.00962804
_cell_length_c   8.50855700
_cell_angle_alpha   90.00000000
_cell_angle_beta   90.00000000
_cell_angle_gamma   90.00000000
_symmetry_Int_Tables_number   1
_chemical_formula_structural   SmYO3
_chemical_formula_sum   'Sm4 Y4 O12'
_cell_volume   300.61673194
_cell_formula_units_Z   4
loop_
 _symmetry_equiv_pos_site_id
 _symmetry_equiv_pos_as_xyz
  1  'x, y, z'
loop_
 _atom_site_type_symbol
 _atom_site_label
 _atom_site_symmetry_multiplicity
 _atom_site_fract_x
 _atom_site_fract_y
 _atom_site_fract_z
 _atom_site_occupancy
  Sm  Sm0  1  0.995206  0.466066  0.480881  1
  Sm  Sm1  1  0.504794  0.966066  0.480881  1
  Sm  Sm2  1  0.495206  0.033934  0.980881  1
  Sm  Sm3  1  0.004794  0.533934  0.980881  1
  Y  Y4  1  0.001186  0.978739  0.213098  1
  Y  Y5  1  0.498814  0.478739  0.213098  1
  Y  Y6  1  0.501186  0.521261  0.713098  1
  Y  Y7  1  0.998814  0.021261  0.713098  1
  O  O8  1  0.151029  0.376870  0.751753  1
  O  O9  1  0.132800  0.085528  0.453693  1
  O  O10  1  0.206989  0.262130  0.112194  1
  O  O11  1  0.293011  0.762130  0.112194  1
  O  O12  1  0.367200  0.585528  0.453693  1
  O  O13  1  0.348971  0.876870  0.751753  1
  O  O14  1  0.651029  0.123130  0.251753  1
  O  O15  1  0.632800  0.414472  0.953693  1
  O  O16  1  0.706989  0.237870  0.612194  1
  O  O17  1  0.793011  0.737870  0.612194  1
  O  O18  1  0.867200  0.914472  0.953693  1
  O  O19  1  0.848971  0.623130  0.251753  1
