# generated using pymatgen
data_LiFe2OF3
_symmetry_space_group_name_H-M   'P 1'
_cell_length_a   5.94254891
_cell_length_b   5.94254891
_cell_length_c   6.08717413
_cell_angle_alpha   63.45742229
_cell_angle_beta   116.54257771
_cell_angle_gamma   115.27530241
_symmetry_Int_Tables_number   1
_chemical_formula_structural   LiFe2OF3
_chemical_formula_sum   'Li2 Fe4 O2 F6'
_cell_volume   164.95358113
_cell_formula_units_Z   2
loop_
 _symmetry_equiv_pos_site_id
 _symmetry_equiv_pos_as_xyz
  1  'x, y, z'
loop_
 _atom_site_type_symbol
 _atom_site_label
 _atom_site_symmetry_multiplicity
 _atom_site_fract_x
 _atom_site_fract_y
 _atom_site_fract_z
 _atom_site_occupancy
  Li  Li0  1  0.500000  0.500000  0.000000  1
  Li  Li1  1  0.500000  0.500000  0.500000  1
  Fe  Fe2  1  0.105841  0.894159  0.441085  1
  Fe  Fe3  1  0.500000  0.000000  0.000000  1
  Fe  Fe4  1  0.894159  0.105841  0.558915  1
  Fe  Fe5  1  1.000000  0.500000  0.000000  1
  O  O6  1  0.255675  0.744325  0.805458  1
  O  O7  1  0.744325  0.255675  0.194542  1
  F  F8  1  0.267648  0.278591  0.742839  1
  F  F9  1  0.248289  0.751711  0.261656  1
  F  F10  1  0.721409  0.732352  0.742839  1
  F  F11  1  0.278591  0.267648  0.257161  1
  F  F12  1  0.732352  0.721409  0.257161  1
  F  F13  1  0.751711  0.248289  0.738344  1
