# generated using pymatgen
data_Li2VO2F
_symmetry_space_group_name_H-M   'P 1'
_cell_length_a   5.16807116
_cell_length_b   5.16807116
_cell_length_c   8.48252742
_cell_angle_alpha   65.93091910
_cell_angle_beta   114.06908090
_cell_angle_gamma   146.87048937
_symmetry_Int_Tables_number   1
_chemical_formula_structural   Li2VO2F
_chemical_formula_sum   'Li4 V2 O4 F2'
_cell_volume   112.05423876
_cell_formula_units_Z   2
loop_
 _symmetry_equiv_pos_site_id
 _symmetry_equiv_pos_as_xyz
  1  'x, y, z'
loop_
 _atom_site_type_symbol
 _atom_site_label
 _atom_site_symmetry_multiplicity
 _atom_site_fract_x
 _atom_site_fract_y
 _atom_site_fract_z
 _atom_site_occupancy
  Li  Li0  1  0.500000  0.500000  0.500000  1
  Li  Li1  1  0.153772  0.846228  0.826412  1
  Li  Li2  1  0.846228  0.153772  0.173588  1
  Li  Li3  1  0.500000  0.500000  0.000000  1
  V  V4  1  0.838594  0.161406  0.667887  1
  V  V5  1  0.161406  0.838594  0.332113  1
  O  O6  1  0.178776  0.821224  0.585026  1
  O  O7  1  0.821224  0.178776  0.414974  1
  O  O8  1  0.489615  0.510385  0.751668  1
  O  O9  1  0.510385  0.489615  0.248332  1
  F  F10  1  0.830120  0.169880  0.914271  1
  F  F11  1  0.169880  0.830120  0.085729  1
