# generated using pymatgen
data_Li4V5(P3O11)2
_symmetry_space_group_name_H-M   'P 1'
_cell_length_a   10.86575864
_cell_length_b   6.67362825
_cell_length_c   12.81198602
_cell_angle_alpha   90.00000000
_cell_angle_beta   103.72798130
_cell_angle_gamma   90.00000000
_symmetry_Int_Tables_number   1
_chemical_formula_structural   Li4V5(P3O11)2
_chemical_formula_sum   'Li8 V10 P12 O44'
_cell_volume   902.50896677
_cell_formula_units_Z   2
loop_
 _symmetry_equiv_pos_site_id
 _symmetry_equiv_pos_as_xyz
  1  'x, y, z'
loop_
 _atom_site_type_symbol
 _atom_site_label
 _atom_site_symmetry_multiplicity
 _atom_site_fract_x
 _atom_site_fract_y
 _atom_site_fract_z
 _atom_site_occupancy
  Li  Li0  1  0.443496  0.853969  0.814815  1
  Li  Li1  1  0.943496  0.646031  0.814815  1
  Li  Li2  1  0.119863  0.476148  0.655080  1
  Li  Li3  1  0.619863  0.023852  0.655080  1
  Li  Li4  1  0.380137  0.976148  0.344920  1
  Li  Li5  1  0.880137  0.523852  0.344920  1
  Li  Li6  1  0.056504  0.353969  0.185185  1
  Li  Li7  1  0.556504  0.146031  0.185185  1
  V  V8  1  0.500000  0.500000  0.000000  1
  V  V9  1  0.217997  0.245175  0.868090  1
  V  V10  1  0.000000  0.000000  0.000000  1
  V  V11  1  0.717997  0.254825  0.868090  1
  V  V12  1  0.196515  0.016393  0.664044  1
  V  V13  1  0.696515  0.483607  0.664044  1
  V  V14  1  0.303485  0.516393  0.335956  1
  V  V15  1  0.803485  0.983607  0.335956  1
  V  V16  1  0.282003  0.745175  0.131910  1
  V  V17  1  0.782003  0.754825  0.131910  1
  P  P18  1  0.222903  0.738605  0.907773  1
  P  P19  1  0.722903  0.761395  0.907773  1
  P  P20  1  0.432932  0.394809  0.735286  1
  P  P21  1  0.932932  0.105191  0.735286  1
  P  P22  1  0.418388  0.723449  0.583446  1
  P  P23  1  0.918388  0.776551  0.583446  1
  P  P24  1  0.081612  0.223449  0.416554  1
  P  P25  1  0.581612  0.276551  0.416554  1
  P  P26  1  0.067068  0.894809  0.264714  1
  P  P27  1  0.567068  0.605191  0.264714  1
  P  P28  1  0.277097  0.238605  0.092227  1
  P  P29  1  0.777097  0.261395  0.092227  1
  O  O30  1  0.134798  0.777588  0.986283  1
  O  O31  1  0.353032  0.706159  0.990271  1
  O  O32  1  0.634798  0.722412  0.986283  1
  O  O33  1  0.853032  0.793841  0.990271  1
  O  O34  1  0.169251  0.559217  0.835057  1
  O  O35  1  0.243398  0.920072  0.836748  1
  O  O36  1  0.456942  0.551749  0.824075  1
  O  O37  1  0.057155  0.209738  0.724934  1
  O  O38  1  0.669251  0.940783  0.835057  1
  O  O39  1  0.743398  0.579927  0.836748  1
  O  O40  1  0.329924  0.245633  0.748051  1
  O  O41  1  0.956942  0.948251  0.824075  1
  O  O42  1  0.557155  0.290262  0.724934  1
  O  O43  1  0.064156  0.769472  0.610600  1
  O  O44  1  0.829924  0.254367  0.748051  1
  O  O45  1  0.370341  0.879065  0.652283  1
  O  O46  1  0.375725  0.503644  0.621602  1
  O  O47  1  0.144957  0.235098  0.535818  1
  O  O48  1  0.564156  0.730528  0.610600  1
  O  O49  1  0.870341  0.620935  0.652283  1
  O  O50  1  0.875725  0.996356  0.621602  1
  O  O51  1  0.644957  0.264902  0.535818  1
  O  O52  1  0.355043  0.735098  0.464182  1
  O  O53  1  0.124275  0.003644  0.378398  1
  O  O54  1  0.129659  0.379065  0.347717  1
  O  O55  1  0.435844  0.269472  0.389400  1
  O  O56  1  0.855043  0.764902  0.464182  1
  O  O57  1  0.624275  0.496356  0.378398  1
  O  O58  1  0.629659  0.120935  0.347717  1
  O  O59  1  0.170076  0.745633  0.251949  1
  O  O60  1  0.935844  0.230528  0.389400  1
  O  O61  1  0.442845  0.709738  0.275066  1
  O  O62  1  0.043058  0.051749  0.175925  1
  O  O63  1  0.670076  0.754367  0.251949  1
  O  O64  1  0.256602  0.420072  0.163252  1
  O  O65  1  0.330749  0.059217  0.164943  1
  O  O66  1  0.942845  0.790262  0.275066  1
  O  O67  1  0.543058  0.448251  0.175925  1
  O  O68  1  0.756602  0.079928  0.163252  1
  O  O69  1  0.830749  0.440783  0.164943  1
  O  O70  1  0.146968  0.206159  0.009729  1
  O  O71  1  0.365202  0.277588  0.013717  1
  O  O72  1  0.646968  0.293841  0.009729  1
  O  O73  1  0.865202  0.222412  0.013717  1
