# generated using pymatgen
data_Cs7U8V2ClO32
_symmetry_space_group_name_H-M   'P 1'
_cell_length_a   7.74897823
_cell_length_b   11.97036501
_cell_length_c   21.59945311
_cell_angle_alpha   90.00000000
_cell_angle_beta   90.00000000
_cell_angle_gamma   90.00000000
_symmetry_Int_Tables_number   1
_chemical_formula_structural   Cs7U8V2ClO32
_chemical_formula_sum   'Cs14 U16 V4 Cl2 O64'
_cell_volume   2003.52418546
_cell_formula_units_Z   2
loop_
 _symmetry_equiv_pos_site_id
 _symmetry_equiv_pos_as_xyz
  1  'x, y, z'
loop_
 _atom_site_type_symbol
 _atom_site_label
 _atom_site_symmetry_multiplicity
 _atom_site_fract_x
 _atom_site_fract_y
 _atom_site_fract_z
 _atom_site_occupancy
  Cs  Cs0  1  0.540426  0.500000  0.276977  1
  Cs  Cs1  1  0.447940  0.690490  0.101659  1
  Cs  Cs2  1  0.459574  0.000000  0.223023  1
  Cs  Cs3  1  0.746021  0.500000  0.500000  1
  Cs  Cs4  1  0.552060  0.190490  0.398341  1
  Cs  Cs5  1  0.552060  0.190490  0.601659  1
  Cs  Cs6  1  0.447940  0.309510  0.898341  1
  Cs  Cs7  1  0.540426  0.500000  0.723023  1
  Cs  Cs8  1  0.459574  0.000000  0.776977  1
  Cs  Cs9  1  0.552060  0.809510  0.398341  1
  Cs  Cs10  1  0.253979  0.000000  0.000000  1
  Cs  Cs11  1  0.447940  0.690490  0.898341  1
  Cs  Cs12  1  0.552060  0.809510  0.601659  1
  Cs  Cs13  1  0.447940  0.309510  0.101659  1
  U  U14  1  0.050687  0.694366  0.325981  1
  U  U15  1  0.949313  0.194366  0.174019  1
  U  U16  1  0.947408  0.715695  0.000000  1
  U  U17  1  0.004186  0.000000  0.655722  1
  U  U18  1  0.995814  0.500000  0.844278  1
  U  U19  1  0.004186  0.000000  0.344278  1
  U  U20  1  0.949313  0.805634  0.825981  1
  U  U21  1  0.050687  0.694366  0.674019  1
  U  U22  1  0.052592  0.784305  0.500000  1
  U  U23  1  0.947408  0.284305  0.000000  1
  U  U24  1  0.949313  0.194366  0.825981  1
  U  U25  1  0.050687  0.305634  0.325981  1
  U  U26  1  0.050687  0.305634  0.674019  1
  U  U27  1  0.052592  0.215695  0.500000  1
  U  U28  1  0.949313  0.805634  0.174019  1
  U  U29  1  0.995814  0.500000  0.155722  1
  V  V30  1  0.779118  0.000000  0.088312  1
  V  V31  1  0.220882  0.500000  0.588312  1
  V  V32  1  0.220882  0.500000  0.411688  1
  V  V33  1  0.779118  0.000000  0.911688  1
  Cl  Cl34  1  0.887944  0.000000  0.500000  1
  Cl  Cl35  1  0.112056  0.500000  0.000000  1
  O  O36  1  0.124622  0.627360  0.564694  1
  O  O37  1  0.716826  0.778088  0.813469  1
  O  O38  1  0.757080  0.500000  0.840528  1
  O  O39  1  0.563744  0.000000  0.917322  1
  O  O40  1  0.283174  0.721912  0.686531  1
  O  O41  1  0.974428  0.335722  0.899371  1
  O  O42  1  0.875378  0.127360  0.064694  1
  O  O43  1  0.824253  0.261447  0.500000  1
  O  O44  1  0.987314  0.145214  0.275354  1
  O  O45  1  0.763973  0.000000  0.652008  1
  O  O46  1  0.875378  0.872640  0.064694  1
  O  O47  1  0.563744  0.000000  0.082678  1
  O  O48  1  0.974428  0.664278  0.899371  1
  O  O49  1  0.025572  0.164278  0.399371  1
  O  O50  1  0.824517  0.653054  0.341560  1
  O  O51  1  0.721859  0.333671  0.000000  1
  O  O52  1  0.757080  0.500000  0.159472  1
  O  O53  1  0.824517  0.653054  0.658440  1
  O  O54  1  0.025572  0.164278  0.600629  1
  O  O55  1  0.875378  0.872640  0.935306  1
  O  O56  1  0.763973  0.000000  0.347992  1
  O  O57  1  0.283174  0.721912  0.313469  1
  O  O58  1  0.721859  0.666329  0.000000  1
  O  O59  1  0.278141  0.833671  0.500000  1
  O  O60  1  0.875378  0.127360  0.935306  1
  O  O61  1  0.974428  0.664278  0.100629  1
  O  O62  1  0.845120  0.000000  0.166556  1
  O  O63  1  0.124622  0.627360  0.435306  1
  O  O64  1  0.175747  0.238553  0.000000  1
  O  O65  1  0.025572  0.835722  0.600629  1
  O  O66  1  0.242920  0.000000  0.340528  1
  O  O67  1  0.987314  0.854786  0.724646  1
  O  O68  1  0.436256  0.500000  0.417322  1
  O  O69  1  0.236027  0.500000  0.152008  1
  O  O70  1  0.824253  0.738553  0.500000  1
  O  O71  1  0.283174  0.278088  0.313469  1
  O  O72  1  0.716826  0.221912  0.813469  1
  O  O73  1  0.175483  0.846946  0.158440  1
  O  O74  1  0.154880  0.500000  0.666556  1
  O  O75  1  0.824517  0.346946  0.341560  1
  O  O76  1  0.987314  0.145214  0.724646  1
  O  O77  1  0.124622  0.372640  0.435306  1
  O  O78  1  0.175483  0.153054  0.841560  1
  O  O79  1  0.974428  0.335722  0.100629  1
  O  O80  1  0.436256  0.500000  0.582678  1
  O  O81  1  0.845120  0.000000  0.833444  1
  O  O82  1  0.012686  0.354786  0.224646  1
  O  O83  1  0.175747  0.761447  0.000000  1
  O  O84  1  0.278141  0.166329  0.500000  1
  O  O85  1  0.124622  0.372640  0.564694  1
  O  O86  1  0.175483  0.846946  0.841560  1
  O  O87  1  0.012686  0.354786  0.775354  1
  O  O88  1  0.824517  0.346946  0.658440  1
  O  O89  1  0.154880  0.500000  0.333444  1
  O  O90  1  0.012686  0.645214  0.775354  1
  O  O91  1  0.283174  0.278088  0.686531  1
  O  O92  1  0.012686  0.645214  0.224646  1
  O  O93  1  0.175483  0.153054  0.158440  1
  O  O94  1  0.987314  0.854786  0.275354  1
  O  O95  1  0.242920  0.000000  0.659472  1
  O  O96  1  0.716826  0.778088  0.186531  1
  O  O97  1  0.716826  0.221912  0.186531  1
  O  O98  1  0.025572  0.835722  0.399371  1
  O  O99  1  0.236027  0.500000  0.847992  1
