# generated using pymatgen
data_NiP4O11
_symmetry_space_group_name_H-M   'P 1'
_cell_length_a   8.21310993
_cell_length_b   12.43007020
_cell_length_c   11.11232942
_cell_angle_alpha   90.00000000
_cell_angle_beta   130.68256637
_cell_angle_gamma   90.00000000
_symmetry_Int_Tables_number   1
_chemical_formula_structural   NiP4O11
_chemical_formula_sum   'Ni4 P16 O44'
_cell_volume   860.29246292
_cell_formula_units_Z   4
loop_
 _symmetry_equiv_pos_site_id
 _symmetry_equiv_pos_as_xyz
  1  'x, y, z'
loop_
 _atom_site_type_symbol
 _atom_site_label
 _atom_site_symmetry_multiplicity
 _atom_site_fract_x
 _atom_site_fract_y
 _atom_site_fract_z
 _atom_site_occupancy
  Ni  Ni0  1  0.492439  0.465670  0.264036  1
  Ni  Ni1  1  0.507561  0.965670  0.235964  1
  Ni  Ni2  1  0.492439  0.034330  0.764036  1
  Ni  Ni3  1  0.507561  0.534330  0.735964  1
  P  P4  1  0.501906  0.211850  0.395609  1
  P  P5  1  0.850346  0.165188  0.736009  1
  P  P6  1  0.835323  0.496186  0.657578  1
  P  P7  1  0.848974  0.847774  0.597489  1
  P  P8  1  0.151026  0.347774  0.902511  1
  P  P9  1  0.164677  0.996186  0.842422  1
  P  P10  1  0.498094  0.711850  0.104391  1
  P  P11  1  0.149654  0.665188  0.763991  1
  P  P12  1  0.850346  0.334812  0.236009  1
  P  P13  1  0.501906  0.288150  0.895609  1
  P  P14  1  0.835323  0.003814  0.157578  1
  P  P15  1  0.848974  0.652226  0.097489  1
  P  P16  1  0.151026  0.152226  0.402511  1
  P  P17  1  0.164677  0.503814  0.342422  1
  P  P18  1  0.149654  0.834812  0.263991  1
  P  P19  1  0.498094  0.788150  0.604391  1
  O  O20  1  0.280194  0.899940  0.245365  1
  O  O21  1  0.707207  0.469362  0.704335  1
  O  O22  1  0.668741  0.780684  0.573756  1
  O  O23  1  0.500252  0.102696  0.342251  1
  O  O24  1  0.469071  0.310904  0.309510  1
  O  O25  1  0.219795  0.419222  0.033339  1
  O  O26  1  0.724562  0.232994  0.578774  1
  O  O27  1  0.989296  0.255282  0.871692  1
  O  O28  1  0.972700  0.905098  0.763574  1
  O  O29  1  0.983162  0.601315  0.763529  1
  O  O30  1  0.745883  0.512402  0.492187  1
  O  O31  1  0.254117  0.012402  0.007813  1
  O  O32  1  0.016838  0.101315  0.736471  1
  O  O33  1  0.780205  0.919222  0.466661  1
  O  O34  1  0.530929  0.810904  0.190490  1
  O  O35  1  0.027300  0.405098  0.736426  1
  O  O36  1  0.499748  0.602696  0.157749  1
  O  O37  1  0.010704  0.755282  0.628308  1
  O  O38  1  0.275438  0.732994  0.921226  1
  O  O39  1  0.331259  0.280684  0.926244  1
  O  O40  1  0.719806  0.399940  0.254635  1
  O  O41  1  0.707207  0.030638  0.204335  1
  O  O42  1  0.292793  0.969362  0.795665  1
  O  O43  1  0.280194  0.600060  0.745365  1
  O  O44  1  0.668741  0.719316  0.073756  1
  O  O45  1  0.724562  0.267006  0.078774  1
  O  O46  1  0.989296  0.244718  0.371692  1
  O  O47  1  0.500252  0.397304  0.842251  1
  O  O48  1  0.972700  0.594902  0.263574  1
  O  O49  1  0.469071  0.189096  0.809510  1
  O  O50  1  0.219795  0.080778  0.533339  1
  O  O51  1  0.983162  0.898685  0.263529  1
  O  O52  1  0.745883  0.987598  0.992187  1
  O  O53  1  0.254117  0.487598  0.507813  1
  O  O54  1  0.016838  0.398685  0.236471  1
  O  O55  1  0.027300  0.094902  0.236426  1
  O  O56  1  0.010704  0.744718  0.128308  1
  O  O57  1  0.275438  0.767006  0.421226  1
  O  O58  1  0.780205  0.580778  0.966661  1
  O  O59  1  0.530929  0.689096  0.690490  1
  O  O60  1  0.499748  0.897304  0.657749  1
  O  O61  1  0.331259  0.219316  0.426244  1
  O  O62  1  0.292793  0.530638  0.295665  1
  O  O63  1  0.719806  0.100060  0.754635  1
