# generated using pymatgen
data_Li2Cr2O7
_symmetry_space_group_name_H-M   'P 1'
_cell_length_a   6.74303334
_cell_length_b   8.37054545
_cell_length_c   9.62913471
_cell_angle_alpha   90.00000000
_cell_angle_beta   101.30494661
_cell_angle_gamma   90.00000000
_symmetry_Int_Tables_number   1
_chemical_formula_structural   Li2Cr2O7
_chemical_formula_sum   'Li8 Cr8 O28'
_cell_volume   532.95091866
_cell_formula_units_Z   4
loop_
 _symmetry_equiv_pos_site_id
 _symmetry_equiv_pos_as_xyz
  1  'x, y, z'
loop_
 _atom_site_type_symbol
 _atom_site_label
 _atom_site_symmetry_multiplicity
 _atom_site_fract_x
 _atom_site_fract_y
 _atom_site_fract_z
 _atom_site_occupancy
  Li  Li0  1  0.855341  0.619581  0.035433  1
  Li  Li1  1  0.855341  0.880419  0.535433  1
  Li  Li2  1  0.694716  0.617085  0.314186  1
  Li  Li3  1  0.694716  0.882915  0.814186  1
  Li  Li4  1  0.305284  0.117085  0.185814  1
  Li  Li5  1  0.305284  0.382915  0.685814  1
  Li  Li6  1  0.144659  0.119581  0.464567  1
  Li  Li7  1  0.144659  0.380419  0.964567  1
  Cr  Cr8  1  0.810699  0.984539  0.183553  1
  Cr  Cr9  1  0.810699  0.515461  0.683553  1
  Cr  Cr10  1  0.645854  0.245348  0.469800  1
  Cr  Cr11  1  0.645854  0.254652  0.969800  1
  Cr  Cr12  1  0.354146  0.745348  0.030200  1
  Cr  Cr13  1  0.354146  0.754652  0.530200  1
  Cr  Cr14  1  0.189301  0.484539  0.316447  1
  Cr  Cr15  1  0.189301  0.015461  0.816447  1
  O  O16  1  0.976817  0.577964  0.255069  1
  O  O17  1  0.844462  0.371695  0.009555  1
  O  O18  1  0.833522  0.874077  0.047736  1
  O  O19  1  0.976817  0.922036  0.755069  1
  O  O20  1  0.844462  0.128305  0.509555  1
  O  O21  1  0.833522  0.625923  0.547736  1
  O  O22  1  0.746248  0.873221  0.307361  1
  O  O23  1  0.681710  0.371416  0.349990  1
  O  O24  1  0.617122  0.131675  0.120068  1
  O  O25  1  0.557438  0.639764  0.090821  1
  O  O26  1  0.746248  0.626779  0.807361  1
  O  O27  1  0.681710  0.128584  0.849990  1
  O  O28  1  0.617122  0.368325  0.620068  1
  O  O29  1  0.557438  0.860236  0.590821  1
  O  O30  1  0.442562  0.139764  0.409179  1
  O  O31  1  0.382878  0.631675  0.379932  1
  O  O32  1  0.318290  0.871416  0.150010  1
  O  O33  1  0.253752  0.373221  0.192639  1
  O  O34  1  0.442562  0.360236  0.909179  1
  O  O35  1  0.382878  0.868325  0.879932  1
  O  O36  1  0.318290  0.628584  0.650010  1
  O  O37  1  0.253752  0.126779  0.692639  1
  O  O38  1  0.166478  0.374077  0.452264  1
  O  O39  1  0.155538  0.871695  0.490445  1
  O  O40  1  0.023183  0.077964  0.244931  1
  O  O41  1  0.166478  0.125923  0.952264  1
  O  O42  1  0.155538  0.628305  0.990445  1
  O  O43  1  0.023183  0.422036  0.744931  1
