# generated using pymatgen
data_Li10Ti2Fe3Ni3O16
_symmetry_space_group_name_H-M   'P 1'
_cell_length_a   5.95613837
_cell_length_b   5.97404037
_cell_length_c   9.82747838
_cell_angle_alpha   89.74338616
_cell_angle_beta   89.49040680
_cell_angle_gamma   60.32075589
_symmetry_Int_Tables_number   1
_chemical_formula_structural   Li10Ti2Fe3Ni3O16
_chemical_formula_sum   'Li10 Ti2 Fe3 Ni3 O16'
_cell_volume   303.79675521
_cell_formula_units_Z   1
loop_
 _symmetry_equiv_pos_site_id
 _symmetry_equiv_pos_as_xyz
  1  'x, y, z'
loop_
 _atom_site_type_symbol
 _atom_site_label
 _atom_site_symmetry_multiplicity
 _atom_site_fract_x
 _atom_site_fract_y
 _atom_site_fract_z
 _atom_site_occupancy
  Li  Li0  1  0.195177  0.613106  0.957822  1
  Li  Li1  1  0.193328  0.197159  0.958941  1
  Li  Li2  1  0.330625  0.335859  0.747371  1
  Li  Li3  1  0.605095  0.199947  0.961429  1
  Li  Li4  1  0.381082  0.808562  0.458161  1
  Li  Li5  1  0.000988  0.000428  0.026833  1
  Li  Li6  1  0.659743  0.673057  0.247872  1
  Li  Li7  1  0.796831  0.809185  0.464971  1
  Li  Li8  1  0.993039  0.001882  0.530125  1
  Li  Li9  1  0.795521  0.400906  0.464706  1
  Ti  Ti10  1  0.340355  0.321376  0.486458  1
  Ti  Ti11  1  0.677468  0.655956  0.985282  1
  Fe  Fe12  1  0.168484  0.657435  0.229208  1
  Fe  Fe13  1  0.166424  0.168038  0.226928  1
  Fe  Fe14  1  0.343406  0.826665  0.728535  1
  Ni  Ni15  1  0.660316  0.168796  0.226781  1
  Ni  Ni16  1  0.831832  0.830107  0.727866  1
  Ni  Ni17  1  0.831464  0.338699  0.727129  1
  O  O18  1  0.176332  0.659639  0.600397  1
  O  O19  1  0.014541  0.502146  0.358217  1
  O  O20  1  0.010128  0.995845  0.835093  1
  O  O21  1  0.483738  0.494313  0.353534  1
  O  O22  1  0.172130  0.169754  0.597143  1
  O  O23  1  0.326990  0.340024  0.109184  1
  O  O24  1  0.003473  0.991149  0.335813  1
  O  O25  1  0.492100  0.023661  0.362374  1
  O  O26  1  0.506023  0.980138  0.855529  1
  O  O27  1  0.650058  0.177977  0.595134  1
  O  O28  1  0.345196  0.815809  0.096728  1
  O  O29  1  0.507353  0.513602  0.853884  1
  O  O30  1  0.657516  0.672262  0.609421  1
  O  O31  1  0.833215  0.824445  0.098962  1
  O  O32  1  0.977787  0.511956  0.858114  1
  O  O33  1  0.820452  0.346459  0.090281  1
