# generated using pymatgen
data_Li3Mn2(SiO4)2
_symmetry_space_group_name_H-M   'P 1'
_cell_length_a   6.68952453
_cell_length_b   5.09422723
_cell_length_c   10.61038136
_cell_angle_alpha   90.00000000
_cell_angle_beta   90.82497168
_cell_angle_gamma   90.00000000
_symmetry_Int_Tables_number   1
_chemical_formula_structural   Li3Mn2(SiO4)2
_chemical_formula_sum   'Li6 Mn4 Si4 O16'
_cell_volume   361.54265012
_cell_formula_units_Z   2
loop_
 _symmetry_equiv_pos_site_id
 _symmetry_equiv_pos_as_xyz
  1  'x, y, z'
loop_
 _atom_site_type_symbol
 _atom_site_label
 _atom_site_symmetry_multiplicity
 _atom_site_fract_x
 _atom_site_fract_y
 _atom_site_fract_z
 _atom_site_occupancy
  Li  Li0  1  0.884466  0.432499  0.843308  1
  Li  Li1  1  0.379710  0.931369  0.658378  1
  Li  Li2  1  0.629280  0.536773  0.578726  1
  Li  Li3  1  0.884466  0.567501  0.343308  1
  Li  Li4  1  0.379710  0.068631  0.158378  1
  Li  Li5  1  0.629280  0.463227  0.078726  1
  Mn  Mn6  1  0.370482  0.427322  0.840213  1
  Mn  Mn7  1  0.888835  0.944122  0.661432  1
  Mn  Mn8  1  0.370482  0.572678  0.340213  1
  Mn  Mn9  1  0.888835  0.055878  0.161432  1
  Si  Si10  1  0.632235  0.936987  0.909304  1
  Si  Si11  1  0.134777  0.429458  0.588042  1
  Si  Si12  1  0.632235  0.063013  0.409304  1
  Si  Si13  1  0.134777  0.570542  0.088042  1
  O  O14  1  0.128212  0.499196  0.939437  1
  O  O15  1  0.629640  0.612250  0.908573  1
  O  O16  1  0.830454  0.049912  0.835881  1
  O  O17  1  0.434052  0.044037  0.833749  1
  O  O18  1  0.927085  0.542041  0.655138  1
  O  O19  1  0.342680  0.545576  0.654901  1
  O  O20  1  0.137140  0.108750  0.610947  1
  O  O21  1  0.634644  0.949834  0.557197  1
  O  O22  1  0.128212  0.500804  0.439437  1
  O  O23  1  0.629640  0.387750  0.408573  1
  O  O24  1  0.830454  0.950088  0.335881  1
  O  O25  1  0.434052  0.955963  0.333749  1
  O  O26  1  0.927085  0.457959  0.155138  1
  O  O27  1  0.342680  0.454424  0.154901  1
  O  O28  1  0.137140  0.891250  0.110947  1
  O  O29  1  0.634644  0.050166  0.057197  1
