# generated using pymatgen
data_V3(OF3)2
_symmetry_space_group_name_H-M   'P 1'
_cell_length_a   5.52880454
_cell_length_b   4.74209455
_cell_length_c   10.43454926
_cell_angle_alpha   90.00000000
_cell_angle_beta   96.14535715
_cell_angle_gamma   90.00000000
_symmetry_Int_Tables_number   1
_chemical_formula_structural   V3(OF3)2
_chemical_formula_sum   'V6 O4 F12'
_cell_volume   272.00210963
_cell_formula_units_Z   2
loop_
 _symmetry_equiv_pos_site_id
 _symmetry_equiv_pos_as_xyz
  1  'x, y, z'
loop_
 _atom_site_type_symbol
 _atom_site_label
 _atom_site_symmetry_multiplicity
 _atom_site_fract_x
 _atom_site_fract_y
 _atom_site_fract_z
 _atom_site_occupancy
  V  V0  1  0.500000  0.500000  0.500000  1
  V  V1  1  0.269921  0.982507  0.255740  1
  V  V2  1  0.730079  0.482507  0.244260  1
  V  V3  1  0.500000  0.000000  0.000000  1
  V  V4  1  0.269921  0.517493  0.755740  1
  V  V5  1  0.730079  0.017493  0.744260  1
  O  O6  1  0.477614  0.701023  0.324175  1
  O  O7  1  0.522386  0.201023  0.175825  1
  O  O8  1  0.477614  0.798977  0.824175  1
  O  O9  1  0.522386  0.298977  0.675825  1
  F  F10  1  0.296528  0.194138  0.420468  1
  F  F11  1  0.771965  0.324762  0.420121  1
  F  F12  1  0.977284  0.768165  0.305247  1
  F  F13  1  0.022716  0.268165  0.194753  1
  F  F14  1  0.228035  0.824762  0.079879  1
  F  F15  1  0.703472  0.694138  0.079532  1
  F  F16  1  0.296528  0.305862  0.920468  1
  F  F17  1  0.771965  0.175238  0.920121  1
  F  F18  1  0.977284  0.731835  0.805247  1
  F  F19  1  0.022716  0.231835  0.694753  1
  F  F20  1  0.228035  0.675238  0.579879  1
  F  F21  1  0.703472  0.805862  0.579532  1
