# generated using pymatgen
data_Li5Fe3(SnO5)2
_symmetry_space_group_name_H-M   'P 1'
_cell_length_a   5.23068674
_cell_length_b   5.35512550
_cell_length_c   8.06399759
_cell_angle_alpha   72.30904743
_cell_angle_beta   71.93840373
_cell_angle_gamma   80.31617443
_symmetry_Int_Tables_number   1
_chemical_formula_structural   Li5Fe3(SnO5)2
_chemical_formula_sum   'Li5 Fe3 Sn2 O10'
_cell_volume   203.91045896
_cell_formula_units_Z   1
loop_
 _symmetry_equiv_pos_site_id
 _symmetry_equiv_pos_as_xyz
  1  'x, y, z'
loop_
 _atom_site_type_symbol
 _atom_site_label
 _atom_site_symmetry_multiplicity
 _atom_site_fract_x
 _atom_site_fract_y
 _atom_site_fract_z
 _atom_site_occupancy
  Li  Li0  1  0.505093  0.767747  0.407878  1
  Li  Li1  1  0.507019  0.592101  0.792492  1
  Li  Li2  1  0.000000  0.500000  0.500000  1
  Li  Li3  1  0.492981  0.407899  0.207508  1
  Li  Li4  1  0.494907  0.232253  0.592122  1
  Fe  Fe5  1  0.500000  0.000000  0.000000  1
  Fe  Fe6  1  0.002973  0.307977  0.894112  1
  Fe  Fe7  1  0.997027  0.692023  0.105888  1
  Sn  Sn8  1  0.009631  0.896706  0.697870  1
  Sn  Sn9  1  0.990369  0.103294  0.302130  1
  O  O10  1  0.245575  0.940495  0.858691  1
  O  O11  1  0.744929  0.678289  0.938671  1
  O  O12  1  0.770326  0.856862  0.540264  1
  O  O13  1  0.261052  0.782245  0.232398  1
  O  O14  1  0.237515  0.554288  0.661973  1
  O  O15  1  0.762485  0.445712  0.338027  1
  O  O16  1  0.738948  0.217755  0.767602  1
  O  O17  1  0.229674  0.143138  0.459736  1
  O  O18  1  0.255071  0.321711  0.061329  1
  O  O19  1  0.754425  0.059505  0.141309  1
