# generated using pymatgen
data_Mg2Mn3O8
_symmetry_space_group_name_H-M   'P 1'
_cell_length_a   6.44330583
_cell_length_b   6.44330583
_cell_length_c   8.41461146
_cell_angle_alpha   90.00000000
_cell_angle_beta   90.00000000
_cell_angle_gamma   125.84682442
_symmetry_Int_Tables_number   1
_chemical_formula_structural   Mg2Mn3O8
_chemical_formula_sum   'Mg4 Mn6 O16'
_cell_volume   283.17205152
_cell_formula_units_Z   2
loop_
 _symmetry_equiv_pos_site_id
 _symmetry_equiv_pos_as_xyz
  1  'x, y, z'
loop_
 _atom_site_type_symbol
 _atom_site_label
 _atom_site_symmetry_multiplicity
 _atom_site_fract_x
 _atom_site_fract_y
 _atom_site_fract_z
 _atom_site_occupancy
  Mg  Mg0  1  0.141184  0.858816  0.393843  1
  Mg  Mg1  1  0.358816  0.641184  0.893843  1
  Mg  Mg2  1  0.641184  0.358816  0.106157  1
  Mg  Mg3  1  0.858816  0.141184  0.606157  1
  Mn  Mn4  1  0.372800  0.127200  0.750000  1
  Mn  Mn5  1  0.127200  0.372800  0.250000  1
  Mn  Mn6  1  0.000000  0.000000  0.000000  1
  Mn  Mn7  1  0.500000  0.500000  0.500000  1
  Mn  Mn8  1  0.627200  0.872800  0.250000  1
  Mn  Mn9  1  0.872800  0.627200  0.750000  1
  O  O10  1  0.153997  0.383597  0.474438  1
  O  O11  1  0.383597  0.153997  0.525562  1
  O  O12  1  0.116403  0.346003  0.025562  1
  O  O13  1  0.346003  0.116403  0.974438  1
  O  O14  1  0.997462  0.002538  0.235646  1
  O  O15  1  0.270905  0.729095  0.237796  1
  O  O16  1  0.229095  0.770905  0.737796  1
  O  O17  1  0.770905  0.229095  0.262204  1
  O  O18  1  0.002538  0.997462  0.764354  1
  O  O19  1  0.502538  0.497462  0.735646  1
  O  O20  1  0.729095  0.270905  0.762204  1
  O  O21  1  0.497462  0.502538  0.264354  1
  O  O22  1  0.653997  0.883597  0.025562  1
  O  O23  1  0.883597  0.653997  0.974438  1
  O  O24  1  0.616403  0.846003  0.474438  1
  O  O25  1  0.846003  0.616403  0.525562  1
