# generated using pymatgen
data_Fe3O5F
_symmetry_space_group_name_H-M   'P 1'
_cell_length_a   4.63641693
_cell_length_b   4.63641693
_cell_length_c   9.03492606
_cell_angle_alpha   90.00000000
_cell_angle_beta   90.00000000
_cell_angle_gamma   92.60712912
_symmetry_Int_Tables_number   1
_chemical_formula_structural   Fe3O5F
_chemical_formula_sum   'Fe6 O10 F2'
_cell_volume   194.01700941
_cell_formula_units_Z   2
loop_
 _symmetry_equiv_pos_site_id
 _symmetry_equiv_pos_as_xyz
  1  'x, y, z'
loop_
 _atom_site_type_symbol
 _atom_site_label
 _atom_site_symmetry_multiplicity
 _atom_site_fract_x
 _atom_site_fract_y
 _atom_site_fract_z
 _atom_site_occupancy
  Fe  Fe0  1  0.989137  0.010863  0.660432  1
  Fe  Fe1  1  0.989137  0.010863  0.339568  1
  Fe  Fe2  1  0.986333  0.013667  0.000000  1
  Fe  Fe3  1  0.496068  0.503932  0.500000  1
  Fe  Fe4  1  0.517598  0.482402  0.833171  1
  Fe  Fe5  1  0.517598  0.482402  0.166829  1
  O  O6  1  0.794657  0.205343  0.500000  1
  O  O7  1  0.815825  0.184175  0.172093  1
  O  O8  1  0.815825  0.184175  0.827907  1
  O  O9  1  0.304031  0.309722  0.669799  1
  O  O10  1  0.304031  0.309722  0.330201  1
  O  O11  1  0.312374  0.301524  0.000000  1
  O  O12  1  0.690278  0.695969  0.669799  1
  O  O13  1  0.690278  0.695969  0.330201  1
  O  O14  1  0.698476  0.687626  1.000000  1
  O  O15  1  0.182487  0.817513  0.500000  1
  F  F16  1  0.197933  0.802067  0.835171  1
  F  F17  1  0.197933  0.802067  0.164829  1
