# generated using pymatgen
data_Li8NbO6
_symmetry_space_group_name_H-M   'P 1'
_cell_length_a   5.43109000
_cell_length_b   5.53880116
_cell_length_c   6.02557389
_cell_angle_alpha   91.02631412
_cell_angle_beta   115.88994037
_cell_angle_gamma   119.18760782
_symmetry_Int_Tables_number   1
_chemical_formula_structural   Li8NbO6
_chemical_formula_sum   'Li8 Nb1 O6'
_cell_volume   136.07403166
_cell_formula_units_Z   1
loop_
 _symmetry_equiv_pos_site_id
 _symmetry_equiv_pos_as_xyz
  1  'x, y, z'
loop_
 _atom_site_type_symbol
 _atom_site_label
 _atom_site_symmetry_multiplicity
 _atom_site_fract_x
 _atom_site_fract_y
 _atom_site_fract_z
 _atom_site_occupancy
  Li  Li0  1  0.869328  0.764139  0.361873  1
  Li  Li1  1  0.411974  0.898878  0.644830  1
  Li  Li2  1  0.736051  0.503194  0.634897  1
  Li  Li3  1  0.298101  0.636647  0.967016  1
  Li  Li4  1  0.701899  0.363353  0.032984  1
  Li  Li5  1  0.263949  0.496806  0.365103  1
  Li  Li6  1  0.588026  0.101122  0.355170  1
  Li  Li7  1  0.130672  0.235861  0.638127  1
  Nb  Nb8  1  0.000000  0.000000  0.000000  1
  O  O9  1  0.131945  0.905631  0.755836  1
  O  O10  1  0.154142  0.762777  0.243848  1
  O  O11  1  0.481212  0.389141  0.241761  1
  O  O12  1  0.518788  0.610859  0.758239  1
  O  O13  1  0.845858  0.237223  0.756152  1
  O  O14  1  0.868055  0.094369  0.244164  1
