# generated using pymatgen
data_Na2Ni3(P2O7)2
_symmetry_space_group_name_H-M   'P 1'
_cell_length_a   7.40916094
_cell_length_b   8.22837502
_cell_length_c   9.50084237
_cell_angle_alpha   90.00000000
_cell_angle_beta   111.44081322
_cell_angle_gamma   90.00000000
_symmetry_Int_Tables_number   1
_chemical_formula_structural   Na2Ni3(P2O7)2
_chemical_formula_sum   'Na4 Ni6 P8 O28'
_cell_volume   539.13753869
_cell_formula_units_Z   2
loop_
 _symmetry_equiv_pos_site_id
 _symmetry_equiv_pos_as_xyz
  1  'x, y, z'
loop_
 _atom_site_type_symbol
 _atom_site_label
 _atom_site_symmetry_multiplicity
 _atom_site_fract_x
 _atom_site_fract_y
 _atom_site_fract_z
 _atom_site_occupancy
  Na  Na0  1  0.189540  0.417796  0.122066  1
  Na  Na1  1  0.189540  0.082204  0.622066  1
  Na  Na2  1  0.810460  0.917796  0.377934  1
  Na  Na3  1  0.810460  0.582204  0.877934  1
  Ni  Ni4  1  0.500000  0.000000  0.500000  1
  Ni  Ni5  1  0.320801  0.381586  0.486455  1
  Ni  Ni6  1  0.500000  0.500000  0.000000  1
  Ni  Ni7  1  0.320801  0.118414  0.986455  1
  Ni  Ni8  1  0.679199  0.881586  0.013545  1
  Ni  Ni9  1  0.679199  0.618414  0.513545  1
  P  P10  1  0.389876  0.798654  0.194010  1
  P  P11  1  0.389876  0.701346  0.694010  1
  P  P12  1  0.100796  0.040421  0.208971  1
  P  P13  1  0.899204  0.540421  0.291029  1
  P  P14  1  0.100796  0.459579  0.708971  1
  P  P15  1  0.899204  0.959579  0.791029  1
  P  P16  1  0.610124  0.298654  0.305990  1
  P  P17  1  0.610124  0.201346  0.805990  1
  O  O18  1  0.487747  0.296861  0.134019  1
  O  O19  1  0.474560  0.924494  0.113590  1
  O  O20  1  0.361136  0.635951  0.115886  1
  O  O21  1  0.487747  0.203139  0.634019  1
  O  O22  1  0.474560  0.575506  0.613590  1
  O  O23  1  0.182729  0.861507  0.187308  1
  O  O24  1  0.130216  0.151174  0.090780  1
  O  O25  1  0.361136  0.864049  0.615886  1
  O  O26  1  0.221213  0.098723  0.371814  1
  O  O27  1  0.110561  0.507298  0.313977  1
  O  O28  1  0.182729  0.638493  0.687308  1
  O  O29  1  0.130216  0.348826  0.590780  1
  O  O30  1  0.221213  0.401277  0.871814  1
  O  O31  1  0.889439  0.007298  0.186023  1
  O  O32  1  0.110561  0.992702  0.813977  1
  O  O33  1  0.778787  0.598723  0.128186  1
  O  O34  1  0.869784  0.651174  0.409220  1
  O  O35  1  0.817271  0.361507  0.312692  1
  O  O36  1  0.889439  0.492702  0.686023  1
  O  O37  1  0.778787  0.901277  0.628186  1
  O  O38  1  0.638864  0.135951  0.384114  1
  O  O39  1  0.869784  0.848826  0.909220  1
  O  O40  1  0.817271  0.138493  0.812692  1
  O  O41  1  0.525440  0.424494  0.386410  1
  O  O42  1  0.512253  0.796861  0.365981  1
  O  O43  1  0.638864  0.364049  0.884114  1
  O  O44  1  0.525440  0.075506  0.886410  1
  O  O45  1  0.512253  0.703139  0.865981  1
