# generated using pymatgen
data_Rb3Nb20O34
_symmetry_space_group_name_H-M   'P 1'
_cell_length_a   10.53426105
_cell_length_b   6.08252450
_cell_length_c   13.56551888
_cell_angle_alpha   90.00000000
_cell_angle_beta   104.92496997
_cell_angle_gamma   90.00000000
_symmetry_Int_Tables_number   1
_chemical_formula_structural   Rb3Nb20O34
_chemical_formula_sum   'Rb3 Nb20 O34'
_cell_volume   839.88557014
_cell_formula_units_Z   1
loop_
 _symmetry_equiv_pos_site_id
 _symmetry_equiv_pos_as_xyz
  1  'x, y, z'
loop_
 _atom_site_type_symbol
 _atom_site_label
 _atom_site_symmetry_multiplicity
 _atom_site_fract_x
 _atom_site_fract_y
 _atom_site_fract_z
 _atom_site_occupancy
  Rb  Rb0  1  0.128967  0.000000  0.439288  1
  Rb  Rb1  1  0.357304  0.500000  0.569215  1
  Rb  Rb2  1  0.662247  0.500000  0.441653  1
  Nb  Nb3  1  0.046303  0.772197  0.911967  1
  Nb  Nb4  1  0.054862  0.500000  0.669770  1
  Nb  Nb5  1  0.046303  0.227803  0.911967  1
  Nb  Nb6  1  0.240386  0.000000  0.730252  1
  Nb  Nb7  1  0.180602  0.000000  0.087688  1
  Nb  Nb8  1  0.317804  0.500000  0.911200  1
  Nb  Nb9  1  0.255161  0.500000  0.270761  1
  Nb  Nb10  1  0.546829  0.728441  0.910809  1
  Nb  Nb11  1  0.560118  0.000000  0.670874  1
  Nb  Nb12  1  0.439999  0.000000  0.328647  1
  Nb  Nb13  1  0.546829  0.271559  0.910809  1
  Nb  Nb14  1  0.819254  0.000000  0.911252  1
  Nb  Nb15  1  0.452772  0.728476  0.088585  1
  Nb  Nb16  1  0.452772  0.271524  0.088585  1
  Nb  Nb17  1  0.746306  0.500000  0.729262  1
  Nb  Nb18  1  0.757416  0.000000  0.272118  1
  Nb  Nb19  1  0.681635  0.500000  0.088257  1
  Nb  Nb20  1  0.946504  0.500000  0.326201  1
  Nb  Nb21  1  0.952677  0.773121  0.087203  1
  Nb  Nb22  1  0.952677  0.226879  0.087203  1
  O  O23  1  0.111185  0.000000  0.815590  1
  O  O24  1  0.104958  0.500000  0.816082  1
  O  O25  1  0.134229  0.751552  0.629793  1
  O  O26  1  0.374501  0.000000  0.633222  1
  O  O27  1  0.355562  0.753650  0.816081  1
  O  O28  1  0.145344  0.747158  0.186076  1
  O  O29  1  0.134229  0.248448  0.629793  1
  O  O30  1  0.131472  0.500000  0.377198  1
  O  O31  1  0.371030  0.745083  0.375519  1
  O  O32  1  0.355562  0.246350  0.816081  1
  O  O33  1  0.607027  0.000000  0.816822  1
  O  O34  1  0.392696  0.000000  0.182182  1
  O  O35  1  0.145344  0.252842  0.186076  1
  O  O36  1  0.250780  0.749487  0.999847  1
  O  O37  1  0.371030  0.254917  0.375519  1
  O  O38  1  0.392026  0.500000  0.184106  1
  O  O39  1  0.250780  0.250513  0.999847  1
  O  O40  1  0.499631  0.000000  0.999677  1
  O  O41  1  0.607341  0.500000  0.815377  1
  O  O42  1  0.624318  0.739229  0.627946  1
  O  O43  1  0.624868  0.000000  0.367184  1
  O  O44  1  0.852657  0.742936  0.815030  1
  O  O45  1  0.645042  0.753727  0.183648  1
  O  O46  1  0.624318  0.260771  0.627946  1
  O  O47  1  0.870106  0.500000  0.629943  1
  O  O48  1  0.873017  0.753812  0.368302  1
  O  O49  1  0.852657  0.257064  0.815030  1
  O  O50  1  0.891174  0.000000  0.184276  1
  O  O51  1  0.748719  0.750040  0.999258  1
  O  O52  1  0.645042  0.246273  0.183648  1
  O  O53  1  0.873017  0.246188  0.368302  1
  O  O54  1  0.894024  0.500000  0.179804  1
  O  O55  1  0.748719  0.249960  0.999258  1
  O  O56  1  0.000342  0.500000  0.999699  1
