# generated using pymatgen
data_Mn2O3F
_symmetry_space_group_name_H-M   'P 1'
_cell_length_a   5.49688649
_cell_length_b   5.49688649
_cell_length_c   4.58436286
_cell_angle_alpha   88.01171889
_cell_angle_beta   91.98828111
_cell_angle_gamma   113.56038265
_symmetry_Int_Tables_number   1
_chemical_formula_structural   Mn2O3F
_chemical_formula_sum   'Mn4 O6 F2'
_cell_volume   126.86364923
_cell_formula_units_Z   2
loop_
 _symmetry_equiv_pos_site_id
 _symmetry_equiv_pos_as_xyz
  1  'x, y, z'
loop_
 _atom_site_type_symbol
 _atom_site_label
 _atom_site_symmetry_multiplicity
 _atom_site_fract_x
 _atom_site_fract_y
 _atom_site_fract_z
 _atom_site_occupancy
  Mn  Mn0  1  0.000000  0.000000  0.500000  1
  Mn  Mn1  1  0.500000  0.500000  0.500000  1
  Mn  Mn2  1  0.500000  0.000000  0.000000  1
  Mn  Mn3  1  0.000000  0.500000  0.000000  1
  O  O4  1  0.157606  0.842394  0.191912  1
  O  O5  1  0.156166  0.346205  0.308170  1
  O  O6  1  0.653795  0.843834  0.308170  1
  O  O7  1  0.346205  0.156166  0.691830  1
  O  O8  1  0.843834  0.653795  0.691830  1
  O  O9  1  0.842394  0.157606  0.808088  1
  F  F10  1  0.641311  0.358689  0.214795  1
  F  F11  1  0.358689  0.641311  0.785205  1
