# generated using pymatgen
data_V(SbO3)4
_symmetry_space_group_name_H-M   'P 1'
_cell_length_a   5.13457756
_cell_length_b   5.56027734
_cell_length_c   7.52553187
_cell_angle_alpha   94.50582372
_cell_angle_beta   90.32057125
_cell_angle_gamma   91.74419058
_symmetry_Int_Tables_number   1
_chemical_formula_structural   V(SbO3)4
_chemical_formula_sum   'V1 Sb4 O12'
_cell_volume   214.08134845
_cell_formula_units_Z   1
loop_
 _symmetry_equiv_pos_site_id
 _symmetry_equiv_pos_as_xyz
  1  'x, y, z'
loop_
 _atom_site_type_symbol
 _atom_site_label
 _atom_site_symmetry_multiplicity
 _atom_site_fract_x
 _atom_site_fract_y
 _atom_site_fract_z
 _atom_site_occupancy
  V  V0  1  0.018187  0.594901  0.719450  1
  Sb  Sb1  1  0.992126  0.996834  0.028543  1
  Sb  Sb2  1  0.500899  0.463815  0.493986  1
  Sb  Sb3  1  0.984080  0.995650  0.499995  1
  Sb  Sb4  1  0.512746  0.461743  0.018422  1
  O  O5  1  0.284468  0.755821  0.585858  1
  O  O6  1  0.144318  0.976432  0.268174  1
  O  O7  1  0.309536  0.161995  0.940513  1
  O  O8  1  0.170140  0.305977  0.593562  1
  O  O9  1  0.824635  0.299197  0.084124  1
  O  O10  1  0.357313  0.480606  0.257963  1
  O  O11  1  0.654889  0.460501  0.753610  1
  O  O12  1  0.177124  0.651172  0.935802  1
  O  O13  1  0.833715  0.651780  0.479570  1
  O  O14  1  0.685146  0.784675  0.075616  1
  O  O15  1  0.891841  0.930927  0.759136  1
  O  O16  1  0.658834  0.146572  0.446378  1
