# generated using pymatgen
data_Mn5P4(HO2)10
_symmetry_space_group_name_H-M   'P 1'
_cell_length_a   10.05432741
_cell_length_b   10.05432741
_cell_length_c   9.61450368
_cell_angle_alpha   84.34754343
_cell_angle_beta   95.65245657
_cell_angle_gamma   125.18950531
_symmetry_Int_Tables_number   1
_chemical_formula_structural   Mn5P4(HO2)10
_chemical_formula_sum   'Mn10 P8 H20 O40'
_cell_volume   789.40284477
_cell_formula_units_Z   2
loop_
 _symmetry_equiv_pos_site_id
 _symmetry_equiv_pos_as_xyz
  1  'x, y, z'
loop_
 _atom_site_type_symbol
 _atom_site_label
 _atom_site_symmetry_multiplicity
 _atom_site_fract_x
 _atom_site_fract_y
 _atom_site_fract_z
 _atom_site_occupancy
  Mn  Mn0  1  0.396640  0.396640  0.250000  1
  Mn  Mn1  1  0.603360  0.603360  0.750000  1
  Mn  Mn2  1  0.702627  0.353436  0.365306  1
  Mn  Mn3  1  0.353436  0.702627  0.134694  1
  Mn  Mn4  1  0.297373  0.646564  0.634694  1
  Mn  Mn5  1  0.646564  0.297373  0.865306  1
  Mn  Mn6  1  0.272764  0.907662  0.815232  1
  Mn  Mn7  1  0.907662  0.272764  0.684768  1
  Mn  Mn8  1  0.727236  0.092338  0.184768  1
  Mn  Mn9  1  0.092338  0.727236  0.315232  1
  P  P10  1  0.762360  0.594344  0.089858  1
  P  P11  1  0.594344  0.762360  0.410142  1
  P  P12  1  0.237640  0.405656  0.910142  1
  P  P13  1  0.405656  0.237640  0.589858  1
  P  P14  1  0.921136  0.599868  0.628666  1
  P  P15  1  0.599868  0.921136  0.871334  1
  P  P16  1  0.078864  0.400132  0.371334  1
  P  P17  1  0.400132  0.078864  0.128666  1
  H  H18  1  0.586728  0.117065  0.587878  1
  H  H19  1  0.117065  0.586728  0.912122  1
  H  H20  1  0.413272  0.882935  0.412122  1
  H  H21  1  0.882935  0.413272  0.087878  1
  H  H22  1  0.665399  0.072798  0.477815  1
  H  H23  1  0.072798  0.665399  0.022185  1
  H  H24  1  0.334601  0.927202  0.522185  1
  H  H25  1  0.927202  0.334601  0.977815  1
  H  H26  1  0.975604  0.839331  0.780290  1
  H  H27  1  0.839331  0.975604  0.719710  1
  H  H28  1  0.024396  0.160669  0.219710  1
  H  H29  1  0.160669  0.024396  0.280290  1
  H  H30  1  0.075826  0.009673  0.862413  1
  H  H31  1  0.009673  0.075826  0.637587  1
  H  H32  1  0.924174  0.990327  0.137587  1
  H  H33  1  0.990327  0.924174  0.362413  1
  H  H34  1  0.750346  0.794716  0.991593  1
  H  H35  1  0.794716  0.750346  0.508407  1
  H  H36  1  0.249654  0.205284  0.008407  1
  H  H37  1  0.205284  0.249654  0.491593  1
  O  O38  1  0.644564  0.488787  0.206891  1
  O  O39  1  0.488787  0.644564  0.293109  1
  O  O40  1  0.355436  0.511213  0.793109  1
  O  O41  1  0.511213  0.355436  0.706891  1
  O  O42  1  0.691088  0.522440  0.944691  1
  O  O43  1  0.522440  0.691088  0.555309  1
  O  O44  1  0.308912  0.477560  0.055309  1
  O  O45  1  0.477560  0.308912  0.444691  1
  O  O46  1  0.924687  0.612282  0.131580  1
  O  O47  1  0.612282  0.924687  0.368420  1
  O  O48  1  0.075313  0.387718  0.868420  1
  O  O49  1  0.387718  0.075313  0.631580  1
  O  O50  1  0.797724  0.770891  0.081039  1
  O  O51  1  0.770891  0.797724  0.418961  1
  O  O52  1  0.202276  0.229109  0.918961  1
  O  O53  1  0.229109  0.202276  0.581039  1
  O  O54  1  0.899777  0.571950  0.468114  1
  O  O55  1  0.571950  0.899777  0.031886  1
  O  O56  1  0.100223  0.428050  0.531886  1
  O  O57  1  0.428050  0.100223  0.968114  1
  O  O58  1  0.104613  0.701882  0.674566  1
  O  O59  1  0.701882  0.104613  0.825434  1
  O  O60  1  0.895387  0.298118  0.325434  1
  O  O61  1  0.298118  0.895387  0.174566  1
  O  O62  1  0.841784  0.690294  0.657655  1
  O  O63  1  0.690294  0.841784  0.842345  1
  O  O64  1  0.158216  0.309706  0.342345  1
  O  O65  1  0.309706  0.158216  0.157655  1
  O  O66  1  0.834527  0.431590  0.711236  1
  O  O67  1  0.431590  0.834527  0.788764  1
  O  O68  1  0.165473  0.568410  0.288764  1
  O  O69  1  0.568410  0.165473  0.211236  1
  O  O70  1  0.681069  0.163897  0.528667  1
  O  O71  1  0.163897  0.681069  0.971333  1
  O  O72  1  0.318931  0.836103  0.471333  1
  O  O73  1  0.836103  0.318931  0.028667  1
  O  O74  1  0.066222  0.908796  0.848601  1
  O  O75  1  0.908796  0.066222  0.651399  1
  O  O76  1  0.933778  0.091204  0.151399  1
  O  O77  1  0.091204  0.933778  0.348601  1
