# generated using pymatgen
data_LiFe2(BO3)2
_symmetry_space_group_name_H-M   'P 1'
_cell_length_a   5.27131727
_cell_length_b   9.12548193
_cell_length_c   10.18063929
_cell_angle_alpha   89.56725618
_cell_angle_beta   89.22029630
_cell_angle_gamma   89.72654950
_symmetry_Int_Tables_number   1
_chemical_formula_structural   LiFe2(BO3)2
_chemical_formula_sum   'Li4 Fe8 B8 O24'
_cell_volume   489.65780054
_cell_formula_units_Z   4
loop_
 _symmetry_equiv_pos_site_id
 _symmetry_equiv_pos_as_xyz
  1  'x, y, z'
loop_
 _atom_site_type_symbol
 _atom_site_label
 _atom_site_symmetry_multiplicity
 _atom_site_fract_x
 _atom_site_fract_y
 _atom_site_fract_z
 _atom_site_occupancy
  Li  Li0  1  0.659253  0.988979  0.844348  1
  Li  Li1  1  0.342625  0.006101  0.127791  1
  Li  Li2  1  0.148224  0.513435  0.334349  1
  Li  Li3  1  0.154697  0.489599  0.832096  1
  Fe  Fe4  1  0.838611  0.827025  0.122837  1
  Fe  Fe5  1  0.159355  0.847970  0.373172  1
  Fe  Fe6  1  0.663508  0.654583  0.870523  1
  Fe  Fe7  1  0.350220  0.672028  0.617940  1
  Fe  Fe8  1  0.658879  0.324553  0.367150  1
  Fe  Fe9  1  0.845004  0.170928  0.623745  1
  Fe  Fe10  1  0.344933  0.342822  0.116291  1
  Fe  Fe11  1  0.160029  0.157599  0.872669  1
  B  B12  1  0.846542  0.834525  0.626257  1
  B  B13  1  0.661712  0.655622  0.367498  1
  B  B14  1  0.167441  0.829738  0.873797  1
  B  B15  1  0.337512  0.677160  0.124773  1
  B  B16  1  0.659186  0.332048  0.867352  1
  B  B17  1  0.339174  0.332608  0.623289  1
  B  B18  1  0.843869  0.156166  0.124902  1
  B  B19  1  0.168033  0.177584  0.367134  1
  O  O20  1  0.755667  0.971830  0.650470  1
  O  O21  1  0.913208  0.826943  0.915726  1
  O  O22  1  0.307062  0.955404  0.884531  1
  O  O23  1  0.790899  0.777808  0.318663  1
  O  O24  1  0.697627  0.713921  0.659128  1
  O  O25  1  0.204544  0.807552  0.154428  1
  O  O26  1  0.088172  0.813299  0.574667  1
  O  O27  1  0.580417  0.691206  0.072715  1
  O  O28  1  0.781261  0.521533  0.367482  1
  O  O29  1  0.410866  0.668557  0.415777  1
  O  O30  1  0.275047  0.700049  0.822935  1
  O  O31  1  0.805057  0.454422  0.868272  1
  O  O32  1  0.230077  0.545360  0.148064  1
  O  O33  1  0.710042  0.275423  0.175996  1
  O  O34  1  0.575950  0.304593  0.566624  1
  O  O35  1  0.255038  0.472530  0.641963  1
  O  O36  1  0.403986  0.335400  0.906588  1
  O  O37  1  0.926262  0.188664  0.426493  1
  O  O38  1  0.766185  0.197494  0.825251  1
  O  O39  1  0.290062  0.311491  0.337894  1
  O  O40  1  0.191585  0.215704  0.666246  1
  O  O41  1  0.715131  0.024746  0.113071  1
  O  O42  1  0.094246  0.168349  0.083429  1
  O  O43  1  0.273496  0.047865  0.336804  1
