# generated using pymatgen
data_Li4Fe3Ni3(SbO8)2
_symmetry_space_group_name_H-M   'P 1'
_cell_length_a   5.90794664
_cell_length_b   5.91613912
_cell_length_c   9.70381317
_cell_angle_alpha   90.68905544
_cell_angle_beta   89.87693983
_cell_angle_gamma   119.60659076
_symmetry_Int_Tables_number   1
_chemical_formula_structural   Li4Fe3Ni3(SbO8)2
_chemical_formula_sum   'Li4 Fe3 Ni3 Sb2 O16'
_cell_volume   294.86314736
_cell_formula_units_Z   1
loop_
 _symmetry_equiv_pos_site_id
 _symmetry_equiv_pos_as_xyz
  1  'x, y, z'
loop_
 _atom_site_type_symbol
 _atom_site_label
 _atom_site_symmetry_multiplicity
 _atom_site_fract_x
 _atom_site_fract_y
 _atom_site_fract_z
 _atom_site_occupancy
  Li  Li0  1  0.667623  0.332204  0.901729  1
  Li  Li1  1  0.996204  0.990057  0.988072  1
  Li  Li2  1  0.998463  0.999140  0.491102  1
  Li  Li3  1  0.332615  0.670678  0.404628  1
  Fe  Fe4  1  0.340094  0.171617  0.212917  1
  Fe  Fe5  1  0.832784  0.172047  0.214116  1
  Fe  Fe6  1  0.166181  0.337373  0.715091  1
  Ni  Ni7  1  0.829584  0.659387  0.213490  1
  Ni  Ni8  1  0.168801  0.829409  0.712826  1
  Ni  Ni9  1  0.659445  0.825988  0.712630  1
  Sb  Sb10  1  0.664665  0.335046  0.488074  1
  Sb  Sb11  1  0.337613  0.668664  0.984086  1
  O  O12  1  0.330989  0.167501  0.596173  1
  O  O13  1  0.519105  0.034647  0.346018  1
  O  O14  1  0.667394  0.332324  0.108462  1
  O  O15  1  0.999447  0.997603  0.302173  1
  O  O16  1  0.992465  0.987840  0.798454  1
  O  O17  1  0.838964  0.176401  0.594401  1
  O  O18  1  0.509519  0.477891  0.348836  1
  O  O19  1  0.964472  0.482415  0.347725  1
  O  O20  1  0.167136  0.335979  0.095151  1
  O  O21  1  0.831910  0.676699  0.593714  1
  O  O22  1  0.033680  0.518583  0.846065  1
  O  O23  1  0.476163  0.504827  0.847748  1
  O  O24  1  0.337711  0.674717  0.615169  1
  O  O25  1  0.173780  0.840093  0.092612  1
  O  O26  1  0.491999  0.963233  0.842047  1
  O  O27  1  0.670891  0.837636  0.094331  1
