# generated using pymatgen
data_Li4Fe2Ni3O10
_symmetry_space_group_name_H-M   'P 1'
_cell_length_a   5.04211345
_cell_length_b   5.08188851
_cell_length_c   7.76668992
_cell_angle_alpha   102.83722069
_cell_angle_beta   108.34019929
_cell_angle_gamma   99.31495397
_symmetry_Int_Tables_number   1
_chemical_formula_structural   Li4Fe2Ni3O10
_chemical_formula_sum   'Li4 Fe2 Ni3 O10'
_cell_volume   178.31005021
_cell_formula_units_Z   1
loop_
 _symmetry_equiv_pos_site_id
 _symmetry_equiv_pos_as_xyz
  1  'x, y, z'
loop_
 _atom_site_type_symbol
 _atom_site_label
 _atom_site_symmetry_multiplicity
 _atom_site_fract_x
 _atom_site_fract_y
 _atom_site_fract_z
 _atom_site_occupancy
  Li  Li0  1  0.075666  0.770294  0.586970  1
  Li  Li1  1  0.699064  0.600266  0.217401  1
  Li  Li2  1  0.300936  0.399734  0.782599  1
  Li  Li3  1  0.924334  0.229706  0.413030  1
  Fe  Fe4  1  0.302623  0.897051  0.312972  1
  Fe  Fe5  1  0.697377  0.102949  0.687028  1
  Ni  Ni6  1  0.500000  0.000000  0.000000  1
  Ni  Ni7  1  0.099199  0.299913  0.097790  1
  Ni  Ni8  1  0.900801  0.700087  0.902210  1
  O  O9  1  0.898468  0.941372  0.136929  1
  O  O10  1  0.697338  0.888512  0.446942  1
  O  O11  1  0.281721  0.670069  0.046161  1
  O  O12  1  0.090780  0.542066  0.319925  1
  O  O13  1  0.539027  0.776691  0.781321  1
  O  O14  1  0.460973  0.223309  0.218679  1
  O  O15  1  0.909220  0.457934  0.680075  1
  O  O16  1  0.718279  0.329931  0.953839  1
  O  O17  1  0.302662  0.111488  0.553058  1
  O  O18  1  0.101532  0.058628  0.863071  1
