# generated using pymatgen
data_Li5Cr17(SiO16)2
_symmetry_space_group_name_H-M   'P 1'
_cell_length_a   8.34248720
_cell_length_b   8.34248720
_cell_length_c   8.44506156
_cell_angle_alpha   89.82885502
_cell_angle_beta   90.17114498
_cell_angle_gamma   91.04010305
_symmetry_Int_Tables_number   1
_chemical_formula_structural   Li5Cr17(SiO16)2
_chemical_formula_sum   'Li5 Cr17 Si2 O32'
_cell_volume   587.64974180
_cell_formula_units_Z   1
loop_
 _symmetry_equiv_pos_site_id
 _symmetry_equiv_pos_as_xyz
  1  'x, y, z'
loop_
 _atom_site_type_symbol
 _atom_site_label
 _atom_site_symmetry_multiplicity
 _atom_site_fract_x
 _atom_site_fract_y
 _atom_site_fract_z
 _atom_site_occupancy
  Li  Li0  1  0.502067  0.497933  0.003564  1
  Li  Li1  1  0.746669  0.745621  0.752234  1
  Li  Li2  1  0.254379  0.253331  0.752234  1
  Li  Li3  1  0.745706  0.254294  0.245316  1
  Li  Li4  1  0.253572  0.746428  0.244173  1
  Cr  Cr5  1  0.876662  0.382352  0.875071  1
  Cr  Cr6  1  0.617648  0.123338  0.875071  1
  Cr  Cr7  1  0.378074  0.621926  0.631243  1
  Cr  Cr8  1  0.123261  0.876739  0.630190  1
  Cr  Cr9  1  0.622155  0.377845  0.623670  1
  Cr  Cr10  1  0.877659  0.122341  0.621800  1
  Cr  Cr11  1  0.497862  0.995623  0.500443  1
  Cr  Cr12  1  0.004377  0.502138  0.500443  1
  Cr  Cr13  1  0.376526  0.377521  0.374600  1
  Cr  Cr14  1  0.122761  0.122321  0.377957  1
  Cr  Cr15  1  0.622479  0.623474  0.374600  1
  Cr  Cr16  1  0.877679  0.877239  0.377957  1
  Cr  Cr17  1  0.127111  0.380373  0.119708  1
  Cr  Cr18  1  0.375070  0.121801  0.119022  1
  Cr  Cr19  1  0.878199  0.624930  0.119022  1
  Cr  Cr20  1  0.619627  0.872889  0.119708  1
  Cr  Cr21  1  0.998857  0.001143  0.997497  1
  Si  Si22  1  0.129817  0.622362  0.883236  1
  Si  Si23  1  0.377638  0.870183  0.883236  1
  O  O24  1  0.123262  0.408716  0.882312  1
  O  O25  1  0.591284  0.876738  0.882312  1
  O  O26  1  0.375440  0.088580  0.881618  1
  O  O27  1  0.639269  0.360731  0.859705  1
  O  O28  1  0.911420  0.624560  0.881618  1
  O  O29  1  0.148448  0.851552  0.874457  1
  O  O30  1  0.349202  0.650798  0.872641  1
  O  O31  1  0.864179  0.135821  0.868080  1
  O  O32  1  0.130246  0.632231  0.663473  1
  O  O33  1  0.631776  0.128889  0.633017  1
  O  O34  1  0.871111  0.368224  0.633017  1
  O  O35  1  0.114630  0.113690  0.614539  1
  O  O36  1  0.367769  0.869754  0.663473  1
  O  O37  1  0.613311  0.614421  0.613251  1
  O  O38  1  0.385579  0.386689  0.613251  1
  O  O39  1  0.886310  0.885370  0.614539  1
  O  O40  1  0.383323  0.616677  0.393646  1
  O  O41  1  0.886662  0.113338  0.388043  1
  O  O42  1  0.116263  0.883737  0.393510  1
  O  O43  1  0.871470  0.630982  0.360897  1
  O  O44  1  0.612597  0.387403  0.387288  1
  O  O45  1  0.369018  0.128530  0.360897  1
  O  O46  1  0.127423  0.367946  0.360426  1
  O  O47  1  0.632054  0.872577  0.360426  1
  O  O48  1  0.362760  0.359253  0.138161  1
  O  O49  1  0.866330  0.871479  0.132371  1
  O  O50  1  0.640747  0.637240  0.138161  1
  O  O51  1  0.379760  0.878335  0.094170  1
  O  O52  1  0.128521  0.133670  0.132371  1
  O  O53  1  0.888729  0.390437  0.107819  1
  O  O54  1  0.121665  0.620240  0.094170  1
  O  O55  1  0.609563  0.111271  0.107819  1
