# generated using pymatgen
data_LiV(PO3)4
_symmetry_space_group_name_H-M   'P 1'
_cell_length_a   7.28663170
_cell_length_b   8.47870043
_cell_length_c   7.77437848
_cell_angle_alpha   90.00000000
_cell_angle_beta   93.29469216
_cell_angle_gamma   90.00000000
_symmetry_Int_Tables_number   1
_chemical_formula_structural   LiV(PO3)4
_chemical_formula_sum   'Li2 V2 P8 O24'
_cell_volume   479.51629492
_cell_formula_units_Z   2
loop_
 _symmetry_equiv_pos_site_id
 _symmetry_equiv_pos_as_xyz
  1  'x, y, z'
loop_
 _atom_site_type_symbol
 _atom_site_label
 _atom_site_symmetry_multiplicity
 _atom_site_fract_x
 _atom_site_fract_y
 _atom_site_fract_z
 _atom_site_occupancy
  Li  Li0  1  0.742312  0.695579  0.142887  1
  Li  Li1  1  0.257688  0.195579  0.857113  1
  V  V2  1  0.742828  0.495976  0.668249  1
  V  V3  1  0.257172  0.995976  0.331751  1
  P  P4  1  0.913240  0.289919  0.025561  1
  P  P5  1  0.935122  0.879297  0.626467  1
  P  P6  1  0.648351  0.070025  0.192594  1
  P  P7  1  0.630711  0.125679  0.556010  1
  P  P8  1  0.369289  0.625679  0.443990  1
  P  P9  1  0.351649  0.570025  0.807406  1
  P  P10  1  0.064878  0.379297  0.373533  1
  P  P11  1  0.086760  0.789919  0.974439  1
  O  O12  1  0.934591  0.399222  0.199184  1
  O  O13  1  0.949638  0.422928  0.519016  1
  O  O14  1  0.733657  0.911522  0.194739  1
  O  O15  1  0.924092  0.686474  0.983883  1
  O  O16  1  0.839033  0.723127  0.619430  1
  O  O17  1  0.727512  0.190554  0.056513  1
  O  O18  1  0.863850  0.397044  0.878390  1
  O  O19  1  0.786328  0.018187  0.654167  1
  O  O20  1  0.708925  0.162012  0.371763  1
  O  O21  1  0.619576  0.276415  0.654636  1
  O  O22  1  0.441155  0.083163  0.163395  1
  O  O23  1  0.549088  0.536547  0.464593  1
  O  O24  1  0.450912  0.036547  0.535407  1
  O  O25  1  0.558845  0.583163  0.836605  1
  O  O26  1  0.380424  0.776415  0.345364  1
  O  O27  1  0.291075  0.662012  0.628237  1
  O  O28  1  0.213672  0.518187  0.345833  1
  O  O29  1  0.136150  0.897044  0.121610  1
  O  O30  1  0.272488  0.690554  0.943487  1
  O  O31  1  0.160967  0.223127  0.380570  1
  O  O32  1  0.075908  0.186474  0.016117  1
  O  O33  1  0.266343  0.411522  0.805261  1
  O  O34  1  0.050362  0.922928  0.480984  1
  O  O35  1  0.065409  0.899222  0.800816  1
