# generated using pymatgen
data_LiFeP2HO8
_symmetry_space_group_name_H-M   'P 1'
_cell_length_a   4.94773816
_cell_length_b   8.06809496
_cell_length_c   7.54395570
_cell_angle_alpha   90.00000000
_cell_angle_beta   104.69514572
_cell_angle_gamma   90.00000000
_symmetry_Int_Tables_number   1
_chemical_formula_structural   LiFeP2HO8
_chemical_formula_sum   'Li2 Fe2 P4 H2 O16'
_cell_volume   291.29511347
_cell_formula_units_Z   2
loop_
 _symmetry_equiv_pos_site_id
 _symmetry_equiv_pos_as_xyz
  1  'x, y, z'
loop_
 _atom_site_type_symbol
 _atom_site_label
 _atom_site_symmetry_multiplicity
 _atom_site_fract_x
 _atom_site_fract_y
 _atom_site_fract_z
 _atom_site_occupancy
  Li  Li0  1  0.349628  0.629773  0.902056  1
  Li  Li1  1  0.650372  0.129773  0.097944  1
  Fe  Fe2  1  0.752845  0.503881  0.255423  1
  Fe  Fe3  1  0.247155  0.003881  0.744577  1
  P  P4  1  0.379981  0.652215  0.512064  1
  P  P5  1  0.620019  0.152215  0.487936  1
  P  P6  1  0.877079  0.844425  0.007692  1
  P  P7  1  0.122921  0.344425  0.992308  1
  H  H8  1  0.798611  0.481672  0.769306  1
  H  H9  1  0.201389  0.981672  0.230694  1
  O  O10  1  0.371781  0.452250  0.093222  1
  O  O11  1  0.290014  0.823900  0.566276  1
  O  O12  1  0.410172  0.169845  0.606695  1
  O  O13  1  0.505810  0.562298  0.695675  1
  O  O14  1  0.628219  0.952250  0.906778  1
  O  O15  1  0.770694  0.675999  0.058979  1
  O  O16  1  0.494190  0.062298  0.304325  1
  O  O17  1  0.589828  0.669845  0.393305  1
  O  O18  1  0.901926  0.324108  0.102112  1
  O  O19  1  0.997998  0.945063  0.190432  1
  O  O20  1  0.709986  0.323900  0.433724  1
  O  O21  1  0.871566  0.049316  0.592077  1
  O  O22  1  0.002002  0.445063  0.809568  1
  O  O23  1  0.098074  0.824108  0.897888  1
  O  O24  1  0.229306  0.175999  0.941021  1
  O  O25  1  0.128434  0.549316  0.407923  1
