# generated using pymatgen
data_Li2Al2FeO6
_symmetry_space_group_name_H-M   'P 1'
_cell_length_a   4.91046875
_cell_length_b   4.91046875
_cell_length_c   5.16771699
_cell_angle_alpha   80.61584351
_cell_angle_beta   99.38415649
_cell_angle_gamma   59.74401357
_symmetry_Int_Tables_number   1
_chemical_formula_structural   Li2Al2FeO6
_chemical_formula_sum   'Li2 Al2 Fe1 O6'
_cell_volume   101.70275553
_cell_formula_units_Z   1
loop_
 _symmetry_equiv_pos_site_id
 _symmetry_equiv_pos_as_xyz
  1  'x, y, z'
loop_
 _atom_site_type_symbol
 _atom_site_label
 _atom_site_symmetry_multiplicity
 _atom_site_fract_x
 _atom_site_fract_y
 _atom_site_fract_z
 _atom_site_occupancy
  Li  Li0  1  0.499243  0.499243  0.500000  1
  Li  Li1  1  0.164653  0.164653  0.500000  1
  Al  Al2  1  0.670116  0.670116  0.000000  1
  Al  Al3  1  0.334137  0.334137  0.000000  1
  Fe  Fe4  1  0.999382  0.999382  0.000000  1
  O  O5  1  0.398163  0.928493  0.210156  1
  O  O6  1  0.267295  0.741637  0.793959  1
  O  O7  1  0.928493  0.398163  0.789844  1
  O  O8  1  0.077985  0.586674  0.204352  1
  O  O9  1  0.741637  0.267295  0.206041  1
  O  O10  1  0.586674  0.077985  0.795648  1
