# generated using pymatgen
data_Mn3(O2F)2
_symmetry_space_group_name_H-M   'P 1'
_cell_length_a   4.63269982
_cell_length_b   5.56274762
_cell_length_c   7.61019305
_cell_angle_alpha   86.28068212
_cell_angle_beta   88.20234750
_cell_angle_gamma   88.16791146
_symmetry_Int_Tables_number   1
_chemical_formula_structural   Mn3(O2F)2
_chemical_formula_sum   'Mn6 O8 F4'
_cell_volume   195.52127794
_cell_formula_units_Z   2
loop_
 _symmetry_equiv_pos_site_id
 _symmetry_equiv_pos_as_xyz
  1  'x, y, z'
loop_
 _atom_site_type_symbol
 _atom_site_label
 _atom_site_symmetry_multiplicity
 _atom_site_fract_x
 _atom_site_fract_y
 _atom_site_fract_z
 _atom_site_occupancy
  Mn  Mn0  1  0.505264  0.495598  0.988358  1
  Mn  Mn1  1  0.496388  0.831514  0.669129  1
  Mn  Mn2  1  0.526051  0.171352  0.343939  1
  Mn  Mn3  1  0.014230  0.334412  0.670103  1
  Mn  Mn4  1  0.953411  0.661829  0.327663  1
  Mn  Mn5  1  0.006888  0.002318  0.004777  1
  O  O6  1  0.810902  0.373793  0.435172  1
  O  O7  1  0.799955  0.705154  0.104646  1
  O  O8  1  0.689949  0.206227  0.104076  1
  O  O9  1  0.691853  0.532309  0.765555  1
  O  O10  1  0.699091  0.866591  0.439830  1
  O  O11  1  0.313492  0.130418  0.566449  1
  O  O12  1  0.302333  0.788407  0.896733  1
  O  O13  1  0.196566  0.294238  0.899056  1
  F  F14  1  0.806381  0.031601  0.767472  1
  F  F15  1  0.296655  0.474060  0.226130  1
  F  F16  1  0.188685  0.639908  0.543312  1
  F  F17  1  0.201907  0.960270  0.247601  1
