# generated using pymatgen
data_Ta2Zn4O9
_symmetry_space_group_name_H-M   'P 1'
_cell_length_a   9.46592935
_cell_length_b   5.26078806
_cell_length_c   16.01050196
_cell_angle_alpha   90.00000000
_cell_angle_beta   123.75328771
_cell_angle_gamma   90.00000000
_symmetry_Int_Tables_number   1
_chemical_formula_structural   Ta2Zn4O9
_chemical_formula_sum   'Ta8 Zn16 O36'
_cell_volume   662.90110377
_cell_formula_units_Z   4
loop_
 _symmetry_equiv_pos_site_id
 _symmetry_equiv_pos_as_xyz
  1  'x, y, z'
loop_
 _atom_site_type_symbol
 _atom_site_label
 _atom_site_symmetry_multiplicity
 _atom_site_fract_x
 _atom_site_fract_y
 _atom_site_fract_z
 _atom_site_occupancy
  Ta  Ta0  1  0.000659  0.506342  0.839902  1
  Ta  Ta1  1  0.505144  0.489564  0.338913  1
  Ta  Ta2  1  0.999341  0.006342  0.660098  1
  Ta  Ta3  1  0.494856  0.989564  0.161087  1
  Ta  Ta4  1  0.505144  0.010436  0.838913  1
  Ta  Ta5  1  0.000659  0.993658  0.339902  1
  Ta  Ta6  1  0.494856  0.510436  0.661087  1
  Ta  Ta7  1  0.999341  0.493658  0.160098  1
  Zn  Zn8  1  0.500000  0.000000  0.500000  1
  Zn  Zn9  1  0.000000  0.000000  0.000000  1
  Zn  Zn10  1  0.245124  0.989287  0.237300  1
  Zn  Zn11  1  0.754979  0.500134  0.593739  1
  Zn  Zn12  1  0.261900  0.501160  0.073819  1
  Zn  Zn13  1  0.738100  0.001160  0.426181  1
  Zn  Zn14  1  0.245021  0.000134  0.906261  1
  Zn  Zn15  1  0.754876  0.489287  0.262700  1
  Zn  Zn16  1  0.000000  0.500000  0.500000  1
  Zn  Zn17  1  0.245124  0.510713  0.737300  1
  Zn  Zn18  1  0.500000  0.500000  0.000000  1
  Zn  Zn19  1  0.754979  0.999866  0.093739  1
  Zn  Zn20  1  0.261900  0.998840  0.573819  1
  Zn  Zn21  1  0.738100  0.498840  0.926181  1
  Zn  Zn22  1  0.245021  0.499866  0.406261  1
  Zn  Zn23  1  0.754876  0.010713  0.762700  1
  O  O24  1  0.747619  0.386513  0.723434  1
  O  O25  1  0.911839  0.662187  0.909880  1
  O  O26  1  0.428099  0.179748  0.366590  1
  O  O27  1  0.577483  0.665420  0.463083  1
  O  O28  1  0.054239  0.180927  0.907225  1
  O  O29  1  0.263046  0.875149  0.114312  1
  O  O30  1  0.767314  0.128715  0.561569  1
  O  O31  1  0.939999  0.829872  0.753159  1
  O  O32  1  0.445505  0.328157  0.206543  1
  O  O33  1  0.554495  0.828157  0.293457  1
  O  O34  1  0.060001  0.329872  0.746841  1
  O  O35  1  0.232686  0.628715  0.938431  1
  O  O36  1  0.736954  0.375149  0.385688  1
  O  O37  1  0.945761  0.680927  0.592775  1
  O  O38  1  0.422517  0.165420  0.036917  1
  O  O39  1  0.571901  0.679748  0.133410  1
  O  O40  1  0.088161  0.162187  0.590120  1
  O  O41  1  0.252381  0.886513  0.776566  1
  O  O42  1  0.747619  0.113487  0.223434  1
  O  O43  1  0.911839  0.837813  0.409880  1
  O  O44  1  0.428099  0.320252  0.866590  1
  O  O45  1  0.577483  0.834580  0.963083  1
  O  O46  1  0.054239  0.319073  0.407225  1
  O  O47  1  0.263046  0.624851  0.614312  1
  O  O48  1  0.767314  0.371285  0.061569  1
  O  O49  1  0.939999  0.670128  0.253159  1
  O  O50  1  0.445505  0.171843  0.706543  1
  O  O51  1  0.554495  0.671843  0.793457  1
  O  O52  1  0.060001  0.170128  0.246841  1
  O  O53  1  0.232686  0.871285  0.438431  1
  O  O54  1  0.736954  0.124851  0.885688  1
  O  O55  1  0.945761  0.819073  0.092775  1
  O  O56  1  0.422517  0.334580  0.536917  1
  O  O57  1  0.571901  0.820252  0.633410  1
  O  O58  1  0.088161  0.337813  0.090120  1
  O  O59  1  0.252381  0.613487  0.276566  1
