# generated using pymatgen
data_Li5SbS
_symmetry_space_group_name_H-M   'P 1'
_cell_length_a   6.25573862
_cell_length_b   8.72463703
_cell_length_c   9.07324842
_cell_angle_alpha   90.00000000
_cell_angle_beta   91.46762657
_cell_angle_gamma   90.00000000
_symmetry_Int_Tables_number   1
_chemical_formula_structural   Li5SbS
_chemical_formula_sum   'Li20 Sb4 S4'
_cell_volume   495.04681789
_cell_formula_units_Z   4
loop_
 _symmetry_equiv_pos_site_id
 _symmetry_equiv_pos_as_xyz
  1  'x, y, z'
loop_
 _atom_site_type_symbol
 _atom_site_label
 _atom_site_symmetry_multiplicity
 _atom_site_fract_x
 _atom_site_fract_y
 _atom_site_fract_z
 _atom_site_occupancy
  Li  Li0  1  0.935467  0.747622  0.511184  1
  Li  Li1  1  0.227964  0.521710  0.004377  1
  Li  Li2  1  0.196061  0.295841  0.780300  1
  Li  Li3  1  0.283623  0.528485  0.526392  1
  Li  Li4  1  0.292857  0.255639  0.257192  1
  Li  Li5  1  0.276658  0.988058  0.494435  1
  Li  Li6  1  0.188486  0.750595  0.788370  1
  Li  Li7  1  0.279100  0.781056  0.264113  1
  Li  Li8  1  0.449921  0.027307  0.790017  1
  Li  Li9  1  0.229514  0.023295  0.038895  1
  Li  Li10  1  0.770486  0.523295  0.961105  1
  Li  Li11  1  0.550079  0.527307  0.209983  1
  Li  Li12  1  0.720900  0.281056  0.735887  1
  Li  Li13  1  0.811514  0.250595  0.211630  1
  Li  Li14  1  0.723342  0.488058  0.505565  1
  Li  Li15  1  0.707143  0.755639  0.742808  1
  Li  Li16  1  0.716377  0.028485  0.473608  1
  Li  Li17  1  0.803939  0.795841  0.219700  1
  Li  Li18  1  0.772036  0.021710  0.995623  1
  Li  Li19  1  0.064533  0.247622  0.488816  1
  Sb  Sb20  1  0.012250  0.518659  0.276132  1
  Sb  Sb21  1  0.502670  0.273589  0.998253  1
  Sb  Sb22  1  0.497330  0.773589  0.001747  1
  Sb  Sb23  1  0.987750  0.018659  0.723868  1
  S  S24  1  0.023391  0.024810  0.274594  1
  S  S25  1  0.472046  0.261836  0.510791  1
  S  S26  1  0.527954  0.761836  0.489209  1
  S  S27  1  0.976609  0.524810  0.725406  1
