# generated using pymatgen
data_Li3MnCr3O8
_symmetry_space_group_name_H-M   'P 1'
_cell_length_a   5.91056726
_cell_length_b   5.91056726
_cell_length_c   5.93094227
_cell_angle_alpha   60.32021674
_cell_angle_beta   119.67978326
_cell_angle_gamma   120.32169113
_symmetry_Int_Tables_number   1
_chemical_formula_structural   Li3MnCr3O8
_chemical_formula_sum   'Li3 Mn1 Cr3 O8'
_cell_volume   146.85041093
_cell_formula_units_Z   1
loop_
 _symmetry_equiv_pos_site_id
 _symmetry_equiv_pos_as_xyz
  1  'x, y, z'
loop_
 _atom_site_type_symbol
 _atom_site_label
 _atom_site_symmetry_multiplicity
 _atom_site_fract_x
 _atom_site_fract_y
 _atom_site_fract_z
 _atom_site_occupancy
  Li  Li0  1  0.500000  0.500000  0.000000  1
  Li  Li1  1  0.500000  0.000000  0.000000  1
  Li  Li2  1  0.000000  0.500000  0.000000  1
  Mn  Mn3  1  0.000000  0.000000  0.500000  1
  Cr  Cr4  1  0.500000  0.500000  0.500000  1
  Cr  Cr5  1  0.000000  0.500000  0.500000  1
  Cr  Cr6  1  0.500000  1.000000  0.500000  1
  O  O7  1  0.734929  0.265071  0.714900  1
  O  O8  1  0.743724  0.762532  0.713054  1
  O  O9  1  0.237468  0.256276  0.713054  1
  O  O10  1  0.763751  0.236249  0.277805  1
  O  O11  1  0.236249  0.763751  0.722195  1
  O  O12  1  0.762532  0.743724  0.286946  1
  O  O13  1  0.256276  0.237468  0.286946  1
  O  O14  1  0.265071  0.734929  0.285100  1
