# generated using pymatgen
data_LiV5O10
_symmetry_space_group_name_H-M   'P 1'
_cell_length_a   5.11187735
_cell_length_b   5.14822302
_cell_length_c   7.81421294
_cell_angle_alpha   74.17476173
_cell_angle_beta   74.87322093
_cell_angle_gamma   78.96812577
_symmetry_Int_Tables_number   1
_chemical_formula_structural   LiV5O10
_chemical_formula_sum   'Li1 V5 O10'
_cell_volume   189.39133103
_cell_formula_units_Z   1
loop_
 _symmetry_equiv_pos_site_id
 _symmetry_equiv_pos_as_xyz
  1  'x, y, z'
loop_
 _atom_site_type_symbol
 _atom_site_label
 _atom_site_symmetry_multiplicity
 _atom_site_fract_x
 _atom_site_fract_y
 _atom_site_fract_z
 _atom_site_occupancy
  Li  Li0  1  0.495878  0.294245  0.551654  1
  V  V1  1  0.037612  0.897186  0.681818  1
  V  V2  1  0.498898  0.991526  0.998865  1
  V  V3  1  0.985401  0.315515  0.886801  1
  V  V4  1  0.978424  0.653767  0.140269  1
  V  V5  1  0.999974  0.077267  0.318800  1
  O  O6  1  0.230780  0.980629  0.850014  1
  O  O7  1  0.788439  0.916722  0.518046  1
  O  O8  1  0.788394  0.661224  0.947932  1
  O  O9  1  0.246296  0.794443  0.214562  1
  O  O10  1  0.185713  0.533475  0.692037  1
  O  O11  1  0.796481  0.452592  0.330737  1
  O  O12  1  0.753436  0.186779  0.778272  1
  O  O13  1  0.201682  0.323893  0.067198  1
  O  O14  1  0.228148  0.099247  0.478575  1
  O  O15  1  0.789980  0.034842  0.126494  1
