# generated using pymatgen
data_K4Nb15O24
_symmetry_space_group_name_H-M   'P 1'
_cell_length_a   9.34231678
_cell_length_b   9.34231678
_cell_length_c   9.41493964
_cell_angle_alpha   66.47184614
_cell_angle_beta   113.52815386
_cell_angle_gamma   127.41509568
_symmetry_Int_Tables_number   1
_chemical_formula_structural   K4Nb15O24
_chemical_formula_sum   'K4 Nb15 O24'
_cell_volume   584.39039224
_cell_formula_units_Z   1
loop_
 _symmetry_equiv_pos_site_id
 _symmetry_equiv_pos_as_xyz
  1  'x, y, z'
loop_
 _atom_site_type_symbol
 _atom_site_label
 _atom_site_symmetry_multiplicity
 _atom_site_fract_x
 _atom_site_fract_y
 _atom_site_fract_z
 _atom_site_occupancy
  K  K0  1  0.000000  0.000000  0.000000  1
  K  K1  1  0.500000  0.500000  0.000000  1
  K  K2  1  0.747770  0.252230  0.997403  1
  K  K3  1  0.252230  0.747770  0.002597  1
  Nb  Nb4  1  0.825920  0.691579  0.768396  1
  Nb  Nb5  1  0.882938  0.630459  0.499708  1
  Nb  Nb6  1  0.936906  0.562432  0.249135  1
  Nb  Nb7  1  0.500000  0.500000  0.500000  1
  Nb  Nb8  1  0.747168  0.252832  0.499768  1
  Nb  Nb9  1  0.308421  0.174080  0.768396  1
  Nb  Nb10  1  0.562432  0.936906  0.750865  1
  Nb  Nb11  1  0.369541  0.117062  0.499708  1
  Nb  Nb12  1  0.630459  0.882938  0.500292  1
  Nb  Nb13  1  0.437568  0.063094  0.249135  1
  Nb  Nb14  1  0.691579  0.825920  0.231603  1
  Nb  Nb15  1  0.252832  0.747168  0.500232  1
  Nb  Nb16  1  0.063094  0.437568  0.750865  1
  Nb  Nb17  1  0.117062  0.369541  0.500292  1
  Nb  Nb18  1  0.174080  0.308421  0.231603  1
  O  O19  1  0.940219  0.566284  0.752453  1
  O  O20  1  0.813791  0.692374  0.247230  1
  O  O21  1  0.870311  0.620967  0.998986  1
  O  O22  1  0.563237  0.436763  0.753046  1
  O  O23  1  0.623778  0.376222  0.500042  1
  O  O24  1  0.812356  0.187644  0.753484  1
  O  O25  1  0.873917  0.126083  0.500106  1
  O  O26  1  0.685994  0.314006  0.247733  1
  O  O27  1  0.934985  0.065015  0.239960  1
  O  O28  1  0.379033  0.129689  0.998986  1
  O  O29  1  0.620967  0.870311  0.001014  1
  O  O30  1  0.433716  0.059781  0.752453  1
  O  O31  1  0.692374  0.813791  0.752770  1
  O  O32  1  0.307626  0.186209  0.247230  1
  O  O33  1  0.566284  0.940219  0.247547  1
  O  O34  1  0.187644  0.812356  0.246516  1
  O  O35  1  0.436763  0.563237  0.246954  1
  O  O36  1  0.065015  0.934985  0.760040  1
  O  O37  1  0.126083  0.873917  0.499894  1
  O  O38  1  0.314006  0.685994  0.752267  1
  O  O39  1  0.376222  0.623778  0.499958  1
  O  O40  1  0.059781  0.433716  0.247547  1
  O  O41  1  0.186209  0.307626  0.752770  1
  O  O42  1  0.129689  0.379033  0.001014  1
