# generated using pymatgen
data_Al4P3(HO5)3
_symmetry_space_group_name_H-M   'P 1'
_cell_length_a   10.27629135
_cell_length_b   10.27629135
_cell_length_c   7.24541663
_cell_angle_alpha   78.52463217
_cell_angle_beta   101.47536783
_cell_angle_gamma   138.90675699
_symmetry_Int_Tables_number   1
_chemical_formula_structural   Al4P3(HO5)3
_chemical_formula_sum   'Al8 P6 H6 O30'
_cell_volume   491.42883615
_cell_formula_units_Z   2
loop_
 _symmetry_equiv_pos_site_id
 _symmetry_equiv_pos_as_xyz
  1  'x, y, z'
loop_
 _atom_site_type_symbol
 _atom_site_label
 _atom_site_symmetry_multiplicity
 _atom_site_fract_x
 _atom_site_fract_y
 _atom_site_fract_z
 _atom_site_occupancy
  Al  Al0  1  0.825377  0.160261  0.151752  1
  Al  Al1  1  0.839739  0.174623  0.651752  1
  Al  Al2  1  0.174623  0.839739  0.848248  1
  Al  Al3  1  0.160261  0.825377  0.348248  1
  Al  Al4  1  0.195504  0.346604  0.340736  1
  Al  Al5  1  0.653396  0.804496  0.840736  1
  Al  Al6  1  0.804496  0.653396  0.659264  1
  Al  Al7  1  0.346604  0.195504  0.159264  1
  P  P8  1  0.882494  0.882494  0.250000  1
  P  P9  1  0.117506  0.117506  0.750000  1
  P  P10  1  0.198962  0.536614  0.911769  1
  P  P11  1  0.463386  0.801038  0.411769  1
  P  P12  1  0.801038  0.463386  0.088231  1
  P  P13  1  0.536614  0.198962  0.588231  1
  H  H14  1  0.497568  0.497568  0.250000  1
  H  H15  1  0.502432  0.502432  0.750000  1
  H  H16  1  0.590891  0.991333  0.888014  1
  H  H17  1  0.008667  0.409109  0.388014  1
  H  H18  1  0.409109  0.008667  0.111986  1
  H  H19  1  0.991333  0.590891  0.611986  1
  O  O20  1  0.947871  0.076711  0.258156  1
  O  O21  1  0.923289  0.052129  0.758156  1
  O  O22  1  0.052129  0.923289  0.741844  1
  O  O23  1  0.076711  0.947871  0.241844  1
  O  O24  1  0.740605  0.781682  0.076750  1
  O  O25  1  0.218318  0.259395  0.576750  1
  O  O26  1  0.259395  0.218318  0.923250  1
  O  O27  1  0.781682  0.740605  0.423250  1
  O  O28  1  0.225715  0.701975  0.928520  1
  O  O29  1  0.298025  0.774285  0.428520  1
  O  O30  1  0.774285  0.298025  0.071480  1
  O  O31  1  0.701975  0.225715  0.571480  1
  O  O32  1  0.398448  0.622938  0.897689  1
  O  O33  1  0.377062  0.601552  0.397689  1
  O  O34  1  0.601552  0.377062  0.102311  1
  O  O35  1  0.622938  0.398448  0.602311  1
  O  O36  1  0.103786  0.388303  0.094336  1
  O  O37  1  0.611697  0.896214  0.594336  1
  O  O38  1  0.896214  0.611697  0.905664  1
  O  O39  1  0.388303  0.103786  0.405664  1
  O  O40  1  0.053819  0.417350  0.742251  1
  O  O41  1  0.582650  0.946181  0.242251  1
  O  O42  1  0.946181  0.582650  0.257749  1
  O  O43  1  0.417350  0.053819  0.757749  1
  O  O44  1  0.361747  0.361747  0.250000  1
  O  O45  1  0.638253  0.638253  0.750000  1
  O  O46  1  0.719540  0.040168  0.907439  1
  O  O47  1  0.959832  0.280460  0.407439  1
  O  O48  1  0.280460  0.959832  0.092561  1
  O  O49  1  0.040168  0.719540  0.592561  1
