# generated using pymatgen
data_VOF2
_symmetry_space_group_name_H-M   'P 1'
_cell_length_a   5.18603190
_cell_length_b   5.38769281
_cell_length_c   11.85524556
_cell_angle_alpha   100.68823084
_cell_angle_beta   102.36084319
_cell_angle_gamma   90.68611188
_symmetry_Int_Tables_number   1
_chemical_formula_structural   VOF2
_chemical_formula_sum   'V6 O6 F12'
_cell_volume   317.49108647
_cell_formula_units_Z   6
loop_
 _symmetry_equiv_pos_site_id
 _symmetry_equiv_pos_as_xyz
  1  'x, y, z'
loop_
 _atom_site_type_symbol
 _atom_site_label
 _atom_site_symmetry_multiplicity
 _atom_site_fract_x
 _atom_site_fract_y
 _atom_site_fract_z
 _atom_site_occupancy
  V  V0  1  0.855277  0.811419  0.664064  1
  V  V1  1  0.696367  0.688816  0.335867  1
  V  V2  1  0.517831  0.527036  0.997438  1
  V  V3  1  0.355977  0.346686  0.668988  1
  V  V4  1  0.029845  0.024441  0.004116  1
  V  V5  1  0.184532  0.195095  0.330419  1
  O  O6  1  0.959432  0.887975  0.356836  1
  O  O7  1  0.617355  0.551799  0.689876  1
  O  O8  1  0.294447  0.222925  0.028916  1
  O  O9  1  0.692732  0.770218  0.976085  1
  O  O10  1  0.359791  0.438223  0.309160  1
  O  O11  1  0.094451  0.610769  0.641939  1
  F  F12  1  0.976963  0.090625  0.167122  1
  F  F13  1  0.885247  0.387108  0.371876  1
  F  F14  1  0.675198  0.557669  0.166895  1
  F  F15  1  0.652144  0.756440  0.499752  1
  F  F16  1  0.762044  0.264356  0.961325  1
  F  F17  1  0.427999  0.929877  0.292780  1
  F  F18  1  0.215002  0.718212  0.035302  1
  F  F19  1  0.557062  0.048446  0.696100  1
  F  F20  1  0.341982  0.228259  0.499329  1
  F  F21  1  0.315757  0.413517  0.833897  1
  F  F22  1  0.027565  0.115939  0.637646  1
  F  F23  1  0.005001  0.914149  0.834274  1
