# generated using pymatgen
data_LiVSi3O8
_symmetry_space_group_name_H-M   'P 1'
_cell_length_a   7.15354638
_cell_length_b   12.80143325
_cell_length_c   7.71339363
_cell_angle_alpha   90.00000000
_cell_angle_beta   117.97404067
_cell_angle_gamma   90.00000000
_symmetry_Int_Tables_number   1
_chemical_formula_structural   LiVSi3O8
_chemical_formula_sum   'Li4 V4 Si12 O32'
_cell_volume   623.82816865
_cell_formula_units_Z   4
loop_
 _symmetry_equiv_pos_site_id
 _symmetry_equiv_pos_as_xyz
  1  'x, y, z'
loop_
 _atom_site_type_symbol
 _atom_site_label
 _atom_site_symmetry_multiplicity
 _atom_site_fract_x
 _atom_site_fract_y
 _atom_site_fract_z
 _atom_site_occupancy
  Li  Li0  1  0.884594  0.178855  0.057541  1
  Li  Li1  1  0.884594  0.321145  0.557541  1
  Li  Li2  1  0.115406  0.678855  0.442459  1
  Li  Li3  1  0.115406  0.821145  0.942459  1
  V  V4  1  0.898598  0.031610  0.761627  1
  V  V5  1  0.101402  0.531610  0.738373  1
  V  V6  1  0.898598  0.468390  0.261627  1
  V  V7  1  0.101402  0.968390  0.238373  1
  Si  Si8  1  0.674196  0.843491  0.957340  1
  Si  Si9  1  0.227699  0.910427  0.623531  1
  Si  Si10  1  0.418231  0.121571  0.680801  1
  Si  Si11  1  0.674196  0.656509  0.457340  1
  Si  Si12  1  0.772301  0.410427  0.876469  1
  Si  Si13  1  0.581769  0.621571  0.819199  1
  Si  Si14  1  0.418231  0.378429  0.180801  1
  Si  Si15  1  0.227699  0.589573  0.123531  1
  Si  Si16  1  0.325804  0.343491  0.542660  1
  Si  Si17  1  0.772301  0.089573  0.376469  1
  Si  Si18  1  0.581769  0.878429  0.319199  1
  Si  Si19  1  0.325804  0.156509  0.042660  1
  O  O20  1  0.890234  0.429651  0.745835  1
  O  O21  1  0.639187  0.618416  0.639176  1
  O  O22  1  0.360813  0.118416  0.860824  1
  O  O23  1  0.109766  0.929651  0.754165  1
  O  O24  1  0.704307  0.716552  0.973232  1
  O  O25  1  0.908393  0.353065  0.088316  1
  O  O26  1  0.123022  0.094042  0.039837  1
  O  O27  1  0.876978  0.905958  0.960163  1
  O  O28  1  0.457646  0.855744  0.751776  1
  O  O29  1  0.673275  0.112528  0.782366  1
  O  O30  1  0.704542  0.518886  0.958844  1
  O  O31  1  0.295458  0.018886  0.541156  1
  O  O32  1  0.908393  0.146935  0.588316  1
  O  O33  1  0.704307  0.783448  0.473232  1
  O  O34  1  0.326725  0.612528  0.717634  1
  O  O35  1  0.542354  0.355744  0.748224  1
  O  O36  1  0.876978  0.594042  0.460163  1
  O  O37  1  0.123022  0.405958  0.539837  1
  O  O38  1  0.673275  0.387472  0.282366  1
  O  O39  1  0.457646  0.644256  0.251776  1
  O  O40  1  0.295693  0.216552  0.526768  1
  O  O41  1  0.091607  0.853065  0.411684  1
  O  O42  1  0.704542  0.981114  0.458844  1
  O  O43  1  0.295458  0.481114  0.041156  1
  O  O44  1  0.542354  0.144256  0.248224  1
  O  O45  1  0.326725  0.887472  0.217634  1
  O  O46  1  0.295693  0.283448  0.026768  1
  O  O47  1  0.091607  0.646935  0.911684  1
  O  O48  1  0.890234  0.070349  0.245835  1
  O  O49  1  0.639187  0.881584  0.139176  1
  O  O50  1  0.360813  0.381584  0.360824  1
  O  O51  1  0.109766  0.570349  0.254165  1
