# generated using pymatgen
data_Nb2O5
_symmetry_space_group_name_H-M   'P 1'
_cell_length_a   5.34330624
_cell_length_b   9.70188401
_cell_length_c   9.97851792
_cell_angle_alpha   90.00000000
_cell_angle_beta   90.00000000
_cell_angle_gamma   90.00000000
_symmetry_Int_Tables_number   1
_chemical_formula_structural   Nb2O5
_chemical_formula_sum   'Nb8 O20'
_cell_volume   517.28773973
_cell_formula_units_Z   4
loop_
 _symmetry_equiv_pos_site_id
 _symmetry_equiv_pos_as_xyz
  1  'x, y, z'
loop_
 _atom_site_type_symbol
 _atom_site_label
 _atom_site_symmetry_multiplicity
 _atom_site_fract_x
 _atom_site_fract_y
 _atom_site_fract_z
 _atom_site_occupancy
  Nb  Nb0  1  0.886545  0.030666  0.716788  1
  Nb  Nb1  1  0.618840  0.345401  0.597885  1
  Nb  Nb2  1  0.118840  0.154599  0.402115  1
  Nb  Nb3  1  0.386545  0.469334  0.283212  1
  Nb  Nb4  1  0.613455  0.969334  0.216788  1
  Nb  Nb5  1  0.881160  0.654599  0.097885  1
  Nb  Nb6  1  0.381160  0.845401  0.902115  1
  Nb  Nb7  1  0.113455  0.530666  0.783212  1
  O  O8  1  0.772683  0.213712  0.732903  1
  O  O9  1  0.636248  0.904144  0.761993  1
  O  O10  1  0.834629  0.501987  0.674828  1
  O  O11  1  0.392373  0.205298  0.527621  1
  O  O12  1  0.974613  0.017791  0.534246  1
  O  O13  1  0.474613  0.482209  0.465754  1
  O  O14  1  0.892373  0.294702  0.472379  1
  O  O15  1  0.334629  0.998013  0.325172  1
  O  O16  1  0.136248  0.595856  0.238007  1
  O  O17  1  0.272683  0.286288  0.267097  1
  O  O18  1  0.727317  0.786288  0.232903  1
  O  O19  1  0.863752  0.095856  0.261993  1
  O  O20  1  0.665371  0.498013  0.174828  1
  O  O21  1  0.107627  0.794702  0.027621  1
  O  O22  1  0.525387  0.982209  0.034246  1
  O  O23  1  0.025387  0.517791  0.965754  1
  O  O24  1  0.607627  0.705298  0.972379  1
  O  O25  1  0.165371  0.001987  0.825172  1
  O  O26  1  0.363752  0.404144  0.738007  1
  O  O27  1  0.227317  0.713712  0.767097  1
