# generated using pymatgen
data_K4SnO4
_symmetry_space_group_name_H-M   'P 1'
_cell_length_a   6.60067759
_cell_length_b   6.60885514
_cell_length_c   9.91430424
_cell_angle_alpha   80.24692453
_cell_angle_beta   71.67501167
_cell_angle_gamma   67.32549349
_symmetry_Int_Tables_number   1
_chemical_formula_structural   K4SnO4
_chemical_formula_sum   'K8 Sn2 O8'
_cell_volume   378.25244016
_cell_formula_units_Z   2
loop_
 _symmetry_equiv_pos_site_id
 _symmetry_equiv_pos_as_xyz
  1  'x, y, z'
loop_
 _atom_site_type_symbol
 _atom_site_label
 _atom_site_symmetry_multiplicity
 _atom_site_fract_x
 _atom_site_fract_y
 _atom_site_fract_z
 _atom_site_occupancy
  K  K0  1  0.596043  0.239000  0.170915  1
  K  K1  1  0.403957  0.761000  0.829085  1
  K  K2  1  0.515644  0.769556  0.438267  1
  K  K3  1  0.484356  0.230444  0.561733  1
  K  K4  1  0.238089  0.256722  0.979365  1
  K  K5  1  0.761911  0.743278  0.020635  1
  K  K6  1  0.956634  0.729202  0.611230  1
  K  K7  1  0.043366  0.270798  0.388770  1
  Sn  Sn8  1  0.844493  0.222774  0.754356  1
  Sn  Sn9  1  0.155507  0.777226  0.245644  1
  O  O10  1  0.703653  0.468002  0.623934  1
  O  O11  1  0.296347  0.531998  0.376066  1
  O  O12  1  0.157198  0.036931  0.644728  1
  O  O13  1  0.842802  0.963069  0.355272  1
  O  O14  1  0.651107  0.034939  0.806761  1
  O  O15  1  0.348893  0.965061  0.193239  1
  O  O16  1  0.844654  0.361068  0.917502  1
  O  O17  1  0.155346  0.638932  0.082498  1
