# generated using pymatgen
data_Ba2CaI6
_symmetry_space_group_name_H-M   'P 1'
_cell_length_a   7.89828300
_cell_length_b   7.89828300
_cell_length_c   15.32772300
_cell_angle_alpha   90.00000000
_cell_angle_beta   90.00000000
_cell_angle_gamma   90.00000000
_symmetry_Int_Tables_number   1
_chemical_formula_structural   Ba2CaI6
_chemical_formula_sum   'Ba4 Ca2 I12'
_cell_volume   956.18741795
_cell_formula_units_Z   2
loop_
 _symmetry_equiv_pos_site_id
 _symmetry_equiv_pos_as_xyz
  1  'x, y, z'
loop_
 _atom_site_type_symbol
 _atom_site_label
 _atom_site_symmetry_multiplicity
 _atom_site_fract_x
 _atom_site_fract_y
 _atom_site_fract_z
 _atom_site_occupancy
  Ba  Ba0  1  0.000000  0.000000  0.334321  1
  Ba  Ba1  1  0.000000  0.000000  0.665679  1
  Ba  Ba2  1  0.500000  0.500000  0.165679  1
  Ba  Ba3  1  0.500000  0.500000  0.834321  1
  Ca  Ca4  1  0.000000  0.000000  0.000000  1
  Ca  Ca5  1  0.500000  0.500000  0.500000  1
  I  I6  1  0.188712  0.811288  0.154556  1
  I  I7  1  0.188712  0.811288  0.845444  1
  I  I8  1  0.213276  0.786724  0.500000  1
  I  I9  1  0.286724  0.286724  0.000000  1
  I  I10  1  0.311288  0.311288  0.345444  1
  I  I11  1  0.311288  0.311288  0.654556  1
  I  I12  1  0.688712  0.688712  0.345444  1
  I  I13  1  0.688712  0.688712  0.654556  1
  I  I14  1  0.713276  0.713276  0.000000  1
  I  I15  1  0.786724  0.213276  0.500000  1
  I  I16  1  0.811288  0.188712  0.154556  1
  I  I17  1  0.811288  0.188712  0.845444  1
