# generated using pymatgen
data_FeP4O11
_symmetry_space_group_name_H-M   'P 1'
_cell_length_a   8.34361533
_cell_length_b   12.51945807
_cell_length_c   11.41899341
_cell_angle_alpha   90.00000000
_cell_angle_beta   131.17615351
_cell_angle_gamma   90.00000000
_symmetry_Int_Tables_number   1
_chemical_formula_structural   FeP4O11
_chemical_formula_sum   'Fe4 P16 O44'
_cell_volume   897.80741770
_cell_formula_units_Z   4
loop_
 _symmetry_equiv_pos_site_id
 _symmetry_equiv_pos_as_xyz
  1  'x, y, z'
loop_
 _atom_site_type_symbol
 _atom_site_label
 _atom_site_symmetry_multiplicity
 _atom_site_fract_x
 _atom_site_fract_y
 _atom_site_fract_z
 _atom_site_occupancy
  Fe  Fe0  1  0.492759  0.469363  0.263012  1
  Fe  Fe1  1  0.507241  0.969363  0.236988  1
  Fe  Fe2  1  0.492759  0.030637  0.763012  1
  Fe  Fe3  1  0.507241  0.530637  0.736988  1
  P  P4  1  0.501616  0.212171  0.399274  1
  P  P5  1  0.850281  0.165307  0.733380  1
  P  P6  1  0.842204  0.496169  0.660572  1
  P  P7  1  0.849731  0.847241  0.600361  1
  P  P8  1  0.150269  0.347241  0.899639  1
  P  P9  1  0.157796  0.996169  0.839428  1
  P  P10  1  0.498384  0.712171  0.100726  1
  P  P11  1  0.149719  0.665307  0.766620  1
  P  P12  1  0.850281  0.334693  0.233380  1
  P  P13  1  0.501616  0.287829  0.899274  1
  P  P14  1  0.842204  0.003831  0.160572  1
  P  P15  1  0.849731  0.652759  0.100361  1
  P  P16  1  0.150269  0.152759  0.399639  1
  P  P17  1  0.157796  0.503831  0.339428  1
  P  P18  1  0.149719  0.834693  0.266620  1
  P  P19  1  0.498384  0.787829  0.600726  1
  O  O20  1  0.276272  0.897669  0.245302  1
  O  O21  1  0.713081  0.468462  0.703104  1
  O  O22  1  0.667837  0.780857  0.572993  1
  O  O23  1  0.501381  0.102430  0.349341  1
  O  O24  1  0.469132  0.309738  0.312938  1
  O  O25  1  0.213534  0.416155  0.028028  1
  O  O26  1  0.722627  0.233204  0.578842  1
  O  O27  1  0.989814  0.254841  0.865437  1
  O  O28  1  0.967083  0.905363  0.761755  1
  O  O29  1  0.987632  0.600752  0.767545  1
  O  O30  1  0.755397  0.513622  0.499356  1
  O  O31  1  0.244603  0.013622  0.000644  1
  O  O32  1  0.012368  0.100752  0.732455  1
  O  O33  1  0.786466  0.916155  0.471972  1
  O  O34  1  0.530868  0.809738  0.187062  1
  O  O35  1  0.032917  0.405363  0.738245  1
  O  O36  1  0.498619  0.602430  0.150659  1
  O  O37  1  0.010186  0.754841  0.634563  1
  O  O38  1  0.277373  0.733204  0.921158  1
  O  O39  1  0.332163  0.280857  0.927007  1
  O  O40  1  0.723728  0.397669  0.254698  1
  O  O41  1  0.713081  0.031538  0.203104  1
  O  O42  1  0.286919  0.968462  0.796896  1
  O  O43  1  0.276272  0.602331  0.745302  1
  O  O44  1  0.667837  0.719143  0.072993  1
  O  O45  1  0.722627  0.266796  0.078842  1
  O  O46  1  0.989814  0.245159  0.365437  1
  O  O47  1  0.501381  0.397570  0.849341  1
  O  O48  1  0.967083  0.594637  0.261755  1
  O  O49  1  0.469132  0.190262  0.812938  1
  O  O50  1  0.213534  0.083845  0.528028  1
  O  O51  1  0.987632  0.899248  0.267545  1
  O  O52  1  0.755397  0.986378  0.999356  1
  O  O53  1  0.244603  0.486378  0.500644  1
  O  O54  1  0.012368  0.399248  0.232455  1
  O  O55  1  0.032917  0.094637  0.238245  1
  O  O56  1  0.010186  0.745159  0.134563  1
  O  O57  1  0.277373  0.766796  0.421158  1
  O  O58  1  0.786466  0.583845  0.971972  1
  O  O59  1  0.530868  0.690262  0.687062  1
  O  O60  1  0.498619  0.897570  0.650659  1
  O  O61  1  0.332163  0.219143  0.427007  1
  O  O62  1  0.286919  0.531538  0.296896  1
  O  O63  1  0.723728  0.102331  0.754698  1
