# generated using pymatgen
data_Li2MnFe(BO3)2
_symmetry_space_group_name_H-M   'P 1'
_cell_length_a   8.26731838
_cell_length_b   3.16491290
_cell_length_c   16.50204956
_cell_angle_alpha   90.00000000
_cell_angle_beta   120.09756313
_cell_angle_gamma   90.00000000
_symmetry_Int_Tables_number   1
_chemical_formula_structural   Li2MnFe(BO3)2
_chemical_formula_sum   'Li6 Mn3 Fe3 B6 O18'
_cell_volume   373.56583009
_cell_formula_units_Z   3
loop_
 _symmetry_equiv_pos_site_id
 _symmetry_equiv_pos_as_xyz
  1  'x, y, z'
loop_
 _atom_site_type_symbol
 _atom_site_label
 _atom_site_symmetry_multiplicity
 _atom_site_fract_x
 _atom_site_fract_y
 _atom_site_fract_z
 _atom_site_occupancy
  Li  Li0  1  0.697980  0.500000  0.989965  1
  Li  Li1  1  0.018455  0.500000  0.358450  1
  Li  Li2  1  0.285831  0.500000  0.650816  1
  Li  Li3  1  0.698942  0.500000  0.491875  1
  Li  Li4  1  0.016638  0.500000  0.857609  1
  Li  Li5  1  0.284022  0.500000  0.149970  1
  Mn  Mn6  1  0.987835  0.000000  0.180077  1
  Mn  Mn7  1  0.639950  0.000000  0.314117  1
  Mn  Mn8  1  0.987711  0.000000  0.679987  1
  Fe  Fe9  1  0.366741  0.000000  0.504284  1
  Fe  Fe10  1  0.640099  0.000000  0.816172  1
  Fe  Fe11  1  0.368317  0.000000  0.003861  1
  B  B12  1  0.663562  0.500000  0.666383  1
  B  B13  1  0.002221  0.000000  0.999759  1
  B  B14  1  0.333264  0.500000  0.334453  1
  B  B15  1  0.664530  0.500000  0.165061  1
  B  B16  1  0.002223  0.000000  0.500928  1
  B  B17  1  0.334991  0.500000  0.834314  1
  O  O18  1  0.419849  0.500000  0.431686  1
  O  O19  1  0.744105  0.500000  0.763569  1
  O  O20  1  0.470257  0.500000  0.608847  1
  O  O21  1  0.139707  0.500000  0.280527  1
  O  O22  1  0.807627  0.000000  0.957917  1
  O  O23  1  0.776630  0.500000  0.124124  1
  O  O24  1  0.443887  0.500000  0.791726  1
  O  O25  1  0.083021  0.000000  0.444075  1
  O  O26  1  0.116444  0.000000  0.597770  1
  O  O27  1  0.420349  0.500000  0.931501  1
  O  O28  1  0.748100  0.500000  0.262468  1
  O  O29  1  0.470962  0.500000  0.109018  1
  O  O30  1  0.141588  0.500000  0.780231  1
  O  O31  1  0.808488  0.000000  0.460748  1
  O  O32  1  0.777156  0.500000  0.626149  1
  O  O33  1  0.440007  0.500000  0.290939  1
  O  O34  1  0.084855  0.000000  0.943999  1
  O  O35  1  0.113654  0.000000  0.096628  1
