# generated using pymatgen
data_LiCoBO3
_symmetry_space_group_name_H-M   'P 1'
_cell_length_a   5.16072725
_cell_length_b   5.16072725
_cell_length_c   10.34376083
_cell_angle_alpha   89.61345118
_cell_angle_beta   90.38654882
_cell_angle_gamma   60.16072108
_symmetry_Int_Tables_number   1
_chemical_formula_structural   LiCoBO3
_chemical_formula_sum   'Li4 Co4 B4 O12'
_cell_volume   238.94208412
_cell_formula_units_Z   4
loop_
 _symmetry_equiv_pos_site_id
 _symmetry_equiv_pos_as_xyz
  1  'x, y, z'
loop_
 _atom_site_type_symbol
 _atom_site_label
 _atom_site_symmetry_multiplicity
 _atom_site_fract_x
 _atom_site_fract_y
 _atom_site_fract_z
 _atom_site_occupancy
  Li  Li0  1  0.843383  0.169304  0.335872  1
  Li  Li1  1  0.830696  0.156617  0.835872  1
  Li  Li2  1  0.161293  0.835787  0.087029  1
  Li  Li3  1  0.164213  0.838707  0.587029  1
  Co  Co4  1  0.827447  0.503272  0.605427  1
  Co  Co5  1  0.502302  0.827695  0.856407  1
  Co  Co6  1  0.496728  0.172553  0.105427  1
  Co  Co7  1  0.172305  0.497698  0.356407  1
  B  B8  1  0.833079  0.502631  0.127380  1
  B  B9  1  0.501148  0.835590  0.377525  1
  B  B10  1  0.497369  0.166921  0.627380  1
  B  B11  1  0.164410  0.498852  0.877525  1
  O  O12  1  0.914180  0.482250  0.844388  1
  O  O13  1  0.766287  0.563998  0.405070  1
  O  O14  1  0.842624  0.230791  0.141281  1
  O  O15  1  0.572742  0.759065  0.091913  1
  O  O16  1  0.484374  0.905478  0.655580  1
  O  O17  1  0.769209  0.157376  0.641281  1
  O  O18  1  0.229745  0.844183  0.390280  1
  O  O19  1  0.517750  0.085820  0.344388  1
  O  O20  1  0.436002  0.233713  0.905070  1
  O  O21  1  0.155817  0.770255  0.890280  1
  O  O22  1  0.240935  0.427258  0.591913  1
  O  O23  1  0.094522  0.515626  0.155580  1
