# generated using pymatgen
data_LiMn2O3F
_symmetry_space_group_name_H-M   'P 1'
_cell_length_a   5.36059043
_cell_length_b   5.96438193
_cell_length_c   10.58719513
_cell_angle_alpha   90.00000000
_cell_angle_beta   91.24986238
_cell_angle_gamma   90.00000000
_symmetry_Int_Tables_number   1
_chemical_formula_structural   LiMn2O3F
_chemical_formula_sum   'Li4 Mn8 O12 F4'
_cell_volume   338.41971115
_cell_formula_units_Z   4
loop_
 _symmetry_equiv_pos_site_id
 _symmetry_equiv_pos_as_xyz
  1  'x, y, z'
loop_
 _atom_site_type_symbol
 _atom_site_label
 _atom_site_symmetry_multiplicity
 _atom_site_fract_x
 _atom_site_fract_y
 _atom_site_fract_z
 _atom_site_occupancy
  Li  Li0  1  0.572017  0.056805  0.232898  1
  Li  Li1  1  0.122377  0.550595  0.264147  1
  Li  Li2  1  0.877623  0.050595  0.735853  1
  Li  Li3  1  0.427983  0.556805  0.767102  1
  Mn  Mn4  1  0.514326  0.497614  0.492373  1
  Mn  Mn5  1  0.001518  0.247698  0.494183  1
  Mn  Mn6  1  0.998482  0.747698  0.505817  1
  Mn  Mn7  1  0.485674  0.997614  0.507627  1
  Mn  Mn8  1  0.494904  0.989173  0.981546  1
  Mn  Mn9  1  0.010809  0.235277  0.004825  1
  Mn  Mn10  1  0.989191  0.735277  0.995175  1
  Mn  Mn11  1  0.505096  0.489173  0.018454  1
  O  O12  1  0.317286  0.743423  0.416854  1
  O  O13  1  0.326769  0.251113  0.410427  1
  O  O14  1  0.882454  0.503366  0.402105  1
  O  O15  1  0.117546  0.003366  0.597895  1
  O  O16  1  0.682714  0.243423  0.583146  1
  O  O17  1  0.673231  0.751113  0.589573  1
  O  O18  1  0.613480  0.721601  0.902486  1
  O  O19  1  0.155180  0.983043  0.908210  1
  O  O20  1  0.187176  0.489314  0.922524  1
  O  O21  1  0.812824  0.989314  0.077476  1
  O  O22  1  0.844820  0.483043  0.091790  1
  O  O23  1  0.386520  0.221601  0.097514  1
  F  F24  1  0.800399  0.999859  0.367294  1
  F  F25  1  0.199601  0.499859  0.632706  1
  F  F26  1  0.680435  0.231120  0.859204  1
  F  F27  1  0.319565  0.731120  0.140796  1
