# generated using pymatgen
data_NdTa3O9
_symmetry_space_group_name_H-M   'P 1'
_cell_length_a   5.58032795
_cell_length_b   8.82627633
_cell_length_c   8.88446829
_cell_angle_alpha   101.50670879
_cell_angle_beta   108.26454430
_cell_angle_gamma   108.40072629
_symmetry_Int_Tables_number   1
_chemical_formula_structural   NdTa3O9
_chemical_formula_sum   'Nd2 Ta6 O18'
_cell_volume   372.04851063
_cell_formula_units_Z   2
loop_
 _symmetry_equiv_pos_site_id
 _symmetry_equiv_pos_as_xyz
  1  'x, y, z'
loop_
 _atom_site_type_symbol
 _atom_site_label
 _atom_site_symmetry_multiplicity
 _atom_site_fract_x
 _atom_site_fract_y
 _atom_site_fract_z
 _atom_site_occupancy
  Nd  Nd0  1  0.326222  0.663086  0.002339  1
  Nd  Nd1  1  0.673778  0.336914  0.997661  1
  Ta  Ta2  1  0.333721  0.917927  0.750297  1
  Ta  Ta3  1  0.012063  0.762075  0.264362  1
  Ta  Ta4  1  0.334773  0.412641  0.258582  1
  Ta  Ta5  1  0.666279  0.082073  0.249703  1
  Ta  Ta6  1  0.987937  0.237925  0.735638  1
  Ta  Ta7  1  0.665227  0.587359  0.741418  1
  O  O8  1  0.325916  0.905060  0.232582  1
  O  O9  1  0.500000  0.000000  0.000000  1
  O  O10  1  0.801221  0.899744  0.230206  1
  O  O11  1  0.019474  0.750726  0.769179  1
  O  O12  1  0.500000  0.500000  0.500000  1
  O  O13  1  0.167202  0.834415  0.503226  1
  O  O14  1  0.648764  0.573679  0.219261  1
  O  O15  1  0.838202  0.650997  0.000288  1
  O  O16  1  0.161798  0.349003  0.999712  1
  O  O17  1  0.854170  0.425945  0.772905  1
  O  O18  1  0.504978  0.253595  0.231311  1
  O  O19  1  0.495022  0.746405  0.768689  1
  O  O20  1  0.145830  0.574055  0.227095  1
  O  O21  1  0.832798  0.165585  0.496774  1
  O  O22  1  0.980526  0.249274  0.230821  1
  O  O23  1  0.351236  0.426321  0.780739  1
  O  O24  1  0.198779  0.100256  0.769794  1
  O  O25  1  0.674084  0.094940  0.767418  1
