# generated using pymatgen
data_LiVO2
_symmetry_space_group_name_H-M   'P 1'
_cell_length_a   5.99863659
_cell_length_b   5.99863659
_cell_length_c   5.99863659
_cell_angle_alpha   120.32975318
_cell_angle_beta   116.34490865
_cell_angle_gamma   92.93771670
_symmetry_Int_Tables_number   1
_chemical_formula_structural   LiVO2
_chemical_formula_sum   'Li4 V4 O8'
_cell_volume   156.02255421
_cell_formula_units_Z   4
loop_
 _symmetry_equiv_pos_site_id
 _symmetry_equiv_pos_as_xyz
  1  'x, y, z'
loop_
 _atom_site_type_symbol
 _atom_site_label
 _atom_site_symmetry_multiplicity
 _atom_site_fract_x
 _atom_site_fract_y
 _atom_site_fract_z
 _atom_site_occupancy
  Li  Li0  1  0.944641  0.194641  0.250000  1
  Li  Li1  1  0.000000  0.000000  0.500000  1
  Li  Li2  1  0.500000  0.000000  0.000000  1
  Li  Li3  1  0.055359  0.805359  0.750000  1
  V  V4  1  0.000000  0.500000  0.000000  1
  V  V5  1  0.500000  0.500000  0.000000  1
  V  V6  1  0.500000  0.000000  0.500000  1
  V  V7  1  0.500000  0.500000  0.500000  1
  O  O8  1  0.752029  0.264249  0.512220  1
  O  O9  1  0.752029  0.739809  0.987780  1
  O  O10  1  0.288110  0.255183  0.532927  1
  O  O11  1  0.722257  0.255183  0.967073  1
  O  O12  1  0.711890  0.744817  0.467073  1
  O  O13  1  0.277743  0.744817  0.032927  1
  O  O14  1  0.247971  0.260191  0.012220  1
  O  O15  1  0.247971  0.735751  0.487780  1
