# generated using pymatgen
data_Li3TiMn3O8
_symmetry_space_group_name_H-M   'P 1'
_cell_length_a   5.87327004
_cell_length_b   5.87327004
_cell_length_c   9.67673654
_cell_angle_alpha   87.65822367
_cell_angle_beta   92.34177633
_cell_angle_gamma   61.93721684
_symmetry_Int_Tables_number   1
_chemical_formula_structural   Li3TiMn3O8
_chemical_formula_sum   'Li6 Ti2 Mn6 O16'
_cell_volume   293.62759127
_cell_formula_units_Z   2
loop_
 _symmetry_equiv_pos_site_id
 _symmetry_equiv_pos_as_xyz
  1  'x, y, z'
loop_
 _atom_site_type_symbol
 _atom_site_label
 _atom_site_symmetry_multiplicity
 _atom_site_fract_x
 _atom_site_fract_y
 _atom_site_fract_z
 _atom_site_occupancy
  Li  Li0  1  0.832144  0.351892  0.551582  1
  Li  Li1  1  0.347953  0.828661  0.562291  1
  Li  Li2  1  0.823560  0.827978  0.558415  1
  Li  Li3  1  0.172022  0.176440  0.058415  1
  Li  Li4  1  0.648108  0.167856  0.051582  1
  Li  Li5  1  0.171339  0.652047  0.062291  1
  Ti  Ti6  1  0.674225  0.644732  0.002398  1
  Ti  Ti7  1  0.355268  0.325775  0.502398  1
  Mn  Mn8  1  0.830032  0.339313  0.281223  1
  Mn  Mn9  1  0.340843  0.831236  0.287225  1
  Mn  Mn10  1  0.835740  0.831259  0.287053  1
  Mn  Mn11  1  0.168741  0.164260  0.787053  1
  Mn  Mn12  1  0.660687  0.169968  0.781223  1
  Mn  Mn13  1  0.168764  0.659157  0.787225  1
  O  O14  1  0.012408  0.975528  0.175552  1
  O  O15  1  0.024472  0.987592  0.675552  1
  O  O16  1  0.806396  0.337872  0.908542  1
  O  O17  1  0.530835  0.493563  0.149840  1
  O  O18  1  0.963614  0.500427  0.148367  1
  O  O19  1  0.661875  0.692715  0.403606  1
  O  O20  1  0.316216  0.832449  0.910057  1
  O  O21  1  0.520117  0.953760  0.158023  1
  O  O22  1  0.148131  0.198767  0.410963  1
  O  O23  1  0.801233  0.851869  0.910963  1
  O  O24  1  0.499573  0.036386  0.648367  1
  O  O25  1  0.307285  0.338125  0.903606  1
  O  O26  1  0.046240  0.479883  0.658023  1
  O  O27  1  0.662128  0.193604  0.408542  1
  O  O28  1  0.506437  0.469165  0.649840  1
  O  O29  1  0.167551  0.683784  0.410057  1
