# generated using pymatgen
data_CsLiH4SO5
_symmetry_space_group_name_H-M   'P 1'
_cell_length_a   6.71011798
_cell_length_b   6.71011798
_cell_length_c   4.81221922
_cell_angle_alpha   72.86935121
_cell_angle_beta   107.13064879
_cell_angle_gamma   129.35178489
_symmetry_Int_Tables_number   1
_chemical_formula_structural   CsLiH4SO5
_chemical_formula_sum   'Cs1 Li1 H4 S1 O5'
_cell_volume   158.40113716
_cell_formula_units_Z   1
loop_
 _symmetry_equiv_pos_site_id
 _symmetry_equiv_pos_as_xyz
  1  'x, y, z'
loop_
 _atom_site_type_symbol
 _atom_site_label
 _atom_site_symmetry_multiplicity
 _atom_site_fract_x
 _atom_site_fract_y
 _atom_site_fract_z
 _atom_site_occupancy
  Cs  Cs0  1  0.999628  0.000372  0.999875  1
  Li  Li1  1  0.323098  0.676902  0.370509  1
  H  H2  1  0.100289  0.629707  0.766677  1
  H  H3  1  0.370293  0.899711  0.766677  1
  H  H4  1  0.541619  0.458381  0.444326  1
  H  H5  1  0.542034  0.457966  0.780616  1
  S  S6  1  0.740845  0.259155  0.274043  1
  O  O7  1  0.490839  0.509161  0.570548  1
  O  O8  1  0.991187  0.438471  0.128550  1
  O  O9  1  0.561529  0.008813  0.128550  1
  O  O10  1  0.224235  0.775765  0.630739  1
  O  O11  1  0.605385  0.394615  0.162588  1
