# generated using pymatgen
data_Li4V5SnO12
_symmetry_space_group_name_H-M   'P 1'
_cell_length_a   5.23737105
_cell_length_b   5.23737105
_cell_length_c   10.28645122
_cell_angle_alpha   89.75724090
_cell_angle_beta   90.24275910
_cell_angle_gamma   60.51998582
_symmetry_Int_Tables_number   1
_chemical_formula_structural   Li4V5SnO12
_chemical_formula_sum   'Li4 V5 Sn1 O12'
_cell_volume   245.61752796
_cell_formula_units_Z   1
loop_
 _symmetry_equiv_pos_site_id
 _symmetry_equiv_pos_as_xyz
  1  'x, y, z'
loop_
 _atom_site_type_symbol
 _atom_site_label
 _atom_site_symmetry_multiplicity
 _atom_site_fract_x
 _atom_site_fract_y
 _atom_site_fract_z
 _atom_site_occupancy
  Li  Li0  1  0.364006  0.154394  0.253009  1
  Li  Li1  1  0.154394  0.364006  0.746991  1
  Li  Li2  1  0.845606  0.635994  0.253009  1
  Li  Li3  1  0.635994  0.845606  0.746991  1
  V  V4  1  0.157403  0.157403  0.500000  1
  V  V5  1  0.336443  0.336443  0.000000  1
  V  V6  1  0.663557  0.663557  0.000000  1
  V  V7  1  0.842597  0.842597  0.500000  1
  V  V8  1  0.500000  0.500000  0.500000  1
  Sn  Sn9  1  0.000000  0.000000  0.000000  1
  O  O10  1  0.335139  0.016180  0.889936  1
  O  O11  1  0.016180  0.335139  0.110064  1
  O  O12  1  0.494972  0.156613  0.603846  1
  O  O13  1  0.156613  0.494972  0.396154  1
  O  O14  1  0.824863  0.175137  0.398620  1
  O  O15  1  0.662185  0.337815  0.898604  1
  O  O16  1  0.337815  0.662185  0.101396  1
  O  O17  1  0.175137  0.824863  0.601380  1
  O  O18  1  0.843387  0.505028  0.603846  1
  O  O19  1  0.505028  0.843387  0.396154  1
  O  O20  1  0.983820  0.664861  0.889936  1
  O  O21  1  0.664861  0.983820  0.110064  1
