# generated using pymatgen
data_Li24Ti7Cr5O36
_symmetry_space_group_name_H-M   'P 1'
_cell_length_a   5.08396469
_cell_length_b   9.80677905
_cell_length_c   13.38236543
_cell_angle_alpha   97.04844346
_cell_angle_beta   100.71444559
_cell_angle_gamma   95.05397790
_symmetry_Int_Tables_number   1
_chemical_formula_structural   Li24Ti7Cr5O36
_chemical_formula_sum   'Li24 Ti7 Cr5 O36'
_cell_volume   646.40055170
_cell_formula_units_Z   1
loop_
 _symmetry_equiv_pos_site_id
 _symmetry_equiv_pos_as_xyz
  1  'x, y, z'
loop_
 _atom_site_type_symbol
 _atom_site_label
 _atom_site_symmetry_multiplicity
 _atom_site_fract_x
 _atom_site_fract_y
 _atom_site_fract_z
 _atom_site_occupancy
  Li  Li0  1  0.161284  0.000135  0.834976  1
  Li  Li1  1  0.050562  0.000817  0.611469  1
  Li  Li2  1  0.000187  0.749897  0.250314  1
  Li  Li3  1  0.332842  0.750010  0.915692  1
  Li  Li4  1  0.048470  0.500128  0.112770  1
  Li  Li5  1  0.381903  0.497379  0.779332  1
  Li  Li6  1  0.163285  0.500723  0.334803  1
  Li  Li7  1  0.500490  0.499549  0.000078  1
  Li  Li8  1  0.288590  0.499938  0.552324  1
  Li  Li9  1  0.332977  0.249858  0.416418  1
  Li  Li10  1  0.493179  0.000637  0.502199  1
  Li  Li11  1  0.286977  0.001111  0.053588  1
  Li  Li12  1  0.619555  0.001605  0.720560  1
  Li  Li13  1  0.386083  0.001849  0.280434  1
  Li  Li14  1  0.709794  0.998047  0.944542  1
  Li  Li15  1  0.666163  0.750122  0.582212  1
  Li  Li16  1  0.717815  0.500053  0.447098  1
  Li  Li17  1  0.828602  0.498306  0.668576  1
  Li  Li18  1  0.613509  0.498200  0.218449  1
  Li  Li19  1  0.955927  0.501439  0.886738  1
  Li  Li20  1  0.667197  0.249748  0.084426  1
  Li  Li21  1  0.837699  0.000444  0.165866  1
  Li  Li22  1  0.998741  0.250192  0.749360  1
  Li  Li23  1  0.949497  0.998053  0.386897  1
  Ti  Ti24  1  0.111379  0.249702  0.974913  1
  Ti  Ti25  1  0.222548  0.750330  0.696003  1
  Ti  Ti26  1  0.559204  0.251728  0.860723  1
  Ti  Ti27  1  0.444395  0.750160  0.139907  1
  Ti  Ti28  1  0.557511  0.750185  0.364499  1
  Ti  Ti29  1  0.888990  0.247763  0.524697  1
  Ti  Ti30  1  0.890663  0.750840  0.025868  1
  Cr  Cr31  1  0.109400  0.749377  0.472336  1
  Cr  Cr32  1  0.225698  0.250698  0.198783  1
  Cr  Cr33  1  0.439950  0.250489  0.638726  1
  Cr  Cr34  1  0.773940  0.749156  0.803122  1
  Cr  Cr35  1  0.775249  0.249631  0.302085  1
  O  O36  1  0.000541  0.861970  0.926281  1
  O  O37  1  0.072302  0.633211  0.784059  1
  O  O38  1  0.997625  0.362662  0.426634  1
  O  O39  1  0.152693  0.362475  0.643022  1
  O  O40  1  0.264543  0.365798  0.882322  1
  O  O41  1  0.332360  0.861382  0.593581  1
  O  O42  1  0.076732  0.135850  0.283288  1
  O  O43  1  0.187445  0.136691  0.521220  1
  O  O44  1  0.402326  0.133909  0.951690  1
  O  O45  1  0.143764  0.863935  0.143091  1
  O  O46  1  0.258793  0.864133  0.383841  1
  O  O47  1  0.472832  0.864076  0.809138  1
  O  O48  1  0.329825  0.137813  0.734346  1
  O  O49  1  0.190087  0.636748  0.022884  1
  O  O50  1  0.407284  0.633136  0.453052  1
  O  O51  1  0.530898  0.638190  0.691594  1
  O  O52  1  0.332603  0.636359  0.238554  1
  O  O53  1  0.664918  0.638447  0.901876  1
  O  O54  1  0.335399  0.362102  0.098229  1
  O  O55  1  0.671545  0.362731  0.762315  1
  O  O56  1  0.468820  0.362041  0.307983  1
  O  O57  1  0.594755  0.364447  0.548403  1
  O  O58  1  0.809728  0.364026  0.977230  1
  O  O59  1  0.668885  0.863845  0.263241  1
  O  O60  1  0.532452  0.138264  0.192710  1
  O  O61  1  0.732080  0.136493  0.618475  1
  O  O62  1  0.856541  0.136621  0.857135  1
  O  O63  1  0.597754  0.866276  0.048206  1
  O  O64  1  0.807450  0.863696  0.478344  1
  O  O65  1  0.925174  0.864706  0.716811  1
  O  O66  1  0.666176  0.137202  0.401985  1
  O  O67  1  0.736252  0.634072  0.117800  1
  O  O68  1  0.863695  0.638195  0.358986  1
  O  O69  1  0.999875  0.637599  0.569265  1
  O  O70  1  0.924133  0.364209  0.217463  1
  O  O71  1  0.001458  0.138394  0.074163  1
