# generated using pymatgen
data_Ti5Fe7O18
_symmetry_space_group_name_H-M   'P 1'
_cell_length_a   5.56305638
_cell_length_b   7.63126843
_cell_length_c   8.93920822
_cell_angle_alpha   113.14344025
_cell_angle_beta   105.33009336
_cell_angle_gamma   96.06070727
_symmetry_Int_Tables_number   1
_chemical_formula_structural   Ti5Fe7O18
_chemical_formula_sum   'Ti5 Fe7 O18'
_cell_volume   327.01561094
_cell_formula_units_Z   1
loop_
 _symmetry_equiv_pos_site_id
 _symmetry_equiv_pos_as_xyz
  1  'x, y, z'
loop_
 _atom_site_type_symbol
 _atom_site_label
 _atom_site_symmetry_multiplicity
 _atom_site_fract_x
 _atom_site_fract_y
 _atom_site_fract_z
 _atom_site_occupancy
  Ti  Ti0  1  0.704702  0.147616  0.000688  1
  Ti  Ti1  1  0.626254  0.187291  0.667402  1
  Ti  Ti2  1  0.288751  0.849411  0.994393  1
  Ti  Ti3  1  0.382471  0.809067  0.334852  1
  Ti  Ti4  1  0.963162  0.522971  0.337624  1
  Fe  Fe5  1  0.291159  0.357235  0.996163  1
  Fe  Fe6  1  0.037835  0.480449  0.664206  1
  Fe  Fe7  1  0.710022  0.643976  0.998908  1
  Fe  Fe8  1  0.965302  0.025238  0.336994  1
  Fe  Fe9  1  0.374724  0.307444  0.330371  1
  Fe  Fe10  1  0.619740  0.683466  0.666658  1
  Fe  Fe11  1  0.042859  0.980227  0.666560  1
  O  O12  1  0.416929  0.154249  0.793984  1
  O  O13  1  0.909498  0.179158  0.871329  1
  O  O14  1  0.292728  0.559078  0.896308  1
  O  O15  1  0.041499  0.788377  0.782945  1
  O  O16  1  0.367107  0.112356  0.448732  1
  O  O17  1  0.724225  0.460017  0.757933  1
  O  O18  1  0.600422  0.873449  0.911177  1
  O  O19  1  0.928402  0.187440  0.561681  1
  O  O20  1  0.255235  0.511311  0.528673  1
  O  O21  1  0.753532  0.489459  0.460421  1
  O  O22  1  0.059831  0.800450  0.418595  1
  O  O23  1  0.390403  0.131356  0.090271  1
  O  O24  1  0.274110  0.537454  0.240747  1
  O  O25  1  0.946440  0.206061  0.222527  1
  O  O26  1  0.619663  0.882931  0.552439  1
  O  O27  1  0.721619  0.446240  0.117035  1
  O  O28  1  0.089204  0.831242  0.136415  1
  O  O29  1  0.602171  0.854980  0.213970  1
