# generated using pymatgen
data_AlH18(NO6)3
_symmetry_space_group_name_H-M   'P 1'
_cell_length_a   10.97491680
_cell_length_b   9.66077838
_cell_length_c   13.97294433
_cell_angle_alpha   90.00000000
_cell_angle_beta   95.69311204
_cell_angle_gamma   90.00000000
_symmetry_Int_Tables_number   1
_chemical_formula_structural   AlH18(NO6)3
_chemical_formula_sum   'Al4 H72 N12 O72'
_cell_volume   1474.19124579
_cell_formula_units_Z   4
loop_
 _symmetry_equiv_pos_site_id
 _symmetry_equiv_pos_as_xyz
  1  'x, y, z'
loop_
 _atom_site_type_symbol
 _atom_site_label
 _atom_site_symmetry_multiplicity
 _atom_site_fract_x
 _atom_site_fract_y
 _atom_site_fract_z
 _atom_site_occupancy
  Al  Al0  1  0.500000  0.500000  0.000000  1
  Al  Al1  1  0.000000  0.000000  0.000000  1
  Al  Al2  1  0.000000  0.500000  0.500000  1
  Al  Al3  1  0.500000  0.000000  0.500000  1
  H  H4  1  0.570261  0.649934  0.147882  1
  H  H5  1  0.929739  0.149934  0.852118  1
  H  H6  1  0.429739  0.350066  0.852118  1
  H  H7  1  0.070261  0.850066  0.147882  1
  H  H8  1  0.431957  0.699866  0.103535  1
  H  H9  1  0.068043  0.199866  0.896465  1
  H  H10  1  0.568043  0.300134  0.896465  1
  H  H11  1  0.931957  0.800134  0.103535  1
  H  H12  1  0.724954  0.414950  0.050976  1
  H  H13  1  0.775046  0.914950  0.949024  1
  H  H14  1  0.275046  0.585050  0.949024  1
  H  H15  1  0.224954  0.085050  0.050976  1
  H  H16  1  0.633182  0.355889  0.126157  1
  H  H17  1  0.866818  0.855889  0.873843  1
  H  H18  1  0.366818  0.644111  0.873843  1
  H  H19  1  0.133182  0.144111  0.126157  1
  H  H20  1  0.369643  0.423644  0.135284  1
  H  H21  1  0.130357  0.923644  0.864716  1
  H  H22  1  0.630357  0.576356  0.864716  1
  H  H23  1  0.869643  0.076356  0.135284  1
  H  H24  1  0.380471  0.294027  0.058641  1
  H  H25  1  0.119529  0.794027  0.941359  1
  H  H26  1  0.619529  0.705973  0.941359  1
  H  H27  1  0.880471  0.205973  0.058641  1
  H  H28  1  0.068683  0.647538  0.649944  1
  H  H29  1  0.431317  0.147538  0.350056  1
  H  H30  1  0.931317  0.352462  0.350056  1
  H  H31  1  0.568683  0.852462  0.649944  1
  H  H32  1  0.926467  0.690205  0.612388  1
  H  H33  1  0.573533  0.190205  0.387612  1
  H  H34  1  0.073533  0.309795  0.387612  1
  H  H35  1  0.426467  0.809795  0.612388  1
  H  H36  1  0.221059  0.409229  0.560256  1
  H  H37  1  0.278941  0.909229  0.439744  1
  H  H38  1  0.778941  0.590771  0.439744  1
  H  H39  1  0.721059  0.090771  0.560256  1
  H  H40  1  0.122589  0.368241  0.634861  1
  H  H41  1  0.377411  0.868241  0.365139  1
  H  H42  1  0.877411  0.631759  0.365139  1
  H  H43  1  0.622589  0.131759  0.634861  1
  H  H44  1  0.817347  0.420352  0.596387  1
  H  H45  1  0.682653  0.920352  0.403613  1
  H  H46  1  0.182653  0.579648  0.403613  1
  H  H47  1  0.317347  0.079648  0.596387  1
  H  H48  1  0.884581  0.288020  0.554278  1
  H  H49  1  0.615419  0.788020  0.445722  1
  H  H50  1  0.115419  0.711980  0.445722  1
  H  H51  1  0.384581  0.211980  0.554278  1
  H  H52  1  0.431171  0.070310  0.077263  1
  H  H53  1  0.068829  0.570310  0.922737  1
  H  H54  1  0.568829  0.929690  0.922737  1
  H  H55  1  0.931171  0.429690  0.077263  1
  H  H56  1  0.390055  0.101773  0.967718  1
  H  H57  1  0.109945  0.601773  0.032282  1
  H  H58  1  0.609945  0.898227  0.032282  1
  H  H59  1  0.890055  0.398227  0.967718  1
  H  H60  1  0.922026  0.066747  0.600450  1
  H  H61  1  0.577974  0.566747  0.399550  1
  H  H62  1  0.077974  0.933253  0.399550  1
  H  H63  1  0.422026  0.433253  0.600450  1
  H  H64  1  0.879849  0.065638  0.488320  1
  H  H65  1  0.620151  0.565638  0.511680  1
  H  H66  1  0.120151  0.934362  0.511680  1
  H  H67  1  0.379849  0.434362  0.488320  1
  H  H68  1  0.387727  0.975188  0.817386  1
  H  H69  1  0.112273  0.475188  0.182614  1
  H  H70  1  0.612273  0.024812  0.182614  1
  H  H71  1  0.887727  0.524812  0.817386  1
  H  H72  1  0.489859  0.086324  0.811539  1
  H  H73  1  0.010141  0.586324  0.188461  1
  H  H74  1  0.510141  0.913676  0.188461  1
  H  H75  1  0.989859  0.413676  0.811539  1
  N  N76  1  0.292948  0.811439  0.201451  1
  N  N77  1  0.207052  0.311439  0.798549  1
  N  N78  1  0.707052  0.188561  0.798549  1
  N  N79  1  0.792949  0.688561  0.201451  1
  N  N80  1  0.280475  0.712908  0.715096  1
  N  N81  1  0.219525  0.212908  0.284904  1
  N  N82  1  0.719525  0.287092  0.284904  1
  N  N83  1  0.780475  0.787092  0.715096  1
  N  N84  1  0.126865  0.009422  0.694150  1
  N  N85  1  0.373135  0.509422  0.305850  1
  N  N86  1  0.873135  0.990578  0.305850  1
  N  N87  1  0.626865  0.490578  0.694150  1
  O  O88  1  0.505052  0.642376  0.093052  1
  O  O89  1  0.994948  0.142376  0.906948  1
  O  O90  1  0.494948  0.357624  0.906948  1
  O  O91  1  0.005052  0.857624  0.093052  1
  O  O92  1  0.637666  0.415138  0.067627  1
  O  O93  1  0.862334  0.915138  0.932373  1
  O  O94  1  0.362334  0.584862  0.932373  1
  O  O95  1  0.137666  0.084862  0.067627  1
  O  O96  1  0.394410  0.395283  0.071291  1
  O  O97  1  0.105590  0.895283  0.928709  1
  O  O98  1  0.605590  0.604717  0.928709  1
  O  O99  1  0.894410  0.104717  0.071291  1
  O  O100  1  0.000849  0.637931  0.596888  1
  O  O101  1  0.499151  0.137931  0.403112  1
  O  O102  1  0.999151  0.362069  0.403112  1
  O  O103  1  0.500849  0.862069  0.596888  1
  O  O104  1  0.131437  0.408655  0.569573  1
  O  O105  1  0.368563  0.908655  0.430427  1
  O  O106  1  0.868563  0.591345  0.430427  1
  O  O107  1  0.631437  0.091345  0.569573  1
  O  O108  1  0.892737  0.389641  0.567833  1
  O  O109  1  0.607263  0.889641  0.432167  1
  O  O110  1  0.107263  0.610359  0.432167  1
  O  O111  1  0.392737  0.110359  0.567833  1
  O  O112  1  0.369542  0.122242  0.033860  1
  O  O113  1  0.130458  0.622242  0.966140  1
  O  O114  1  0.630458  0.877758  0.966140  1
  O  O115  1  0.869542  0.377758  0.033860  1
  O  O116  1  0.868626  0.114767  0.548979  1
  O  O117  1  0.631374  0.614767  0.451021  1
  O  O118  1  0.131374  0.885233  0.451021  1
  O  O119  1  0.368626  0.385233  0.548979  1
  O  O120  1  0.451533  0.026896  0.857340  1
  O  O121  1  0.048467  0.526896  0.142660  1
  O  O122  1  0.548467  0.973104  0.142660  1
  O  O123  1  0.951533  0.473104  0.857340  1
  O  O124  1  0.694047  0.665183  0.237479  1
  O  O125  1  0.805953  0.165183  0.762521  1
  O  O126  1  0.305953  0.334817  0.762521  1
  O  O127  1  0.194047  0.834817  0.237479  1
  O  O128  1  0.294690  0.785287  0.112963  1
  O  O129  1  0.205310  0.285287  0.887037  1
  O  O130  1  0.705310  0.214713  0.887037  1
  O  O131  1  0.794690  0.714713  0.112963  1
  O  O132  1  0.104892  0.313786  0.744643  1
  O  O133  1  0.395108  0.813786  0.255357  1
  O  O134  1  0.895108  0.686214  0.255357  1
  O  O135  1  0.604892  0.186214  0.744643  1
  O  O136  1  0.684498  0.840872  0.742537  1
  O  O137  1  0.815502  0.340872  0.257463  1
  O  O138  1  0.315502  0.159128  0.257463  1
  O  O139  1  0.184498  0.659128  0.742537  1
  O  O140  1  0.286896  0.738817  0.626459  1
  O  O141  1  0.213104  0.238817  0.373541  1
  O  O142  1  0.713104  0.261183  0.373541  1
  O  O143  1  0.786896  0.761183  0.626459  1
  O  O144  1  0.629326  0.257664  0.224041  1
  O  O145  1  0.870674  0.757664  0.775959  1
  O  O146  1  0.370674  0.742336  0.775959  1
  O  O147  1  0.129326  0.242336  0.224041  1
  O  O148  1  0.665958  0.453250  0.614778  1
  O  O149  1  0.834042  0.953250  0.385222  1
  O  O150  1  0.334042  0.546750  0.385222  1
  O  O151  1  0.165958  0.046750  0.614778  1
  O  O152  1  0.014221  0.987078  0.697668  1
  O  O153  1  0.485779  0.487078  0.302332  1
  O  O154  1  0.985779  0.012922  0.302332  1
  O  O155  1  0.514221  0.512922  0.697668  1
  O  O156  1  0.201152  0.995607  0.768966  1
  O  O157  1  0.298848  0.495607  0.231034  1
  O  O158  1  0.798848  0.004393  0.231034  1
  O  O159  1  0.701152  0.504393  0.768966  1
