# generated using pymatgen
data_LiNiPO4
_symmetry_space_group_name_H-M   'P 1'
_cell_length_a   5.75278509
_cell_length_b   7.46736308
_cell_length_c   13.95621568
_cell_angle_alpha   90.00000000
_cell_angle_beta   90.00000000
_cell_angle_gamma   90.00000000
_symmetry_Int_Tables_number   1
_chemical_formula_structural   LiNiPO4
_chemical_formula_sum   'Li8 Ni8 P8 O32'
_cell_volume   599.53299712
_cell_formula_units_Z   8
loop_
 _symmetry_equiv_pos_site_id
 _symmetry_equiv_pos_as_xyz
  1  'x, y, z'
loop_
 _atom_site_type_symbol
 _atom_site_label
 _atom_site_symmetry_multiplicity
 _atom_site_fract_x
 _atom_site_fract_y
 _atom_site_fract_z
 _atom_site_occupancy
  Li  Li0  1  0.152870  0.193091  0.720758  1
  Li  Li1  1  0.652870  0.193091  0.779242  1
  Li  Li2  1  0.652870  0.306909  0.279242  1
  Li  Li3  1  0.152870  0.306909  0.220758  1
  Li  Li4  1  0.347130  0.693091  0.720758  1
  Li  Li5  1  0.847130  0.693091  0.779242  1
  Li  Li6  1  0.347130  0.806909  0.220758  1
  Li  Li7  1  0.847130  0.806909  0.279242  1
  Ni  Ni8  1  0.400886  0.179238  0.033534  1
  Ni  Ni9  1  0.900886  0.179238  0.466466  1
  Ni  Ni10  1  0.400886  0.320762  0.533534  1
  Ni  Ni11  1  0.900886  0.320762  0.966466  1
  Ni  Ni12  1  0.099114  0.679238  0.033534  1
  Ni  Ni13  1  0.599114  0.679238  0.466466  1
  Ni  Ni14  1  0.099114  0.820762  0.533534  1
  Ni  Ni15  1  0.599114  0.820762  0.966466  1
  P  P16  1  0.901484  0.044715  0.126397  1
  P  P17  1  0.401484  0.044715  0.373603  1
  P  P18  1  0.901484  0.455285  0.626397  1
  P  P19  1  0.401484  0.455285  0.873603  1
  P  P20  1  0.598516  0.544715  0.126397  1
  P  P21  1  0.098516  0.544715  0.373603  1
  P  P22  1  0.598516  0.955285  0.626397  1
  P  P23  1  0.098516  0.955285  0.873603  1
  O  O24  1  0.818523  0.976868  0.561317  1
  O  O25  1  0.318523  0.976868  0.938683  1
  O  O26  1  0.343736  0.109072  0.273480  1
  O  O27  1  0.843736  0.109072  0.226520  1
  O  O28  1  0.467642  0.134823  0.633255  1
  O  O29  1  0.967642  0.134823  0.866745  1
  O  O30  1  0.060574  0.190742  0.077385  1
  O  O31  1  0.560574  0.190742  0.422615  1
  O  O32  1  0.060574  0.309258  0.577385  1
  O  O33  1  0.560574  0.309258  0.922615  1
  O  O34  1  0.467642  0.365177  0.133255  1
  O  O35  1  0.967642  0.365177  0.366745  1
  O  O36  1  0.843736  0.390928  0.726520  1
  O  O37  1  0.343736  0.390928  0.773480  1
  O  O38  1  0.818523  0.523132  0.061317  1
  O  O39  1  0.318523  0.523132  0.438683  1
  O  O40  1  0.181477  0.476868  0.938683  1
  O  O41  1  0.681477  0.476868  0.561317  1
  O  O42  1  0.656264  0.609072  0.226520  1
  O  O43  1  0.156264  0.609072  0.273480  1
  O  O44  1  0.032358  0.634823  0.633255  1
  O  O45  1  0.532358  0.634823  0.866745  1
  O  O46  1  0.439426  0.690742  0.077385  1
  O  O47  1  0.939426  0.690742  0.422615  1
  O  O48  1  0.439426  0.809258  0.577385  1
  O  O49  1  0.939426  0.809258  0.922615  1
  O  O50  1  0.032358  0.865177  0.133255  1
  O  O51  1  0.532358  0.865177  0.366745  1
  O  O52  1  0.656264  0.890928  0.726520  1
  O  O53  1  0.156264  0.890928  0.773480  1
  O  O54  1  0.681477  0.023132  0.061317  1
  O  O55  1  0.181477  0.023132  0.438683  1
