# generated using pymatgen
data_Li2Fe(CO3)2
_symmetry_space_group_name_H-M   'P 1'
_cell_length_a   7.01680587
_cell_length_b   9.85872572
_cell_length_c   9.11028250
_cell_angle_alpha   90.00000000
_cell_angle_beta   115.87099303
_cell_angle_gamma   90.00000000
_symmetry_Int_Tables_number   1
_chemical_formula_structural   Li2Fe(CO3)2
_chemical_formula_sum   'Li8 Fe4 C8 O24'
_cell_volume   567.05847673
_cell_formula_units_Z   4
loop_
 _symmetry_equiv_pos_site_id
 _symmetry_equiv_pos_as_xyz
  1  'x, y, z'
loop_
 _atom_site_type_symbol
 _atom_site_label
 _atom_site_symmetry_multiplicity
 _atom_site_fract_x
 _atom_site_fract_y
 _atom_site_fract_z
 _atom_site_occupancy
  Li  Li0  1  0.360171  0.391024  0.848671  1
  Li  Li1  1  0.154512  0.683264  0.568033  1
  Li  Li2  1  0.360171  0.108976  0.348671  1
  Li  Li3  1  0.154512  0.816736  0.068033  1
  Li  Li4  1  0.845488  0.183264  0.931967  1
  Li  Li5  1  0.639829  0.891024  0.651329  1
  Li  Li6  1  0.845488  0.316736  0.431967  1
  Li  Li7  1  0.639829  0.608976  0.151329  1
  Fe  Fe8  1  0.480752  0.870820  0.928788  1
  Fe  Fe9  1  0.480752  0.629180  0.428788  1
  Fe  Fe10  1  0.519248  0.370820  0.571212  1
  Fe  Fe11  1  0.519248  0.129180  0.071212  1
  C  C12  1  0.078922  0.020046  0.867229  1
  C  C13  1  0.078922  0.479954  0.367229  1
  C  C14  1  0.525069  0.613737  0.787184  1
  C  C15  1  0.474931  0.113737  0.712816  1
  C  C16  1  0.525069  0.886263  0.287184  1
  C  C17  1  0.474931  0.386263  0.212816  1
  C  C18  1  0.921078  0.520046  0.632771  1
  C  C19  1  0.921078  0.979954  0.132771  1
  O  O20  1  0.122818  0.532336  0.705752  1
  O  O21  1  0.166141  0.900904  0.870389  1
  O  O22  1  0.122818  0.967664  0.205752  1
  O  O23  1  0.166141  0.599096  0.370389  1
  O  O24  1  0.193665  0.376826  0.444679  1
  O  O25  1  0.531695  0.660474  0.921956  1
  O  O26  1  0.445534  0.985722  0.724357  1
  O  O27  1  0.518340  0.196653  0.835284  1
  O  O28  1  0.481660  0.696653  0.664716  1
  O  O29  1  0.554466  0.485722  0.775643  1
  O  O30  1  0.193665  0.123174  0.944679  1
  O  O31  1  0.468305  0.160474  0.578044  1
  O  O32  1  0.531695  0.839526  0.421956  1
  O  O33  1  0.806335  0.876826  0.055321  1
  O  O34  1  0.445534  0.514278  0.224357  1
  O  O35  1  0.518340  0.303347  0.335284  1
  O  O36  1  0.481660  0.803347  0.164716  1
  O  O37  1  0.554466  0.014278  0.275643  1
  O  O38  1  0.468305  0.339526  0.078044  1
  O  O39  1  0.806335  0.623174  0.555321  1
  O  O40  1  0.833859  0.400904  0.629611  1
  O  O41  1  0.877182  0.032336  0.794248  1
  O  O42  1  0.833859  0.099096  0.129611  1
  O  O43  1  0.877182  0.467664  0.294248  1
