# generated using pymatgen
data_RbFeSe2
_symmetry_space_group_name_H-M   'P 1'
_cell_length_a   7.17751879
_cell_length_b   7.17751879
_cell_length_c   5.63660598
_cell_angle_alpha   78.73570928
_cell_angle_beta   101.26429072
_cell_angle_gamma   63.32929191
_symmetry_Int_Tables_number   1
_chemical_formula_structural   RbFeSe2
_chemical_formula_sum   'Rb2 Fe2 Se4'
_cell_volume   240.85035067
_cell_formula_units_Z   2
loop_
 _symmetry_equiv_pos_site_id
 _symmetry_equiv_pos_as_xyz
  1  'x, y, z'
loop_
 _atom_site_type_symbol
 _atom_site_label
 _atom_site_symmetry_multiplicity
 _atom_site_fract_x
 _atom_site_fract_y
 _atom_site_fract_z
 _atom_site_occupancy
  Rb  Rb0  1  0.140510  0.140510  0.750000  1
  Rb  Rb1  1  0.859490  0.859490  0.250000  1
  Fe  Fe2  1  0.501658  0.501658  0.750000  1
  Fe  Fe3  1  0.498342  0.498342  0.250000  1
  Se  Se4  1  0.578685  0.204436  0.594719  1
  Se  Se5  1  0.204436  0.578685  0.905281  1
  Se  Se6  1  0.421315  0.795564  0.405281  1
  Se  Se7  1  0.795564  0.421315  0.094719  1
