# generated using pymatgen
data_Ti3CoNi2(PO4)6
_symmetry_space_group_name_H-M   'P 1'
_cell_length_a   8.49876638
_cell_length_b   8.49876638
_cell_length_c   8.49876638
_cell_angle_alpha   61.04975650
_cell_angle_beta   61.04975650
_cell_angle_gamma   61.04975650
_symmetry_Int_Tables_number   1
_chemical_formula_structural   Ti3CoNi2(PO4)6
_chemical_formula_sum   'Ti3 Co1 Ni2 P6 O24'
_cell_volume   444.32313792
_cell_formula_units_Z   1
loop_
 _symmetry_equiv_pos_site_id
 _symmetry_equiv_pos_as_xyz
  1  'x, y, z'
loop_
 _atom_site_type_symbol
 _atom_site_label
 _atom_site_symmetry_multiplicity
 _atom_site_fract_x
 _atom_site_fract_y
 _atom_site_fract_z
 _atom_site_occupancy
  Ti  Ti0  1  0.856933  0.856933  0.856933  1
  Ti  Ti1  1  0.645095  0.645095  0.645095  1
  Ti  Ti2  1  0.354328  0.354328  0.354328  1
  Co  Co3  1  0.144105  0.144105  0.144105  1
  Ni  Ni4  1  0.002593  0.002593  0.002593  1
  Ni  Ni5  1  0.500968  0.500968  0.500968  1
  P  P6  1  0.749873  0.453831  0.046410  1
  P  P7  1  0.453831  0.046410  0.749873  1
  P  P8  1  0.046410  0.749873  0.453831  1
  P  P9  1  0.952459  0.247754  0.545366  1
  P  P10  1  0.545366  0.952459  0.247754  1
  P  P11  1  0.247754  0.545366  0.952459  1
  O  O12  1  0.886210  0.674052  0.511724  1
  O  O13  1  0.674052  0.511724  0.886210  1
  O  O14  1  0.941809  0.090516  0.745285  1
  O  O15  1  0.511724  0.886210  0.674052  1
  O  O16  1  0.984921  0.183017  0.394499  1
  O  O17  1  0.756353  0.412030  0.566664  1
  O  O18  1  0.745285  0.941809  0.090516  1
  O  O19  1  0.566664  0.756353  0.412030  1
  O  O20  1  0.814783  0.619145  0.998035  1
  O  O21  1  0.412030  0.566664  0.756353  1
  O  O22  1  0.902391  0.260792  0.052675  1
  O  O23  1  0.619145  0.998035  0.814783  1
  O  O24  1  0.394499  0.984921  0.183017  1
  O  O25  1  0.090516  0.745285  0.941809  1
  O  O26  1  0.586744  0.447082  0.241844  1
  O  O27  1  0.183017  0.394499  0.984921  1
  O  O28  1  0.447082  0.241844  0.586744  1
  O  O29  1  0.260792  0.052675  0.902391  1
  O  O30  1  0.241844  0.586744  0.447082  1
  O  O31  1  0.998035  0.814783  0.619145  1
  O  O32  1  0.496943  0.118036  0.314735  1
  O  O33  1  0.052675  0.902391  0.260792  1
  O  O34  1  0.314735  0.496943  0.118036  1
  O  O35  1  0.118036  0.314735  0.496943  1
