# generated using pymatgen
data_ZnP2H6O5
_symmetry_space_group_name_H-M   'P 1'
_cell_length_a   7.81772185
_cell_length_b   7.50053447
_cell_length_c   10.58903201
_cell_angle_alpha   90.00000000
_cell_angle_beta   104.31843402
_cell_angle_gamma   90.00000000
_symmetry_Int_Tables_number   1
_chemical_formula_structural   ZnP2H6O5
_chemical_formula_sum   'Zn4 P8 H24 O20'
_cell_volume   601.62222905
_cell_formula_units_Z   4
loop_
 _symmetry_equiv_pos_site_id
 _symmetry_equiv_pos_as_xyz
  1  'x, y, z'
loop_
 _atom_site_type_symbol
 _atom_site_label
 _atom_site_symmetry_multiplicity
 _atom_site_fract_x
 _atom_site_fract_y
 _atom_site_fract_z
 _atom_site_occupancy
  Zn  Zn0  1  0.193759  0.539376  0.603176  1
  Zn  Zn1  1  0.806241  0.039376  0.896824  1
  Zn  Zn2  1  0.806241  0.460624  0.396824  1
  Zn  Zn3  1  0.193759  0.960624  0.103176  1
  P  P4  1  0.468714  0.876144  0.687425  1
  P  P5  1  0.531286  0.376144  0.812575  1
  P  P6  1  0.531286  0.123856  0.312575  1
  P  P7  1  0.468714  0.623856  0.187425  1
  P  P8  1  0.038513  0.685933  0.845303  1
  P  P9  1  0.961487  0.185933  0.654697  1
  P  P10  1  0.961487  0.314067  0.154697  1
  P  P11  1  0.038513  0.814067  0.345303  1
  H  H12  1  0.406237  0.342689  0.465312  1
  H  H13  1  0.593763  0.842689  0.034688  1
  H  H14  1  0.593763  0.657311  0.534688  1
  H  H15  1  0.406237  0.157311  0.965312  1
  H  H16  1  0.202341  0.319033  0.403295  1
  H  H17  1  0.797659  0.819033  0.096705  1
  H  H18  1  0.797659  0.680967  0.596705  1
  H  H19  1  0.202341  0.180967  0.903295  1
  H  H20  1  0.393038  0.022522  0.607570  1
  H  H21  1  0.606962  0.522522  0.892430  1
  H  H22  1  0.606962  0.977478  0.392430  1
  H  H23  1  0.393038  0.477478  0.107570  1
  H  H24  1  0.389995  0.883630  0.794066  1
  H  H25  1  0.610005  0.383630  0.705934  1
  H  H26  1  0.610005  0.116370  0.205934  1
  H  H27  1  0.389995  0.616370  0.294066  1
  H  H28  1  0.881598  0.586623  0.834616  1
  H  H29  1  0.118402  0.086623  0.665384  1
  H  H30  1  0.118402  0.413377  0.165384  1
  H  H31  1  0.881598  0.913377  0.334616  1
  H  H32  1  0.172589  0.576104  0.920160  1
  H  H33  1  0.827411  0.076104  0.579840  1
  H  H34  1  0.827411  0.423896  0.079840  1
  H  H35  1  0.172589  0.923896  0.420160  1
  O  O36  1  0.412107  0.703644  0.609182  1
  O  O37  1  0.587893  0.203644  0.890818  1
  O  O38  1  0.587893  0.296356  0.390818  1
  O  O39  1  0.412107  0.796356  0.109182  1
  O  O40  1  0.668005  0.900080  0.733504  1
  O  O41  1  0.331995  0.400080  0.766496  1
  O  O42  1  0.331995  0.099920  0.266496  1
  O  O43  1  0.668005  0.599920  0.233504  1
  O  O44  1  0.067285  0.713496  0.708673  1
  O  O45  1  0.932715  0.213496  0.791327  1
  O  O46  1  0.932715  0.286504  0.291327  1
  O  O47  1  0.067285  0.786504  0.208673  1
  O  O48  1  0.028501  0.855783  0.924556  1
  O  O49  1  0.971499  0.355783  0.575444  1
  O  O50  1  0.971499  0.144217  0.075444  1
  O  O51  1  0.028501  0.644217  0.424556  1
  O  O52  1  0.288613  0.351399  0.484417  1
  O  O53  1  0.711387  0.851399  0.015583  1
  O  O54  1  0.711387  0.648601  0.515583  1
  O  O55  1  0.288613  0.148601  0.984417  1
