# generated using pymatgen
data_LiV(CO3)2
_symmetry_space_group_name_H-M   'P 1'
_cell_length_a   6.17762195
_cell_length_b   4.62407499
_cell_length_c   7.21061408
_cell_angle_alpha   90.00000000
_cell_angle_beta   101.95264853
_cell_angle_gamma   90.00000000
_symmetry_Int_Tables_number   1
_chemical_formula_structural   LiV(CO3)2
_chemical_formula_sum   'Li2 V2 C4 O12'
_cell_volume   201.51110164
_cell_formula_units_Z   2
loop_
 _symmetry_equiv_pos_site_id
 _symmetry_equiv_pos_as_xyz
  1  'x, y, z'
loop_
 _atom_site_type_symbol
 _atom_site_label
 _atom_site_symmetry_multiplicity
 _atom_site_fract_x
 _atom_site_fract_y
 _atom_site_fract_z
 _atom_site_occupancy
  Li  Li0  1  0.178420  0.706123  0.560858  1
  Li  Li1  1  0.821580  0.206123  0.439142  1
  V  V2  1  0.729318  0.239525  0.909283  1
  V  V3  1  0.270682  0.739525  0.090717  1
  C  C4  1  0.229827  0.219804  0.882109  1
  C  C5  1  0.735899  0.732963  0.636402  1
  C  C6  1  0.264101  0.232963  0.363598  1
  C  C7  1  0.770173  0.719804  0.117891  1
  O  O8  1  0.068527  0.076561  0.932496  1
  O  O9  1  0.213458  0.487429  0.839706  1
  O  O10  1  0.407561  0.065333  0.892056  1
  O  O11  1  0.628144  0.573118  0.733357  1
  O  O12  1  0.726734  0.016149  0.658713  1
  O  O13  1  0.844225  0.629995  0.518980  1
  O  O14  1  0.155775  0.129995  0.481020  1
  O  O15  1  0.273266  0.516149  0.341287  1
  O  O16  1  0.371856  0.073118  0.266643  1
  O  O17  1  0.592439  0.565333  0.107944  1
  O  O18  1  0.786542  0.987429  0.160294  1
  O  O19  1  0.931473  0.576561  0.067504  1
