# generated using pymatgen
data_NaGdRe4(H2O5)4
_symmetry_space_group_name_H-M   'P 1'
_cell_length_a   12.72371071
_cell_length_b   12.72371071
_cell_length_c   5.75980366
_cell_angle_alpha   90.00000000
_cell_angle_beta   90.00000000
_cell_angle_gamma   90.00000000
_symmetry_Int_Tables_number   1
_chemical_formula_structural   NaGdRe4(H2O5)4
_chemical_formula_sum   'Na2 Gd2 Re8 H16 O40'
_cell_volume   932.47082394
_cell_formula_units_Z   2
loop_
 _symmetry_equiv_pos_site_id
 _symmetry_equiv_pos_as_xyz
  1  'x, y, z'
loop_
 _atom_site_type_symbol
 _atom_site_label
 _atom_site_symmetry_multiplicity
 _atom_site_fract_x
 _atom_site_fract_y
 _atom_site_fract_z
 _atom_site_occupancy
  Na  Na0  1  0.500000  0.500000  0.000000  1
  Na  Na1  1  0.000000  0.000000  0.500000  1
  Gd  Gd2  1  0.000000  0.500000  0.250000  1
  Gd  Gd3  1  0.500000  0.000000  0.750000  1
  Re  Re4  1  0.714820  0.592259  0.465594  1
  Re  Re5  1  0.785180  0.092259  0.965594  1
  Re  Re6  1  0.592259  0.285180  0.534406  1
  Re  Re7  1  0.907741  0.785180  0.034406  1
  Re  Re8  1  0.285180  0.407741  0.465594  1
  Re  Re9  1  0.214820  0.907741  0.965594  1
  Re  Re10  1  0.407741  0.714820  0.534406  1
  Re  Re11  1  0.092259  0.214820  0.034406  1
  H  H12  1  0.135385  0.664078  0.491863  1
  H  H13  1  0.364615  0.164078  0.991863  1
  H  H14  1  0.664078  0.864615  0.508137  1
  H  H15  1  0.835922  0.364615  0.008137  1
  H  H16  1  0.864615  0.335922  0.491863  1
  H  H17  1  0.635385  0.835922  0.991863  1
  H  H18  1  0.335922  0.135385  0.508137  1
  H  H19  1  0.164078  0.635385  0.008137  1
  H  H20  1  0.022901  0.714691  0.463917  1
  H  H21  1  0.477099  0.214691  0.963917  1
  H  H22  1  0.714691  0.977099  0.536083  1
  H  H23  1  0.785309  0.477099  0.036083  1
  H  H24  1  0.977099  0.285309  0.463917  1
  H  H25  1  0.522901  0.785309  0.963917  1
  H  H26  1  0.285309  0.022901  0.536083  1
  H  H27  1  0.214691  0.522901  0.036083  1
  O  O28  1  0.851003  0.564964  0.491651  1
  O  O29  1  0.648997  0.064964  0.991651  1
  O  O30  1  0.564964  0.148997  0.508349  1
  O  O31  1  0.935036  0.648997  0.008349  1
  O  O32  1  0.148997  0.435036  0.491651  1
  O  O33  1  0.351003  0.935036  0.991651  1
  O  O34  1  0.435036  0.851003  0.508349  1
  O  O35  1  0.064964  0.351003  0.008349  1
  O  O36  1  0.692315  0.727094  0.498176  1
  O  O37  1  0.807685  0.227094  0.998176  1
  O  O38  1  0.727094  0.307685  0.501824  1
  O  O39  1  0.772906  0.807685  0.001824  1
  O  O40  1  0.307685  0.272906  0.498176  1
  O  O41  1  0.192315  0.772906  0.998176  1
  O  O42  1  0.272906  0.692315  0.501824  1
  O  O43  1  0.227094  0.192315  0.001824  1
  O  O44  1  0.644846  0.524147  0.678559  1
  O  O45  1  0.855154  0.024147  0.178559  1
  O  O46  1  0.524147  0.355154  0.321441  1
  O  O47  1  0.975853  0.855154  0.821441  1
  O  O48  1  0.355154  0.475853  0.678559  1
  O  O49  1  0.144846  0.975853  0.178559  1
  O  O50  1  0.475853  0.644846  0.321441  1
  O  O51  1  0.024147  0.144846  0.821441  1
  O  O52  1  0.674824  0.549843  0.190045  1
  O  O53  1  0.825176  0.049843  0.690045  1
  O  O54  1  0.549843  0.325176  0.809955  1
  O  O55  1  0.950157  0.825176  0.309955  1
  O  O56  1  0.325176  0.450157  0.190045  1
  O  O57  1  0.174824  0.950157  0.690045  1
  O  O58  1  0.450157  0.674824  0.809955  1
  O  O59  1  0.049843  0.174824  0.309955  1
  O  O60  1  0.059697  0.646918  0.480424  1
  O  O61  1  0.440303  0.146918  0.980424  1
  O  O62  1  0.646918  0.940303  0.519576  1
  O  O63  1  0.853082  0.440303  0.019576  1
  O  O64  1  0.940303  0.353082  0.480424  1
  O  O65  1  0.559697  0.853082  0.980424  1
  O  O66  1  0.353082  0.059697  0.519576  1
  O  O67  1  0.146918  0.559697  0.019576  1
