# generated using pymatgen
data_Cr(CoO3)2
_symmetry_space_group_name_H-M   'P 1'
_cell_length_a   4.94403922
_cell_length_b   4.94403922
_cell_length_c   9.71932911
_cell_angle_alpha   90.00000000
_cell_angle_beta   90.00000000
_cell_angle_gamma   118.99848135
_symmetry_Int_Tables_number   1
_chemical_formula_structural   Cr(CoO3)2
_chemical_formula_sum   'Cr2 Co4 O12'
_cell_volume   207.79052559
_cell_formula_units_Z   2
loop_
 _symmetry_equiv_pos_site_id
 _symmetry_equiv_pos_as_xyz
  1  'x, y, z'
loop_
 _atom_site_type_symbol
 _atom_site_label
 _atom_site_symmetry_multiplicity
 _atom_site_fract_x
 _atom_site_fract_y
 _atom_site_fract_z
 _atom_site_occupancy
  Cr  Cr0  1  0.000000  0.000000  0.000000  1
  Cr  Cr1  1  0.500000  0.500000  0.500000  1
  Co  Co2  1  0.833948  0.166052  0.500000  1
  Co  Co3  1  0.666052  0.333948  0.000000  1
  Co  Co4  1  0.333948  0.666052  0.000000  1
  Co  Co5  1  0.166052  0.833948  0.500000  1
  O  O6  1  0.661162  0.997902  0.097358  1
  O  O7  1  0.338838  0.002098  0.902642  1
  O  O8  1  0.497902  0.161162  0.402642  1
  O  O9  1  0.838838  0.502098  0.597358  1
  O  O10  1  0.157603  0.157603  0.598415  1
  O  O11  1  0.342397  0.342397  0.098415  1
  O  O12  1  0.657603  0.657603  0.901585  1
  O  O13  1  0.002098  0.338838  0.902642  1
  O  O14  1  0.842397  0.842397  0.401585  1
  O  O15  1  0.161162  0.497902  0.402642  1
  O  O16  1  0.502098  0.838838  0.597358  1
  O  O17  1  0.997902  0.661162  0.097358  1
