# generated using pymatgen
data_Y2O3
_symmetry_space_group_name_H-M   'P 1'
_cell_length_a   8.61719922
_cell_length_b   3.50270609
_cell_length_c   14.50492183
_cell_angle_alpha   90.00000000
_cell_angle_beta   98.68598367
_cell_angle_gamma   90.00000000
_symmetry_Int_Tables_number   1
_chemical_formula_structural   Y2O3
_chemical_formula_sum   'Y12 O18'
_cell_volume   432.78824407
_cell_formula_units_Z   6
loop_
 _symmetry_equiv_pos_site_id
 _symmetry_equiv_pos_as_xyz
  1  'x, y, z'
loop_
 _atom_site_type_symbol
 _atom_site_label
 _atom_site_symmetry_multiplicity
 _atom_site_fract_x
 _atom_site_fract_y
 _atom_site_fract_z
 _atom_site_occupancy
  Y  Y0  1  0.816978  0.250000  0.991811  1
  Y  Y1  1  0.456264  0.250000  0.884651  1
  Y  Y2  1  0.822063  0.750000  0.781606  1
  Y  Y3  1  0.183554  0.750000  0.715869  1
  Y  Y4  1  0.505098  0.250000  0.606341  1
  Y  Y5  1  0.869970  0.250000  0.564333  1
  Y  Y6  1  0.130030  0.750000  0.435667  1
  Y  Y7  1  0.494902  0.750000  0.393659  1
  Y  Y8  1  0.816446  0.250000  0.284131  1
  Y  Y9  1  0.177937  0.250000  0.218394  1
  Y  Y10  1  0.543736  0.750000  0.115349  1
  Y  Y11  1  0.183022  0.750000  0.008189  1
  O  O12  1  0.620542  0.750000  0.969228  1
  O  O13  1  0.283587  0.750000  0.869157  1
  O  O14  1  0.938029  0.750000  0.929224  1
  O  O15  1  0.684822  0.250000  0.818028  1
  O  O16  1  0.348365  0.250000  0.716654  1
  O  O17  1  0.988693  0.250000  0.728821  1
  O  O18  1  0.033913  0.750000  0.573571  1
  O  O19  1  0.702477  0.750000  0.629687  1
  O  O20  1  0.373480  0.750000  0.534767  1
  O  O21  1  0.626520  0.250000  0.465233  1
  O  O22  1  0.297523  0.250000  0.370313  1
  O  O23  1  0.966087  0.250000  0.426429  1
  O  O24  1  0.011307  0.750000  0.271179  1
  O  O25  1  0.651635  0.750000  0.283346  1
  O  O26  1  0.315178  0.750000  0.181972  1
  O  O27  1  0.061971  0.250000  0.070776  1
  O  O28  1  0.716413  0.250000  0.130843  1
  O  O29  1  0.379458  0.250000  0.030772  1
