# generated using pymatgen
data_Li2V3O6
_symmetry_space_group_name_H-M   'P 1'
_cell_length_a   5.11566602
_cell_length_b   5.11566602
_cell_length_c   5.21154832
_cell_angle_alpha   80.96526788
_cell_angle_beta   99.03473212
_cell_angle_gamma   60.71902122
_symmetry_Int_Tables_number   1
_chemical_formula_structural   Li2V3O6
_chemical_formula_sum   'Li2 V3 O6'
_cell_volume   113.07312898
_cell_formula_units_Z   1
loop_
 _symmetry_equiv_pos_site_id
 _symmetry_equiv_pos_as_xyz
  1  'x, y, z'
loop_
 _atom_site_type_symbol
 _atom_site_label
 _atom_site_symmetry_multiplicity
 _atom_site_fract_x
 _atom_site_fract_y
 _atom_site_fract_z
 _atom_site_occupancy
  Li  Li0  1  0.331702  0.331702  0.000000  1
  Li  Li1  1  0.668298  0.668298  0.000000  1
  V  V2  1  0.159303  0.159303  0.500000  1
  V  V3  1  0.500000  0.500000  0.500000  1
  V  V4  1  0.840697  0.840697  0.500000  1
  O  O5  1  0.246560  0.753440  0.725306  1
  O  O6  1  0.559663  0.093916  0.714781  1
  O  O7  1  0.906084  0.440337  0.714781  1
  O  O8  1  0.093916  0.559663  0.285219  1
  O  O9  1  0.440337  0.906084  0.285219  1
  O  O10  1  0.753440  0.246560  0.274694  1
