# generated using pymatgen
data_Li4Ti3Mn2Nb3O16
_symmetry_space_group_name_H-M   'P 1'
_cell_length_a   6.09230594
_cell_length_b   6.09230594
_cell_length_c   10.12993545
_cell_angle_alpha   89.68297349
_cell_angle_beta   90.31702651
_cell_angle_gamma   120.70204447
_symmetry_Int_Tables_number   1
_chemical_formula_structural   Li4Ti3Mn2Nb3O16
_chemical_formula_sum   'Li4 Ti3 Mn2 Nb3 O16'
_cell_volume   323.27783276
_cell_formula_units_Z   1
loop_
 _symmetry_equiv_pos_site_id
 _symmetry_equiv_pos_as_xyz
  1  'x, y, z'
loop_
 _atom_site_type_symbol
 _atom_site_label
 _atom_site_symmetry_multiplicity
 _atom_site_fract_x
 _atom_site_fract_y
 _atom_site_fract_z
 _atom_site_occupancy
  Li  Li0  1  0.666663  0.333337  0.104189  1
  Li  Li1  1  0.006982  0.993018  0.003433  1
  Li  Li2  1  0.004793  0.995207  0.502681  1
  Li  Li3  1  0.331549  0.668451  0.611636  1
  Ti  Ti4  1  0.831091  0.662970  0.783986  1
  Ti  Ti5  1  0.337030  0.168909  0.783986  1
  Ti  Ti6  1  0.164270  0.835730  0.278394  1
  Mn  Mn7  1  0.672452  0.327548  0.504605  1
  Mn  Mn8  1  0.333002  0.666998  0.999427  1
  Nb  Nb9  1  0.831270  0.168730  0.785041  1
  Nb  Nb10  1  0.645567  0.811673  0.289046  1
  Nb  Nb11  1  0.188327  0.354433  0.289046  1
  O  O12  1  0.840279  0.684909  0.393337  1
  O  O13  1  0.518205  0.481795  0.676607  1
  O  O14  1  0.665869  0.334131  0.894014  1
  O  O15  1  0.002330  0.997670  0.683774  1
  O  O16  1  0.003874  0.996126  0.184723  1
  O  O17  1  0.315091  0.159721  0.393337  1
  O  O18  1  0.968624  0.488161  0.672468  1
  O  O19  1  0.511839  0.031376  0.672468  1
  O  O20  1  0.154891  0.845109  0.890260  1
  O  O21  1  0.847097  0.152903  0.401133  1
  O  O22  1  0.479625  0.967722  0.174964  1
  O  O23  1  0.032278  0.520375  0.174964  1
  O  O24  1  0.314636  0.685364  0.403734  1
  O  O25  1  0.691606  0.842514  0.894381  1
  O  O26  1  0.484705  0.515295  0.152176  1
  O  O27  1  0.157486  0.308394  0.894381  1
