# generated using pymatgen
data_Li4Mn3Cu2Sn3O16
_symmetry_space_group_name_H-M   'P 1'
_cell_length_a   6.08427099
_cell_length_b   6.08427099
_cell_length_c   9.81937422
_cell_angle_alpha   87.51279564
_cell_angle_beta   92.48720436
_cell_angle_gamma   119.78266141
_symmetry_Int_Tables_number   1
_chemical_formula_structural   Li4Mn3Cu2Sn3O16
_chemical_formula_sum   'Li4 Mn3 Cu2 Sn3 O16'
_cell_volume   315.08763950
_cell_formula_units_Z   1
loop_
 _symmetry_equiv_pos_site_id
 _symmetry_equiv_pos_as_xyz
  1  'x, y, z'
loop_
 _atom_site_type_symbol
 _atom_site_label
 _atom_site_symmetry_multiplicity
 _atom_site_fract_x
 _atom_site_fract_y
 _atom_site_fract_z
 _atom_site_occupancy
  Li  Li0  1  0.329611  0.670389  0.884467  1
  Li  Li1  1  0.009430  0.990570  0.994463  1
  Li  Li2  1  0.004302  0.995698  0.501343  1
  Li  Li3  1  0.667207  0.332793  0.393129  1
  Mn  Mn4  1  0.167083  0.832917  0.216700  1
  Mn  Mn5  1  0.831381  0.663687  0.715333  1
  Mn  Mn6  1  0.336313  0.168619  0.715333  1
  Cu  Cu7  1  0.334101  0.665899  0.493168  1
  Cu  Cu8  1  0.663899  0.336101  0.985343  1
  Sn  Sn9  1  0.660710  0.830545  0.214386  1
  Sn  Sn10  1  0.169455  0.339290  0.214386  1
  Sn  Sn11  1  0.829094  0.170906  0.713268  1
  O  O12  1  0.680678  0.835122  0.601594  1
  O  O13  1  0.491502  0.508498  0.334141  1
  O  O14  1  0.316897  0.683103  0.100523  1
  O  O15  1  0.011938  0.988062  0.318722  1
  O  O16  1  0.011604  0.988396  0.811461  1
  O  O17  1  0.164878  0.319322  0.601594  1
  O  O18  1  0.473744  0.959384  0.338604  1
  O  O19  1  0.040616  0.526256  0.338604  1
  O  O20  1  0.836576  0.163424  0.092745  1
  O  O21  1  0.154427  0.845573  0.614823  1
  O  O22  1  0.969276  0.493466  0.829695  1
  O  O23  1  0.506534  0.030724  0.829695  1
  O  O24  1  0.650527  0.349473  0.606736  1
  O  O25  1  0.853080  0.688169  0.106235  1
  O  O26  1  0.524102  0.475898  0.835211  1
  O  O27  1  0.311831  0.146920  0.106235  1
