# generated using pymatgen
data_Li5Mn2Fe5O12
_symmetry_space_group_name_H-M   'P 1'
_cell_length_a   5.21215969
_cell_length_b   5.21215969
_cell_length_c   10.05027751
_cell_angle_alpha   84.45141107
_cell_angle_beta   95.54858893
_cell_angle_gamma   59.35979128
_symmetry_Int_Tables_number   1
_chemical_formula_structural   Li5Mn2Fe5O12
_chemical_formula_sum   'Li5 Mn2 Fe5 O12'
_cell_volume   230.39019827
_cell_formula_units_Z   1
loop_
 _symmetry_equiv_pos_site_id
 _symmetry_equiv_pos_as_xyz
  1  'x, y, z'
loop_
 _atom_site_type_symbol
 _atom_site_label
 _atom_site_symmetry_multiplicity
 _atom_site_fract_x
 _atom_site_fract_y
 _atom_site_fract_z
 _atom_site_occupancy
  Li  Li0  1  0.334238  0.843430  0.752423  1
  Li  Li1  1  0.162400  0.667719  0.247420  1
  Li  Li2  1  0.843430  0.334238  0.247577  1
  Li  Li3  1  0.667719  0.162400  0.752580  1
  Li  Li4  1  0.082356  0.082356  0.000000  1
  Mn  Mn5  1  0.749284  0.749284  0.000000  1
  Mn  Mn6  1  0.246452  0.246452  0.500000  1
  Fe  Fe7  1  0.918105  0.918105  0.500000  1
  Fe  Fe8  1  0.496676  0.998945  0.246218  1
  Fe  Fe9  1  0.998945  0.496676  0.753782  1
  Fe  Fe10  1  0.577623  0.577623  0.500000  1
  Fe  Fe11  1  0.420900  0.420900  0.000000  1
  O  O12  1  0.771821  0.025382  0.116184  1
  O  O13  1  0.025382  0.771821  0.883816  1
  O  O14  1  0.596424  0.883434  0.613952  1
  O  O15  1  0.883434  0.596424  0.386048  1
  O  O16  1  0.489468  0.695278  0.111041  1
  O  O17  1  0.695278  0.489468  0.888959  1
  O  O18  1  0.296366  0.541081  0.618346  1
  O  O19  1  0.541081  0.296366  0.381654  1
  O  O20  1  0.121226  0.400758  0.114697  1
  O  O21  1  0.400758  0.121226  0.885303  1
  O  O22  1  0.950144  0.230488  0.626663  1
  O  O23  1  0.230488  0.950144  0.373337  1
