# generated using pymatgen
data_Na5V2P(CO4)4
_symmetry_space_group_name_H-M   'P 1'
_cell_length_a   10.01624435
_cell_length_b   9.94322927
_cell_length_c   9.89200280
_cell_angle_alpha   60.65838465
_cell_angle_beta   59.92373400
_cell_angle_gamma   59.41788135
_symmetry_Int_Tables_number   1
_chemical_formula_structural   Na5V2P(CO4)4
_chemical_formula_sum   'Na10 V4 P2 C8 O32'
_cell_volume   696.46356060
_cell_formula_units_Z   2
loop_
 _symmetry_equiv_pos_site_id
 _symmetry_equiv_pos_as_xyz
  1  'x, y, z'
loop_
 _atom_site_type_symbol
 _atom_site_label
 _atom_site_symmetry_multiplicity
 _atom_site_fract_x
 _atom_site_fract_y
 _atom_site_fract_z
 _atom_site_occupancy
  Na  Na0  1  0.832226  0.410805  0.572645  1
  Na  Na1  1  0.065676  0.677355  0.839195  1
  Na  Na2  1  0.064825  0.679567  0.417494  1
  Na  Na3  1  0.679567  0.064825  0.838114  1
  Na  Na4  1  0.832506  0.411886  0.185175  1
  Na  Na5  1  0.410805  0.832226  0.184324  1
  Na  Na6  1  0.411886  0.832506  0.570433  1
  Na  Na7  1  0.671876  0.671876  0.828124  1
  Na  Na8  1  0.677355  0.065676  0.417774  1
  Na  Na9  1  0.421876  0.421876  0.578124  1
  V  V10  1  0.752934  0.247173  0.999607  1
  V  V11  1  0.250393  0.249715  0.497066  1
  V  V12  1  0.247173  0.752934  0.000285  1
  V  V13  1  0.249715  0.250393  0.002827  1
  P  P14  1  0.872684  0.872684  0.627316  1
  P  P15  1  0.622684  0.622684  0.377316  1
  C  C16  1  0.468700  0.111383  0.207603  1
  C  C17  1  0.111383  0.468700  0.212314  1
  C  C18  1  0.461860  0.463988  0.214328  1
  C  C19  1  0.463988  0.461860  0.859824  1
  C  C20  1  0.042397  0.037686  0.781300  1
  C  C21  1  0.037686  0.042397  0.138617  1
  C  C22  1  0.035672  0.390176  0.788140  1
  C  C23  1  0.390176  0.035672  0.786012  1
  O  O24  1  0.897081  0.151948  0.810272  1
  O  O25  1  0.358712  0.105196  0.181239  1
  O  O26  1  0.105196  0.358712  0.354853  1
  O  O27  1  0.063845  0.392008  0.643956  1
  O  O28  1  0.109302  0.439728  0.098052  1
  O  O29  1  0.807303  0.807490  0.564558  1
  O  O30  1  0.807490  0.807303  0.820648  1
  O  O31  1  0.609022  0.114423  0.094696  1
  O  O32  1  0.114423  0.609022  0.181859  1
  O  O33  1  0.349386  0.435336  0.357526  1
  O  O34  1  0.435336  0.349386  0.857752  1
  O  O35  1  0.799699  0.063378  0.568266  1
  O  O36  1  0.063378  0.799699  0.568657  1
  O  O37  1  0.068761  0.895147  0.891288  1
  O  O38  1  0.895147  0.068761  0.144804  1
  O  O39  1  0.349809  0.606044  0.857992  1
  O  O40  1  0.151948  0.897081  0.140698  1
  O  O41  1  0.434921  0.605454  0.102293  1
  O  O42  1  0.605454  0.434921  0.857332  1
  O  O43  1  0.685442  0.429352  0.442697  1
  O  O44  1  0.429352  0.685442  0.442510  1
  O  O45  1  0.068141  0.155304  0.135577  1
  O  O46  1  0.155304  0.068141  0.640978  1
  O  O47  1  0.892474  0.392248  0.900614  1
  O  O48  1  0.392248  0.892474  0.814664  1
  O  O49  1  0.681343  0.681734  0.186622  1
  O  O50  1  0.681734  0.681343  0.450301  1
  O  O51  1  0.392008  0.063845  0.900191  1
  O  O52  1  0.439728  0.109302  0.352919  1
  O  O53  1  0.392668  0.147707  0.644546  1
  O  O54  1  0.147707  0.392668  0.815079  1
  O  O55  1  0.606044  0.349809  0.186155  1
