# generated using pymatgen
data_Li9Mn15O32
_symmetry_space_group_name_H-M   'P 1'
_cell_length_a   5.87102233
_cell_length_b   8.43774450
_cell_length_c   11.79305847
_cell_angle_alpha   89.97562991
_cell_angle_beta   89.26563409
_cell_angle_gamma   89.93421845
_symmetry_Int_Tables_number   1
_chemical_formula_structural   Li9Mn15O32
_chemical_formula_sum   'Li9 Mn15 O32'
_cell_volume   584.15830930
_cell_formula_units_Z   1
loop_
 _symmetry_equiv_pos_site_id
 _symmetry_equiv_pos_as_xyz
  1  'x, y, z'
loop_
 _atom_site_type_symbol
 _atom_site_label
 _atom_site_symmetry_multiplicity
 _atom_site_fract_x
 _atom_site_fract_y
 _atom_site_fract_z
 _atom_site_occupancy
  Li  Li0  1  0.755910  0.630276  0.755982  1
  Li  Li1  1  0.253858  0.117512  0.496618  1
  Li  Li2  1  0.752274  0.254621  0.872291  1
  Li  Li3  1  0.735976  0.623763  0.253568  1
  Li  Li4  1  0.252765  0.367024  0.744888  1
  Li  Li5  1  0.499818  0.997178  0.252759  1
  Li  Li6  1  0.738910  0.877275  0.492876  1
  Li  Li7  1  0.259274  0.375676  0.251626  1
  Li  Li8  1  0.755636  0.877183  0.998593  1
  Mn  Mn9  1  0.001207  0.008606  0.749120  1
  Mn  Mn10  1  0.257986  0.748922  0.874884  1
  Mn  Mn11  1  0.509389  0.006036  0.749674  1
  Mn  Mn12  1  0.494229  0.497343  0.498764  1
  Mn  Mn13  1  0.755428  0.246414  0.624664  1
  Mn  Mn14  1  0.995407  0.998950  0.250271  1
  Mn  Mn15  1  0.995230  0.498574  0.497747  1
  Mn  Mn16  1  0.235136  0.751951  0.372000  1
  Mn  Mn17  1  0.245569  0.756966  0.622081  1
  Mn  Mn18  1  0.249118  0.129495  0.006326  1
  Mn  Mn19  1  0.504838  0.497853  0.003140  1
  Mn  Mn20  1  0.751799  0.249716  0.130379  1
  Mn  Mn21  1  0.751586  0.242138  0.374868  1
  Mn  Mn22  1  0.998735  0.498789  0.001128  1
  Mn  Mn23  1  0.249074  0.747536  0.127569  1
  O  O24  1  0.752225  0.500642  0.897751  1
  O  O25  1  0.032955  0.771772  0.751033  1
  O  O26  1  0.257008  0.491391  0.895527  1
  O  O27  1  0.252331  0.011639  0.857142  1
  O  O28  1  0.256706  0.991168  0.639579  1
  O  O29  1  0.488684  0.774556  0.758330  1
  O  O30  1  0.525313  0.231276  0.736585  1
  O  O31  1  0.539194  0.244682  0.498929  1
  O  O32  1  0.753536  0.007319  0.855368  1
  O  O33  1  0.758583  0.012419  0.636574  1
  O  O34  1  0.755793  0.477605  0.614770  1
  O  O35  1  0.747920  0.480160  0.390148  1
  O  O36  1  0.982826  0.231680  0.736631  1
  O  O37  1  0.980125  0.265187  0.497153  1
  O  O38  1  0.997025  0.725591  0.489961  1
  O  O39  1  0.013452  0.764846  0.246927  1
  O  O40  1  0.233329  0.515775  0.384646  1
  O  O41  1  0.221934  0.974641  0.364361  1
  O  O42  1  0.243105  0.513591  0.606802  1
  O  O43  1  0.238572  0.974368  0.134319  1
  O  O44  1  0.452762  0.751250  0.492376  1
  O  O45  1  0.451867  0.745032  0.250396  1
  O  O46  1  0.541727  0.251470  0.254974  1
  O  O47  1  0.522768  0.270931  0.016305  1
  O  O48  1  0.764519  0.020058  0.363808  1
  O  O49  1  0.770936  0.026490  0.132056  1
  O  O50  1  0.751128  0.489324  0.114230  1
  O  O51  1  0.982512  0.232623  0.251254  1
  O  O52  1  0.979446  0.273790  0.010909  1
  O  O53  1  0.030720  0.732199  0.000270  1
  O  O54  1  0.245994  0.514533  0.113616  1
  O  O55  1  0.475849  0.732197  0.005454  1
