# generated using pymatgen
data_Li4Fe(BO3)2
_symmetry_space_group_name_H-M   'P 1'
_cell_length_a   3.35973056
_cell_length_b   7.87050885
_cell_length_c   9.29334550
_cell_angle_alpha   90.00000000
_cell_angle_beta   90.00000000
_cell_angle_gamma   90.00000000
_symmetry_Int_Tables_number   1
_chemical_formula_structural   Li4Fe(BO3)2
_chemical_formula_sum   'Li8 Fe2 B4 O12'
_cell_volume   245.74197515
_cell_formula_units_Z   2
loop_
 _symmetry_equiv_pos_site_id
 _symmetry_equiv_pos_as_xyz
  1  'x, y, z'
loop_
 _atom_site_type_symbol
 _atom_site_label
 _atom_site_symmetry_multiplicity
 _atom_site_fract_x
 _atom_site_fract_y
 _atom_site_fract_z
 _atom_site_occupancy
  Li  Li0  1  0.500000  0.823141  0.947099  1
  Li  Li1  1  0.000000  0.990083  0.800757  1
  Li  Li2  1  0.500000  0.490083  0.699243  1
  Li  Li3  1  0.000000  0.323141  0.552901  1
  Li  Li4  1  0.000000  0.676859  0.447099  1
  Li  Li5  1  0.500000  0.509917  0.300757  1
  Li  Li6  1  0.000000  0.009917  0.199243  1
  Li  Li7  1  0.500000  0.176859  0.052901  1
  Fe  Fe8  1  0.000000  0.500000  0.000000  1
  Fe  Fe9  1  0.500000  0.000000  0.500000  1
  B  B10  1  0.500000  0.229212  0.797622  1
  B  B11  1  0.000000  0.729212  0.702378  1
  B  B12  1  0.000000  0.270788  0.297622  1
  B  B13  1  0.500000  0.770788  0.202378  1
  O  O14  1  0.500000  0.378613  0.884309  1
  O  O15  1  0.000000  0.743384  0.851566  1
  O  O16  1  0.500000  0.073807  0.863414  1
  O  O17  1  0.000000  0.573807  0.636586  1
  O  O18  1  0.500000  0.243384  0.648434  1
  O  O19  1  0.000000  0.878613  0.615691  1
  O  O20  1  0.000000  0.121387  0.384309  1
  O  O21  1  0.500000  0.756616  0.351566  1
  O  O22  1  0.000000  0.426193  0.363414  1
  O  O23  1  0.500000  0.926193  0.136586  1
  O  O24  1  0.000000  0.256616  0.148434  1
  O  O25  1  0.500000  0.621387  0.115691  1
