# generated using pymatgen
data_ZrO2
_symmetry_space_group_name_H-M   'P 1'
_cell_length_a   6.99358577
_cell_length_b   6.99358577
_cell_length_c   7.11783833
_cell_angle_alpha   74.16781260
_cell_angle_beta   105.83218740
_cell_angle_gamma   146.39800520
_symmetry_Int_Tables_number   1
_chemical_formula_structural   ZrO2
_chemical_formula_sum   'Zr4 O8'
_cell_volume   184.67569694
_cell_formula_units_Z   4
loop_
 _symmetry_equiv_pos_site_id
 _symmetry_equiv_pos_as_xyz
  1  'x, y, z'
loop_
 _atom_site_type_symbol
 _atom_site_label
 _atom_site_symmetry_multiplicity
 _atom_site_fract_x
 _atom_site_fract_y
 _atom_site_fract_z
 _atom_site_occupancy
  Zr  Zr0  1  0.900149  0.099851  0.289936  1
  Zr  Zr1  1  0.805390  0.194610  0.712945  1
  Zr  Zr2  1  0.194610  0.805390  0.287055  1
  Zr  Zr3  1  0.099851  0.900149  0.710064  1
  O  O4  1  0.940132  0.059868  0.622123  1
  O  O5  1  0.358105  0.641895  0.293547  1
  O  O6  1  0.867922  0.132078  0.995791  1
  O  O7  1  0.740926  0.259074  0.353530  1
  O  O8  1  0.259074  0.740926  0.646470  1
  O  O9  1  0.132078  0.867922  0.004209  1
  O  O10  1  0.641895  0.358105  0.706453  1
  O  O11  1  0.059868  0.940132  0.377877  1
