# generated using pymatgen
data_Mg2Mn3O7
_symmetry_space_group_name_H-M   'P 1'
_cell_length_a   6.10507966
_cell_length_b   6.54769246
_cell_length_c   7.84723857
_cell_angle_alpha   114.13506929
_cell_angle_beta   99.35138257
_cell_angle_gamma   103.79357804
_symmetry_Int_Tables_number   1
_chemical_formula_structural   Mg2Mn3O7
_chemical_formula_sum   'Mg4 Mn6 O14'
_cell_volume   265.77987248
_cell_formula_units_Z   2
loop_
 _symmetry_equiv_pos_site_id
 _symmetry_equiv_pos_as_xyz
  1  'x, y, z'
loop_
 _atom_site_type_symbol
 _atom_site_label
 _atom_site_symmetry_multiplicity
 _atom_site_fract_x
 _atom_site_fract_y
 _atom_site_fract_z
 _atom_site_occupancy
  Mg  Mg0  1  0.322199  0.163959  0.531308  1
  Mg  Mg1  1  0.158194  0.726571  0.931344  1
  Mg  Mg2  1  0.841806  0.273429  0.068656  1
  Mg  Mg3  1  0.677801  0.836041  0.468692  1
  Mn  Mn4  1  0.775189  0.430180  0.355759  1
  Mn  Mn5  1  0.920438  0.145335  0.773979  1
  Mn  Mn6  1  0.359410  0.281988  0.078638  1
  Mn  Mn7  1  0.640590  0.718012  0.921362  1
  Mn  Mn8  1  0.079562  0.854665  0.226021  1
  Mn  Mn9  1  0.224811  0.569820  0.644241  1
  O  O10  1  0.100196  0.287407  0.589692  1
  O  O11  1  0.463575  0.571566  0.113393  1
  O  O12  1  0.651358  0.297559  0.569473  1
  O  O13  1  0.773435  0.995378  0.983452  1
  O  O14  1  0.915386  0.576050  0.124616  1
  O  O15  1  0.170131  0.171358  0.256759  1
  O  O16  1  0.346488  0.836126  0.727273  1
  O  O17  1  0.653512  0.163874  0.272727  1
  O  O18  1  0.829869  0.828642  0.743241  1
  O  O19  1  0.084614  0.423950  0.875384  1
  O  O20  1  0.226565  0.004622  0.016548  1
  O  O21  1  0.348642  0.702441  0.430527  1
  O  O22  1  0.536425  0.428434  0.886607  1
  O  O23  1  0.899804  0.712593  0.410308  1
