# generated using pymatgen
data_Li4VGa3O8
_symmetry_space_group_name_H-M   'P 1'
_cell_length_a   5.09538955
_cell_length_b   5.52476077
_cell_length_c   6.48463268
_cell_angle_alpha   90.01826713
_cell_angle_beta   90.05565162
_cell_angle_gamma   90.04296493
_symmetry_Int_Tables_number   1
_chemical_formula_structural   Li4VGa3O8
_chemical_formula_sum   'Li4 V1 Ga3 O8'
_cell_volume   182.54750453
_cell_formula_units_Z   1
loop_
 _symmetry_equiv_pos_site_id
 _symmetry_equiv_pos_as_xyz
  1  'x, y, z'
loop_
 _atom_site_type_symbol
 _atom_site_label
 _atom_site_symmetry_multiplicity
 _atom_site_fract_x
 _atom_site_fract_y
 _atom_site_fract_z
 _atom_site_occupancy
  Li  Li0  1  0.503089  0.918123  0.375179  1
  Li  Li1  1  0.003288  0.580523  0.875837  1
  Li  Li2  1  0.503281  0.416605  0.125984  1
  Li  Li3  1  0.003192  0.083712  0.623400  1
  V  V4  1  0.502744  0.916388  0.872305  1
  Ga  Ga5  1  0.999323  0.582417  0.373421  1
  Ga  Ga6  1  0.499740  0.417553  0.622847  1
  Ga  Ga7  1  0.998094  0.083681  0.129444  1
  O  O8  1  0.119689  0.932230  0.889680  1
  O  O9  1  0.108136  0.906175  0.362033  1
  O  O10  1  0.608418  0.581533  0.861237  1
  O  O11  1  0.630822  0.572013  0.387498  1
  O  O12  1  0.131035  0.432027  0.611116  1
  O  O13  1  0.107746  0.407438  0.139411  1
  O  O14  1  0.608732  0.096457  0.631452  1
  O  O15  1  0.630272  0.073122  0.119155  1
