# generated using pymatgen
data_Li8TiMn3O12
_symmetry_space_group_name_H-M   'P 1'
_cell_length_a   4.94873430
_cell_length_b   8.44396843
_cell_length_c   4.97249809
_cell_angle_alpha   90.00000000
_cell_angle_beta   90.06854448
_cell_angle_gamma   90.00000000
_symmetry_Int_Tables_number   1
_chemical_formula_structural   Li8TiMn3O12
_chemical_formula_sum   'Li8 Ti1 Mn3 O12'
_cell_volume   207.78541129
_cell_formula_units_Z   1
loop_
 _symmetry_equiv_pos_site_id
 _symmetry_equiv_pos_as_xyz
  1  'x, y, z'
loop_
 _atom_site_type_symbol
 _atom_site_label
 _atom_site_symmetry_multiplicity
 _atom_site_fract_x
 _atom_site_fract_y
 _atom_site_fract_z
 _atom_site_occupancy
  Li  Li0  1  0.000000  0.080230  0.000000  1
  Li  Li1  1  0.000000  0.768045  0.000000  1
  Li  Li2  1  0.000000  0.435222  0.500000  1
  Li  Li3  1  0.000000  0.747749  0.500000  1
  Li  Li4  1  0.500000  0.242541  0.000000  1
  Li  Li5  1  0.500000  0.272260  0.500000  1
  Li  Li6  1  0.500000  0.585997  0.500000  1
  Li  Li7  1  0.500000  0.927275  0.000000  1
  Ti  Ti8  1  0.000000  0.098657  0.500000  1
  Mn  Mn9  1  0.000000  0.420478  0.000000  1
  Mn  Mn10  1  0.500000  0.596094  0.000000  1
  Mn  Mn11  1  0.500000  0.915085  0.500000  1
  O  O12  1  0.138718  0.258834  0.754293  1
  O  O13  1  0.175757  0.582102  0.786067  1
  O  O14  1  0.179654  0.930136  0.717240  1
  O  O15  1  0.326583  0.432312  0.215140  1
  O  O16  1  0.329769  0.079105  0.282075  1
  O  O17  1  0.349991  0.754752  0.251973  1
  O  O18  1  0.650009  0.754752  0.748027  1
  O  O19  1  0.670231  0.079105  0.717925  1
  O  O20  1  0.673417  0.432312  0.784860  1
  O  O21  1  0.820346  0.930136  0.282760  1
  O  O22  1  0.824243  0.582102  0.213933  1
  O  O23  1  0.861282  0.258834  0.245707  1
