# generated using pymatgen
data_Li2Mn2OF6
_symmetry_space_group_name_H-M   'P 1'
_cell_length_a   5.30519826
_cell_length_b   6.89364986
_cell_length_c   8.37866054
_cell_angle_alpha   69.40522350
_cell_angle_beta   77.78297647
_cell_angle_gamma   85.06263507
_symmetry_Int_Tables_number   1
_chemical_formula_structural   Li2Mn2OF6
_chemical_formula_sum   'Li4 Mn4 O2 F12'
_cell_volume   280.32393142
_cell_formula_units_Z   2
loop_
 _symmetry_equiv_pos_site_id
 _symmetry_equiv_pos_as_xyz
  1  'x, y, z'
loop_
 _atom_site_type_symbol
 _atom_site_label
 _atom_site_symmetry_multiplicity
 _atom_site_fract_x
 _atom_site_fract_y
 _atom_site_fract_z
 _atom_site_occupancy
  Li  Li0  1  0.325819  0.758583  0.893624  1
  Li  Li1  1  0.866535  0.984328  0.741032  1
  Li  Li2  1  0.129412  0.011050  0.268916  1
  Li  Li3  1  0.678783  0.252540  0.085440  1
  Mn  Mn4  1  0.273887  0.289005  0.821851  1
  Mn  Mn5  1  0.824756  0.517421  0.662952  1
  Mn  Mn6  1  0.178628  0.480297  0.328137  1
  Mn  Mn7  1  0.720254  0.714941  0.196164  1
  O  O8  1  0.942430  0.390825  0.873978  1
  O  O9  1  0.839189  0.575028  0.407996  1
  F  F10  1  0.630397  0.821247  0.972108  1
  F  F11  1  0.451097  0.575126  0.774697  1
  F  F12  1  0.928916  0.788577  0.622897  1
  F  F13  1  0.649106  0.242365  0.719819  1
  F  F14  1  0.169667  0.014660  0.812793  1
  F  F15  1  0.224343  0.400902  0.579579  1
  F  F16  1  0.821999  0.986233  0.191501  1
  F  F17  1  0.328153  0.747480  0.298232  1
  F  F18  1  0.067553  0.212242  0.376983  1
  F  F19  1  0.534382  0.432007  0.226208  1
  F  F20  1  0.066973  0.619492  0.088836  1
  F  F21  1  0.347720  0.185648  0.056257  1
