# generated using pymatgen
data_Zr6O11
_symmetry_space_group_name_H-M   'P 1'
_cell_length_a   3.63388208
_cell_length_b   3.63705297
_cell_length_c   15.77837290
_cell_angle_alpha   90.00000000
_cell_angle_beta   90.00000000
_cell_angle_gamma   90.00000000
_symmetry_Int_Tables_number   1
_chemical_formula_structural   Zr6O11
_chemical_formula_sum   'Zr6 O11'
_cell_volume   208.53678427
_cell_formula_units_Z   1
loop_
 _symmetry_equiv_pos_site_id
 _symmetry_equiv_pos_as_xyz
  1  'x, y, z'
loop_
 _atom_site_type_symbol
 _atom_site_label
 _atom_site_symmetry_multiplicity
 _atom_site_fract_x
 _atom_site_fract_y
 _atom_site_fract_z
 _atom_site_occupancy
  Zr  Zr0  1  0.000000  0.500000  0.075661  1
  Zr  Zr1  1  0.000000  0.500000  0.410896  1
  Zr  Zr2  1  0.000000  0.500000  0.745455  1
  Zr  Zr3  1  0.500000  0.000000  0.243143  1
  Zr  Zr4  1  0.500000  0.000000  0.578671  1
  Zr  Zr5  1  0.500000  0.000000  0.910969  1
  O  O6  1  0.000000  0.000000  0.137975  1
  O  O7  1  0.000000  0.000000  0.644686  1
  O  O8  1  0.000000  0.000000  0.476958  1
  O  O9  1  0.000000  0.000000  0.812491  1
  O  O10  1  0.000000  0.000000  0.308331  1
  O  O11  1  0.500000  0.500000  0.678211  1
  O  O12  1  0.500000  0.500000  0.008927  1
  O  O13  1  0.500000  0.500000  0.177412  1
  O  O14  1  0.500000  0.500000  0.344586  1
  O  O15  1  0.500000  0.500000  0.511307  1
  O  O16  1  0.500000  0.500000  0.844510  1
