# generated using pymatgen
data_Li5Ti6FeO16
_symmetry_space_group_name_H-M   'P 1'
_cell_length_a   8.43845065
_cell_length_b   8.43666944
_cell_length_c   8.43873180
_cell_angle_alpha   90.00000000
_cell_angle_beta   90.03571366
_cell_angle_gamma   90.00000000
_symmetry_Int_Tables_number   1
_chemical_formula_structural   Li5Ti6FeO16
_chemical_formula_sum   'Li10 Ti12 Fe2 O32'
_cell_volume   600.77361104
_cell_formula_units_Z   2
loop_
 _symmetry_equiv_pos_site_id
 _symmetry_equiv_pos_as_xyz
  1  'x, y, z'
loop_
 _atom_site_type_symbol
 _atom_site_label
 _atom_site_symmetry_multiplicity
 _atom_site_fract_x
 _atom_site_fract_y
 _atom_site_fract_z
 _atom_site_occupancy
  Li  Li0  1  0.248122  0.503632  0.503075  1
  Li  Li1  1  0.124622  0.375067  0.125620  1
  Li  Li2  1  0.003271  0.751365  0.254223  1
  Li  Li3  1  0.996729  0.251365  0.745777  1
  Li  Li4  1  0.875378  0.875067  0.874380  1
  Li  Li5  1  0.751878  0.003632  0.496925  1
  Li  Li6  1  0.624131  0.625043  0.374902  1
  Li  Li7  1  0.501605  0.247028  0.249743  1
  Li  Li8  1  0.498395  0.747028  0.750257  1
  Li  Li9  1  0.375869  0.125043  0.625098  1
  Ti  Ti10  1  0.136197  0.136198  0.383632  1
  Ti  Ti11  1  0.120707  0.880905  0.622013  1
  Ti  Ti12  1  0.122837  0.620771  0.879848  1
  Ti  Ti13  1  0.877163  0.120771  0.120152  1
  Ti  Ti14  1  0.879293  0.380905  0.377987  1
  Ti  Ti15  1  0.863803  0.636198  0.616368  1
  Ti  Ti16  1  0.636489  0.873170  0.128138  1
  Ti  Ti17  1  0.634273  0.110276  0.862550  1
  Ti  Ti18  1  0.615732  0.375644  0.609141  1
  Ti  Ti19  1  0.384268  0.875644  0.390859  1
  Ti  Ti20  1  0.365727  0.610276  0.137450  1
  Ti  Ti21  1  0.363511  0.373170  0.871862  1
  Fe  Fe22  1  0.746475  0.497714  0.998145  1
  Fe  Fe23  1  0.253525  0.997714  0.001855  1
  O  O24  1  0.142135  0.390722  0.874476  1
  O  O25  1  0.140686  0.626594  0.106661  1
  O  O26  1  0.137737  0.887788  0.392476  1
  O  O27  1  0.124013  0.108028  0.608424  1
  O  O28  1  0.131252  0.865528  0.863085  1
  O  O29  1  0.108455  0.641632  0.645317  1
  O  O30  1  0.109643  0.357876  0.373568  1
  O  O31  1  0.112074  0.118782  0.132468  1
  O  O32  1  0.887926  0.618782  0.867532  1
  O  O33  1  0.890357  0.857876  0.626432  1
  O  O34  1  0.891545  0.141632  0.354683  1
  O  O35  1  0.868748  0.365528  0.136915  1
  O  O36  1  0.875987  0.608028  0.391576  1
  O  O37  1  0.862263  0.387788  0.607524  1
  O  O38  1  0.859314  0.126594  0.893339  1
  O  O39  1  0.857865  0.890722  0.125524  1
  O  O40  1  0.643766  0.607806  0.627445  1
  O  O41  1  0.641019  0.373889  0.392222  1
  O  O42  1  0.641647  0.108720  0.112784  1
  O  O43  1  0.623813  0.893087  0.890537  1
  O  O44  1  0.624868  0.143403  0.644802  1
  O  O45  1  0.615314  0.365464  0.868960  1
  O  O46  1  0.613623  0.639185  0.117742  1
  O  O47  1  0.606205  0.874728  0.354921  1
  O  O48  1  0.393795  0.374728  0.645079  1
  O  O49  1  0.386377  0.139185  0.882258  1
  O  O50  1  0.384686  0.865464  0.131040  1
  O  O51  1  0.375132  0.643403  0.355198  1
  O  O52  1  0.376187  0.393087  0.109463  1
  O  O53  1  0.358353  0.608720  0.887216  1
  O  O54  1  0.358981  0.873889  0.607778  1
  O  O55  1  0.356234  0.107806  0.372555  1
