# generated using pymatgen
data_CeTh9O20
_symmetry_space_group_name_H-M   'P 1'
_cell_length_a   6.86409037
_cell_length_b   7.92382859
_cell_length_c   8.85943397
_cell_angle_alpha   102.92325626
_cell_angle_beta   97.42291006
_cell_angle_gamma   106.77408475
_symmetry_Int_Tables_number   1
_chemical_formula_structural   CeTh9O20
_chemical_formula_sum   'Ce1 Th9 O20'
_cell_volume   439.87715113
_cell_formula_units_Z   1
loop_
 _symmetry_equiv_pos_site_id
 _symmetry_equiv_pos_as_xyz
  1  'x, y, z'
loop_
 _atom_site_type_symbol
 _atom_site_label
 _atom_site_symmetry_multiplicity
 _atom_site_fract_x
 _atom_site_fract_y
 _atom_site_fract_z
 _atom_site_occupancy
  Ce  Ce0  1  0.000000  0.500000  0.000000  1
  Th  Th1  1  0.199498  0.899111  0.398919  1
  Th  Th2  1  0.199488  0.400047  0.398882  1
  Th  Th3  1  0.599749  0.699222  0.199384  1
  Th  Th4  1  0.601140  0.200747  0.199679  1
  Th  Th5  1  0.000000  0.000000  0.000000  1
  Th  Th6  1  0.800502  0.100889  0.601081  1
  Th  Th7  1  0.800512  0.599953  0.601118  1
  Th  Th8  1  0.400251  0.300778  0.800616  1
  Th  Th9  1  0.398860  0.799253  0.800321  1
  O  O10  1  0.849860  0.324996  0.449854  1
  O  O11  1  0.150140  0.675004  0.550146  1
  O  O12  1  0.150057  0.175111  0.550183  1
  O  O13  1  0.849943  0.824889  0.449817  1
  O  O14  1  0.549767  0.474990  0.349748  1
  O  O15  1  0.549971  0.974816  0.349793  1
  O  O16  1  0.247644  0.623632  0.247493  1
  O  O17  1  0.950230  0.772343  0.148356  1
  O  O18  1  0.249499  0.124960  0.249726  1
  O  O19  1  0.950352  0.277026  0.148544  1
  O  O20  1  0.346871  0.574211  0.950575  1
  O  O21  1  0.349669  0.075070  0.949892  1
  O  O22  1  0.049770  0.227657  0.851644  1
  O  O23  1  0.650331  0.924930  0.050108  1
  O  O24  1  0.653129  0.425789  0.049425  1
  O  O25  1  0.049648  0.722974  0.851456  1
  O  O26  1  0.450233  0.525010  0.650252  1
  O  O27  1  0.450029  0.025184  0.650207  1
  O  O28  1  0.750501  0.875040  0.750274  1
  O  O29  1  0.752356  0.376368  0.752507  1
