# generated using pymatgen
data_LiMnPO4
_symmetry_space_group_name_H-M   'P 1'
_cell_length_a   5.10752093
_cell_length_b   8.22951966
_cell_length_c   10.67378361
_cell_angle_alpha   90.00000000
_cell_angle_beta   117.39474421
_cell_angle_gamma   90.00000000
_symmetry_Int_Tables_number   1
_chemical_formula_structural   LiMnPO4
_chemical_formula_sum   'Li4 Mn4 P4 O16'
_cell_volume   398.33305832
_cell_formula_units_Z   4
loop_
 _symmetry_equiv_pos_site_id
 _symmetry_equiv_pos_as_xyz
  1  'x, y, z'
loop_
 _atom_site_type_symbol
 _atom_site_label
 _atom_site_symmetry_multiplicity
 _atom_site_fract_x
 _atom_site_fract_y
 _atom_site_fract_z
 _atom_site_occupancy
  Li  Li0  1  0.057108  0.046423  0.375490  1
  Li  Li1  1  0.942892  0.546423  0.124510  1
  Li  Li2  1  0.057108  0.453577  0.875490  1
  Li  Li3  1  0.942892  0.953577  0.624510  1
  Mn  Mn4  1  0.332210  0.327222  0.591204  1
  Mn  Mn5  1  0.667790  0.827222  0.908796  1
  Mn  Mn6  1  0.332210  0.172778  0.091204  1
  Mn  Mn7  1  0.667790  0.672778  0.408796  1
  P  P8  1  0.683775  0.255846  0.930373  1
  P  P9  1  0.316225  0.755846  0.569627  1
  P  P10  1  0.683775  0.244154  0.430373  1
  P  P11  1  0.316225  0.744154  0.069627  1
  O  O12  1  0.406943  0.186660  0.442921  1
  O  O13  1  0.970735  0.328528  0.055098  1
  O  O14  1  0.680464  0.321176  0.792777  1
  O  O15  1  0.293729  0.570337  0.559372  1
  O  O16  1  0.706271  0.070337  0.940628  1
  O  O17  1  0.319536  0.821176  0.707223  1
  O  O18  1  0.029265  0.828528  0.444902  1
  O  O19  1  0.593057  0.686660  0.057079  1
  O  O20  1  0.406943  0.313340  0.942921  1
  O  O21  1  0.970735  0.171472  0.555098  1
  O  O22  1  0.680464  0.178824  0.292777  1
  O  O23  1  0.293729  0.929663  0.059372  1
  O  O24  1  0.706271  0.429663  0.440628  1
  O  O25  1  0.319536  0.678824  0.207223  1
  O  O26  1  0.029265  0.671472  0.944902  1
  O  O27  1  0.593057  0.813340  0.557079  1
