# generated using pymatgen
data_Co6O5F7
_symmetry_space_group_name_H-M   'P 1'
_cell_length_a   5.57862279
_cell_length_b   5.57862279
_cell_length_c   7.18056240
_cell_angle_alpha   71.97797287
_cell_angle_beta   108.02202713
_cell_angle_gamma   107.72880297
_symmetry_Int_Tables_number   1
_chemical_formula_structural   Co6O5F7
_chemical_formula_sum   'Co6 O5 F7'
_cell_volume   196.61644952
_cell_formula_units_Z   1
loop_
 _symmetry_equiv_pos_site_id
 _symmetry_equiv_pos_as_xyz
  1  'x, y, z'
loop_
 _atom_site_type_symbol
 _atom_site_label
 _atom_site_symmetry_multiplicity
 _atom_site_fract_x
 _atom_site_fract_y
 _atom_site_fract_z
 _atom_site_occupancy
  Co  Co0  1  0.300347  0.699653  0.820212  1
  Co  Co1  1  0.352379  0.647621  0.308520  1
  Co  Co2  1  0.663642  0.336358  0.671011  1
  Co  Co3  1  0.671989  0.328011  0.160889  1
  Co  Co4  1  0.022233  0.977767  0.519247  1
  Co  Co5  1  0.993778  0.006222  0.999994  1
  O  O6  1  0.952421  0.619565  0.673107  1
  O  O7  1  0.770752  0.229248  0.958129  1
  O  O8  1  0.577306  0.422694  0.383277  1
  O  O9  1  0.213157  0.786843  0.031726  1
  O  O10  1  0.380435  0.047579  0.673107  1
  F  F11  1  0.648799  0.958671  0.338795  1
  F  F12  1  0.425203  0.574797  0.629196  1
  F  F13  1  0.106196  0.893804  0.300625  1
  F  F14  1  0.903626  0.096374  0.702962  1
  F  F15  1  0.041329  0.351201  0.338795  1
  F  F16  1  0.682160  0.705751  0.995205  1
  F  F17  1  0.294249  0.317840  0.995205  1
