# generated using pymatgen
data_LiCuPO4
_symmetry_space_group_name_H-M   'P 1'
_cell_length_a   4.87858749
_cell_length_b   4.87858749
_cell_length_c   16.38515711
_cell_angle_alpha   89.80311359
_cell_angle_beta   90.19688641
_cell_angle_gamma   88.37242203
_symmetry_Int_Tables_number   1
_chemical_formula_structural   LiCuPO4
_chemical_formula_sum   'Li4 Cu4 P4 O16'
_cell_volume   389.81476099
_cell_formula_units_Z   4
loop_
 _symmetry_equiv_pos_site_id
 _symmetry_equiv_pos_as_xyz
  1  'x, y, z'
loop_
 _atom_site_type_symbol
 _atom_site_label
 _atom_site_symmetry_multiplicity
 _atom_site_fract_x
 _atom_site_fract_y
 _atom_site_fract_z
 _atom_site_occupancy
  Li  Li0  1  0.388741  0.162593  0.062617  1
  Li  Li1  1  0.162593  0.388741  0.437383  1
  Li  Li2  1  0.837407  0.611259  0.562617  1
  Li  Li3  1  0.611259  0.837407  0.937383  1
  Cu  Cu4  1  0.664977  0.165699  0.249704  1
  Cu  Cu5  1  0.834301  0.335023  0.749704  1
  Cu  Cu6  1  0.165699  0.664977  0.250296  1
  Cu  Cu7  1  0.335023  0.834301  0.750296  1
  P  P8  1  0.688886  0.645571  0.364284  1
  P  P9  1  0.645571  0.688886  0.135716  1
  P  P10  1  0.354429  0.311114  0.864284  1
  P  P11  1  0.311114  0.354429  0.635716  1
  O  O12  1  0.865651  0.465595  0.300163  1
  O  O13  1  0.534405  0.134349  0.800163  1
  O  O14  1  0.950677  0.745467  0.152854  1
  O  O15  1  0.568158  0.383167  0.149702  1
  O  O16  1  0.785132  0.563621  0.448965  1
  O  O17  1  0.254533  0.049323  0.652854  1
  O  O18  1  0.616833  0.431842  0.649702  1
  O  O19  1  0.436379  0.214868  0.948965  1
  O  O20  1  0.563621  0.785132  0.051035  1
  O  O21  1  0.383167  0.568158  0.350298  1
  O  O22  1  0.745467  0.950677  0.347146  1
  O  O23  1  0.214868  0.436379  0.551035  1
  O  O24  1  0.431842  0.616833  0.850298  1
  O  O25  1  0.049323  0.254533  0.847146  1
  O  O26  1  0.465595  0.865651  0.199837  1
  O  O27  1  0.134349  0.534405  0.699837  1
