# generated using pymatgen
data_Zr2N2O
_symmetry_space_group_name_H-M   'P 1'
_cell_length_a   8.85358170
_cell_length_b   8.87994079
_cell_length_c   8.88288976
_cell_angle_alpha   109.56903062
_cell_angle_beta   109.47042113
_cell_angle_gamma   109.26293350
_symmetry_Int_Tables_number   1
_chemical_formula_structural   Zr2N2O
_chemical_formula_sum   'Zr16 N16 O8'
_cell_volume   538.33673510
_cell_formula_units_Z   8
loop_
 _symmetry_equiv_pos_site_id
 _symmetry_equiv_pos_as_xyz
  1  'x, y, z'
loop_
 _atom_site_type_symbol
 _atom_site_label
 _atom_site_symmetry_multiplicity
 _atom_site_fract_x
 _atom_site_fract_y
 _atom_site_fract_z
 _atom_site_occupancy
  Zr  Zr0  1  0.461518  0.216389  0.258125  1
  Zr  Zr1  1  0.006972  0.009160  0.996409  1
  Zr  Zr2  1  0.508077  0.516560  0.007555  1
  Zr  Zr3  1  0.989150  0.497943  0.497893  1
  Zr  Zr4  1  0.747336  0.464145  0.713052  1
  Zr  Zr5  1  0.241529  0.025160  0.784062  1
  Zr  Zr6  1  0.716277  0.254957  0.969104  1
  Zr  Zr7  1  0.214386  0.250496  0.461127  1
  Zr  Zr8  1  0.960370  0.705903  0.248477  1
  Zr  Zr9  1  0.039134  0.286148  0.749179  1
  Zr  Zr10  1  0.785000  0.750335  0.528804  1
  Zr  Zr11  1  0.279112  0.740006  0.021995  1
  Zr  Zr12  1  0.753173  0.968586  0.215524  1
  Zr  Zr13  1  0.497062  0.994924  0.507396  1
  Zr  Zr14  1  0.251835  0.531522  0.281029  1
  Zr  Zr15  1  0.539217  0.798176  0.756928  1
  N  N16  1  0.463922  0.233910  0.510869  1
  N  N17  1  0.957928  0.225218  0.466488  1
  N  N18  1  0.736867  0.508411  0.963188  1
  N  N19  1  0.028577  0.542289  0.772046  1
  N  N20  1  0.230523  0.957713  0.990380  1
  N  N21  1  0.986410  0.036042  0.763114  1
  N  N22  1  0.724538  0.464979  0.450000  1
  N  N23  1  0.483143  0.723865  0.949402  1
  N  N24  1  0.774005  0.043020  0.011742  1
  N  N25  1  0.970373  0.456553  0.228308  1
  N  N26  1  0.262702  0.488534  0.035416  1
  N  N27  1  0.048157  0.772516  0.535350  1
  N  N28  1  0.458395  0.993955  0.728576  1
  N  N29  1  0.236123  0.270716  0.230721  1
  N  N30  1  0.729722  0.740147  0.270608  1
  N  N31  1  0.530853  0.760991  0.489196  1
  O  O32  1  0.273994  0.261593  0.729354  1
  O  O33  1  0.763064  0.726570  0.773411  1
  O  O34  1  0.546015  0.009208  0.273831  1
  O  O35  1  0.771278  0.224464  0.735012  1
  O  O36  1  0.276308  0.530773  0.548893  1
  O  O37  1  0.014638  0.964075  0.239158  1
  O  O38  1  0.512535  0.273137  0.044804  1
  O  O39  1  0.229785  0.780910  0.263472  1
