# generated using pymatgen
data_Li4Ni3Sn3(SbO8)2
_symmetry_space_group_name_H-M   'P 1'
_cell_length_a   6.11949758
_cell_length_b   6.11949758
_cell_length_c   9.81478911
_cell_angle_alpha   89.89256740
_cell_angle_beta   90.10743260
_cell_angle_gamma   119.59422801
_symmetry_Int_Tables_number   1
_chemical_formula_structural   Li4Ni3Sn3(SbO8)2
_chemical_formula_sum   'Li4 Ni3 Sn3 Sb2 O16'
_cell_volume   319.59751177
_cell_formula_units_Z   1
loop_
 _symmetry_equiv_pos_site_id
 _symmetry_equiv_pos_as_xyz
  1  'x, y, z'
loop_
 _atom_site_type_symbol
 _atom_site_label
 _atom_site_symmetry_multiplicity
 _atom_site_fract_x
 _atom_site_fract_y
 _atom_site_fract_z
 _atom_site_occupancy
  Li  Li0  1  0.332152  0.667848  0.895292  1
  Li  Li1  1  0.018031  0.981969  0.979595  1
  Li  Li2  1  0.011299  0.988701  0.497930  1
  Li  Li3  1  0.668734  0.331266  0.412574  1
  Ni  Ni4  1  0.170762  0.829238  0.214601  1
  Ni  Ni5  1  0.826137  0.659261  0.712414  1
  Ni  Ni6  1  0.340739  0.173863  0.712414  1
  Sn  Sn7  1  0.660314  0.832207  0.213488  1
  Sn  Sn8  1  0.167793  0.339686  0.213488  1
  Sn  Sn9  1  0.828562  0.171438  0.712970  1
  Sb  Sb10  1  0.327411  0.672589  0.493547  1
  Sb  Sb11  1  0.656021  0.343979  0.978304  1
  O  O12  1  0.662278  0.832877  0.588431  1
  O  O13  1  0.482771  0.517229  0.347944  1
  O  O14  1  0.333745  0.666255  0.102462  1
  O  O15  1  0.001299  0.998701  0.308708  1
  O  O16  1  0.999377  0.000623  0.798066  1
  O  O17  1  0.167123  0.337722  0.588431  1
  O  O18  1  0.481868  0.960412  0.347047  1
  O  O19  1  0.039588  0.518132  0.347047  1
  O  O20  1  0.830976  0.169024  0.094981  1
  O  O21  1  0.168793  0.831207  0.593664  1
  O  O22  1  0.961393  0.481029  0.854590  1
  O  O23  1  0.518971  0.038607  0.854590  1
  O  O24  1  0.666577  0.333423  0.608119  1
  O  O25  1  0.829654  0.666197  0.094630  1
  O  O26  1  0.514130  0.485870  0.847883  1
  O  O27  1  0.333803  0.170346  0.094630  1
