# generated using pymatgen
data_Fe10O9F11
_symmetry_space_group_name_H-M   'P 1'
_cell_length_a   4.77972378
_cell_length_b   4.78247627
_cell_length_c   15.44881168
_cell_angle_alpha   90.02599392
_cell_angle_beta   90.12402835
_cell_angle_gamma   93.30841717
_symmetry_Int_Tables_number   1
_chemical_formula_structural   Fe10O9F11
_chemical_formula_sum   'Fe10 O9 F11'
_cell_volume   352.55363043
_cell_formula_units_Z   1
loop_
 _symmetry_equiv_pos_site_id
 _symmetry_equiv_pos_as_xyz
  1  'x, y, z'
loop_
 _atom_site_type_symbol
 _atom_site_label
 _atom_site_symmetry_multiplicity
 _atom_site_fract_x
 _atom_site_fract_y
 _atom_site_fract_z
 _atom_site_occupancy
  Fe  Fe0  1  0.012573  0.990993  0.994479  1
  Fe  Fe1  1  0.045027  0.022075  0.803535  1
  Fe  Fe2  1  0.001875  0.000824  0.600612  1
  Fe  Fe3  1  0.983355  0.963264  0.396704  1
  Fe  Fe4  1  0.983688  0.962452  0.203440  1
  Fe  Fe5  1  0.462911  0.523336  0.904119  1
  Fe  Fe6  1  0.512703  0.501816  0.508305  1
  Fe  Fe7  1  0.502139  0.489668  0.695173  1
  Fe  Fe8  1  0.480144  0.548995  0.300442  1
  Fe  Fe9  1  0.522320  0.496976  0.092302  1
  O  O10  1  0.195329  0.818926  0.899448  1
  O  O11  1  0.178856  0.805971  0.299310  1
  O  O12  1  0.699551  0.702470  0.999916  1
  O  O13  1  0.700949  0.691787  0.601190  1
  O  O14  1  0.681449  0.685052  0.400468  1
  O  O15  1  0.680200  0.683647  0.197849  1
  O  O16  1  0.298098  0.306388  0.004250  1
  O  O17  1  0.322143  0.323486  0.800618  1
  O  O18  1  0.310947  0.301316  0.598302  1
  F  F19  1  0.212636  0.805984  0.707644  1
  F  F20  1  0.199342  0.794778  0.491213  1
  F  F21  1  0.190252  0.803786  0.102709  1
  F  F22  1  0.711080  0.718176  0.800006  1
  F  F23  1  0.289383  0.294859  0.397764  1
  F  F24  1  0.288211  0.292773  0.200532  1
  F  F25  1  0.813168  0.201926  0.899895  1
  F  F26  1  0.802437  0.194218  0.488205  1
  F  F27  1  0.813110  0.204219  0.709846  1
  F  F28  1  0.809583  0.184836  0.103544  1
  F  F29  1  0.796539  0.185003  0.298180  1
