# generated using pymatgen
data_Sr2CoCO3F5
_symmetry_space_group_name_H-M   'P 1'
_cell_length_a   5.57440845
_cell_length_b   8.92027398
_cell_length_c   13.77776190
_cell_angle_alpha   90.00000000
_cell_angle_beta   104.92857834
_cell_angle_gamma   90.00000000
_symmetry_Int_Tables_number   1
_chemical_formula_structural   Sr2CoCO3F5
_chemical_formula_sum   'Sr8 Co4 C4 O12 F20'
_cell_volume   661.97887694
_cell_formula_units_Z   4
loop_
 _symmetry_equiv_pos_site_id
 _symmetry_equiv_pos_as_xyz
  1  'x, y, z'
loop_
 _atom_site_type_symbol
 _atom_site_label
 _atom_site_symmetry_multiplicity
 _atom_site_fract_x
 _atom_site_fract_y
 _atom_site_fract_z
 _atom_site_occupancy
  Sr  Sr0  1  0.191503  0.888386  0.402694  1
  Sr  Sr1  1  0.191290  0.361530  0.416082  1
  Sr  Sr2  1  0.808710  0.861530  0.083918  1
  Sr  Sr3  1  0.808497  0.388386  0.097306  1
  Sr  Sr4  1  0.191503  0.611614  0.902694  1
  Sr  Sr5  1  0.191290  0.138470  0.916082  1
  Sr  Sr6  1  0.808710  0.638470  0.583918  1
  Sr  Sr7  1  0.808497  0.111614  0.597306  1
  Co  Co8  1  0.691204  0.872176  0.826591  1
  Co  Co9  1  0.308796  0.372176  0.673409  1
  Co  Co10  1  0.691204  0.627824  0.326591  1
  Co  Co11  1  0.308796  0.127824  0.173409  1
  C  C12  1  0.679148  0.375893  0.863336  1
  C  C13  1  0.320852  0.875893  0.636664  1
  C  C14  1  0.679148  0.124107  0.363336  1
  C  C15  1  0.320852  0.624107  0.136664  1
  O  O16  1  0.910177  0.381080  0.914533  1
  O  O17  1  0.635130  0.368729  0.765740  1
  O  O18  1  0.496030  0.877286  0.591053  1
  O  O19  1  0.910177  0.118920  0.414533  1
  O  O20  1  0.503970  0.377286  0.908947  1
  O  O21  1  0.364870  0.868729  0.734260  1
  O  O22  1  0.635130  0.131271  0.265740  1
  O  O23  1  0.496030  0.622714  0.091053  1
  O  O24  1  0.089823  0.881080  0.585467  1
  O  O25  1  0.503970  0.122714  0.408947  1
  O  O26  1  0.364870  0.631271  0.234260  1
  O  O27  1  0.089823  0.618920  0.085467  1
  F  F28  1  0.171561  0.961192  0.227090  1
  F  F29  1  0.169752  0.282788  0.235764  1
  F  F30  1  0.971548  0.130283  0.065585  1
  F  F31  1  0.028452  0.630283  0.434415  1
  F  F32  1  0.416543  0.512297  0.586364  1
  F  F33  1  0.606303  0.717217  0.914190  1
  F  F34  1  0.830248  0.782788  0.264236  1
  F  F35  1  0.828439  0.461192  0.272910  1
  F  F36  1  0.393697  0.217217  0.585810  1
  F  F37  1  0.583457  0.012297  0.913636  1
  F  F38  1  0.416543  0.987703  0.086364  1
  F  F39  1  0.606303  0.782783  0.414190  1
  F  F40  1  0.171561  0.538808  0.727090  1
  F  F41  1  0.169752  0.217212  0.735764  1
  F  F42  1  0.393697  0.282783  0.085810  1
  F  F43  1  0.583457  0.487703  0.413636  1
  F  F44  1  0.971548  0.369717  0.565585  1
  F  F45  1  0.028452  0.869717  0.934415  1
  F  F46  1  0.830248  0.717212  0.764236  1
  F  F47  1  0.828439  0.038808  0.772910  1
