# generated using pymatgen
data_Ba5Y3F19
_symmetry_space_group_name_H-M   'P 1'
_cell_length_a   11.94569609
_cell_length_b   11.94569609
_cell_length_c   11.94569609
_cell_angle_alpha   97.04726760
_cell_angle_beta   97.04726760
_cell_angle_gamma   138.99250424
_symmetry_Int_Tables_number   1
_chemical_formula_structural   Ba5Y3F19
_chemical_formula_sum   'Ba10 Y6 F38'
_cell_volume   1047.65829599
_cell_formula_units_Z   2
loop_
 _symmetry_equiv_pos_site_id
 _symmetry_equiv_pos_as_xyz
  1  'x, y, z'
loop_
 _atom_site_type_symbol
 _atom_site_label
 _atom_site_symmetry_multiplicity
 _atom_site_fract_x
 _atom_site_fract_y
 _atom_site_fract_z
 _atom_site_occupancy
  Ba  Ba0  1  0.809350  0.309350  0.500000  1
  Ba  Ba1  1  0.556179  0.253933  0.822802  1
  Ba  Ba2  1  0.056179  0.233377  0.302247  1
  Ba  Ba3  1  0.233377  0.931130  0.177198  1
  Ba  Ba4  1  0.733377  0.556179  0.302247  1
  Ba  Ba5  1  0.253933  0.431130  0.697753  1
  Ba  Ba6  1  0.753933  0.056179  0.822802  1
  Ba  Ba7  1  0.431130  0.733377  0.177198  1
  Ba  Ba8  1  0.931130  0.753933  0.697753  1
  Ba  Ba9  1  0.309350  0.809350  0.500000  1
  Y  Y10  1  0.335341  0.171155  0.500000  1
  Y  Y11  1  0.832976  0.832976  0.000000  1
  Y  Y12  1  0.332976  0.332976  0.000000  1
  Y  Y13  1  0.171155  0.671155  0.835814  1
  Y  Y14  1  0.835341  0.335341  0.164186  1
  Y  Y15  1  0.671155  0.835341  0.500000  1
  F  F16  1  0.412128  0.248863  0.342508  1
  F  F17  1  0.569620  0.406355  0.657492  1
  F  F18  1  0.488548  0.132335  0.500000  1
  F  F19  1  0.742418  0.112262  0.220849  1
  F  F20  1  0.242418  0.021569  0.630156  1
  F  F21  1  0.754156  0.765310  0.805802  1
  F  F22  1  0.585845  0.585845  0.000000  1
  F  F23  1  0.085845  0.085845  0.000000  1
  F  F24  1  0.459508  0.265310  0.011154  1
  F  F25  1  0.891412  0.521569  0.779151  1
  F  F26  1  0.632335  0.988548  0.500000  1
  F  F27  1  0.057275  0.347616  0.500000  1
  F  F28  1  0.557275  0.057275  0.709659  1
  F  F29  1  0.948353  0.754156  0.988846  1
  F  F30  1  0.448353  0.459508  0.194198  1
  F  F31  1  0.021569  0.391412  0.779151  1
  F  F32  1  0.726045  0.226045  0.968973  1
  F  F33  1  0.226045  0.257072  0.500000  1
  F  F34  1  0.912128  0.569620  0.163265  1
  F  F35  1  0.906355  0.069620  0.657492  1
  F  F36  1  0.406355  0.748863  0.836735  1
  F  F37  1  0.757072  0.726045  0.500000  1
  F  F38  1  0.257072  0.757072  0.031027  1
  F  F39  1  0.612262  0.242418  0.220849  1
  F  F40  1  0.112262  0.891412  0.369844  1
  F  F41  1  0.765310  0.959508  0.011154  1
  F  F42  1  0.265310  0.254156  0.805802  1
  F  F43  1  0.847616  0.557275  0.500000  1
  F  F44  1  0.347616  0.847616  0.290341  1
  F  F45  1  0.069620  0.412128  0.163265  1
  F  F46  1  0.988548  0.488548  0.356213  1
  F  F47  1  0.254156  0.448353  0.988846  1
  F  F48  1  0.959508  0.948353  0.194198  1
  F  F49  1  0.391412  0.612262  0.369844  1
  F  F50  1  0.132335  0.632335  0.643787  1
  F  F51  1  0.248863  0.906355  0.836735  1
  F  F52  1  0.748863  0.912128  0.342508  1
  F  F53  1  0.521569  0.742418  0.630156  1
