# generated using pymatgen
data_HoBO3
_symmetry_space_group_name_H-M   'P 1'
_cell_length_a   6.58141950
_cell_length_b   6.58141950
_cell_length_c   8.84418175
_cell_angle_alpha   90.00000000
_cell_angle_beta   90.00000000
_cell_angle_gamma   120.06052988
_symmetry_Int_Tables_number   1
_chemical_formula_structural   HoBO3
_chemical_formula_sum   'Ho6 B6 O18'
_cell_volume   331.56006864
_cell_formula_units_Z   6
loop_
 _symmetry_equiv_pos_site_id
 _symmetry_equiv_pos_as_xyz
  1  'x, y, z'
loop_
 _atom_site_type_symbol
 _atom_site_label
 _atom_site_symmetry_multiplicity
 _atom_site_fract_x
 _atom_site_fract_y
 _atom_site_fract_z
 _atom_site_occupancy
  Ho  Ho0  1  0.828832  0.171168  0.500000  1
  Ho  Ho1  1  0.828832  0.171168  0.000000  1
  Ho  Ho2  1  0.500000  0.500000  0.500000  1
  Ho  Ho3  1  0.500000  0.500000  1.000000  1
  Ho  Ho4  1  0.171168  0.828832  0.000000  1
  Ho  Ho5  1  0.171168  0.828832  0.500000  1
  B  B6  1  0.833798  0.593164  0.750000  1
  B  B7  1  0.406836  0.166202  0.250000  1
  B  B8  1  0.924250  0.924250  0.250000  1
  B  B9  1  0.075750  0.075750  0.750000  1
  B  B10  1  0.593164  0.833798  0.750000  1
  B  B11  1  0.166202  0.406836  0.250000  1
  O  O12  1  0.833897  0.051905  0.750000  1
  O  O13  1  0.948095  0.166103  0.250000  1
  O  O14  1  0.833181  0.483523  0.892802  1
  O  O15  1  0.833181  0.483523  0.607198  1
  O  O16  1  0.516477  0.166819  0.392802  1
  O  O17  1  0.516477  0.166819  0.107198  1
  O  O18  1  0.816045  0.816045  0.105645  1
  O  O19  1  0.383368  0.383368  0.250000  1
  O  O20  1  0.816045  0.816045  0.394355  1
  O  O21  1  0.183955  0.183955  0.605645  1
  O  O22  1  0.183955  0.183955  0.894355  1
  O  O23  1  0.616632  0.616632  0.750000  1
  O  O24  1  0.483523  0.833181  0.607198  1
  O  O25  1  0.166819  0.516477  0.107198  1
  O  O26  1  0.483523  0.833181  0.892802  1
  O  O27  1  0.166819  0.516477  0.392802  1
  O  O28  1  0.051905  0.833897  0.750000  1
  O  O29  1  0.166103  0.948095  0.250000  1
