# generated using pymatgen
data_K6YO4
_symmetry_space_group_name_H-M   'P 1'
_cell_length_a   9.39526655
_cell_length_b   9.39526655
_cell_length_c   6.71466104
_cell_angle_alpha   90.00000000
_cell_angle_beta   90.00000000
_cell_angle_gamma   120.00000000
_symmetry_Int_Tables_number   1
_chemical_formula_structural   K6YO4
_chemical_formula_sum   'K12 Y2 O8'
_cell_volume   513.30197725
_cell_formula_units_Z   2
loop_
 _symmetry_equiv_pos_site_id
 _symmetry_equiv_pos_as_xyz
  1  'x, y, z'
loop_
 _atom_site_type_symbol
 _atom_site_label
 _atom_site_symmetry_multiplicity
 _atom_site_fract_x
 _atom_site_fract_y
 _atom_site_fract_z
 _atom_site_occupancy
  K  K0  1  0.132207  0.867793  0.995103  1
  K  K1  1  0.083847  0.541923  0.313746  1
  K  K2  1  0.458077  0.916153  0.313746  1
  K  K3  1  0.132207  0.264413  0.995103  1
  K  K4  1  0.458077  0.541923  0.313746  1
  K  K5  1  0.264413  0.132207  0.495103  1
  K  K6  1  0.735587  0.867793  0.995103  1
  K  K7  1  0.541923  0.458077  0.813746  1
  K  K8  1  0.541923  0.083847  0.813746  1
  K  K9  1  0.867793  0.735587  0.495103  1
  K  K10  1  0.916153  0.458077  0.813746  1
  K  K11  1  0.867793  0.132207  0.495103  1
  Y  Y12  1  0.333333  0.666667  0.730822  1
  Y  Y13  1  0.666667  0.333333  0.230822  1
  O  O14  1  0.209448  0.790552  0.611697  1
  O  O15  1  0.333333  0.666667  0.053652  1
  O  O16  1  0.209448  0.418896  0.611697  1
  O  O17  1  0.581104  0.790552  0.611697  1
  O  O18  1  0.418896  0.209448  0.111697  1
  O  O19  1  0.790552  0.581104  0.111697  1
  O  O20  1  0.666667  0.333333  0.553652  1
  O  O21  1  0.790552  0.209448  0.111697  1
