# generated using pymatgen
data_LiMnPO4
_symmetry_space_group_name_H-M   'P 1'
_cell_length_a   8.49912414
_cell_length_b   8.49912414
_cell_length_c   8.49912414
_cell_angle_alpha   34.37012792
_cell_angle_beta   34.37012792
_cell_angle_gamma   34.37012792
_symmetry_Int_Tables_number   1
_chemical_formula_structural   LiMnPO4
_chemical_formula_sum   'Li2 Mn2 P2 O8'
_cell_volume   174.51661740
_cell_formula_units_Z   2
loop_
 _symmetry_equiv_pos_site_id
 _symmetry_equiv_pos_as_xyz
  1  'x, y, z'
loop_
 _atom_site_type_symbol
 _atom_site_label
 _atom_site_symmetry_multiplicity
 _atom_site_fract_x
 _atom_site_fract_y
 _atom_site_fract_z
 _atom_site_occupancy
  Li  Li0  1  0.848562  0.848562  0.848562  1
  Li  Li1  1  0.151438  0.151438  0.151438  1
  Mn  Mn2  1  0.724163  0.724163  0.724163  1
  Mn  Mn3  1  0.275837  0.275837  0.275837  1
  P  P4  1  0.575669  0.575669  0.575669  1
  P  P5  1  0.424331  0.424331  0.424331  1
  O  O6  1  0.861957  0.272800  0.532146  1
  O  O7  1  0.727200  0.467854  0.138043  1
  O  O8  1  0.138043  0.727200  0.467854  1
  O  O9  1  0.359687  0.359687  0.359687  1
  O  O10  1  0.532146  0.861957  0.272800  1
  O  O11  1  0.272800  0.532146  0.861957  1
  O  O12  1  0.467854  0.138043  0.727200  1
  O  O13  1  0.640313  0.640313  0.640313  1
