# generated using pymatgen
data_Mn3SnO8
_symmetry_space_group_name_H-M   'P 1'
_cell_length_a   8.44703322
_cell_length_b   8.44703322
_cell_length_c   8.44703322
_cell_angle_alpha   90.00000000
_cell_angle_beta   90.00000000
_cell_angle_gamma   90.00000000
_symmetry_Int_Tables_number   1
_chemical_formula_structural   Mn3SnO8
_chemical_formula_sum   'Mn12 Sn4 O32'
_cell_volume   602.71584158
_cell_formula_units_Z   4
loop_
 _symmetry_equiv_pos_site_id
 _symmetry_equiv_pos_as_xyz
  1  'x, y, z'
loop_
 _atom_site_type_symbol
 _atom_site_label
 _atom_site_symmetry_multiplicity
 _atom_site_fract_x
 _atom_site_fract_y
 _atom_site_fract_z
 _atom_site_occupancy
  Mn  Mn0  1  0.111497  0.138503  0.625000  1
  Mn  Mn1  1  0.125000  0.388503  0.861497  1
  Mn  Mn2  1  0.138503  0.625000  0.111497  1
  Mn  Mn3  1  0.361497  0.375000  0.611497  1
  Mn  Mn4  1  0.375000  0.611497  0.361497  1
  Mn  Mn5  1  0.388503  0.861497  0.125000  1
  Mn  Mn6  1  0.611497  0.361497  0.375000  1
  Mn  Mn7  1  0.625000  0.111497  0.138503  1
  Mn  Mn8  1  0.638503  0.875000  0.888503  1
  Mn  Mn9  1  0.861497  0.125000  0.388503  1
  Mn  Mn10  1  0.875000  0.888503  0.638503  1
  Mn  Mn11  1  0.888503  0.638503  0.875000  1
  Sn  Sn12  1  0.125000  0.875000  0.375000  1
  Sn  Sn13  1  0.375000  0.125000  0.875000  1
  Sn  Sn14  1  0.625000  0.625000  0.625000  1
  Sn  Sn15  1  0.875000  0.375000  0.125000  1
  O  O16  1  0.091726  0.123308  0.395769  1
  O  O17  1  0.104231  0.908274  0.623308  1
  O  O18  1  0.117949  0.617949  0.882051  1
  O  O19  1  0.126692  0.158274  0.854231  1
  O  O20  1  0.123308  0.395769  0.091726  1
  O  O21  1  0.132051  0.367949  0.632051  1
  O  O22  1  0.145769  0.626692  0.341726  1
  O  O23  1  0.158274  0.854231  0.126692  1
  O  O24  1  0.341726  0.145769  0.626692  1
  O  O25  1  0.354231  0.373308  0.841726  1
  O  O26  1  0.367949  0.632051  0.132051  1
  O  O27  1  0.376692  0.604231  0.591726  1
  O  O28  1  0.373308  0.841726  0.354231  1
  O  O29  1  0.382051  0.382051  0.382051  1
  O  O30  1  0.395769  0.091726  0.123308  1
  O  O31  1  0.408274  0.876692  0.895769  1
  O  O32  1  0.591726  0.376692  0.604231  1
  O  O33  1  0.604231  0.591726  0.376692  1
  O  O34  1  0.617949  0.882051  0.117949  1
  O  O35  1  0.626692  0.341726  0.145769  1
  O  O36  1  0.623308  0.104231  0.908274  1
  O  O37  1  0.632051  0.132051  0.367949  1
  O  O38  1  0.645769  0.873308  0.658274  1
  O  O39  1  0.658274  0.645769  0.873308  1
  O  O40  1  0.841726  0.354231  0.373308  1
  O  O41  1  0.854231  0.126692  0.158274  1
  O  O42  1  0.867949  0.867949  0.867949  1
  O  O43  1  0.876692  0.895769  0.408274  1
  O  O44  1  0.873308  0.658274  0.645769  1
  O  O45  1  0.882051  0.117949  0.617949  1
  O  O46  1  0.895769  0.408274  0.876692  1
  O  O47  1  0.908274  0.623308  0.104231  1
