# generated using pymatgen
data_Li4(FeO2)9
_symmetry_space_group_name_H-M   'P 1'
_cell_length_a   9.39926278
_cell_length_b   2.96335638
_cell_length_c   24.01254498
_cell_angle_alpha   90.00000000
_cell_angle_beta   90.03564445
_cell_angle_gamma   90.00000000
_symmetry_Int_Tables_number   1
_chemical_formula_structural   Li4(FeO2)9
_chemical_formula_sum   'Li8 Fe18 O36'
_cell_volume   668.83005848
_cell_formula_units_Z   2
loop_
 _symmetry_equiv_pos_site_id
 _symmetry_equiv_pos_as_xyz
  1  'x, y, z'
loop_
 _atom_site_type_symbol
 _atom_site_label
 _atom_site_symmetry_multiplicity
 _atom_site_fract_x
 _atom_site_fract_y
 _atom_site_fract_z
 _atom_site_occupancy
  Li  Li0  1  0.817167  0.000000  0.990614  1
  Li  Li1  1  0.814867  0.000000  0.194880  1
  Li  Li2  1  0.685897  0.000000  0.695835  1
  Li  Li3  1  0.689102  0.000000  0.486004  1
  Li  Li4  1  0.310348  0.000000  0.512416  1
  Li  Li5  1  0.314968  0.000000  0.302966  1
  Li  Li6  1  0.183245  0.000000  0.801551  1
  Li  Li7  1  0.186336  0.000000  0.011207  1
  Fe  Fe8  1  0.997227  0.000000  0.497248  1
  Fe  Fe9  1  0.008005  0.000000  0.104308  1
  Fe  Fe10  1  0.016246  0.000000  0.318256  1
  Fe  Fe11  1  0.831766  0.500000  0.583235  1
  Fe  Fe12  1  0.824345  0.500000  0.808315  1
  Fe  Fe13  1  0.675655  0.500000  0.309897  1
  Fe  Fe14  1  0.666583  0.500000  0.084474  1
  Fe  Fe15  1  0.483014  0.000000  0.816496  1
  Fe  Fe16  1  0.494807  0.000000  0.602711  1
  Fe  Fe17  1  0.503131  0.000000  0.997005  1
  Fe  Fe18  1  0.506258  0.000000  0.397000  1
  Fe  Fe19  1  0.515518  0.000000  0.189594  1
  Fe  Fe20  1  0.326248  0.500000  0.913478  1
  Fe  Fe21  1  0.330756  0.500000  0.692001  1
  Fe  Fe22  1  0.171161  0.500000  0.194100  1
  Fe  Fe23  1  0.172730  0.500000  0.414329  1
  Fe  Fe24  1  0.985447  0.000000  0.686762  1
  Fe  Fe25  1  0.990238  0.000000  0.896780  1
  O  O26  1  0.027048  0.000000  0.411192  1
  O  O27  1  0.973732  0.000000  0.582706  1
  O  O28  1  0.940098  0.500000  0.946472  1
  O  O29  1  0.965545  0.500000  0.161931  1
  O  O30  1  0.848314  0.500000  0.663183  1
  O  O31  1  0.858982  0.000000  0.755114  1
  O  O32  1  0.850091  0.500000  0.500401  1
  O  O33  1  0.887264  0.500000  0.300824  1
  O  O34  1  0.804940  0.000000  0.863157  1
  O  O35  1  0.809055  0.000000  0.080682  1
  O  O36  1  0.690448  0.000000  0.577825  1
  O  O37  1  0.692488  0.000000  0.365275  1
  O  O38  1  0.612352  0.500000  0.798391  1
  O  O39  1  0.650824  0.500000  0.001777  1
  O  O40  1  0.643610  0.000000  0.256499  1
  O  O41  1  0.650485  0.500000  0.164281  1
  O  O42  1  0.537108  0.500000  0.660239  1
  O  O43  1  0.556593  0.500000  0.446655  1
  O  O44  1  0.525737  0.000000  0.082862  1
  O  O45  1  0.471743  0.000000  0.910566  1
  O  O46  1  0.440064  0.500000  0.553589  1
  O  O47  1  0.468416  0.500000  0.339453  1
  O  O48  1  0.336469  0.500000  0.834122  1
  O  O49  1  0.366361  0.000000  0.744294  1
  O  O50  1  0.353753  0.500000  0.994562  1
  O  O51  1  0.385133  0.500000  0.207492  1
  O  O52  1  0.309638  0.000000  0.637444  1
  O  O53  1  0.312534  0.000000  0.421326  1
  O  O54  1  0.185792  0.000000  0.920743  1
  O  O55  1  0.193436  0.000000  0.139866  1
  O  O56  1  0.116304  0.500000  0.704653  1
  O  O57  1  0.146491  0.500000  0.495288  1
  O  O58  1  0.134775  0.000000  0.246293  1
  O  O59  1  0.163241  0.500000  0.335358  1
  O  O60  1  0.029468  0.500000  0.839163  1
  O  O61  1  0.060600  0.500000  0.054852  1
