# generated using pymatgen
data_Co3OF5
_symmetry_space_group_name_H-M   'P 1'
_cell_length_a   4.71390171
_cell_length_b   4.71760373
_cell_length_c   9.52587187
_cell_angle_alpha   90.00000000
_cell_angle_beta   90.00000000
_cell_angle_gamma   90.00000000
_symmetry_Int_Tables_number   1
_chemical_formula_structural   Co3OF5
_chemical_formula_sum   'Co6 O2 F10'
_cell_volume   211.83938969
_cell_formula_units_Z   2
loop_
 _symmetry_equiv_pos_site_id
 _symmetry_equiv_pos_as_xyz
  1  'x, y, z'
loop_
 _atom_site_type_symbol
 _atom_site_label
 _atom_site_symmetry_multiplicity
 _atom_site_fract_x
 _atom_site_fract_y
 _atom_site_fract_z
 _atom_site_occupancy
  Co  Co0  1  0.782850  0.028863  0.500000  1
  Co  Co1  1  0.753485  0.989106  0.838683  1
  Co  Co2  1  0.753485  0.989106  0.161317  1
  Co  Co3  1  0.246515  0.489106  0.661317  1
  Co  Co4  1  0.246515  0.489106  0.338683  1
  Co  Co5  1  0.217150  0.528863  0.000000  1
  O  O6  1  0.948040  0.796148  0.000000  1
  O  O7  1  0.051960  0.296148  0.500000  1
  F  F8  1  0.947013  0.802595  0.664848  1
  F  F9  1  0.947013  0.802595  0.335152  1
  F  F10  1  0.052987  0.302595  0.835152  1
  F  F11  1  0.052987  0.302595  0.164848  1
  F  F12  1  0.440621  0.690211  0.167196  1
  F  F13  1  0.466760  0.711164  0.500000  1
  F  F14  1  0.440621  0.690211  0.832804  1
  F  F15  1  0.559379  0.190211  0.667196  1
  F  F16  1  0.559379  0.190211  0.332804  1
  F  F17  1  0.533240  0.211164  0.000000  1
