# generated using pymatgen
data_Na(WO3)10
_symmetry_space_group_name_H-M   'P 1'
_cell_length_a   6.70542257
_cell_length_b   6.70542257
_cell_length_c   13.98225531
_cell_angle_alpha   80.55962417
_cell_angle_beta   99.44037583
_cell_angle_gamma   109.63018049
_symmetry_Int_Tables_number   1
_chemical_formula_structural   Na(WO3)10
_chemical_formula_sum   'Na1 W10 O30'
_cell_volume   580.09443551
_cell_formula_units_Z   1
loop_
 _symmetry_equiv_pos_site_id
 _symmetry_equiv_pos_as_xyz
  1  'x, y, z'
loop_
 _atom_site_type_symbol
 _atom_site_label
 _atom_site_symmetry_multiplicity
 _atom_site_fract_x
 _atom_site_fract_y
 _atom_site_fract_z
 _atom_site_occupancy
  Na  Na0  1  0.300564  0.300564  0.500000  1
  W  W1  1  0.396022  0.704750  0.905715  1
  W  W2  1  0.195591  0.905244  0.104085  1
  W  W3  1  0.308490  0.800744  0.495555  1
  W  W4  1  0.101310  0.990393  0.698112  1
  W  W5  1  0.704750  0.396022  0.094285  1
  W  W6  1  0.502317  0.593972  0.293363  1
  W  W7  1  0.905244  0.195591  0.895915  1
  W  W8  1  0.593972  0.502317  0.706637  1
  W  W9  1  0.990393  0.101310  0.301888  1
  W  W10  1  0.800744  0.308490  0.504445  1
  O  O11  1  0.350053  0.749117  0.200054  1
  O  O12  1  0.949915  0.649897  0.100234  1
  O  O13  1  0.497406  0.601219  0.801124  1
  O  O14  1  0.298412  0.801201  0.001505  1
  O  O15  1  0.099110  0.000765  0.201910  1
  O  O16  1  0.448119  0.646243  0.598706  1
  O  O17  1  0.249077  0.849635  0.800121  1
  O  O18  1  0.450013  0.149752  0.100127  1
  O  O19  1  0.849635  0.249077  0.199879  1
  O  O20  1  0.049848  0.049848  0.000000  1
  O  O21  1  0.649897  0.949915  0.899766  1
  O  O22  1  0.848437  0.749176  0.699347  1
  O  O23  1  0.203026  0.903844  0.597958  1
  O  O24  1  0.801201  0.298412  0.998495  1
  O  O25  1  0.601219  0.497406  0.198876  1
  O  O26  1  0.000765  0.099110  0.798090  1
  O  O27  1  0.400316  0.695215  0.400031  1
  O  O28  1  0.149752  0.450013  0.899873  1
  O  O29  1  0.153063  0.955315  0.401410  1
  O  O30  1  0.749117  0.350053  0.799946  1
  O  O31  1  0.348869  0.249659  0.697557  1
  O  O32  1  0.549643  0.549643  0.000000  1
  O  O33  1  0.749176  0.848437  0.300653  1
  O  O34  1  0.955315  0.153063  0.598590  1
  O  O35  1  0.550265  0.053996  0.500264  1
  O  O36  1  0.695215  0.400316  0.599969  1
  O  O37  1  0.903844  0.203026  0.402042  1
  O  O38  1  0.053996  0.550265  0.499736  1
  O  O39  1  0.249659  0.348869  0.302443  1
  O  O40  1  0.646243  0.448119  0.401294  1
