# generated using pymatgen
data_LiMnSiO4
_symmetry_space_group_name_H-M   'P 1'
_cell_length_a   4.91734314
_cell_length_b   6.40770400
_cell_length_c   9.04231455
_cell_angle_alpha   90.00000000
_cell_angle_beta   90.00000000
_cell_angle_gamma   90.00000000
_symmetry_Int_Tables_number   1
_chemical_formula_structural   LiMnSiO4
_chemical_formula_sum   'Li4 Mn4 Si4 O16'
_cell_volume   284.91319782
_cell_formula_units_Z   4
loop_
 _symmetry_equiv_pos_site_id
 _symmetry_equiv_pos_as_xyz
  1  'x, y, z'
loop_
 _atom_site_type_symbol
 _atom_site_label
 _atom_site_symmetry_multiplicity
 _atom_site_fract_x
 _atom_site_fract_y
 _atom_site_fract_z
 _atom_site_occupancy
  Li  Li0  1  0.462208  0.750000  0.337001  1
  Li  Li1  1  0.037792  0.750000  0.837001  1
  Li  Li2  1  0.962208  0.250000  0.162999  1
  Li  Li3  1  0.537792  0.250000  0.662999  1
  Mn  Mn4  1  0.000000  0.500000  0.500000  1
  Mn  Mn5  1  0.500000  0.500000  0.000000  1
  Mn  Mn6  1  0.000000  0.000000  0.500000  1
  Mn  Mn7  1  0.500000  0.000000  0.000000  1
  Si  Si8  1  0.964690  0.750000  0.179334  1
  Si  Si9  1  0.535310  0.750000  0.679334  1
  Si  Si10  1  0.464690  0.250000  0.320666  1
  Si  Si11  1  0.035310  0.250000  0.820666  1
  O  O12  1  0.814569  0.538031  0.118856  1
  O  O13  1  0.685431  0.538031  0.618856  1
  O  O14  1  0.901135  0.750000  0.363778  1
  O  O15  1  0.286197  0.750000  0.131674  1
  O  O16  1  0.213803  0.750000  0.631674  1
  O  O17  1  0.598865  0.750000  0.863778  1
  O  O18  1  0.814569  0.961969  0.118856  1
  O  O19  1  0.685431  0.961969  0.618856  1
  O  O20  1  0.314569  0.038031  0.381144  1
  O  O21  1  0.185431  0.038031  0.881144  1
  O  O22  1  0.786197  0.250000  0.368326  1
  O  O23  1  0.401135  0.250000  0.136222  1
  O  O24  1  0.713803  0.250000  0.868326  1
  O  O25  1  0.098865  0.250000  0.636222  1
  O  O26  1  0.314569  0.461969  0.381144  1
  O  O27  1  0.185431  0.461969  0.881144  1
