# generated using pymatgen
data_Na6Sn2B4SO16
_symmetry_space_group_name_H-M   'P 1'
_cell_length_a   10.03717513
_cell_length_b   10.03717513
_cell_length_c   10.03717513
_cell_angle_alpha   60.00000000
_cell_angle_beta   60.00000000
_cell_angle_gamma   60.00000000
_symmetry_Int_Tables_number   1
_chemical_formula_structural   Na6Sn2B4SO16
_chemical_formula_sum   'Na12 Sn4 B8 S2 O32'
_cell_volume   715.02217066
_cell_formula_units_Z   2
loop_
 _symmetry_equiv_pos_site_id
 _symmetry_equiv_pos_as_xyz
  1  'x, y, z'
loop_
 _atom_site_type_symbol
 _atom_site_label
 _atom_site_symmetry_multiplicity
 _atom_site_fract_x
 _atom_site_fract_y
 _atom_site_fract_z
 _atom_site_occupancy
  Na  Na0  1  0.536495  0.963505  0.963505  1
  Na  Na1  1  0.713505  0.286495  0.713505  1
  Na  Na2  1  0.536495  0.536495  0.963505  1
  Na  Na3  1  0.963505  0.963505  0.536495  1
  Na  Na4  1  0.286495  0.713505  0.286495  1
  Na  Na5  1  0.286495  0.713505  0.713505  1
  Na  Na6  1  0.963505  0.536495  0.536495  1
  Na  Na7  1  0.963505  0.536495  0.963505  1
  Na  Na8  1  0.286495  0.286495  0.713505  1
  Na  Na9  1  0.713505  0.713505  0.286495  1
  Na  Na10  1  0.536495  0.963505  0.536495  1
  Na  Na11  1  0.713505  0.286495  0.286495  1
  Sn  Sn12  1  0.125000  0.625000  0.125000  1
  Sn  Sn13  1  0.125000  0.125000  0.125000  1
  Sn  Sn14  1  0.625000  0.125000  0.125000  1
  Sn  Sn15  1  0.125000  0.125000  0.625000  1
  B  B16  1  0.340948  0.977156  0.340948  1
  B  B17  1  0.340948  0.340948  0.977156  1
  B  B18  1  0.340948  0.340948  0.340948  1
  B  B19  1  0.977156  0.340948  0.340948  1
  B  B20  1  0.272844  0.909052  0.909052  1
  B  B21  1  0.909052  0.909052  0.272844  1
  B  B22  1  0.909052  0.909052  0.909052  1
  B  B23  1  0.909052  0.272844  0.909052  1
  S  S24  1  0.750000  0.750000  0.750000  1
  S  S25  1  0.500000  0.500000  0.500000  1
  O  O26  1  0.759298  0.032485  0.931445  1
  O  O27  1  0.931445  0.276773  0.759298  1
  O  O28  1  0.490702  0.973227  0.217515  1
  O  O29  1  0.217515  0.973227  0.318555  1
  O  O30  1  0.932488  0.689171  0.689171  1
  O  O31  1  0.490702  0.318555  0.973227  1
  O  O32  1  0.318555  0.217515  0.973227  1
  O  O33  1  0.689171  0.689171  0.932488  1
  O  O34  1  0.689171  0.689171  0.689171  1
  O  O35  1  0.217515  0.318555  0.490702  1
  O  O36  1  0.318555  0.490702  0.217515  1
  O  O37  1  0.689171  0.932488  0.689171  1
  O  O38  1  0.973227  0.217515  0.490702  1
  O  O39  1  0.217515  0.490702  0.973227  1
  O  O40  1  0.973227  0.318555  0.217515  1
  O  O41  1  0.276773  0.759298  0.931445  1
  O  O42  1  0.973227  0.490702  0.318555  1
  O  O43  1  0.276773  0.931445  0.032485  1
  O  O44  1  0.032485  0.759298  0.276773  1
  O  O45  1  0.276773  0.032485  0.759298  1
  O  O46  1  0.560829  0.317512  0.560829  1
  O  O47  1  0.931445  0.759298  0.032485  1
  O  O48  1  0.032485  0.931445  0.759298  1
  O  O49  1  0.560829  0.560829  0.317512  1
  O  O50  1  0.560829  0.560829  0.560829  1
  O  O51  1  0.931445  0.032485  0.276773  1
  O  O52  1  0.759298  0.931445  0.276773  1
  O  O53  1  0.317512  0.560829  0.560829  1
  O  O54  1  0.032485  0.276773  0.931445  1
  O  O55  1  0.759298  0.276773  0.032485  1
  O  O56  1  0.318555  0.973227  0.490702  1
  O  O57  1  0.490702  0.217515  0.318555  1
