# generated using pymatgen
data_V3OF11
_symmetry_space_group_name_H-M   'P 1'
_cell_length_a   5.27070957
_cell_length_b   5.44345348
_cell_length_c   14.61490182
_cell_angle_alpha   79.54210977
_cell_angle_beta   89.95823044
_cell_angle_gamma   89.96054609
_symmetry_Int_Tables_number   1
_chemical_formula_structural   V3OF11
_chemical_formula_sum   'V6 O2 F22'
_cell_volume   412.34855601
_cell_formula_units_Z   2
loop_
 _symmetry_equiv_pos_site_id
 _symmetry_equiv_pos_as_xyz
  1  'x, y, z'
loop_
 _atom_site_type_symbol
 _atom_site_label
 _atom_site_symmetry_multiplicity
 _atom_site_fract_x
 _atom_site_fract_y
 _atom_site_fract_z
 _atom_site_occupancy
  V  V0  1  0.498236  0.667705  0.665562  1
  V  V1  1  0.000000  0.500000  0.000000  1
  V  V2  1  0.501764  0.332295  0.334438  1
  V  V3  1  0.993125  0.165624  0.672425  1
  V  V4  1  0.500000  0.000000  0.000000  1
  V  V5  1  0.006875  0.834376  0.327575  1
  O  O6  1  0.918128  0.123302  0.781719  1
  O  O7  1  0.081872  0.876698  0.218281  1
  F  F8  1  0.704582  0.640180  0.308895  1
  F  F9  1  0.799067  0.470844  0.640875  1
  F  F10  1  0.200933  0.529156  0.359125  1
  F  F11  1  0.585884  0.623512  0.784194  1
  F  F12  1  0.913563  0.456464  0.118598  1
  F  F13  1  0.584304  0.289622  0.452366  1
  F  F14  1  0.086437  0.543536  0.881402  1
  F  F15  1  0.414116  0.376488  0.215806  1
  F  F16  1  0.087986  0.210380  0.549429  1
  F  F17  1  0.700373  0.308799  0.975020  1
  F  F18  1  0.798618  0.137695  0.308552  1
  F  F19  1  0.705978  0.974424  0.640846  1
  F  F20  1  0.295418  0.359820  0.691105  1
  F  F21  1  0.200467  0.191461  0.024956  1
  F  F22  1  0.294022  0.025576  0.359154  1
  F  F23  1  0.586047  0.956569  0.118573  1
  F  F24  1  0.912014  0.789620  0.450571  1
  F  F25  1  0.413953  0.043431  0.881427  1
  F  F26  1  0.415696  0.710378  0.547634  1
  F  F27  1  0.799533  0.808539  0.975044  1
  F  F28  1  0.201382  0.862305  0.691448  1
  F  F29  1  0.299627  0.691201  0.024980  1
