# generated using pymatgen
data_NaH5CO4
_symmetry_space_group_name_H-M   'P 1'
_cell_length_a   8.14925771
_cell_length_b   8.14925771
_cell_length_c   8.82243556
_cell_angle_alpha   90.00000000
_cell_angle_beta   90.00000000
_cell_angle_gamma   127.86435436
_symmetry_Int_Tables_number   1
_chemical_formula_structural   NaH5CO4
_chemical_formula_sum   'Na4 H20 C4 O16'
_cell_volume   462.54936053
_cell_formula_units_Z   4
loop_
 _symmetry_equiv_pos_site_id
 _symmetry_equiv_pos_as_xyz
  1  'x, y, z'
loop_
 _atom_site_type_symbol
 _atom_site_label
 _atom_site_symmetry_multiplicity
 _atom_site_fract_x
 _atom_site_fract_y
 _atom_site_fract_z
 _atom_site_occupancy
  Na  Na0  1  0.758109  0.758109  0.500000  1
  Na  Na1  1  0.258109  0.258109  1.000000  1
  Na  Na2  1  0.241891  0.241891  0.500000  1
  Na  Na3  1  0.741891  0.741891  1.000000  1
  H  H4  1  0.028473  0.291758  0.799223  1
  H  H5  1  0.291758  0.028473  0.200777  1
  H  H6  1  0.791758  0.528473  0.299223  1
  H  H7  1  0.528473  0.791758  0.700777  1
  H  H8  1  0.971527  0.708242  0.200777  1
  H  H9  1  0.708242  0.971527  0.799223  1
  H  H10  1  0.208242  0.471527  0.700777  1
  H  H11  1  0.471527  0.208242  0.299223  1
  H  H12  1  0.915226  0.084774  0.285035  1
  H  H13  1  0.084774  0.915226  0.714965  1
  H  H14  1  0.584774  0.415226  0.785035  1
  H  H15  1  0.415226  0.584774  0.214965  1
  H  H16  1  0.839532  0.160468  0.408793  1
  H  H17  1  0.160468  0.839532  0.591207  1
  H  H18  1  0.660468  0.339532  0.908793  1
  H  H19  1  0.339532  0.660468  0.091207  1
  H  H20  1  0.230017  0.769983  0.863915  1
  H  H21  1  0.769983  0.230017  0.136085  1
  H  H22  1  0.269983  0.730017  0.363915  1
  H  H23  1  0.730017  0.269983  0.636085  1
  C  C24  1  0.818935  0.181065  0.040017  1
  C  C25  1  0.181065  0.818935  0.959983  1
  C  C26  1  0.681065  0.318935  0.540017  1
  C  C27  1  0.318935  0.681065  0.459983  1
  O  O28  1  0.096915  0.903085  0.928098  1
  O  O29  1  0.903085  0.096915  0.071902  1
  O  O30  1  0.403085  0.596915  0.428098  1
  O  O31  1  0.596915  0.403085  0.571902  1
  O  O32  1  0.214015  0.785985  0.094069  1
  O  O33  1  0.785985  0.214015  0.905931  1
  O  O34  1  0.285985  0.714015  0.594069  1
  O  O35  1  0.714015  0.285985  0.405931  1
  O  O36  1  0.906747  0.093253  0.396467  1
  O  O37  1  0.093253  0.906747  0.603533  1
  O  O38  1  0.593253  0.406747  0.896467  1
  O  O39  1  0.406747  0.593253  0.103533  1
  O  O40  1  0.659943  0.840057  0.750000  1
  O  O41  1  0.840057  0.659943  0.250000  1
  O  O42  1  0.340057  0.159943  0.250000  1
  O  O43  1  0.159943  0.340057  0.750000  1
