# generated using pymatgen
data_LiVF3
_symmetry_space_group_name_H-M   'P 1'
_cell_length_a   5.69577835
_cell_length_b   5.69577835
_cell_length_c   5.69577835
_cell_angle_alpha   55.48672018
_cell_angle_beta   55.48672018
_cell_angle_gamma   55.48672018
_symmetry_Int_Tables_number   1
_chemical_formula_structural   LiVF3
_chemical_formula_sum   'Li2 V2 F6'
_cell_volume   116.96775222
_cell_formula_units_Z   2
loop_
 _symmetry_equiv_pos_site_id
 _symmetry_equiv_pos_as_xyz
  1  'x, y, z'
loop_
 _atom_site_type_symbol
 _atom_site_label
 _atom_site_symmetry_multiplicity
 _atom_site_fract_x
 _atom_site_fract_y
 _atom_site_fract_z
 _atom_site_occupancy
  Li  Li0  1  0.204289  0.204289  0.204289  1
  Li  Li1  1  0.704289  0.704289  0.704289  1
  V  V2  1  0.493582  0.493582  0.493582  1
  V  V3  1  0.993582  0.993582  0.993582  1
  F  F4  1  0.400029  0.083292  0.773711  1
  F  F5  1  0.273711  0.583292  0.900029  1
  F  F6  1  0.900029  0.273711  0.583292  1
  F  F7  1  0.773711  0.400029  0.083292  1
  F  F8  1  0.083292  0.773711  0.400029  1
  F  F9  1  0.583292  0.900029  0.273711  1
