# generated using pymatgen
data_Dy2P4O13
_symmetry_space_group_name_H-M   'P 1'
_cell_length_a   8.95021793
_cell_length_b   9.62847508
_cell_length_c   13.99492056
_cell_angle_alpha   90.00000000
_cell_angle_beta   106.85136769
_cell_angle_gamma   90.00000000
_symmetry_Int_Tables_number   1
_chemical_formula_structural   Dy2P4O13
_chemical_formula_sum   'Dy8 P16 O52'
_cell_volume   1154.25221694
_cell_formula_units_Z   4
loop_
 _symmetry_equiv_pos_site_id
 _symmetry_equiv_pos_as_xyz
  1  'x, y, z'
loop_
 _atom_site_type_symbol
 _atom_site_label
 _atom_site_symmetry_multiplicity
 _atom_site_fract_x
 _atom_site_fract_y
 _atom_site_fract_z
 _atom_site_occupancy
  Dy  Dy0  1  0.975759  0.995051  0.277932  1
  Dy  Dy1  1  0.975759  0.504949  0.777932  1
  Dy  Dy2  1  0.551310  0.000912  0.263616  1
  Dy  Dy3  1  0.448690  0.500912  0.236384  1
  Dy  Dy4  1  0.551310  0.499088  0.763616  1
  Dy  Dy5  1  0.448690  0.999088  0.736384  1
  Dy  Dy6  1  0.024241  0.495051  0.222068  1
  Dy  Dy7  1  0.024241  0.004949  0.722068  1
  P  P8  1  0.848680  0.760452  0.061957  1
  P  P9  1  0.711032  0.266812  0.154383  1
  P  P10  1  0.783346  0.707035  0.343129  1
  P  P11  1  0.848680  0.739548  0.561957  1
  P  P12  1  0.505662  0.751592  0.059005  1
  P  P13  1  0.711032  0.233188  0.654383  1
  P  P14  1  0.783346  0.792965  0.843129  1
  P  P15  1  0.494338  0.251592  0.440995  1
  P  P16  1  0.505662  0.748408  0.559005  1
  P  P17  1  0.216654  0.207035  0.156871  1
  P  P18  1  0.288968  0.766812  0.345617  1
  P  P19  1  0.494338  0.248408  0.940995  1
  P  P20  1  0.151320  0.260452  0.438043  1
  P  P21  1  0.216654  0.292965  0.656871  1
  P  P22  1  0.288968  0.733188  0.845617  1
  P  P23  1  0.151320  0.239548  0.938043  1
  O  O24  1  0.948072  0.631994  0.088355  1
  O  O25  1  0.884746  0.877614  0.135692  1
  O  O26  1  0.857132  0.333698  0.141057  1
  O  O27  1  0.881184  0.629298  0.288560  1
  O  O28  1  0.948072  0.868006  0.588355  1
  O  O29  1  0.867531  0.678811  0.460242  1
  O  O30  1  0.668464  0.711320  0.036307  1
  O  O31  1  0.746957  0.132721  0.219254  1
  O  O32  1  0.783322  0.867558  0.327669  1
  O  O33  1  0.884746  0.622386  0.635692  1
  O  O34  1  0.606543  0.206394  0.047532  1
  O  O35  1  0.857132  0.166302  0.641057  1
  O  O36  1  0.881184  0.870702  0.788560  1
  O  O37  1  0.612775  0.367997  0.193100  1
  O  O38  1  0.529019  0.879488  0.123013  1
  O  O39  1  0.618439  0.652107  0.321991  1
  O  O40  1  0.867531  0.821189  0.960242  1
  O  O41  1  0.668464  0.788680  0.536307  1
  O  O42  1  0.746957  0.367279  0.719254  1
  O  O43  1  0.783322  0.632442  0.827669  1
  O  O44  1  0.554640  0.123671  0.402579  1
  O  O45  1  0.606543  0.293606  0.547532  1
  O  O46  1  0.445360  0.623671  0.097421  1
  O  O47  1  0.381561  0.152107  0.178009  1
  O  O48  1  0.470981  0.379488  0.376987  1
  O  O49  1  0.612775  0.132003  0.693100  1
  O  O50  1  0.387225  0.867997  0.306900  1
  O  O51  1  0.529019  0.620512  0.623013  1
  O  O52  1  0.618439  0.847893  0.821991  1
  O  O53  1  0.554640  0.376329  0.902579  1
  O  O54  1  0.393457  0.706394  0.452468  1
  O  O55  1  0.445360  0.876329  0.597421  1
  O  O56  1  0.216678  0.367558  0.172331  1
  O  O57  1  0.253043  0.632721  0.280746  1
  O  O58  1  0.331536  0.211320  0.463693  1
  O  O59  1  0.132469  0.178811  0.039758  1
  O  O60  1  0.381561  0.347893  0.678009  1
  O  O61  1  0.470981  0.120512  0.876987  1
  O  O62  1  0.387225  0.632003  0.806900  1
  O  O63  1  0.118816  0.129298  0.211440  1
  O  O64  1  0.142868  0.833698  0.358943  1
  O  O65  1  0.393457  0.793606  0.952468  1
  O  O66  1  0.115254  0.377614  0.364308  1
  O  O67  1  0.216678  0.132442  0.672331  1
  O  O68  1  0.253043  0.867279  0.780746  1
  O  O69  1  0.331536  0.288680  0.963693  1
  O  O70  1  0.132469  0.321189  0.539758  1
  O  O71  1  0.051928  0.131994  0.411645  1
  O  O72  1  0.118816  0.370702  0.711440  1
  O  O73  1  0.142868  0.666302  0.858943  1
  O  O74  1  0.115254  0.122386  0.864308  1
  O  O75  1  0.051928  0.368006  0.911645  1
