# generated using pymatgen
data_Li2V5NiO12
_symmetry_space_group_name_H-M   'P 1'
_cell_length_a   6.94170940
_cell_length_b   6.94170940
_cell_length_c   5.60124804
_cell_angle_alpha   72.31609250
_cell_angle_beta   107.68390750
_cell_angle_gamma   103.33960528
_symmetry_Int_Tables_number   1
_chemical_formula_structural   Li2V5NiO12
_chemical_formula_sum   'Li2 V5 Ni1 O12'
_cell_volume   242.13717617
_cell_formula_units_Z   1
loop_
 _symmetry_equiv_pos_site_id
 _symmetry_equiv_pos_as_xyz
  1  'x, y, z'
loop_
 _atom_site_type_symbol
 _atom_site_label
 _atom_site_symmetry_multiplicity
 _atom_site_fract_x
 _atom_site_fract_y
 _atom_site_fract_z
 _atom_site_occupancy
  Li  Li0  1  0.730207  0.730207  0.500000  1
  Li  Li1  1  0.271799  0.271799  0.000000  1
  V  V2  1  0.914988  0.914988  0.000000  1
  V  V3  1  0.381418  0.835194  0.953243  1
  V  V4  1  0.191198  0.618201  0.491077  1
  V  V5  1  0.835194  0.381418  0.046757  1
  V  V6  1  0.618201  0.191198  0.508923  1
  Ni  Ni7  1  0.087441  0.087441  0.500000  1
  O  O8  1  0.184848  0.005865  0.897333  1
  O  O9  1  0.666674  0.904801  0.061338  1
  O  O10  1  0.020597  0.799346  0.396196  1
  O  O11  1  0.299817  0.583842  0.825690  1
  O  O12  1  0.904801  0.666674  0.938662  1
  O  O13  1  0.381532  0.688650  0.328086  1
  O  O14  1  0.583842  0.299817  0.174310  1
  O  O15  1  0.045416  0.388170  0.438659  1
  O  O16  1  0.688650  0.381532  0.671914  1
  O  O17  1  0.005865  0.184848  0.102667  1
  O  O18  1  0.388170  0.045416  0.561341  1
  O  O19  1  0.799346  0.020597  0.603804  1
