# generated using pymatgen
data_Li3Al2VO6
_symmetry_space_group_name_H-M   'P 1'
_cell_length_a   4.99622394
_cell_length_b   4.99622394
_cell_length_c   5.12663026
_cell_angle_alpha   80.20874217
_cell_angle_beta   99.79125783
_cell_angle_gamma   60.57600899
_symmetry_Int_Tables_number   1
_chemical_formula_structural   Li3Al2VO6
_chemical_formula_sum   'Li3 Al2 V1 O6'
_cell_volume   104.93723682
_cell_formula_units_Z   1
loop_
 _symmetry_equiv_pos_site_id
 _symmetry_equiv_pos_as_xyz
  1  'x, y, z'
loop_
 _atom_site_type_symbol
 _atom_site_label
 _atom_site_symmetry_multiplicity
 _atom_site_fract_x
 _atom_site_fract_y
 _atom_site_fract_z
 _atom_site_occupancy
  Li  Li0  1  0.832144  0.832144  0.500000  1
  Li  Li1  1  0.500000  0.500000  0.500000  1
  Li  Li2  1  0.167856  0.167856  0.500000  1
  Al  Al3  1  0.664998  0.664998  0.000000  1
  Al  Al4  1  0.335002  0.335002  0.000000  1
  V  V5  1  0.000000  0.000000  0.000000  1
  O  O6  1  0.722320  0.277680  0.221919  1
  O  O7  1  0.578850  0.074221  0.784476  1
  O  O8  1  0.925779  0.421150  0.784476  1
  O  O9  1  0.074221  0.578850  0.215524  1
  O  O10  1  0.421150  0.925779  0.215524  1
  O  O11  1  0.277680  0.722320  0.778081  1
