# generated using pymatgen
data_BaH2(SO4)2
_symmetry_space_group_name_H-M   'P 1'
_cell_length_a   4.79107700
_cell_length_b   10.79553606
_cell_length_c   13.36699752
_cell_angle_alpha   90.00000000
_cell_angle_beta   90.00000000
_cell_angle_gamma   90.00000000
_symmetry_Int_Tables_number   1
_chemical_formula_structural   BaH2(SO4)2
_chemical_formula_sum   'Ba4 H8 S8 O32'
_cell_volume   691.37111422
_cell_formula_units_Z   4
loop_
 _symmetry_equiv_pos_site_id
 _symmetry_equiv_pos_as_xyz
  1  'x, y, z'
loop_
 _atom_site_type_symbol
 _atom_site_label
 _atom_site_symmetry_multiplicity
 _atom_site_fract_x
 _atom_site_fract_y
 _atom_site_fract_z
 _atom_site_occupancy
  Ba  Ba0  1  0.507499  0.562609  0.335705  1
  Ba  Ba1  1  0.992501  0.437391  0.835705  1
  Ba  Ba2  1  0.007499  0.937391  0.664295  1
  Ba  Ba3  1  0.492501  0.062609  0.164295  1
  H  H4  1  0.213339  0.760355  0.909596  1
  H  H5  1  0.286661  0.239645  0.409596  1
  H  H6  1  0.713339  0.739645  0.090404  1
  H  H7  1  0.786661  0.260355  0.590404  1
  H  H8  1  0.443396  0.553684  0.631181  1
  H  H9  1  0.056604  0.446316  0.131181  1
  H  H10  1  0.943396  0.946316  0.368819  1
  H  H11  1  0.556604  0.053684  0.868819  1
  S  S12  1  0.562249  0.715456  0.814844  1
  S  S13  1  0.937751  0.284544  0.314844  1
  S  S14  1  0.062249  0.784544  0.185156  1
  S  S15  1  0.437751  0.215456  0.685156  1
  S  S16  1  0.036327  0.578795  0.563400  1
  S  S17  1  0.463673  0.421205  0.063400  1
  S  S18  1  0.536327  0.921205  0.436600  1
  S  S19  1  0.963673  0.078795  0.936600  1
  O  O20  1  0.516252  0.824473  0.751011  1
  O  O21  1  0.983748  0.175527  0.251011  1
  O  O22  1  0.016252  0.675527  0.248989  1
  O  O23  1  0.483748  0.324473  0.748989  1
  O  O24  1  0.854936  0.698324  0.843479  1
  O  O25  1  0.645064  0.301676  0.343479  1
  O  O26  1  0.354936  0.801676  0.156521  1
  O  O27  1  0.145064  0.198324  0.656521  1
  O  O28  1  0.440653  0.601085  0.772818  1
  O  O29  1  0.059347  0.398915  0.272818  1
  O  O30  1  0.940653  0.898915  0.227182  1
  O  O31  1  0.559347  0.101085  0.727182  1
  O  O32  1  0.413863  0.741253  0.919199  1
  O  O33  1  0.086137  0.258747  0.419199  1
  O  O34  1  0.913863  0.758747  0.080801  1
  O  O35  1  0.586137  0.241253  0.580801  1
  O  O36  1  0.977107  0.558608  0.456827  1
  O  O37  1  0.522893  0.441392  0.956827  1
  O  O38  1  0.477107  0.941392  0.543173  1
  O  O39  1  0.022893  0.058608  0.043173  1
  O  O40  1  0.974306  0.704271  0.597367  1
  O  O41  1  0.525694  0.295729  0.097367  1
  O  O42  1  0.474306  0.795729  0.402633  1
  O  O43  1  0.025694  0.204271  0.902633  1
  O  O44  1  0.577139  0.516312  0.129948  1
  O  O45  1  0.922861  0.483688  0.629948  1
  O  O46  1  0.077139  0.983688  0.870052  1
  O  O47  1  0.422861  0.016312  0.370052  1
  O  O48  1  0.369203  0.559822  0.562275  1
  O  O49  1  0.130797  0.440178  0.062275  1
  O  O50  1  0.869203  0.940178  0.437725  1
  O  O51  1  0.630797  0.059822  0.937725  1
