# generated using pymatgen
data_Li3Mn4(BO3)4
_symmetry_space_group_name_H-M   'P 1'
_cell_length_a   5.30025433
_cell_length_b   5.88717626
_cell_length_c   9.01846030
_cell_angle_alpha   103.51847230
_cell_angle_beta   90.56787313
_cell_angle_gamma   113.10828080
_symmetry_Int_Tables_number   1
_chemical_formula_structural   Li3Mn4(BO3)4
_chemical_formula_sum   'Li3 Mn4 B4 O12'
_cell_volume   250.02688424
_cell_formula_units_Z   1
loop_
 _symmetry_equiv_pos_site_id
 _symmetry_equiv_pos_as_xyz
  1  'x, y, z'
loop_
 _atom_site_type_symbol
 _atom_site_label
 _atom_site_symmetry_multiplicity
 _atom_site_fract_x
 _atom_site_fract_y
 _atom_site_fract_z
 _atom_site_occupancy
  Li  Li0  1  0.585108  0.317520  0.968265  1
  Li  Li1  1  0.917233  0.657570  0.531757  1
  Li  Li2  1  0.407066  0.679311  0.030594  1
  Mn  Mn3  1  0.540460  0.243021  0.306016  1
  Mn  Mn4  1  0.035243  0.238736  0.788069  1
  Mn  Mn5  1  0.953284  0.759929  0.206443  1
  Mn  Mn6  1  0.452795  0.744572  0.693844  1
  B  B7  1  0.557018  0.260823  0.638400  1
  B  B8  1  0.939643  0.739449  0.865799  1
  B  B9  1  0.058038  0.260093  0.128502  1
  B  B10  1  0.446321  0.743879  0.368596  1
  O  O11  1  0.605565  0.145788  0.752171  1
  O  O12  1  0.716707  0.292626  0.522978  1
  O  O13  1  0.832941  0.329741  0.141873  1
  O  O14  1  0.356721  0.360142  0.662502  1
  O  O15  1  0.128327  0.157741  0.236829  1
  O  O16  1  0.772143  0.701122  0.980925  1
  O  O17  1  0.219225  0.302968  0.009685  1
  O  O18  1  0.873885  0.827458  0.744839  1
  O  O19  1  0.658684  0.658673  0.362128  1
  O  O20  1  0.166765  0.675807  0.858805  1
  O  O21  1  0.289179  0.738519  0.488491  1
  O  O22  1  0.388015  0.833028  0.246853  1
