# generated using pymatgen
data_Li4Fe5P6WO24
_symmetry_space_group_name_H-M   'P 1'
_cell_length_a   8.49226781
_cell_length_b   8.65805798
_cell_length_c   8.67987338
_cell_angle_alpha   62.81701079
_cell_angle_beta   63.57486061
_cell_angle_gamma   63.62300909
_symmetry_Int_Tables_number   1
_chemical_formula_structural   Li4Fe5P6WO24
_chemical_formula_sum   'Li4 Fe5 P6 W1 O24'
_cell_volume   484.57833865
_cell_formula_units_Z   1
loop_
 _symmetry_equiv_pos_site_id
 _symmetry_equiv_pos_as_xyz
  1  'x, y, z'
loop_
 _atom_site_type_symbol
 _atom_site_label
 _atom_site_symmetry_multiplicity
 _atom_site_fract_x
 _atom_site_fract_y
 _atom_site_fract_z
 _atom_site_occupancy
  Li  Li0  1  0.744794  0.152568  0.353719  1
  Li  Li1  1  0.293767  0.840983  0.642199  1
  Li  Li2  1  0.635105  0.297382  0.847318  1
  Li  Li3  1  0.845798  0.643424  0.296732  1
  Fe  Fe4  1  0.017010  0.004656  0.004104  1
  Fe  Fe5  1  0.351000  0.354433  0.349700  1
  Fe  Fe6  1  0.488607  0.504408  0.497983  1
  Fe  Fe7  1  0.148442  0.150999  0.149211  1
  Fe  Fe8  1  0.652371  0.653231  0.654846  1
  P  P9  1  0.056220  0.745802  0.443299  1
  P  P10  1  0.441421  0.052507  0.745789  1
  P  P11  1  0.746455  0.440248  0.053428  1
  P  P12  1  0.249849  0.546709  0.950048  1
  P  P13  1  0.556996  0.952382  0.251705  1
  P  P14  1  0.939433  0.246113  0.544659  1
  W  W15  1  0.853385  0.850193  0.855338  1
  O  O16  1  0.468446  0.899934  0.683409  1
  O  O17  1  0.679926  0.469374  0.902011  1
  O  O18  1  0.904479  0.672008  0.476547  1
  O  O19  1  0.054579  0.909640  0.264196  1
  O  O20  1  0.011266  0.807737  0.605698  1
  O  O21  1  0.248285  0.600783  0.430990  1
  O  O22  1  0.251982  0.077845  0.893525  1
  O  O23  1  0.460718  0.231400  0.586382  1
  O  O24  1  0.167247  0.406420  0.989185  1
  O  O25  1  0.602862  0.428883  0.245242  1
  O  O26  1  0.103625  0.751468  0.912319  1
  O  O27  1  0.401783  0.005339  0.181469  1
  O  O28  1  0.599602  0.995876  0.826814  1
  O  O29  1  0.896948  0.251700  0.077555  1
  O  O30  1  0.404515  0.563308  0.758559  1
  O  O31  1  0.811781  0.604936  0.005418  1
  O  O32  1  0.565256  0.760904  0.406577  1
  O  O33  1  0.758846  0.911066  0.102274  1
  O  O34  1  0.749315  0.402078  0.571112  1
  O  O35  1  0.950519  0.177856  0.405413  1
  O  O36  1  0.916203  0.095397  0.746334  1
  O  O37  1  0.106275  0.295363  0.504512  1
  O  O38  1  0.309868  0.523552  0.101147  1
  O  O39  1  0.555020  0.098097  0.306236  1
