# generated using pymatgen
data_Li3CuS2
_symmetry_space_group_name_H-M   'P 1'
_cell_length_a   9.74952155
_cell_length_b   9.74952155
_cell_length_c   9.74952155
_cell_angle_alpha   109.47122063
_cell_angle_beta   109.47122063
_cell_angle_gamma   109.47122063
_symmetry_Int_Tables_number   1
_chemical_formula_structural   Li3CuS2
_chemical_formula_sum   'Li24 Cu8 S16'
_cell_volume   713.39164649
_cell_formula_units_Z   8
loop_
 _symmetry_equiv_pos_site_id
 _symmetry_equiv_pos_as_xyz
  1  'x, y, z'
loop_
 _atom_site_type_symbol
 _atom_site_label
 _atom_site_symmetry_multiplicity
 _atom_site_fract_x
 _atom_site_fract_y
 _atom_site_fract_z
 _atom_site_occupancy
  Li  Li0  1  0.749095  0.998762  0.995896  1
  Li  Li1  1  0.997134  0.501238  0.250333  1
  Li  Li2  1  0.749667  0.002866  0.498762  1
  Li  Li3  1  0.750333  0.249095  0.253199  1
  Li  Li4  1  0.495896  0.497134  0.246801  1
  Li  Li5  1  0.004104  0.250905  0.001238  1
  Li  Li6  1  0.001238  0.004104  0.250905  1
  Li  Li7  1  0.498762  0.749667  0.002866  1
  Li  Li8  1  0.746801  0.249667  0.750905  1
  Li  Li9  1  0.753199  0.504104  0.502866  1
  Li  Li10  1  0.497134  0.246801  0.495896  1
  Li  Li11  1  0.750905  0.746801  0.249667  1
  Li  Li12  1  0.502866  0.753199  0.504104  1
  Li  Li13  1  0.249095  0.253199  0.750333  1
  Li  Li14  1  0.246801  0.495896  0.497134  1
  Li  Li15  1  0.253199  0.750333  0.249095  1
  Li  Li16  1  0.998762  0.995896  0.749095  1
  Li  Li17  1  0.501238  0.250333  0.997134  1
  Li  Li18  1  0.504104  0.502866  0.753199  1
  Li  Li19  1  0.995896  0.749095  0.998762  1
  Li  Li20  1  0.250333  0.997134  0.501238  1
  Li  Li21  1  0.249667  0.750905  0.746801  1
  Li  Li22  1  0.002866  0.498762  0.749667  1
  Li  Li23  1  0.250905  0.001238  0.004104  1
  Cu  Cu24  1  0.754191  0.500000  0.000000  1
  Cu  Cu25  1  0.500000  1.000000  0.245809  1
  Cu  Cu26  1  0.254191  0.254191  0.254191  1
  Cu  Cu27  1  0.245809  0.500000  0.000000  1
  Cu  Cu28  1  0.500000  1.000000  0.754191  1
  Cu  Cu29  1  1.000000  0.245809  0.500000  1
  Cu  Cu30  1  0.745809  0.745809  0.745809  1
  Cu  Cu31  1  1.000000  0.754191  0.500000  1
  S  S32  1  0.750000  0.002858  0.252858  1
  S  S33  1  0.000000  0.000000  0.000000  1
  S  S34  1  0.500000  1.000000  0.500000  1
  S  S35  1  0.500000  0.500000  0.000000  1
  S  S36  1  0.497142  0.247142  0.250000  1
  S  S37  1  0.997142  0.747142  0.250000  1
  S  S38  1  0.250000  0.497142  0.247142  1
  S  S39  1  0.247142  0.250000  0.497142  1
  S  S40  1  0.252858  0.750000  0.002858  1
  S  S41  1  0.752858  0.750000  0.502858  1
  S  S42  1  0.747142  0.250000  0.997142  1
  S  S43  1  0.750000  0.502858  0.752858  1
  S  S44  1  1.000000  0.500000  0.500000  1
  S  S45  1  0.002858  0.252858  0.750000  1
  S  S46  1  0.502858  0.752858  0.750000  1
  S  S47  1  0.250000  0.997142  0.747142  1
