# generated using pymatgen
data_Cr(PO3)3
_symmetry_space_group_name_H-M   'P 1'
_cell_length_a   8.43861917
_cell_length_b   8.56244632
_cell_length_c   8.58455209
_cell_angle_alpha   90.00000000
_cell_angle_beta   90.00000000
_cell_angle_gamma   90.00000000
_symmetry_Int_Tables_number   1
_chemical_formula_structural   Cr(PO3)3
_chemical_formula_sum   'Cr4 P12 O36'
_cell_volume   620.27873127
_cell_formula_units_Z   4
loop_
 _symmetry_equiv_pos_site_id
 _symmetry_equiv_pos_as_xyz
  1  'x, y, z'
loop_
 _atom_site_type_symbol
 _atom_site_label
 _atom_site_symmetry_multiplicity
 _atom_site_fract_x
 _atom_site_fract_y
 _atom_site_fract_z
 _atom_site_occupancy
  Cr  Cr0  1  0.131494  0.855677  0.152939  1
  Cr  Cr1  1  0.368506  0.144323  0.652939  1
  Cr  Cr2  1  0.631494  0.644323  0.847061  1
  Cr  Cr3  1  0.868506  0.355677  0.347061  1
  P  P4  1  0.033188  0.322316  0.685535  1
  P  P5  1  0.181559  0.484208  0.190360  1
  P  P6  1  0.205849  0.810226  0.553428  1
  P  P7  1  0.294151  0.189774  0.053428  1
  P  P8  1  0.318441  0.515792  0.690360  1
  P  P9  1  0.466812  0.677684  0.185535  1
  P  P10  1  0.533188  0.177684  0.314465  1
  P  P11  1  0.681559  0.015792  0.809640  1
  P  P12  1  0.705849  0.689774  0.446572  1
  P  P13  1  0.794151  0.310226  0.946572  1
  P  P14  1  0.818441  0.984208  0.309640  1
  P  P15  1  0.966812  0.822316  0.814465  1
  O  O16  1  0.045599  0.778768  0.650957  1
  O  O17  1  0.097129  0.624196  0.126086  1
  O  O18  1  0.095085  0.873986  0.923498  1
  O  O19  1  0.104315  0.398746  0.323602  1
  O  O20  1  0.137271  0.189303  0.634720  1
  O  O21  1  0.140696  0.468950  0.740903  1
  O  O22  1  0.157005  0.845633  0.389953  1
  O  O23  1  0.185334  0.083844  0.142286  1
  O  O24  1  0.216912  0.362790  0.051311  1
  O  O25  1  0.283088  0.637210  0.551311  1
  O  O26  1  0.314666  0.916156  0.642286  1
  O  O27  1  0.342995  0.154367  0.889953  1
  O  O28  1  0.359304  0.531050  0.240903  1
  O  O29  1  0.362729  0.810697  0.134720  1
  O  O30  1  0.395685  0.601254  0.823602  1
  O  O31  1  0.404915  0.126014  0.423498  1
  O  O32  1  0.402871  0.375804  0.626086  1
  O  O33  1  0.454401  0.221232  0.150957  1
  O  O34  1  0.545599  0.721232  0.349043  1
  O  O35  1  0.597129  0.875804  0.873914  1
  O  O36  1  0.595085  0.626014  0.076502  1
  O  O37  1  0.604315  0.101254  0.676398  1
  O  O38  1  0.637271  0.310697  0.365280  1
  O  O39  1  0.640696  0.031050  0.259097  1
  O  O40  1  0.657005  0.654367  0.610047  1
  O  O41  1  0.685334  0.416156  0.857714  1
  O  O42  1  0.716912  0.137210  0.948689  1
  O  O43  1  0.783088  0.862790  0.448689  1
  O  O44  1  0.814666  0.583844  0.357714  1
  O  O45  1  0.842995  0.345633  0.110047  1
  O  O46  1  0.859304  0.968950  0.759097  1
  O  O47  1  0.862729  0.689303  0.865280  1
  O  O48  1  0.895685  0.898746  0.176398  1
  O  O49  1  0.904915  0.373986  0.576502  1
  O  O50  1  0.902871  0.124196  0.373914  1
  O  O51  1  0.954401  0.278768  0.849043  1
