# generated using pymatgen
data_Na3VO3
_symmetry_space_group_name_H-M   'P 1'
_cell_length_a   5.93627665
_cell_length_b   12.75476529
_cell_length_c   6.36185507
_cell_angle_alpha   90.00000000
_cell_angle_beta   122.23505945
_cell_angle_gamma   90.00000000
_symmetry_Int_Tables_number   1
_chemical_formula_structural   Na3VO3
_chemical_formula_sum   'Na12 V4 O12'
_cell_volume   407.44822013
_cell_formula_units_Z   4
loop_
 _symmetry_equiv_pos_site_id
 _symmetry_equiv_pos_as_xyz
  1  'x, y, z'
loop_
 _atom_site_type_symbol
 _atom_site_label
 _atom_site_symmetry_multiplicity
 _atom_site_fract_x
 _atom_site_fract_y
 _atom_site_fract_z
 _atom_site_occupancy
  Na  Na0  1  0.444818  0.778029  0.143938  1
  Na  Na1  1  0.467106  0.516237  0.247699  1
  Na  Na2  1  0.532894  0.016237  0.252301  1
  Na  Na3  1  0.555182  0.278029  0.356062  1
  Na  Na4  1  0.927037  0.406426  0.284011  1
  Na  Na5  1  0.072963  0.906426  0.215989  1
  Na  Na6  1  0.927037  0.093574  0.784011  1
  Na  Na7  1  0.072963  0.593574  0.715989  1
  Na  Na8  1  0.444818  0.721971  0.643938  1
  Na  Na9  1  0.467106  0.983763  0.747699  1
  Na  Na10  1  0.532894  0.483763  0.752301  1
  Na  Na11  1  0.555182  0.221971  0.856062  1
  V  V12  1  0.919383  0.664972  0.172112  1
  V  V13  1  0.080617  0.164972  0.327888  1
  V  V14  1  0.919383  0.835028  0.672112  1
  V  V15  1  0.080617  0.335028  0.827888  1
  O  O16  1  0.552712  0.627399  0.004162  1
  O  O17  1  0.816072  0.064036  0.117176  1
  O  O18  1  0.029810  0.272767  0.079154  1
  O  O19  1  0.552712  0.872601  0.504162  1
  O  O20  1  0.970190  0.772767  0.420846  1
  O  O21  1  0.816072  0.435964  0.617176  1
  O  O22  1  0.183928  0.564036  0.382824  1
  O  O23  1  0.029810  0.227233  0.579154  1
  O  O24  1  0.447288  0.127399  0.495838  1
  O  O25  1  0.970190  0.727233  0.920846  1
  O  O26  1  0.183928  0.935964  0.882824  1
  O  O27  1  0.447288  0.372601  0.995838  1
