# generated using pymatgen
data_Li4Cr3Co(PO4)4
_symmetry_space_group_name_H-M   'P 1'
_cell_length_a   4.77213840
_cell_length_b   6.27577038
_cell_length_c   10.23645207
_cell_angle_alpha   90.00000000
_cell_angle_beta   90.41070337
_cell_angle_gamma   90.00000000
_symmetry_Int_Tables_number   1
_chemical_formula_structural   Li4Cr3Co(PO4)4
_chemical_formula_sum   'Li4 Cr3 Co1 P4 O16'
_cell_volume   306.56203872
_cell_formula_units_Z   1
loop_
 _symmetry_equiv_pos_site_id
 _symmetry_equiv_pos_as_xyz
  1  'x, y, z'
loop_
 _atom_site_type_symbol
 _atom_site_label
 _atom_site_symmetry_multiplicity
 _atom_site_fract_x
 _atom_site_fract_y
 _atom_site_fract_z
 _atom_site_occupancy
  Li  Li0  1  0.995158  0.251983  0.999844  1
  Li  Li1  1  0.995158  0.748017  0.999844  1
  Li  Li2  1  0.502284  0.746651  0.501628  1
  Li  Li3  1  0.502284  0.253349  0.501628  1
  Cr  Cr4  1  0.544736  0.500000  0.216154  1
  Cr  Cr5  1  0.454500  0.000000  0.781938  1
  Cr  Cr6  1  0.049376  0.000000  0.284403  1
  Co  Co7  1  0.979480  0.500000  0.721469  1
  P  P8  1  0.917182  0.000000  0.594555  1
  P  P9  1  0.580634  0.000000  0.094336  1
  P  P10  1  0.416272  0.500000  0.906069  1
  P  P11  1  0.083883  0.500000  0.405767  1
  O  O12  1  0.805858  0.000000  0.450455  1
  O  O13  1  0.785988  0.201166  0.660857  1
  O  O14  1  0.785988  0.798834  0.660857  1
  O  O15  1  0.759527  0.500000  0.398662  1
  O  O16  1  0.740200  0.500000  0.902330  1
  O  O17  1  0.714105  0.198616  0.161319  1
  O  O18  1  0.714105  0.801384  0.161319  1
  O  O19  1  0.689498  0.000000  0.951168  1
  O  O20  1  0.299442  0.500000  0.048428  1
  O  O21  1  0.278360  0.695700  0.836098  1
  O  O22  1  0.278360  0.304300  0.836098  1
  O  O23  1  0.256027  0.000000  0.100970  1
  O  O24  1  0.241503  0.000000  0.600427  1
  O  O25  1  0.214909  0.697493  0.337157  1
  O  O26  1  0.214909  0.302507  0.337157  1
  O  O27  1  0.200271  0.500000  0.549067  1
