# generated using pymatgen
data_LiFePO4
_symmetry_space_group_name_H-M   'P 1'
_cell_length_a   5.62009735
_cell_length_b   8.37811639
_cell_length_c   18.73264522
_cell_angle_alpha   90.00000000
_cell_angle_beta   90.00000000
_cell_angle_gamma   90.00000000
_symmetry_Int_Tables_number   1
_chemical_formula_structural   LiFePO4
_chemical_formula_sum   'Li12 Fe12 P12 O48'
_cell_volume   882.04214313
_cell_formula_units_Z   12
loop_
 _symmetry_equiv_pos_site_id
 _symmetry_equiv_pos_as_xyz
  1  'x, y, z'
loop_
 _atom_site_type_symbol
 _atom_site_label
 _atom_site_symmetry_multiplicity
 _atom_site_fract_x
 _atom_site_fract_y
 _atom_site_fract_z
 _atom_site_occupancy
  Li  Li0  1  0.244978  0.916092  0.917368  1
  Li  Li1  1  0.229536  0.912914  0.250848  1
  Li  Li2  1  0.744978  0.416092  0.582632  1
  Li  Li3  1  0.231921  0.913830  0.584315  1
  Li  Li4  1  0.229536  0.587086  0.750848  1
  Li  Li5  1  0.231921  0.586170  0.084315  1
  Li  Li6  1  0.729536  0.412914  0.249152  1
  Li  Li7  1  0.731921  0.086170  0.415685  1
  Li  Li8  1  0.744978  0.083908  0.082632  1
  Li  Li9  1  0.731921  0.413830  0.915685  1
  Li  Li10  1  0.729536  0.087086  0.749152  1
  Li  Li11  1  0.244978  0.583908  0.417368  1
  Fe  Fe12  1  0.236168  0.248779  0.333443  1
  Fe  Fe13  1  0.236168  0.251221  0.833443  1
  Fe  Fe14  1  0.236702  0.252079  0.666736  1
  Fe  Fe15  1  0.736702  0.752079  0.833264  1
  Fe  Fe16  1  0.736702  0.747921  0.333264  1
  Fe  Fe17  1  0.234827  0.249060  0.500206  1
  Fe  Fe18  1  0.736168  0.748779  0.166557  1
  Fe  Fe19  1  0.734827  0.749060  0.999794  1
  Fe  Fe20  1  0.734827  0.750940  0.499794  1
  Fe  Fe21  1  0.736168  0.751221  0.666557  1
  Fe  Fe22  1  0.236702  0.247921  0.166736  1
  Fe  Fe23  1  0.234827  0.250940  0.000206  1
  P  P24  1  0.237806  0.902014  0.750356  1
  P  P25  1  0.237806  0.597986  0.250356  1
  P  P26  1  0.236248  0.899696  0.083597  1
  P  P27  1  0.236248  0.600304  0.583597  1
  P  P28  1  0.233890  0.601093  0.917275  1
  P  P29  1  0.233890  0.898907  0.417275  1
  P  P30  1  0.733890  0.398907  0.082725  1
  P  P31  1  0.736248  0.100304  0.916403  1
  P  P32  1  0.737806  0.402014  0.749644  1
  P  P33  1  0.733890  0.101093  0.582725  1
  P  P34  1  0.736248  0.399696  0.416403  1
  P  P35  1  0.737806  0.097986  0.249644  1
  O  O36  1  0.515519  0.212882  0.249748  1
  O  O37  1  0.458244  0.714946  0.583245  1
  O  O38  1  0.961501  0.210962  0.249943  1
  O  O39  1  0.233363  0.002355  0.485368  1
  O  O40  1  0.958244  0.214946  0.916755  1
  O  O41  1  0.511305  0.285218  0.083160  1
  O  O42  1  0.233363  0.497645  0.985368  1
  O  O43  1  0.736164  0.506049  0.817399  1
  O  O44  1  0.958244  0.285054  0.416755  1
  O  O45  1  0.458244  0.785054  0.083245  1
  O  O46  1  0.236837  0.498024  0.651876  1
  O  O47  1  0.235990  0.496782  0.849535  1
  O  O48  1  0.737877  0.994709  0.181625  1
  O  O49  1  0.011305  0.785218  0.416840  1
  O  O50  1  0.736837  0.998024  0.848124  1
  O  O51  1  0.011305  0.714782  0.916840  1
  O  O52  1  0.015519  0.787118  0.750252  1
  O  O53  1  0.735990  0.503218  0.150465  1
  O  O54  1  0.511305  0.214782  0.583160  1
  O  O55  1  0.737877  0.505291  0.681625  1
  O  O56  1  0.733363  0.997645  0.514632  1
  O  O57  1  0.733363  0.502355  0.014632  1
  O  O58  1  0.235990  0.003218  0.349535  1
  O  O59  1  0.512294  0.213631  0.916636  1
  O  O60  1  0.235466  0.495402  0.516116  1
  O  O61  1  0.237877  0.494709  0.318375  1
  O  O62  1  0.461501  0.789038  0.750057  1
  O  O63  1  0.957198  0.284954  0.082901  1
  O  O64  1  0.235466  0.004598  0.016116  1
  O  O65  1  0.961501  0.289038  0.749943  1
  O  O66  1  0.457198  0.715046  0.917099  1
  O  O67  1  0.735990  0.996782  0.650465  1
  O  O68  1  0.736164  0.993951  0.317399  1
  O  O69  1  0.735466  0.995402  0.983884  1
  O  O70  1  0.461501  0.710962  0.250057  1
  O  O71  1  0.512294  0.286369  0.416636  1
  O  O72  1  0.957198  0.215046  0.582901  1
  O  O73  1  0.236164  0.006049  0.682601  1
  O  O74  1  0.236837  0.001976  0.151876  1
  O  O75  1  0.736837  0.501976  0.348124  1
  O  O76  1  0.015519  0.712882  0.250252  1
  O  O77  1  0.457198  0.784954  0.417099  1
  O  O78  1  0.735466  0.504598  0.483884  1
  O  O79  1  0.236164  0.493951  0.182601  1
  O  O80  1  0.237877  0.005291  0.818375  1
  O  O81  1  0.515519  0.287118  0.749748  1
  O  O82  1  0.012294  0.713631  0.583364  1
  O  O83  1  0.012294  0.786369  0.083364  1
