# generated using pymatgen
data_Cr4OF6
_symmetry_space_group_name_H-M   'P 1'
_cell_length_a   7.22125922
_cell_length_b   7.22125922
_cell_length_c   5.32049008
_cell_angle_alpha   90.00000000
_cell_angle_beta   90.00000000
_cell_angle_gamma   90.00000000
_symmetry_Int_Tables_number   1
_chemical_formula_structural   Cr4OF6
_chemical_formula_sum   'Cr8 O2 F12'
_cell_volume   277.44538631
_cell_formula_units_Z   2
loop_
 _symmetry_equiv_pos_site_id
 _symmetry_equiv_pos_as_xyz
  1  'x, y, z'
loop_
 _atom_site_type_symbol
 _atom_site_label
 _atom_site_symmetry_multiplicity
 _atom_site_fract_x
 _atom_site_fract_y
 _atom_site_fract_z
 _atom_site_occupancy
  Cr  Cr0  1  0.000000  0.247963  0.313145  1
  Cr  Cr1  1  0.747963  0.500000  0.813145  1
  Cr  Cr2  1  0.252037  0.500000  0.813145  1
  Cr  Cr3  1  0.000000  0.752037  0.313145  1
  Cr  Cr4  1  0.500000  0.747963  0.186855  1
  Cr  Cr5  1  0.247963  0.000000  0.686855  1
  Cr  Cr6  1  0.752037  0.000000  0.686855  1
  Cr  Cr7  1  0.500000  0.252037  0.186855  1
  O  O8  1  0.500000  0.500000  0.000000  1
  O  O9  1  0.000000  0.000000  0.500000  1
  F  F10  1  0.716064  0.283936  0.500000  1
  F  F11  1  0.283936  0.283936  0.500000  1
  F  F12  1  0.000000  0.500000  0.651642  1
  F  F13  1  0.000000  0.500000  0.151642  1
  F  F14  1  0.283936  0.716064  0.500000  1
  F  F15  1  0.716064  0.716064  0.500000  1
  F  F16  1  0.783936  0.783936  0.000000  1
  F  F17  1  0.216064  0.783936  0.000000  1
  F  F18  1  0.500000  0.000000  0.848358  1
  F  F19  1  0.500000  0.000000  0.348358  1
  F  F20  1  0.783936  0.216064  0.000000  1
  F  F21  1  0.216064  0.216064  0.000000  1
