# generated using pymatgen
data_Na2IrO3
_symmetry_space_group_name_H-M   'P 1'
_cell_length_a   5.53675422
_cell_length_b   5.53675422
_cell_length_c   5.63974228
_cell_angle_alpha   80.41750732
_cell_angle_beta   99.58249268
_cell_angle_gamma   60.07422822
_symmetry_Int_Tables_number   1
_chemical_formula_structural   Na2IrO3
_chemical_formula_sum   'Na4 Ir2 O6'
_cell_volume   141.31033784
_cell_formula_units_Z   2
loop_
 _symmetry_equiv_pos_site_id
 _symmetry_equiv_pos_as_xyz
  1  'x, y, z'
loop_
 _atom_site_type_symbol
 _atom_site_label
 _atom_site_symmetry_multiplicity
 _atom_site_fract_x
 _atom_site_fract_y
 _atom_site_fract_z
 _atom_site_occupancy
  Na  Na0  1  0.000000  0.000000  0.000000  1
  Na  Na1  1  0.500000  0.500000  0.500000  1
  Na  Na2  1  0.161304  0.161304  0.500000  1
  Na  Na3  1  0.838696  0.838696  0.500000  1
  Ir  Ir4  1  0.333130  0.333130  0.000000  1
  Ir  Ir5  1  0.666870  0.666870  0.000000  1
  O  O6  1  0.069022  0.560011  0.203976  1
  O  O7  1  0.439989  0.930978  0.203976  1
  O  O8  1  0.930978  0.439989  0.796024  1
  O  O9  1  0.560011  0.069022  0.796024  1
  O  O10  1  0.299489  0.700511  0.793759  1
  O  O11  1  0.700511  0.299489  0.206241  1
