# generated using pymatgen
data_CrHSe3O8
_symmetry_space_group_name_H-M   'P 1'
_cell_length_a   7.73348775
_cell_length_b   8.99553737
_cell_length_c   11.43803510
_cell_angle_alpha   90.00000000
_cell_angle_beta   90.00000000
_cell_angle_gamma   90.00000000
_symmetry_Int_Tables_number   1
_chemical_formula_structural   CrHSe3O8
_chemical_formula_sum   'Cr4 H4 Se12 O32'
_cell_volume   795.70839300
_cell_formula_units_Z   4
loop_
 _symmetry_equiv_pos_site_id
 _symmetry_equiv_pos_as_xyz
  1  'x, y, z'
loop_
 _atom_site_type_symbol
 _atom_site_label
 _atom_site_symmetry_multiplicity
 _atom_site_fract_x
 _atom_site_fract_y
 _atom_site_fract_z
 _atom_site_occupancy
  Cr  Cr0  1  0.000000  0.000000  0.000000  1
  Cr  Cr1  1  0.000000  0.000000  0.500000  1
  Cr  Cr2  1  0.500000  0.500000  0.500000  1
  Cr  Cr3  1  0.500000  0.500000  0.000000  1
  H  H4  1  0.555222  0.133366  0.250000  1
  H  H5  1  0.055222  0.366634  0.750000  1
  H  H6  1  0.944778  0.633366  0.250000  1
  H  H7  1  0.444778  0.866634  0.750000  1
  Se  Se8  1  0.195567  0.012961  0.750000  1
  Se  Se9  1  0.706001  0.218129  0.606738  1
  Se  Se10  1  0.706001  0.218129  0.893262  1
  Se  Se11  1  0.206001  0.281871  0.106738  1
  Se  Se12  1  0.206001  0.281871  0.393262  1
  Se  Se13  1  0.695567  0.487039  0.250000  1
  Se  Se14  1  0.304433  0.512961  0.750000  1
  Se  Se15  1  0.793999  0.718129  0.606738  1
  Se  Se16  1  0.793999  0.718129  0.893262  1
  Se  Se17  1  0.293999  0.781871  0.106738  1
  Se  Se18  1  0.293999  0.781871  0.393262  1
  Se  Se19  1  0.804433  0.987039  0.250000  1
  O  O20  1  0.575891  0.025331  0.250000  1
  O  O21  1  0.868849  0.095438  0.134317  1
  O  O22  1  0.868849  0.095438  0.365683  1
  O  O23  1  0.215922  0.119941  0.030451  1
  O  O24  1  0.215922  0.119941  0.469549  1
  O  O25  1  0.917963  0.165160  0.604703  1
  O  O26  1  0.917963  0.165160  0.895297  1
  O  O27  1  0.213952  0.188308  0.250000  1
  O  O28  1  0.713952  0.311692  0.750000  1
  O  O29  1  0.417963  0.334840  0.104703  1
  O  O30  1  0.417963  0.334840  0.395297  1
  O  O31  1  0.715922  0.380059  0.530451  1
  O  O32  1  0.715922  0.380059  0.969549  1
  O  O33  1  0.368849  0.404562  0.634317  1
  O  O34  1  0.368849  0.404562  0.865683  1
  O  O35  1  0.075891  0.474669  0.750000  1
  O  O36  1  0.924109  0.525331  0.250000  1
  O  O37  1  0.631151  0.595438  0.134317  1
  O  O38  1  0.631151  0.595438  0.365683  1
  O  O39  1  0.284078  0.619941  0.030451  1
  O  O40  1  0.284078  0.619941  0.469549  1
  O  O41  1  0.582037  0.665160  0.604703  1
  O  O42  1  0.582037  0.665160  0.895297  1
  O  O43  1  0.286048  0.688308  0.250000  1
  O  O44  1  0.786048  0.811692  0.750000  1
  O  O45  1  0.082037  0.834840  0.104703  1
  O  O46  1  0.082037  0.834840  0.395297  1
  O  O47  1  0.784078  0.880059  0.530451  1
  O  O48  1  0.784078  0.880059  0.969549  1
  O  O49  1  0.131151  0.904562  0.634317  1
  O  O50  1  0.131151  0.904562  0.865683  1
  O  O51  1  0.424109  0.974669  0.750000  1
