# generated using pymatgen
data_LiSn(PO3)4
_symmetry_space_group_name_H-M   'P 1'
_cell_length_a   7.45576908
_cell_length_b   7.45576908
_cell_length_c   10.32131240
_cell_angle_alpha   66.72075667
_cell_angle_beta   113.27924333
_cell_angle_gamma   109.19003645
_symmetry_Int_Tables_number   1
_chemical_formula_structural   LiSn(PO3)4
_chemical_formula_sum   'Li2 Sn2 P8 O24'
_cell_volume   473.90553613
_cell_formula_units_Z   2
loop_
 _symmetry_equiv_pos_site_id
 _symmetry_equiv_pos_as_xyz
  1  'x, y, z'
loop_
 _atom_site_type_symbol
 _atom_site_label
 _atom_site_symmetry_multiplicity
 _atom_site_fract_x
 _atom_site_fract_y
 _atom_site_fract_z
 _atom_site_occupancy
  Li  Li0  1  0.503358  0.002642  0.001596  1
  Li  Li1  1  0.997358  0.496642  0.501596  1
  Sn  Sn2  1  0.049148  0.048939  0.749882  1
  Sn  Sn3  1  0.951061  0.950852  0.249882  1
  P  P4  1  0.312327  0.701819  0.301715  1
  P  P5  1  0.281656  0.265756  0.478303  1
  P  P6  1  0.265498  0.280345  0.021971  1
  P  P7  1  0.298181  0.687673  0.801715  1
  P  P8  1  0.701972  0.313086  0.197523  1
  P  P9  1  0.734244  0.718344  0.978303  1
  P  P10  1  0.719655  0.734502  0.521971  1
  P  P11  1  0.686914  0.298028  0.697523  1
  O  O12  1  0.348601  0.806901  0.157528  1
  O  O13  1  0.196035  0.298936  0.576447  1
  O  O14  1  0.311872  0.466820  0.345845  1
  O  O15  1  0.173914  0.095994  0.414640  1
  O  O16  1  0.287316  0.872786  0.826634  1
  O  O17  1  0.503861  0.231282  0.564567  1
  O  O18  1  0.701064  0.803965  0.076447  1
  O  O19  1  0.096952  0.169403  0.085985  1
  O  O20  1  0.229963  0.503217  0.936965  1
  O  O21  1  0.193099  0.651399  0.657528  1
  O  O22  1  0.467047  0.310361  0.154011  1
  O  O23  1  0.870769  0.286425  0.672329  1
  O  O24  1  0.127214  0.712684  0.326634  1
  O  O25  1  0.533180  0.688128  0.845845  1
  O  O26  1  0.807993  0.350319  0.341336  1
  O  O27  1  0.768718  0.496139  0.064567  1
  O  O28  1  0.904006  0.826086  0.914640  1
  O  O29  1  0.298257  0.196294  0.922563  1
  O  O30  1  0.496783  0.770037  0.436965  1
  O  O31  1  0.713575  0.129231  0.172329  1
  O  O32  1  0.830597  0.903048  0.585985  1
  O  O33  1  0.689639  0.532953  0.654011  1
  O  O34  1  0.803706  0.701743  0.422563  1
  O  O35  1  0.649681  0.192007  0.841336  1
