# generated using pymatgen
data_Li5La3Nb2O12
_symmetry_space_group_name_H-M   'P 1'
_cell_length_a   11.12828385
_cell_length_b   11.12828385
_cell_length_c   12.83429185
_cell_angle_alpha   55.18750968
_cell_angle_beta   124.81249032
_cell_angle_gamma   108.68474582
_symmetry_Int_Tables_number   1
_chemical_formula_structural   Li5La3Nb2O12
_chemical_formula_sum   'Li20 La12 Nb8 O48'
_cell_volume   1071.33690477
_cell_formula_units_Z   4
loop_
 _symmetry_equiv_pos_site_id
 _symmetry_equiv_pos_as_xyz
  1  'x, y, z'
loop_
 _atom_site_type_symbol
 _atom_site_label
 _atom_site_symmetry_multiplicity
 _atom_site_fract_x
 _atom_site_fract_y
 _atom_site_fract_z
 _atom_site_occupancy
  Li  Li0  1  0.514093  0.328075  0.279739  1
  Li  Li1  1  0.788419  0.423334  0.252106  1
  Li  Li2  1  0.709042  0.075234  0.386279  1
  Li  Li3  1  0.924766  0.290958  0.886279  1
  Li  Li4  1  0.439732  0.800196  0.252479  1
  Li  Li5  1  0.322996  0.530867  0.213854  1
  Li  Li6  1  0.105651  0.240693  0.807659  1
  Li  Li7  1  0.759307  0.894349  0.307659  1
  Li  Li8  1  0.245939  0.106547  0.692256  1
  Li  Li9  1  0.391954  0.245597  0.463836  1
  Li  Li10  1  0.893453  0.754061  0.192256  1
  Li  Li11  1  0.045746  0.816661  0.435075  1
  Li  Li12  1  0.671925  0.485907  0.779739  1
  Li  Li13  1  0.183339  0.954254  0.935075  1
  Li  Li14  1  0.290976  0.928494  0.612148  1
  Li  Li15  1  0.576666  0.211581  0.752106  1
  Li  Li16  1  0.071506  0.709024  0.112148  1
  Li  Li17  1  0.199804  0.560268  0.752479  1
  Li  Li18  1  0.469133  0.677004  0.713854  1
  Li  Li19  1  0.754403  0.608046  0.963836  1
  La  La20  1  0.371713  0.129797  0.123644  1
  La  La21  1  0.754312  0.246940  0.114261  1
  La  La22  1  0.753060  0.245688  0.614261  1
  La  La23  1  0.116542  0.375921  0.371291  1
  La  La24  1  0.125222  0.132040  0.241583  1
  La  La25  1  0.867960  0.874778  0.741583  1
  La  La26  1  0.630704  0.628846  0.251408  1
  La  La27  1  0.371154  0.369296  0.751408  1
  La  La28  1  0.870203  0.628287  0.623644  1
  La  La29  1  0.253512  0.751232  0.379920  1
  La  La30  1  0.248768  0.746488  0.879920  1
  La  La31  1  0.624079  0.883458  0.871291  1
  Nb  Nb32  1  0.496054  0.498207  0.000653  1
  Nb  Nb33  1  0.007468  0.501773  0.001025  1
  Nb  Nb34  1  0.503203  0.997960  0.002048  1
  Nb  Nb35  1  0.002040  0.496797  0.502048  1
  Nb  Nb36  1  0.501793  0.503946  0.500653  1
  Nb  Nb37  1  0.003078  0.005255  0.502742  1
  Nb  Nb38  1  0.994745  0.996922  0.002742  1
  Nb  Nb39  1  0.498227  0.992532  0.501025  1
  O  O40  1  0.425521  0.524197  0.099498  1
  O  O41  1  0.519660  0.415539  0.403184  1
  O  O42  1  0.383847  0.171345  0.308501  1
  O  O43  1  0.196331  0.900777  0.116693  1
  O  O44  1  0.590211  0.301423  0.177819  1
  O  O45  1  0.797183  0.420058  0.407249  1
  O  O46  1  0.913117  0.471845  0.115871  1
  O  O47  1  0.973338  0.408990  0.675419  1
  O  O48  1  0.591010  0.026662  0.175419  1
  O  O49  1  0.466494  0.919011  0.377644  1
  O  O50  1  0.696525  0.081150  0.525733  1
  O  O51  1  0.918850  0.303475  0.025733  1
  O  O52  1  0.407850  0.804708  0.084335  1
  O  O53  1  0.307973  0.601264  0.322064  1
  O  O54  1  0.898850  0.198153  0.372157  1
  O  O55  1  0.174882  0.385605  0.208111  1
  O  O56  1  0.119078  0.327045  0.591666  1
  O  O57  1  0.672955  0.880922  0.091666  1
  O  O58  1  0.827516  0.889603  0.518454  1
  O  O59  1  0.110397  0.172484  0.018454  1
  O  O60  1  0.326435  0.383542  0.911808  1
  O  O61  1  0.616458  0.673565  0.411808  1
  O  O62  1  0.933919  0.014612  0.313917  1
  O  O63  1  0.985388  0.066081  0.813917  1
  O  O64  1  0.033425  0.911299  0.208352  1
  O  O65  1  0.088701  0.966575  0.708352  1
  O  O66  1  0.387514  0.324407  0.576122  1
  O  O67  1  0.182482  0.117143  0.490171  1
  O  O68  1  0.882857  0.817518  0.990171  1
  O  O69  1  0.675593  0.612486  0.076122  1
  O  O70  1  0.321629  0.112833  0.911851  1
  O  O71  1  0.887167  0.678371  0.411851  1
  O  O72  1  0.828655  0.616153  0.808501  1
  O  O73  1  0.698577  0.409789  0.677819  1
  O  O74  1  0.099223  0.803669  0.616693  1
  O  O75  1  0.093520  0.699363  0.980474  1
  O  O76  1  0.300637  0.906480  0.480474  1
  O  O77  1  0.579942  0.202817  0.907249  1
  O  O78  1  0.414664  0.975543  0.824699  1
  O  O79  1  0.024457  0.585336  0.324699  1
  O  O80  1  0.528155  0.086883  0.615871  1
  O  O81  1  0.080989  0.533506  0.877644  1
  O  O82  1  0.195292  0.592150  0.584335  1
  O  O83  1  0.801847  0.101150  0.872157  1
  O  O84  1  0.398736  0.692027  0.822064  1
  O  O85  1  0.614395  0.825118  0.708111  1
  O  O86  1  0.475803  0.574479  0.599498  1
  O  O87  1  0.584461  0.480340  0.903184  1
