# generated using pymatgen
data_Li4Mn3Fe3(TeO8)2
_symmetry_space_group_name_H-M   'P 1'
_cell_length_a   6.06153790
_cell_length_b   6.06153790
_cell_length_c   9.89094989
_cell_angle_alpha   88.92268797
_cell_angle_beta   91.07731203
_cell_angle_gamma   120.14977741
_symmetry_Int_Tables_number   1
_chemical_formula_structural   Li4Mn3Fe3(TeO8)2
_chemical_formula_sum   'Li4 Mn3 Fe3 Te2 O16'
_cell_volume   314.17716981
_cell_formula_units_Z   1
loop_
 _symmetry_equiv_pos_site_id
 _symmetry_equiv_pos_as_xyz
  1  'x, y, z'
loop_
 _atom_site_type_symbol
 _atom_site_label
 _atom_site_symmetry_multiplicity
 _atom_site_fract_x
 _atom_site_fract_y
 _atom_site_fract_z
 _atom_site_occupancy
  Li  Li0  1  0.664494  0.335506  0.909275  1
  Li  Li1  1  0.999390  0.000610  0.983978  1
  Li  Li2  1  0.001207  0.998793  0.488270  1
  Li  Li3  1  0.333710  0.666290  0.410892  1
  Mn  Mn4  1  0.832247  0.167753  0.211126  1
  Mn  Mn5  1  0.174863  0.340714  0.709646  1
  Mn  Mn6  1  0.659286  0.825137  0.709646  1
  Fe  Fe7  1  0.333745  0.166105  0.212093  1
  Fe  Fe8  1  0.833895  0.666255  0.212093  1
  Fe  Fe9  1  0.173288  0.826712  0.715457  1
  Te  Te10  1  0.668799  0.331201  0.481624  1
  Te  Te11  1  0.332717  0.667283  0.983396  1
  O  O12  1  0.349859  0.168564  0.586819  1
  O  O13  1  0.520525  0.479475  0.349924  1
  O  O14  1  0.669375  0.330625  0.113953  1
  O  O15  1  0.995517  0.004483  0.303675  1
  O  O16  1  0.001192  0.998808  0.792703  1
  O  O17  1  0.831436  0.650141  0.586819  1
  O  O18  1  0.516199  0.041321  0.351645  1
  O  O19  1  0.958679  0.483801  0.351645  1
  O  O20  1  0.161034  0.838966  0.104388  1
  O  O21  1  0.830148  0.169852  0.585523  1
  O  O22  1  0.032522  0.527699  0.848416  1
  O  O23  1  0.472301  0.967478  0.848416  1
  O  O24  1  0.330816  0.669184  0.610440  1
  O  O25  1  0.167729  0.324922  0.095725  1
  O  O26  1  0.479196  0.520804  0.854449  1
  O  O27  1  0.675078  0.832271  0.095725  1
