# generated using pymatgen
data_FeOF
_symmetry_space_group_name_H-M   'P 1'
_cell_length_a   4.74337011
_cell_length_b   4.75743217
_cell_length_c   13.17422799
_cell_angle_alpha   90.00000000
_cell_angle_beta   111.10545913
_cell_angle_gamma   90.00000000
_symmetry_Int_Tables_number   1
_chemical_formula_structural   FeOF
_chemical_formula_sum   'Fe8 O8 F8'
_cell_volume   277.35042602
_cell_formula_units_Z   8
loop_
 _symmetry_equiv_pos_site_id
 _symmetry_equiv_pos_as_xyz
  1  'x, y, z'
loop_
 _atom_site_type_symbol
 _atom_site_label
 _atom_site_symmetry_multiplicity
 _atom_site_fract_x
 _atom_site_fract_y
 _atom_site_fract_z
 _atom_site_occupancy
  Fe  Fe0  1  0.140029  0.006147  0.936916  1
  Fe  Fe1  1  0.417220  0.017583  0.187879  1
  Fe  Fe2  1  0.660210  0.025496  0.438341  1
  Fe  Fe3  1  0.954829  0.943553  0.687089  1
  Fe  Fe4  1  0.045171  0.443553  0.312911  1
  Fe  Fe5  1  0.582780  0.517583  0.812121  1
  Fe  Fe6  1  0.859971  0.506147  0.063084  1
  Fe  Fe7  1  0.339790  0.525496  0.561659  1
  O  O8  1  0.124011  0.817769  0.064969  1
  O  O9  1  0.629609  0.808394  0.559868  1
  O  O10  1  0.875832  0.804507  0.811912  1
  O  O11  1  0.124168  0.304507  0.188088  1
  O  O12  1  0.370391  0.308394  0.440132  1
  O  O13  1  0.875989  0.317769  0.935031  1
  O  O14  1  0.262766  0.680442  0.686795  1
  O  O15  1  0.737234  0.180442  0.313205  1
  F  F16  1  0.347735  0.797008  0.313176  1
  F  F17  1  0.652265  0.297008  0.686824  1
  F  F18  1  0.735558  0.694055  0.188667  1
  F  F19  1  0.982091  0.696411  0.435543  1
  F  F20  1  0.493894  0.708637  0.939377  1
  F  F21  1  0.017909  0.196411  0.564457  1
  F  F22  1  0.264442  0.194055  0.811333  1
  F  F23  1  0.506106  0.208637  0.060623  1
