# generated using pymatgen
data_Fe10O11F9
_symmetry_space_group_name_H-M   'P 1'
_cell_length_a   4.75564520
_cell_length_b   15.31217878
_cell_length_c   4.76464422
_cell_angle_alpha   90.00000000
_cell_angle_beta   93.81205915
_cell_angle_gamma   90.00000000
_symmetry_Int_Tables_number   1
_chemical_formula_structural   Fe10O11F9
_chemical_formula_sum   'Fe10 O11 F9'
_cell_volume   346.19036132
_cell_formula_units_Z   1
loop_
 _symmetry_equiv_pos_site_id
 _symmetry_equiv_pos_as_xyz
  1  'x, y, z'
loop_
 _atom_site_type_symbol
 _atom_site_label
 _atom_site_symmetry_multiplicity
 _atom_site_fract_x
 _atom_site_fract_y
 _atom_site_fract_z
 _atom_site_occupancy
  Fe  Fe0  1  0.996453  0.293946  0.015138  1
  Fe  Fe1  1  0.000889  0.500000  0.002530  1
  Fe  Fe2  1  0.996453  0.706054  0.015138  1
  Fe  Fe3  1  0.957839  0.901054  0.998999  1
  Fe  Fe4  1  0.957839  0.098946  0.998999  1
  Fe  Fe5  1  0.496768  0.400346  0.506887  1
  Fe  Fe6  1  0.538594  0.792780  0.483038  1
  Fe  Fe7  1  0.496768  0.599654  0.506887  1
  Fe  Fe8  1  0.541803  0.000000  0.489529  1
  Fe  Fe9  1  0.538594  0.207220  0.483038  1
  O  O10  1  0.809576  0.799382  0.191694  1
  O  O11  1  0.799562  0.000000  0.187078  1
  O  O12  1  0.809576  0.200618  0.191694  1
  O  O13  1  0.702136  0.306720  0.703419  1
  O  O14  1  0.695769  0.500000  0.704587  1
  O  O15  1  0.702136  0.693280  0.703419  1
  O  O16  1  0.686025  0.896852  0.681813  1
  O  O17  1  0.686025  0.103148  0.681813  1
  O  O18  1  0.306535  0.304569  0.307227  1
  O  O19  1  0.300783  0.500000  0.307648  1
  O  O20  1  0.306535  0.695431  0.307227  1
  F  F21  1  0.809952  0.401363  0.198743  1
  F  F22  1  0.809952  0.598637  0.198743  1
  F  F23  1  0.298675  0.900269  0.292613  1
  F  F24  1  0.298675  0.099731  0.292613  1
  F  F25  1  0.190864  0.399586  0.814833  1
  F  F26  1  0.193575  0.801073  0.808336  1
  F  F27  1  0.190864  0.600414  0.814833  1
  F  F28  1  0.193575  0.198927  0.808336  1
  F  F29  1  0.187205  0.000000  0.803147  1
