# generated using pymatgen
data_Li2MnSi3O8
_symmetry_space_group_name_H-M   'P 1'
_cell_length_a   5.05444627
_cell_length_b   10.20353312
_cell_length_c   6.77467151
_cell_angle_alpha   90.00000000
_cell_angle_beta   90.33710380
_cell_angle_gamma   90.00000000
_symmetry_Int_Tables_number   1
_chemical_formula_structural   Li2MnSi3O8
_chemical_formula_sum   'Li4 Mn2 Si6 O16'
_cell_volume   349.38550870
_cell_formula_units_Z   2
loop_
 _symmetry_equiv_pos_site_id
 _symmetry_equiv_pos_as_xyz
  1  'x, y, z'
loop_
 _atom_site_type_symbol
 _atom_site_label
 _atom_site_symmetry_multiplicity
 _atom_site_fract_x
 _atom_site_fract_y
 _atom_site_fract_z
 _atom_site_occupancy
  Li  Li0  1  0.063048  0.145410  0.244567  1
  Li  Li1  1  0.936952  0.645410  0.755433  1
  Li  Li2  1  0.596997  0.343402  0.752077  1
  Li  Li3  1  0.403003  0.843402  0.247923  1
  Mn  Mn4  1  0.092763  0.164455  0.741810  1
  Mn  Mn5  1  0.907237  0.664455  0.258190  1
  Si  Si6  1  0.547468  0.335792  0.272866  1
  Si  Si7  1  0.960599  0.911568  0.979938  1
  Si  Si8  1  0.039401  0.411568  0.020062  1
  Si  Si9  1  0.452532  0.835792  0.727134  1
  Si  Si10  1  0.401978  0.593569  0.475851  1
  Si  Si11  1  0.598022  0.093569  0.524149  1
  O  O12  1  0.031954  0.846809  0.188695  1
  O  O13  1  0.858932  0.338953  0.202015  1
  O  O14  1  0.645304  0.875425  0.913828  1
  O  O15  1  0.988433  0.565545  0.007651  1
  O  O16  1  0.354696  0.375425  0.086172  1
  O  O17  1  0.011567  0.065545  0.992349  1
  O  O18  1  0.141068  0.838953  0.797985  1
  O  O19  1  0.968046  0.346809  0.811305  1
  O  O20  1  0.536770  0.682620  0.667152  1
  O  O21  1  0.498098  0.165371  0.720398  1
  O  O22  1  0.488943  0.934798  0.530645  1
  O  O23  1  0.087973  0.596281  0.510773  1
  O  O24  1  0.511057  0.434798  0.469355  1
  O  O25  1  0.912027  0.096281  0.489227  1
  O  O26  1  0.501902  0.665371  0.279602  1
  O  O27  1  0.463230  0.182620  0.332848  1
