# generated using pymatgen
data_Mn6OF11
_symmetry_space_group_name_H-M   'P 1'
_cell_length_a   4.96321102
_cell_length_b   5.89718403
_cell_length_c   16.22683080
_cell_angle_alpha   90.00000000
_cell_angle_beta   90.77052634
_cell_angle_gamma   90.00000000
_symmetry_Int_Tables_number   1
_chemical_formula_structural   Mn6OF11
_chemical_formula_sum   'Mn12 O2 F22'
_cell_volume   474.89965681
_cell_formula_units_Z   2
loop_
 _symmetry_equiv_pos_site_id
 _symmetry_equiv_pos_as_xyz
  1  'x, y, z'
loop_
 _atom_site_type_symbol
 _atom_site_label
 _atom_site_symmetry_multiplicity
 _atom_site_fract_x
 _atom_site_fract_y
 _atom_site_fract_z
 _atom_site_occupancy
  Mn  Mn0  1  0.996709  0.832777  0.583836  1
  Mn  Mn1  1  0.984868  0.166589  0.754732  1
  Mn  Mn2  1  0.992527  0.855422  0.913910  1
  Mn  Mn3  1  0.984868  0.833411  0.254732  1
  Mn  Mn4  1  0.992527  0.144578  0.413910  1
  Mn  Mn5  1  0.996709  0.167223  0.083836  1
  Mn  Mn6  1  0.525385  0.689434  0.412393  1
  Mn  Mn7  1  0.485421  0.670023  0.080794  1
  Mn  Mn8  1  0.504416  0.665755  0.750848  1
  Mn  Mn9  1  0.525385  0.310566  0.912393  1
  Mn  Mn10  1  0.485421  0.329977  0.580794  1
  Mn  Mn11  1  0.504416  0.334245  0.250848  1
  O  O12  1  0.794974  0.912487  0.364587  1
  O  O13  1  0.794974  0.087513  0.864587  1
  F  F14  1  0.764135  0.891398  0.690733  1
  F  F15  1  0.775872  0.885558  0.023621  1
  F  F16  1  0.775872  0.114442  0.523621  1
  F  F17  1  0.764135  0.108602  0.190733  1
  F  F18  1  0.742350  0.605728  0.862266  1
  F  F19  1  0.726400  0.392314  0.691551  1
  F  F20  1  0.714894  0.607830  0.527260  1
  F  F21  1  0.742350  0.394272  0.362266  1
  F  F22  1  0.726400  0.607686  0.191551  1
  F  F23  1  0.714894  0.392170  0.027260  1
  F  F24  1  0.247866  0.627971  0.967422  1
  F  F25  1  0.287753  0.383658  0.806309  1
  F  F26  1  0.269314  0.606225  0.639277  1
  F  F27  1  0.247866  0.372029  0.467422  1
  F  F28  1  0.269314  0.393775  0.139277  1
  F  F29  1  0.287753  0.616342  0.306309  1
  F  F30  1  0.229622  0.879258  0.810135  1
  F  F31  1  0.236879  0.894442  0.476227  1
  F  F32  1  0.220615  0.110618  0.644098  1
  F  F33  1  0.236879  0.105558  0.976227  1
  F  F34  1  0.220615  0.889382  0.144098  1
  F  F35  1  0.229622  0.120742  0.310135  1
