# generated using pymatgen
data_BaLaI5
_symmetry_space_group_name_H-M   'P 1'
_cell_length_a   9.25509150
_cell_length_b   4.87365720
_cell_length_c   15.03418883
_cell_angle_alpha   90.00000000
_cell_angle_beta   90.31939153
_cell_angle_gamma   90.00000000
_symmetry_Int_Tables_number   1
_chemical_formula_structural   BaLaI5
_chemical_formula_sum   'Ba2 La2 I10'
_cell_volume   678.12374047
_cell_formula_units_Z   2
loop_
 _symmetry_equiv_pos_site_id
 _symmetry_equiv_pos_as_xyz
  1  'x, y, z'
loop_
 _atom_site_type_symbol
 _atom_site_label
 _atom_site_symmetry_multiplicity
 _atom_site_fract_x
 _atom_site_fract_y
 _atom_site_fract_z
 _atom_site_occupancy
  Ba  Ba0  1  0.071302  0.750000  0.152276  1
  Ba  Ba1  1  0.928698  0.250000  0.847724  1
  La  La2  1  0.426012  0.250000  0.349238  1
  La  La3  1  0.573988  0.750000  0.650762  1
  I  I4  1  0.077655  0.250000  0.334574  1
  I  I5  1  0.160642  0.750000  0.926164  1
  I  I6  1  0.322139  0.750000  0.486067  1
  I  I7  1  0.361647  0.250000  0.139928  1
  I  I8  1  0.367785  0.250000  0.711078  1
  I  I9  1  0.632215  0.750000  0.288922  1
  I  I10  1  0.638353  0.750000  0.860072  1
  I  I11  1  0.677861  0.250000  0.513933  1
  I  I12  1  0.839358  0.250000  0.073836  1
  I  I13  1  0.922345  0.750000  0.665426  1
