# generated using pymatgen
data_Ni4P2O9
_symmetry_space_group_name_H-M   'P 1'
_cell_length_a   6.49467859
_cell_length_b   11.10268970
_cell_length_c   9.23523444
_cell_angle_alpha   90.00000000
_cell_angle_beta   105.89290126
_cell_angle_gamma   90.00000000
_symmetry_Int_Tables_number   1
_chemical_formula_structural   Ni4P2O9
_chemical_formula_sum   'Ni16 P8 O36'
_cell_volume   640.48267206
_cell_formula_units_Z   4
loop_
 _symmetry_equiv_pos_site_id
 _symmetry_equiv_pos_as_xyz
  1  'x, y, z'
loop_
 _atom_site_type_symbol
 _atom_site_label
 _atom_site_symmetry_multiplicity
 _atom_site_fract_x
 _atom_site_fract_y
 _atom_site_fract_z
 _atom_site_occupancy
  Ni  Ni0  1  0.062647  0.405172  0.885323  1
  Ni  Ni1  1  0.062647  0.094828  0.385323  1
  Ni  Ni2  1  0.229951  0.620965  0.751634  1
  Ni  Ni3  1  0.179222  0.399081  0.538593  1
  Ni  Ni4  1  0.229951  0.879035  0.251634  1
  Ni  Ni5  1  0.179222  0.100919  0.038593  1
  Ni  Ni6  1  0.454268  0.867422  0.682345  1
  Ni  Ni7  1  0.545732  0.367422  0.817655  1
  Ni  Ni8  1  0.454268  0.632578  0.182345  1
  Ni  Ni9  1  0.545732  0.132578  0.317655  1
  Ni  Ni10  1  0.820778  0.899081  0.961407  1
  Ni  Ni11  1  0.770049  0.120965  0.748366  1
  Ni  Ni12  1  0.820778  0.600919  0.461407  1
  Ni  Ni13  1  0.770049  0.379035  0.248366  1
  Ni  Ni14  1  0.937353  0.905172  0.614677  1
  Ni  Ni15  1  0.937353  0.594828  0.114677  1
  P  P16  1  0.294526  0.829279  0.923829  1
  P  P17  1  0.244900  0.131691  0.686248  1
  P  P18  1  0.294526  0.670721  0.423829  1
  P  P19  1  0.244900  0.368309  0.186248  1
  P  P20  1  0.755100  0.631691  0.813752  1
  P  P21  1  0.705474  0.329279  0.576171  1
  P  P22  1  0.755100  0.868309  0.313752  1
  P  P23  1  0.705474  0.170721  0.076171  1
  O  O24  1  0.107472  0.114833  0.797586  1
  O  O25  1  0.165015  0.810345  0.754109  1
  O  O26  1  0.137531  0.217707  0.553805  1
  O  O27  1  0.254990  0.440290  0.766443  1
  O  O28  1  0.163610  0.594590  0.510755  1
  O  O29  1  0.331408  0.696803  0.975490  1
  O  O30  1  0.107472  0.385167  0.297586  1
  O  O31  1  0.242947  0.010237  0.598278  1
  O  O32  1  0.165015  0.689655  0.254109  1
  O  O33  1  0.137531  0.282293  0.053805  1
  O  O34  1  0.254990  0.059710  0.266443  1
  O  O35  1  0.163610  0.905410  0.010755  1
  O  O36  1  0.331408  0.803197  0.475490  1
  O  O37  1  0.495953  0.896418  0.914505  1
  O  O38  1  0.242947  0.489763  0.098278  1
  O  O39  1  0.470525  0.175367  0.767348  1
  O  O40  1  0.529475  0.675367  0.732652  1
  O  O41  1  0.504047  0.396418  0.585495  1
  O  O42  1  0.495953  0.603582  0.414505  1
  O  O43  1  0.470525  0.324633  0.267348  1
  O  O44  1  0.529475  0.824633  0.232652  1
  O  O45  1  0.757053  0.510237  0.901722  1
  O  O46  1  0.504047  0.103582  0.085495  1
  O  O47  1  0.668592  0.196803  0.524510  1
  O  O48  1  0.836390  0.094590  0.989245  1
  O  O49  1  0.745010  0.940290  0.733557  1
  O  O50  1  0.862469  0.717707  0.946195  1
  O  O51  1  0.834985  0.310345  0.745891  1
  O  O52  1  0.757053  0.989763  0.401722  1
  O  O53  1  0.892528  0.614833  0.702414  1
  O  O54  1  0.668592  0.303197  0.024510  1
  O  O55  1  0.836390  0.405410  0.489245  1
  O  O56  1  0.745010  0.559710  0.233557  1
  O  O57  1  0.862469  0.782293  0.446195  1
  O  O58  1  0.834985  0.189655  0.245891  1
  O  O59  1  0.892528  0.885167  0.202414  1
