# generated using pymatgen
data_Li3MnV(PO4)3
_symmetry_space_group_name_H-M   'P 1'
_cell_length_a   8.50557409
_cell_length_b   8.50557409
_cell_length_c   8.61602241
_cell_angle_alpha   61.68041284
_cell_angle_beta   118.31958716
_cell_angle_gamma   116.84089142
_symmetry_Int_Tables_number   1
_chemical_formula_structural   Li3MnV(PO4)3
_chemical_formula_sum   'Li6 Mn2 V2 P6 O24'
_cell_volume   461.96144594
_cell_formula_units_Z   2
loop_
 _symmetry_equiv_pos_site_id
 _symmetry_equiv_pos_as_xyz
  1  'x, y, z'
loop_
 _atom_site_type_symbol
 _atom_site_label
 _atom_site_symmetry_multiplicity
 _atom_site_fract_x
 _atom_site_fract_y
 _atom_site_fract_z
 _atom_site_occupancy
  Li  Li0  1  0.747832  0.128510  0.843322  1
  Li  Li1  1  0.003136  0.500487  0.998770  1
  Li  Li2  1  0.871490  0.252168  0.343322  1
  Li  Li3  1  0.127657  0.741216  0.658575  1
  Li  Li4  1  0.499513  0.996864  0.498770  1
  Li  Li5  1  0.258784  0.872343  0.158575  1
  Mn  Mn6  1  0.143003  0.362113  0.850269  1
  Mn  Mn7  1  0.637887  0.856997  0.350269  1
  V  V8  1  0.363480  0.144418  0.644673  1
  V  V9  1  0.855582  0.636520  0.144673  1
  P  P10  1  0.450246  0.751668  0.965392  1
  P  P11  1  0.053458  0.052275  0.248370  1
  P  P12  1  0.749243  0.451386  0.535523  1
  P  P13  1  0.248332  0.549754  0.465392  1
  P  P14  1  0.947725  0.946542  0.748370  1
  P  P15  1  0.548614  0.250757  0.035523  1
  O  O16  1  0.535644  0.187137  0.888641  1
  O  O17  1  0.966488  0.107499  0.797088  1
  O  O18  1  0.383951  0.317794  0.975906  1
  O  O19  1  0.239973  0.062881  0.416771  1
  O  O20  1  0.254560  0.611328  0.924880  1
  O  O21  1  0.603899  0.256592  0.575859  1
  O  O22  1  0.913832  0.452881  0.727696  1
  O  O23  1  0.892501  0.033512  0.297088  1
  O  O24  1  0.937119  0.760027  0.916771  1
  O  O25  1  0.317888  0.385878  0.527923  1
  O  O26  1  0.547119  0.086168  0.227696  1
  O  O27  1  0.185187  0.534534  0.615218  1
  O  O28  1  0.812863  0.464356  0.388641  1
  O  O29  1  0.458580  0.915748  0.775917  1
  O  O30  1  0.682206  0.616049  0.475906  1
  O  O31  1  0.064481  0.237247  0.077106  1
  O  O32  1  0.116274  0.977221  0.702101  1
  O  O33  1  0.084252  0.541420  0.275917  1
  O  O34  1  0.388672  0.745440  0.424880  1
  O  O35  1  0.743408  0.396101  0.075859  1
  O  O36  1  0.762753  0.935519  0.577106  1
  O  O37  1  0.614122  0.682112  0.027923  1
  O  O38  1  0.022779  0.883726  0.202101  1
  O  O39  1  0.465466  0.814813  0.115218  1
