# generated using pymatgen
data_BaYI5
_symmetry_space_group_name_H-M   'P 1'
_cell_length_a   8.27067009
_cell_length_b   27.05664881
_cell_length_c   14.11013948
_cell_angle_alpha   90.00000000
_cell_angle_beta   124.90180135
_cell_angle_gamma   90.00000000
_symmetry_Int_Tables_number   1
_chemical_formula_structural   BaYI5
_chemical_formula_sum   'Ba8 Y8 I40'
_cell_volume   2589.58854988
_cell_formula_units_Z   8
loop_
 _symmetry_equiv_pos_site_id
 _symmetry_equiv_pos_as_xyz
  1  'x, y, z'
loop_
 _atom_site_type_symbol
 _atom_site_label
 _atom_site_symmetry_multiplicity
 _atom_site_fract_x
 _atom_site_fract_y
 _atom_site_fract_z
 _atom_site_occupancy
  Ba  Ba0  1  0.842757  0.471983  0.750536  1
  Ba  Ba1  1  0.850755  0.740057  0.511580  1
  Ba  Ba2  1  0.157243  0.971983  0.749464  1
  Ba  Ba3  1  0.149245  0.240057  0.988420  1
  Ba  Ba4  1  0.850755  0.759943  0.011580  1
  Ba  Ba5  1  0.842757  0.028017  0.250536  1
  Ba  Ba6  1  0.149245  0.259943  0.488420  1
  Ba  Ba7  1  0.157243  0.528017  0.249464  1
  Y  Y8  1  0.196540  0.628496  0.943009  1
  Y  Y9  1  0.803460  0.128496  0.556991  1
  Y  Y10  1  0.344201  0.886932  0.109178  1
  Y  Y11  1  0.655799  0.386932  0.390822  1
  Y  Y12  1  0.344201  0.613068  0.609178  1
  Y  Y13  1  0.655799  0.113068  0.890822  1
  Y  Y14  1  0.196540  0.871504  0.443009  1
  Y  Y15  1  0.803460  0.371504  0.056991  1
  I  I16  1  0.940548  0.875006  0.896088  1
  I  I17  1  0.533293  0.643684  0.490766  1
  I  I18  1  0.605633  0.838227  0.551870  1
  I  I19  1  0.852255  0.075524  0.765370  1
  I  I20  1  0.241045  0.409447  0.175152  1
  I  I21  1  0.169385  0.649721  0.144603  1
  I  I22  1  0.003464  0.726199  0.828458  1
  I  I23  1  0.367564  0.786854  0.207105  1
  I  I24  1  0.711282  0.023909  0.461794  1
  I  I25  1  0.673308  0.496526  0.445058  1
  I  I26  1  0.996536  0.226199  0.671542  1
  I  I27  1  0.326692  0.996526  0.054942  1
  I  I28  1  0.288718  0.523909  0.038206  1
  I  I29  1  0.632436  0.286854  0.292895  1
  I  I30  1  0.147745  0.575524  0.734630  1
  I  I31  1  0.394367  0.338227  0.948130  1
  I  I32  1  0.830615  0.149721  0.355397  1
  I  I33  1  0.758955  0.909447  0.324848  1
  I  I34  1  0.466707  0.143684  0.009234  1
  I  I35  1  0.059452  0.375006  0.603912  1
  I  I36  1  0.940548  0.624994  0.396088  1
  I  I37  1  0.533293  0.856316  0.990766  1
  I  I38  1  0.241045  0.090553  0.675152  1
  I  I39  1  0.169385  0.850279  0.644603  1
  I  I40  1  0.605633  0.661773  0.051870  1
  I  I41  1  0.852255  0.424476  0.265370  1
  I  I42  1  0.367564  0.713146  0.707105  1
  I  I43  1  0.711282  0.476091  0.961794  1
  I  I44  1  0.673308  0.003474  0.945058  1
  I  I45  1  0.003464  0.773801  0.328458  1
  I  I46  1  0.326692  0.503474  0.554942  1
  I  I47  1  0.288718  0.976091  0.538206  1
  I  I48  1  0.632436  0.213146  0.792895  1
  I  I49  1  0.996536  0.273801  0.171542  1
  I  I50  1  0.830615  0.350279  0.855397  1
  I  I51  1  0.758955  0.590553  0.824848  1
  I  I52  1  0.147745  0.924476  0.234630  1
  I  I53  1  0.394367  0.161773  0.448130  1
  I  I54  1  0.466707  0.356316  0.509234  1
  I  I55  1  0.059452  0.124994  0.103912  1
