# generated using pymatgen
data_FePO4
_symmetry_space_group_name_H-M   'P 1'
_cell_length_a   5.24396801
_cell_length_b   5.25249115
_cell_length_c   6.38644241
_cell_angle_alpha   86.32131865
_cell_angle_beta   106.78966184
_cell_angle_gamma   111.17334311
_symmetry_Int_Tables_number   1
_chemical_formula_structural   FePO4
_chemical_formula_sum   'Fe2 P2 O8'
_cell_volume   156.88082490
_cell_formula_units_Z   2
loop_
 _symmetry_equiv_pos_site_id
 _symmetry_equiv_pos_as_xyz
  1  'x, y, z'
loop_
 _atom_site_type_symbol
 _atom_site_label
 _atom_site_symmetry_multiplicity
 _atom_site_fract_x
 _atom_site_fract_y
 _atom_site_fract_z
 _atom_site_occupancy
  Fe  Fe0  1  0.256207  0.797064  0.292995  1
  Fe  Fe1  1  0.743793  0.202936  0.707005  1
  P  P2  1  0.868320  0.174639  0.228380  1
  P  P3  1  0.131680  0.825361  0.771620  1
  O  O4  1  0.133817  0.414996  0.352735  1
  O  O5  1  0.355387  0.902359  0.633188  1
  O  O6  1  0.945536  0.921326  0.216541  1
  O  O7  1  0.728697  0.255673  0.001070  1
  O  O8  1  0.271303  0.744327  0.998930  1
  O  O9  1  0.054464  0.078674  0.783459  1
  O  O10  1  0.644613  0.097641  0.366812  1
  O  O11  1  0.866183  0.585004  0.647265  1
