# generated using pymatgen
data_Li5Ti2Fe5O12
_symmetry_space_group_name_H-M   'P 1'
_cell_length_a   5.25683850
_cell_length_b   5.25683850
_cell_length_c   10.03032918
_cell_angle_alpha   84.38751439
_cell_angle_beta   95.61248561
_cell_angle_gamma   58.83937278
_symmetry_Int_Tables_number   1
_chemical_formula_structural   Li5Ti2Fe5O12
_chemical_formula_sum   'Li5 Ti2 Fe5 O12'
_cell_volume   232.44102320
_cell_formula_units_Z   1
loop_
 _symmetry_equiv_pos_site_id
 _symmetry_equiv_pos_as_xyz
  1  'x, y, z'
loop_
 _atom_site_type_symbol
 _atom_site_label
 _atom_site_symmetry_multiplicity
 _atom_site_fract_x
 _atom_site_fract_y
 _atom_site_fract_z
 _atom_site_occupancy
  Li  Li0  1  0.330022  0.834261  0.753576  1
  Li  Li1  1  0.166994  0.672590  0.244811  1
  Li  Li2  1  0.834261  0.330022  0.246424  1
  Li  Li3  1  0.672590  0.166994  0.755189  1
  Li  Li4  1  0.079531  0.079531  0.000000  1
  Ti  Ti5  1  0.747749  0.747749  0.000000  1
  Ti  Ti6  1  0.253562  0.253562  0.500000  1
  Fe  Fe7  1  0.922508  0.922508  0.500000  1
  Fe  Fe8  1  0.495147  0.996096  0.248112  1
  Fe  Fe9  1  0.996096  0.495147  0.751888  1
  Fe  Fe10  1  0.580760  0.580760  0.500000  1
  Fe  Fe11  1  0.418793  0.418793  0.000000  1
  O  O12  1  0.774671  0.030738  0.114193  1
  O  O13  1  0.030738  0.774671  0.885807  1
  O  O14  1  0.619259  0.883085  0.617914  1
  O  O15  1  0.883085  0.619259  0.382086  1
  O  O16  1  0.482725  0.692669  0.113755  1
  O  O17  1  0.692669  0.482725  0.886245  1
  O  O18  1  0.300488  0.509106  0.618457  1
  O  O19  1  0.509106  0.300488  0.381543  1
  O  O20  1  0.120983  0.395291  0.114437  1
  O  O21  1  0.395291  0.120983  0.885563  1
  O  O22  1  0.993078  0.199891  0.620205  1
  O  O23  1  0.199891  0.993078  0.379795  1
