# generated using pymatgen
data_Li4Fe7(OF7)2
_symmetry_space_group_name_H-M   'P 1'
_cell_length_a   6.14684013
_cell_length_b   6.15558041
_cell_length_c   10.76420921
_cell_angle_alpha   105.69174367
_cell_angle_beta   91.42641713
_cell_angle_gamma   118.72400521
_symmetry_Int_Tables_number   1
_chemical_formula_structural   Li4Fe7(OF7)2
_chemical_formula_sum   'Li4 Fe7 O2 F14'
_cell_volume   338.02362481
_cell_formula_units_Z   1
loop_
 _symmetry_equiv_pos_site_id
 _symmetry_equiv_pos_as_xyz
  1  'x, y, z'
loop_
 _atom_site_type_symbol
 _atom_site_label
 _atom_site_symmetry_multiplicity
 _atom_site_fract_x
 _atom_site_fract_y
 _atom_site_fract_z
 _atom_site_occupancy
  Li  Li0  1  0.359080  0.650238  0.444840  1
  Li  Li1  1  0.626416  0.818520  0.057042  1
  Li  Li2  1  0.378679  0.180221  0.947596  1
  Li  Li3  1  0.629153  0.331363  0.558088  1
  Fe  Fe4  1  0.003102  0.515098  0.990730  1
  Fe  Fe5  1  0.476062  0.250853  0.252094  1
  Fe  Fe6  1  0.015088  0.771647  0.242601  1
  Fe  Fe7  1  0.013275  0.005447  0.502978  1
  Fe  Fe8  1  0.002253  0.243943  0.749617  1
  Fe  Fe9  1  0.018160  0.248754  0.252324  1
  Fe  Fe10  1  0.498699  0.752258  0.748414  1
  O  O11  1  0.227277  0.331941  0.376024  1
  O  O12  1  0.232653  0.111555  0.137736  1
  F  F13  1  0.754606  0.619307  0.120875  1
  F  F14  1  0.262118  0.613355  0.637321  1
  F  F15  1  0.766451  0.165669  0.129269  1
  F  F16  1  0.749079  0.124561  0.629962  1
  F  F17  1  0.246495  0.148166  0.629182  1
  F  F18  1  0.236591  0.617044  0.122176  1
  F  F19  1  0.243697  0.863295  0.378729  1
  F  F20  1  0.748445  0.867381  0.375667  1
  F  F21  1  0.767314  0.348706  0.875885  1
  F  F22  1  0.253430  0.857737  0.881346  1
  F  F23  1  0.751046  0.657122  0.613042  1
  F  F24  1  0.725552  0.877267  0.867603  1
  F  F25  1  0.771242  0.398555  0.353602  1
  F  F26  1  0.244039  0.379995  0.875257  1
