# generated using pymatgen
data_Li3Fe8(BO3)8
_symmetry_space_group_name_H-M   'P 1'
_cell_length_a   5.25036557
_cell_length_b   9.20612286
_cell_length_c   10.08471653
_cell_angle_alpha   89.19800760
_cell_angle_beta   88.85406094
_cell_angle_gamma   88.55363316
_symmetry_Int_Tables_number   1
_chemical_formula_structural   Li3Fe8(BO3)8
_chemical_formula_sum   'Li3 Fe8 B8 O24'
_cell_volume   487.15276369
_cell_formula_units_Z   1
loop_
 _symmetry_equiv_pos_site_id
 _symmetry_equiv_pos_as_xyz
  1  'x, y, z'
loop_
 _atom_site_type_symbol
 _atom_site_label
 _atom_site_symmetry_multiplicity
 _atom_site_fract_x
 _atom_site_fract_y
 _atom_site_fract_z
 _atom_site_occupancy
  Li  Li0  1  0.324365  0.328685  0.411961  1
  Li  Li1  1  0.325633  0.325019  0.918663  1
  Li  Li2  1  0.828999  0.824195  0.901527  1
  Fe  Fe3  1  0.175050  0.836366  0.634794  1
  Fe  Fe4  1  0.183412  0.502309  0.128320  1
  Fe  Fe5  1  0.312744  0.001930  0.878329  1
  Fe  Fe6  1  0.326474  0.668364  0.375151  1
  Fe  Fe7  1  0.676800  0.333901  0.636114  1
  Fe  Fe8  1  0.666168  0.004954  0.126180  1
  Fe  Fe9  1  0.835182  0.157922  0.375130  1
  Fe  Fe10  1  0.821290  0.501340  0.879987  1
  B  B11  1  0.165347  0.502267  0.619339  1
  B  B12  1  0.165702  0.836645  0.129716  1
  B  B13  1  0.342270  0.001562  0.381898  1
  B  B14  1  0.333452  0.664524  0.875260  1
  B  B15  1  0.661599  0.002265  0.629694  1
  B  B16  1  0.676656  0.328233  0.125206  1
  B  B17  1  0.832532  0.494227  0.378140  1
  B  B18  1  0.827032  0.168230  0.877632  1
  O  O19  1  0.095719  0.494654  0.353007  1
  O  O20  1  0.083501  0.176342  0.877670  1
  O  O21  1  0.184073  0.788401  0.834340  1
  O  O22  1  0.244436  0.871309  0.428706  1
  O  O23  1  0.197389  0.128571  0.382779  1
  O  O24  1  0.208646  0.538218  0.910162  1
  O  O25  1  0.329121  0.383846  0.610829  1
  O  O26  1  0.326304  0.945828  0.086595  1
  O  O27  1  0.248448  0.638296  0.577497  1
  O  O28  1  0.265678  0.710504  0.185323  1
  O  O29  1  0.418999  0.331746  0.114515  1
  O  O30  1  0.408505  0.992117  0.667697  1
  O  O31  1  0.593871  0.002300  0.333793  1
  O  O32  1  0.590163  0.675513  0.879542  1
  O  O33  1  0.672706  0.286044  0.831066  1
  O  O34  1  0.728173  0.358638  0.418710  1
  O  O35  1  0.675912  0.611700  0.368092  1
  O  O36  1  0.696025  0.046008  0.924645  1
  O  O37  1  0.831424  0.436371  0.081835  1
  O  O38  1  0.828395  0.889617  0.647127  1
  O  O39  1  0.742794  0.135548  0.573888  1
  O  O40  1  0.793550  0.196798  0.177938  1
  O  O41  1  0.907959  0.851078  0.108080  1
  O  O42  1  0.916785  0.485646  0.663741  1
