# generated using pymatgen
data_Li4Fe3Ni3(SnO8)2
_symmetry_space_group_name_H-M   'P 1'
_cell_length_a   5.93657818
_cell_length_b   5.93657818
_cell_length_c   9.69145992
_cell_angle_alpha   89.36773070
_cell_angle_beta   90.63226930
_cell_angle_gamma   120.65934318
_symmetry_Int_Tables_number   1
_chemical_formula_structural   Li4Fe3Ni3(SnO8)2
_chemical_formula_sum   'Li4 Fe3 Ni3 Sn2 O16'
_cell_volume   293.78744667
_cell_formula_units_Z   1
loop_
 _symmetry_equiv_pos_site_id
 _symmetry_equiv_pos_as_xyz
  1  'x, y, z'
loop_
 _atom_site_type_symbol
 _atom_site_label
 _atom_site_symmetry_multiplicity
 _atom_site_fract_x
 _atom_site_fract_y
 _atom_site_fract_z
 _atom_site_occupancy
  Li  Li0  1  0.334461  0.665539  0.107406  1
  Li  Li1  1  0.999572  0.000428  0.007300  1
  Li  Li2  1  0.997768  0.002232  0.504520  1
  Li  Li3  1  0.662836  0.337164  0.604251  1
  Fe  Fe4  1  0.170814  0.343362  0.785853  1
  Fe  Fe5  1  0.656638  0.829186  0.785853  1
  Fe  Fe6  1  0.828737  0.171263  0.285206  1
  Ni  Ni7  1  0.168067  0.831933  0.785633  1
  Ni  Ni8  1  0.339087  0.171582  0.286049  1
  Ni  Ni9  1  0.828418  0.660913  0.286049  1
  Sn  Sn10  1  0.328020  0.671980  0.508106  1
  Sn  Sn11  1  0.666721  0.333279  0.009674  1
  O  O12  1  0.155499  0.328604  0.399297  1
  O  O13  1  0.480717  0.519283  0.658556  1
  O  O14  1  0.333276  0.666724  0.893374  1
  O  O15  1  0.998262  0.001738  0.692725  1
  O  O16  1  0.001890  0.998110  0.195862  1
  O  O17  1  0.671396  0.844501  0.399297  1
  O  O18  1  0.030305  0.519794  0.659454  1
  O  O19  1  0.480206  0.969695  0.659454  1
  O  O20  1  0.837414  0.162586  0.899742  1
  O  O21  1  0.152557  0.847443  0.397886  1
  O  O22  1  0.519928  0.033346  0.159960  1
  O  O23  1  0.966654  0.480072  0.159960  1
  O  O24  1  0.661677  0.338323  0.388361  1
  O  O25  1  0.323405  0.168703  0.901876  1
  O  O26  1  0.519242  0.480758  0.166401  1
  O  O27  1  0.831297  0.676595  0.901876  1
