# generated using pymatgen
data_Eu2SeO2
_symmetry_space_group_name_H-M   'P 1'
_cell_length_a   6.91315435
_cell_length_b   6.91315435
_cell_length_c   6.91315435
_cell_angle_alpha   146.81120311
_cell_angle_beta   146.81120311
_cell_angle_gamma   47.64340838
_symmetry_Int_Tables_number   1
_chemical_formula_structural   Eu2SeO2
_chemical_formula_sum   'Eu2 Se1 O2'
_cell_volume   98.60940004
_cell_formula_units_Z   1
loop_
 _symmetry_equiv_pos_site_id
 _symmetry_equiv_pos_as_xyz
  1  'x, y, z'
loop_
 _atom_site_type_symbol
 _atom_site_label
 _atom_site_symmetry_multiplicity
 _atom_site_fract_x
 _atom_site_fract_y
 _atom_site_fract_z
 _atom_site_occupancy
  Eu  Eu0  1  0.342332  0.342332  0.000000  1
  Eu  Eu1  1  0.657668  0.657668  0.000000  1
  Se  Se2  1  0.000000  0.000000  0.000000  1
  O  O3  1  0.250000  0.750000  0.500000  1
  O  O4  1  0.750000  0.250000  0.500000  1
