# generated using pymatgen
data_ZrFeP3PbO12
_symmetry_space_group_name_H-M   'P 1'
_cell_length_a   9.35135689
_cell_length_b   9.35135689
_cell_length_c   9.35135689
_cell_angle_alpha   56.01506730
_cell_angle_beta   56.01506730
_cell_angle_gamma   56.01506730
_symmetry_Int_Tables_number   1
_chemical_formula_structural   ZrFeP3PbO12
_chemical_formula_sum   'Zr2 Fe2 P6 Pb2 O24'
_cell_volume   524.86191219
_cell_formula_units_Z   2
loop_
 _symmetry_equiv_pos_site_id
 _symmetry_equiv_pos_as_xyz
  1  'x, y, z'
loop_
 _atom_site_type_symbol
 _atom_site_label
 _atom_site_symmetry_multiplicity
 _atom_site_fract_x
 _atom_site_fract_y
 _atom_site_fract_z
 _atom_site_occupancy
  Zr  Zr0  1  0.853926  0.853926  0.853926  1
  Zr  Zr1  1  0.353926  0.353926  0.353926  1
  Fe  Fe2  1  0.653457  0.653457  0.653457  1
  Fe  Fe3  1  0.153457  0.153457  0.153457  1
  P  P4  1  0.263414  0.525879  0.956072  1
  P  P5  1  0.956072  0.263414  0.525879  1
  P  P6  1  0.525879  0.956072  0.263414  1
  P  P7  1  0.456072  0.025879  0.763414  1
  P  P8  1  0.025879  0.763414  0.456072  1
  P  P9  1  0.763414  0.456072  0.025879  1
  Pb  Pb10  1  0.012525  0.012525  0.012525  1
  Pb  Pb11  1  0.512525  0.512525  0.512525  1
  O  O12  1  0.743885  0.483789  0.859054  1
  O  O13  1  0.483789  0.859054  0.743885  1
  O  O14  1  0.859054  0.743885  0.483789  1
  O  O15  1  0.093222  0.704359  0.921704  1
  O  O16  1  0.440329  0.549195  0.781752  1
  O  O17  1  0.243885  0.359054  0.983789  1
  O  O18  1  0.921704  0.093222  0.704359  1
  O  O19  1  0.781752  0.440329  0.549195  1
  O  O20  1  0.549195  0.781752  0.440329  1
  O  O21  1  0.621354  0.003945  0.782140  1
  O  O22  1  0.281752  0.049195  0.940329  1
  O  O23  1  0.003945  0.782140  0.621354  1
  O  O24  1  0.983789  0.243885  0.359054  1
  O  O25  1  0.704359  0.921704  0.093222  1
  O  O26  1  0.359054  0.983789  0.243885  1
  O  O27  1  0.421704  0.204359  0.593222  1
  O  O28  1  0.204359  0.593222  0.421704  1
  O  O29  1  0.049195  0.940329  0.281752  1
  O  O30  1  0.782140  0.621354  0.003945  1
  O  O31  1  0.593222  0.421704  0.204359  1
  O  O32  1  0.940329  0.281752  0.049195  1
  O  O33  1  0.121354  0.282140  0.503945  1
  O  O34  1  0.503945  0.121354  0.282140  1
  O  O35  1  0.282140  0.503945  0.121354  1
