# generated using pymatgen
data_LiV2(CO3)4
_symmetry_space_group_name_H-M   'P 1'
_cell_length_a   6.12293728
_cell_length_b   6.12293728
_cell_length_c   5.99683107
_cell_angle_alpha   77.46704785
_cell_angle_beta   102.53295215
_cell_angle_gamma   90.33528263
_symmetry_Int_Tables_number   1
_chemical_formula_structural   LiV2(CO3)4
_chemical_formula_sum   'Li1 V2 C4 O12'
_cell_volume   214.03584775
_cell_formula_units_Z   1
loop_
 _symmetry_equiv_pos_site_id
 _symmetry_equiv_pos_as_xyz
  1  'x, y, z'
loop_
 _atom_site_type_symbol
 _atom_site_label
 _atom_site_symmetry_multiplicity
 _atom_site_fract_x
 _atom_site_fract_y
 _atom_site_fract_z
 _atom_site_occupancy
  Li  Li0  1  0.401483  0.401483  0.000000  1
  V  V1  1  0.801002  0.801002  0.000000  1
  V  V2  1  0.194807  0.194807  0.500000  1
  C  C3  1  0.889727  0.303822  0.047379  1
  C  C4  1  0.691029  0.117832  0.537645  1
  C  C5  1  0.303822  0.889727  0.952621  1
  C  C6  1  0.117832  0.691029  0.462355  1
  O  O7  1  0.920373  0.687375  0.319707  1
  O  O8  1  0.878086  0.201947  0.522190  1
  O  O9  1  0.801484  0.113786  0.044299  1
  O  O10  1  0.758173  0.481101  0.956159  1
  O  O11  1  0.687375  0.920373  0.680293  1
  O  O12  1  0.506949  0.219738  0.419123  1
  O  O13  1  0.481101  0.758173  0.043841  1
  O  O14  1  0.321615  0.098032  0.852265  1
  O  O15  1  0.219738  0.506949  0.580877  1
  O  O16  1  0.201947  0.878086  0.477810  1
  O  O17  1  0.113786  0.801484  0.955701  1
  O  O18  1  0.098032  0.321615  0.147735  1
