# generated using pymatgen
data_UAsH9O10
_symmetry_space_group_name_H-M   'P 1'
_cell_length_a   7.16654233
_cell_length_b   7.23755307
_cell_length_c   17.72373196
_cell_angle_alpha   89.99232350
_cell_angle_beta   89.81677202
_cell_angle_gamma   89.92457916
_symmetry_Int_Tables_number   1
_chemical_formula_structural   UAsH9O10
_chemical_formula_sum   'U4 As4 H36 O40'
_cell_volume   919.29310875
_cell_formula_units_Z   4
loop_
 _symmetry_equiv_pos_site_id
 _symmetry_equiv_pos_as_xyz
  1  'x, y, z'
loop_
 _atom_site_type_symbol
 _atom_site_label
 _atom_site_symmetry_multiplicity
 _atom_site_fract_x
 _atom_site_fract_y
 _atom_site_fract_z
 _atom_site_occupancy
  U  U0  1  0.748359  0.252287  0.554125  1
  U  U1  1  0.251641  0.747713  0.445875  1
  U  U2  1  0.248665  0.751472  0.945428  1
  U  U3  1  0.751335  0.248528  0.054572  1
  As  As4  1  0.251072  0.250246  0.498769  1
  As  As5  1  0.748928  0.749754  0.501231  1
  As  As6  1  0.250852  0.248885  0.997541  1
  As  As7  1  0.749148  0.751115  0.002459  1
  H  H8  1  0.048075  0.730496  0.688348  1
  H  H9  1  0.951925  0.269504  0.311652  1
  H  H10  1  0.948446  0.234994  0.811914  1
  H  H11  1  0.051554  0.765006  0.188086  1
  H  H12  1  0.367560  0.584742  0.689506  1
  H  H13  1  0.632440  0.415258  0.310494  1
  H  H14  1  0.621853  0.093849  0.809306  1
  H  H15  1  0.378147  0.906151  0.190694  1
  H  H16  1  0.195063  0.001086  0.697563  1
  H  H17  1  0.804937  0.998914  0.302437  1
  H  H18  1  0.801263  0.496146  0.805257  1
  H  H19  1  0.198737  0.503854  0.194743  1
  H  H20  1  0.925231  0.876755  0.644152  1
  H  H21  1  0.074769  0.123245  0.355848  1
  H  H22  1  0.057430  0.386779  0.860352  1
  H  H23  1  0.942570  0.613221  0.139648  1
  H  H24  1  0.565949  0.621234  0.641074  1
  H  H25  1  0.434051  0.378766  0.358926  1
  H  H26  1  0.426117  0.122385  0.858791  1
  H  H27  1  0.573883  0.877615  0.141209  1
  H  H28  1  0.347606  0.121843  0.650087  1
  H  H29  1  0.652394  0.878157  0.349913  1
  H  H30  1  0.645688  0.616831  0.849733  1
  H  H31  1  0.354312  0.383169  0.150267  1
  H  H32  1  0.135461  0.436919  0.643808  1
  H  H33  1  0.864539  0.563081  0.356192  1
  H  H34  1  0.857458  0.940282  0.858818  1
  H  H35  1  0.142542  0.059718  0.141182  1
  H  H36  1  0.583218  0.608901  0.738505  1
  H  H37  1  0.416782  0.391099  0.261495  1
  H  H38  1  0.403624  0.119457  0.760066  1
  H  H39  1  0.596376  0.880543  0.239934  1
  H  H40  1  0.114859  0.441431  0.733638  1
  H  H41  1  0.885141  0.558569  0.266362  1
  H  H42  1  0.879146  0.939772  0.769891  1
  H  H43  1  0.120854  0.060228  0.230109  1
  O  O44  1  0.749743  0.253462  0.656506  1
  O  O45  1  0.250257  0.746538  0.343494  1
  O  O46  1  0.249212  0.748105  0.843391  1
  O  O47  1  0.750788  0.251895  0.156609  1
  O  O48  1  0.254040  0.742607  0.548090  1
  O  O49  1  0.745960  0.257393  0.451910  1
  O  O50  1  0.746042  0.243073  0.952324  1
  O  O51  1  0.253958  0.756927  0.047676  1
  O  O52  1  0.795429  0.936330  0.557933  1
  O  O53  1  0.204571  0.063670  0.442067  1
  O  O54  1  0.193392  0.436024  0.942705  1
  O  O55  1  0.806608  0.563976  0.057295  1
  O  O56  1  0.692927  0.570141  0.560951  1
  O  O57  1  0.307073  0.429859  0.439049  1
  O  O58  1  0.303544  0.070071  0.936706  1
  O  O59  1  0.696456  0.929929  0.063294  1
  O  O60  1  0.430804  0.204962  0.560311  1
  O  O61  1  0.569196  0.795038  0.439689  1
  O  O62  1  0.565633  0.701970  0.943501  1
  O  O63  1  0.434367  0.298030  0.056499  1
  O  O64  1  0.064680  0.306090  0.555544  1
  O  O65  1  0.935320  0.693910  0.444456  1
  O  O66  1  0.931136  0.810598  0.943889  1
  O  O67  1  0.068864  0.189402  0.056111  1
  O  O68  1  0.998806  0.858955  0.690794  1
  O  O69  1  0.001194  0.141045  0.309206  1
  O  O70  1  0.994049  0.364766  0.811393  1
  O  O71  1  0.005951  0.635234  0.188607  1
  O  O72  1  0.497949  0.644939  0.689501  1
  O  O73  1  0.502051  0.355061  0.310499  1
  O  O74  1  0.491284  0.151175  0.809910  1
  O  O75  1  0.508716  0.848825  0.190090  1
  O  O76  1  0.291439  0.100841  0.700414  1
  O  O77  1  0.708561  0.899159  0.299586  1
  O  O78  1  0.693044  0.583080  0.799504  1
  O  O79  1  0.306956  0.416920  0.200496  1
  O  O80  1  0.162599  0.512342  0.688835  1
  O  O81  1  0.837401  0.487658  0.311165  1
  O  O82  1  0.831292  0.014879  0.813300  1
  O  O83  1  0.168708  0.985121  0.186700  1
