# generated using pymatgen
data_Li5Fe2P2(CO7)2
_symmetry_space_group_name_H-M   'P 1'
_cell_length_a   8.18785939
_cell_length_b   8.27978511
_cell_length_c   8.46164880
_cell_angle_alpha   92.79854050
_cell_angle_beta   94.04205740
_cell_angle_gamma   104.15820493
_symmetry_Int_Tables_number   1
_chemical_formula_structural   Li5Fe2P2(CO7)2
_chemical_formula_sum   'Li10 Fe4 P4 C4 O28'
_cell_volume   553.54214021
_cell_formula_units_Z   2
loop_
 _symmetry_equiv_pos_site_id
 _symmetry_equiv_pos_as_xyz
  1  'x, y, z'
loop_
 _atom_site_type_symbol
 _atom_site_label
 _atom_site_symmetry_multiplicity
 _atom_site_fract_x
 _atom_site_fract_y
 _atom_site_fract_z
 _atom_site_occupancy
  Li  Li0  1  0.739827  0.496176  0.099342  1
  Li  Li1  1  0.249463  0.975929  0.095371  1
  Li  Li2  1  0.889512  0.851933  0.271866  1
  Li  Li3  1  0.591825  0.111250  0.274142  1
  Li  Li4  1  0.383273  0.363106  0.277777  1
  Li  Li5  1  0.408175  0.888750  0.725858  1
  Li  Li6  1  0.616727  0.636894  0.722223  1
  Li  Li7  1  0.110488  0.148067  0.728134  1
  Li  Li8  1  0.260173  0.503824  0.900658  1
  Li  Li9  1  0.750537  0.024071  0.904629  1
  Fe  Fe10  1  0.470051  0.724964  0.320519  1
  Fe  Fe11  1  0.977335  0.232250  0.342607  1
  Fe  Fe12  1  0.022665  0.767750  0.657393  1
  Fe  Fe13  1  0.529949  0.275036  0.679481  1
  P  P14  1  0.755887  0.517237  0.414251  1
  P  P15  1  0.262054  0.015997  0.417802  1
  P  P16  1  0.737946  0.984003  0.582198  1
  P  P17  1  0.244113  0.482763  0.585749  1
  C  C18  1  0.526693  0.780350  0.027352  1
  C  C19  1  0.038650  0.263439  0.052588  1
  C  C20  1  0.961350  0.736561  0.947412  1
  C  C21  1  0.473307  0.219650  0.972648  1
  O  O22  1  0.405412  0.657174  0.059161  1
  O  O23  1  0.901191  0.154881  0.082928  1
  O  O24  1  0.915395  0.710260  0.085802  1
  O  O25  1  0.615258  0.877353  0.145622  1
  O  O26  1  0.438238  0.189417  0.117049  1
  O  O27  1  0.129176  0.346613  0.178536  1
  O  O28  1  0.624045  0.556054  0.290083  1
  O  O29  1  0.816663  0.377179  0.322185  1
  O  O30  1  0.321456  0.891901  0.307643  1
  O  O31  1  0.101051  0.045299  0.325080  1
  O  O32  1  0.904380  0.679362  0.447456  1
  O  O33  1  0.783729  0.053252  0.418265  1
  O  O34  1  0.313988  0.532818  0.428851  1
  O  O35  1  0.404081  0.179508  0.445452  1
  O  O36  1  0.595919  0.820492  0.554548  1
  O  O37  1  0.686012  0.467182  0.571149  1
  O  O38  1  0.216271  0.946748  0.581735  1
  O  O39  1  0.095620  0.320638  0.552544  1
  O  O40  1  0.898949  0.954701  0.674920  1
  O  O41  1  0.183337  0.622821  0.677815  1
  O  O42  1  0.678544  0.108099  0.692357  1
  O  O43  1  0.375955  0.443946  0.709917  1
  O  O44  1  0.870824  0.653387  0.821464  1
  O  O45  1  0.561762  0.810583  0.882951  1
  O  O46  1  0.384742  0.122647  0.854378  1
  O  O47  1  0.084605  0.289740  0.914198  1
  O  O48  1  0.594588  0.342826  0.940839  1
  O  O49  1  0.098809  0.845119  0.917072  1
