# generated using pymatgen
data_Sc2Si2O7
_symmetry_space_group_name_H-M   'P 1'
_cell_length_a   6.62745719
_cell_length_b   6.62745719
_cell_length_c   6.62745719
_cell_angle_alpha   60.00000000
_cell_angle_beta   60.00000000
_cell_angle_gamma   60.00000000
_symmetry_Int_Tables_number   1
_chemical_formula_structural   Sc2Si2O7
_chemical_formula_sum   'Sc4 Si4 O14'
_cell_volume   205.83811489
_cell_formula_units_Z   2
loop_
 _symmetry_equiv_pos_site_id
 _symmetry_equiv_pos_as_xyz
  1  'x, y, z'
loop_
 _atom_site_type_symbol
 _atom_site_label
 _atom_site_symmetry_multiplicity
 _atom_site_fract_x
 _atom_site_fract_y
 _atom_site_fract_z
 _atom_site_occupancy
  Sc  Sc0  1  0.125000  0.625000  0.625000  1
  Sc  Sc1  1  0.625000  0.625000  0.125000  1
  Sc  Sc2  1  0.625000  0.625000  0.625000  1
  Sc  Sc3  1  0.625000  0.125000  0.625000  1
  Si  Si4  1  0.625000  0.125000  0.125000  1
  Si  Si5  1  0.125000  0.125000  0.625000  1
  Si  Si6  1  0.125000  0.125000  0.125000  1
  Si  Si7  1  0.125000  0.625000  0.125000  1
  O  O8  1  0.800685  0.199315  0.199315  1
  O  O9  1  0.050685  0.449315  0.449315  1
  O  O10  1  0.199315  0.199315  0.800685  1
  O  O11  1  0.800685  0.199315  0.800685  1
  O  O12  1  0.199315  0.800685  0.199315  1
  O  O13  1  0.800685  0.800685  0.199315  1
  O  O14  1  0.050685  0.050685  0.449315  1
  O  O15  1  0.449315  0.449315  0.050685  1
  O  O16  1  0.500000  0.500000  0.500000  1
  O  O17  1  0.750000  0.750000  0.750000  1
  O  O18  1  0.199315  0.800685  0.800685  1
  O  O19  1  0.050685  0.449315  0.050685  1
  O  O20  1  0.449315  0.050685  0.449315  1
  O  O21  1  0.449315  0.050685  0.050685  1
