# generated using pymatgen
data_Li2V(CO3)2
_symmetry_space_group_name_H-M   'P 1'
_cell_length_a   5.33801463
_cell_length_b   6.41348125
_cell_length_c   8.67139669
_cell_angle_alpha   84.15256408
_cell_angle_beta   106.05578138
_cell_angle_gamma   113.71069227
_symmetry_Int_Tables_number   1
_chemical_formula_structural   Li2V(CO3)2
_chemical_formula_sum   'Li4 V2 C4 O12'
_cell_volume   261.19103070
_cell_formula_units_Z   2
loop_
 _symmetry_equiv_pos_site_id
 _symmetry_equiv_pos_as_xyz
  1  'x, y, z'
loop_
 _atom_site_type_symbol
 _atom_site_label
 _atom_site_symmetry_multiplicity
 _atom_site_fract_x
 _atom_site_fract_y
 _atom_site_fract_z
 _atom_site_occupancy
  Li  Li0  1  0.231282  0.487451  0.161783  1
  Li  Li1  1  0.796543  0.963901  0.346077  1
  Li  Li2  1  0.519796  0.053299  0.668682  1
  Li  Li3  1  0.594333  0.563219  0.826565  1
  V  V4  1  0.865971  0.496269  0.497924  1
  V  V5  1  0.107064  0.010001  0.002340  1
  C  C6  1  0.826979  0.609380  0.197597  1
  C  C7  1  0.393696  0.093591  0.301498  1
  C  C8  1  0.002109  0.905065  0.701385  1
  C  C9  1  0.044082  0.406142  0.799151  1
  O  O10  1  0.472431  0.033073  0.190495  1
  O  O11  1  0.029208  0.555962  0.289259  1
  O  O12  1  0.823887  0.670439  0.051021  1
  O  O13  1  0.147732  0.108394  0.261520  1
  O  O14  1  0.631391  0.601742  0.264543  1
  O  O15  1  0.565844  0.138963  0.445067  1
  O  O16  1  0.192807  0.452419  0.694887  1
  O  O17  1  0.246105  0.959672  0.804985  1
  O  O18  1  0.970829  0.850425  0.555722  1
  O  O19  1  0.793244  0.905533  0.752863  1
  O  O20  1  0.145786  0.362420  0.946309  1
  O  O21  1  0.787286  0.403105  0.745410  1
