# generated using pymatgen
data_V5CoO12
_symmetry_space_group_name_H-M   'P 1'
_cell_length_a   6.79555288
_cell_length_b   6.79555288
_cell_length_c   5.85730795
_cell_angle_alpha   75.18204940
_cell_angle_beta   104.81795060
_cell_angle_gamma   95.60531059
_symmetry_Int_Tables_number   1
_chemical_formula_structural   V5CoO12
_chemical_formula_sum   'V5 Co1 O12'
_cell_volume   252.64516830
_cell_formula_units_Z   1
loop_
 _symmetry_equiv_pos_site_id
 _symmetry_equiv_pos_as_xyz
  1  'x, y, z'
loop_
 _atom_site_type_symbol
 _atom_site_label
 _atom_site_symmetry_multiplicity
 _atom_site_fract_x
 _atom_site_fract_y
 _atom_site_fract_z
 _atom_site_occupancy
  V  V0  1  0.389064  0.795124  0.008081  1
  V  V1  1  0.205439  0.608942  0.513046  1
  V  V2  1  0.795124  0.389064  0.991919  1
  V  V3  1  0.608942  0.205439  0.486954  1
  V  V4  1  0.083172  0.083172  0.500000  1
  Co  Co5  1  0.912270  0.912270  0.000000  1
  O  O6  1  0.191068  0.964121  0.882054  1
  O  O7  1  0.621483  0.911646  0.027878  1
  O  O8  1  0.035946  0.810357  0.399745  1
  O  O9  1  0.359491  0.628577  0.809878  1
  O  O10  1  0.911646  0.621483  0.972122  1
  O  O11  1  0.367287  0.652287  0.301729  1
  O  O12  1  0.628577  0.359491  0.190122  1
  O  O13  1  0.096201  0.367525  0.534528  1
  O  O14  1  0.652287  0.367287  0.698271  1
  O  O15  1  0.964121  0.191068  0.117946  1
  O  O16  1  0.367525  0.096201  0.465472  1
  O  O17  1  0.810357  0.035946  0.600255  1
