# generated using pymatgen
data_Li4Ti3Mn3V2O16
_symmetry_space_group_name_H-M   'P 1'
_cell_length_a   5.93314018
_cell_length_b   5.93314018
_cell_length_c   9.64199009
_cell_angle_alpha   88.89258632
_cell_angle_beta   91.10741368
_cell_angle_gamma   119.48172742
_symmetry_Int_Tables_number   1
_chemical_formula_structural   Li4Ti3Mn3V2O16
_chemical_formula_sum   'Li4 Ti3 Mn3 V2 O16'
_cell_volume   295.39440480
_cell_formula_units_Z   1
loop_
 _symmetry_equiv_pos_site_id
 _symmetry_equiv_pos_as_xyz
  1  'x, y, z'
loop_
 _atom_site_type_symbol
 _atom_site_label
 _atom_site_symmetry_multiplicity
 _atom_site_fract_x
 _atom_site_fract_y
 _atom_site_fract_z
 _atom_site_occupancy
  Li  Li0  1  0.331319  0.668681  0.105117  1
  Li  Li1  1  0.002090  0.997910  0.007627  1
  Li  Li2  1  0.002594  0.997406  0.503914  1
  Li  Li3  1  0.668251  0.331749  0.603561  1
  Ti  Ti4  1  0.165918  0.335705  0.784504  1
  Ti  Ti5  1  0.664295  0.834082  0.784504  1
  Ti  Ti6  1  0.827701  0.172299  0.281872  1
  Mn  Mn7  1  0.169486  0.830514  0.788896  1
  Mn  Mn8  1  0.340479  0.180585  0.286889  1
  Mn  Mn9  1  0.819415  0.659521  0.286889  1
  V  V10  1  0.329661  0.670339  0.509315  1
  V  V11  1  0.658786  0.341214  0.015364  1
  O  O12  1  0.160790  0.329055  0.402645  1
  O  O13  1  0.481260  0.518740  0.662965  1
  O  O14  1  0.333589  0.666411  0.892110  1
  O  O15  1  0.004035  0.995965  0.690836  1
  O  O16  1  0.001770  0.998230  0.196723  1
  O  O17  1  0.670945  0.839210  0.402645  1
  O  O18  1  0.043602  0.505761  0.655210  1
  O  O19  1  0.494239  0.956398  0.655210  1
  O  O20  1  0.838342  0.161658  0.890421  1
  O  O21  1  0.178063  0.821937  0.417350  1
  O  O22  1  0.525394  0.043301  0.161602  1
  O  O23  1  0.956699  0.474606  0.161602  1
  O  O24  1  0.666265  0.333735  0.391578  1
  O  O25  1  0.329180  0.177287  0.901842  1
  O  O26  1  0.512205  0.487795  0.149095  1
  O  O27  1  0.822713  0.670820  0.901842  1
