# generated using pymatgen
data_Li2Cu4S3
_symmetry_space_group_name_H-M   'P 1'
_cell_length_a   7.29860238
_cell_length_b   7.29860238
_cell_length_c   6.04105662
_cell_angle_alpha   68.63149394
_cell_angle_beta   111.36850606
_cell_angle_gamma   100.95901051
_symmetry_Int_Tables_number   1
_chemical_formula_structural   Li2Cu4S3
_chemical_formula_sum   'Li4 Cu8 S6'
_cell_volume   278.47049396
_cell_formula_units_Z   2
loop_
 _symmetry_equiv_pos_site_id
 _symmetry_equiv_pos_as_xyz
  1  'x, y, z'
loop_
 _atom_site_type_symbol
 _atom_site_label
 _atom_site_symmetry_multiplicity
 _atom_site_fract_x
 _atom_site_fract_y
 _atom_site_fract_z
 _atom_site_occupancy
  Li  Li0  1  0.596640  0.276941  0.667186  1
  Li  Li1  1  0.723059  0.403360  0.167186  1
  Li  Li2  1  0.276941  0.596640  0.832814  1
  Li  Li3  1  0.403360  0.723059  0.332814  1
  Cu  Cu4  1  0.412067  0.120254  0.115470  1
  Cu  Cu5  1  0.879746  0.587933  0.615470  1
  Cu  Cu6  1  0.985887  0.748590  0.965715  1
  Cu  Cu7  1  0.251410  0.014113  0.465715  1
  Cu  Cu8  1  0.748590  0.985887  0.534285  1
  Cu  Cu9  1  0.014113  0.251410  0.034285  1
  Cu  Cu10  1  0.120254  0.412067  0.384530  1
  Cu  Cu11  1  0.587933  0.879746  0.884530  1
  S  S12  1  0.269733  0.911610  0.883105  1
  S  S13  1  0.088390  0.730267  0.383105  1
  S  S14  1  0.660029  0.660029  0.750000  1
  S  S15  1  0.339971  0.339971  0.250000  1
  S  S16  1  0.911610  0.269733  0.616895  1
  S  S17  1  0.730267  0.088390  0.116895  1
