# generated using pymatgen
data_Ba2Ce2O5
_symmetry_space_group_name_H-M   'P 1'
_cell_length_a   4.47663822
_cell_length_b   6.24336162
_cell_length_c   12.75001121
_cell_angle_alpha   90.00000000
_cell_angle_beta   90.00000000
_cell_angle_gamma   90.00000000
_symmetry_Int_Tables_number   1
_chemical_formula_structural   Ba2Ce2O5
_chemical_formula_sum   'Ba4 Ce4 O10'
_cell_volume   356.35352204
_cell_formula_units_Z   2
loop_
 _symmetry_equiv_pos_site_id
 _symmetry_equiv_pos_as_xyz
  1  'x, y, z'
loop_
 _atom_site_type_symbol
 _atom_site_label
 _atom_site_symmetry_multiplicity
 _atom_site_fract_x
 _atom_site_fract_y
 _atom_site_fract_z
 _atom_site_occupancy
  Ba  Ba0  1  0.000000  0.247190  0.394839  1
  Ba  Ba1  1  0.000000  0.252810  0.894839  1
  Ba  Ba2  1  0.000000  0.747190  0.105161  1
  Ba  Ba3  1  0.000000  0.752810  0.605161  1
  Ce  Ce4  1  0.500000  0.243214  0.137639  1
  Ce  Ce5  1  0.500000  0.256786  0.637639  1
  Ce  Ce6  1  0.500000  0.743214  0.362361  1
  Ce  Ce7  1  0.500000  0.756786  0.862361  1
  O  O8  1  0.500000  0.000000  0.500000  1
  O  O9  1  0.500000  0.100219  0.793392  1
  O  O10  1  0.000000  0.193785  0.103921  1
  O  O11  1  0.000000  0.306215  0.603921  1
  O  O12  1  0.500000  0.399781  0.293392  1
  O  O13  1  0.500000  0.500000  0.000000  1
  O  O14  1  0.500000  0.600219  0.706608  1
  O  O15  1  0.000000  0.693785  0.396079  1
  O  O16  1  0.000000  0.806215  0.896079  1
  O  O17  1  0.500000  0.899781  0.206608  1
