# generated using pymatgen
data_TiFe3Co2(PO4)6
_symmetry_space_group_name_H-M   'P 1'
_cell_length_a   8.44931710
_cell_length_b   8.44931710
_cell_length_c   8.44931710
_cell_angle_alpha   61.52438090
_cell_angle_beta   61.52438090
_cell_angle_gamma   61.52438090
_symmetry_Int_Tables_number   1
_chemical_formula_structural   TiFe3Co2(PO4)6
_chemical_formula_sum   'Ti1 Fe3 Co2 P6 O24'
_cell_volume   441.12294833
_cell_formula_units_Z   1
loop_
 _symmetry_equiv_pos_site_id
 _symmetry_equiv_pos_as_xyz
  1  'x, y, z'
loop_
 _atom_site_type_symbol
 _atom_site_label
 _atom_site_symmetry_multiplicity
 _atom_site_fract_x
 _atom_site_fract_y
 _atom_site_fract_z
 _atom_site_occupancy
  Ti  Ti0  1  0.144461  0.144461  0.144460  1
  Fe  Fe1  1  0.644635  0.644635  0.644635  1
  Fe  Fe2  1  0.854380  0.854380  0.854380  1
  Fe  Fe3  1  0.355833  0.355833  0.355833  1
  Co  Co4  1  0.997913  0.997913  0.997913  1
  Co  Co5  1  0.499138  0.499138  0.499138  1
  P  P6  1  0.953331  0.251218  0.547332  1
  P  P7  1  0.547332  0.953331  0.251218  1
  P  P8  1  0.251218  0.547332  0.953331  1
  P  P9  1  0.749706  0.453959  0.046671  1
  P  P10  1  0.453959  0.046671  0.749706  1
  P  P11  1  0.046671  0.749706  0.453959  1
  O  O12  1  0.504476  0.109260  0.321539  1
  O  O13  1  0.321539  0.504476  0.109260  1
  O  O14  1  0.109260  0.321539  0.504476  1
  O  O15  1  0.939369  0.092753  0.745336  1
  O  O16  1  0.005444  0.179127  0.384308  1
  O  O17  1  0.754292  0.406126  0.555063  1
  O  O18  1  0.745336  0.939369  0.092753  1
  O  O19  1  0.555063  0.754292  0.406126  1
  O  O20  1  0.821248  0.608993  0.005062  1
  O  O21  1  0.406126  0.555063  0.754292  1
  O  O22  1  0.909402  0.252696  0.062652  1
  O  O23  1  0.608993  0.005062  0.821248  1
  O  O24  1  0.384308  0.005444  0.179127  1
  O  O25  1  0.092753  0.745336  0.939369  1
  O  O26  1  0.593843  0.438384  0.247405  1
  O  O27  1  0.179127  0.384308  0.005445  1
  O  O28  1  0.438384  0.247405  0.593843  1
  O  O29  1  0.252696  0.062652  0.909402  1
  O  O30  1  0.247405  0.593843  0.438384  1
  O  O31  1  0.005062  0.821248  0.608993  1
  O  O32  1  0.062652  0.909402  0.252696  1
  O  O33  1  0.889561  0.683035  0.492050  1
  O  O34  1  0.683035  0.492050  0.889561  1
  O  O35  1  0.492050  0.889561  0.683035  1
