# generated using pymatgen
data_Li2FeSiO4
_symmetry_space_group_name_H-M   'P 1'
_cell_length_a   5.05774875
_cell_length_b   6.29576618
_cell_length_c   11.01063610
_cell_angle_alpha   90.00000000
_cell_angle_beta   90.00000000
_cell_angle_gamma   90.00000000
_symmetry_Int_Tables_number   1
_chemical_formula_structural   Li2FeSiO4
_chemical_formula_sum   'Li8 Fe4 Si4 O16'
_cell_volume   350.60511776
_cell_formula_units_Z   4
loop_
 _symmetry_equiv_pos_site_id
 _symmetry_equiv_pos_as_xyz
  1  'x, y, z'
loop_
 _atom_site_type_symbol
 _atom_site_label
 _atom_site_symmetry_multiplicity
 _atom_site_fract_x
 _atom_site_fract_y
 _atom_site_fract_z
 _atom_site_occupancy
  Li  Li0  1  0.264865  0.749075  0.923253  1
  Li  Li1  1  0.763905  0.503293  0.841078  1
  Li  Li2  1  0.263905  0.003293  0.658922  1
  Li  Li3  1  0.764865  0.249075  0.576747  1
  Li  Li4  1  0.264865  0.750925  0.423253  1
  Li  Li5  1  0.763905  0.996707  0.341078  1
  Li  Li6  1  0.263905  0.496707  0.158922  1
  Li  Li7  1  0.764865  0.250925  0.076747  1
  Fe  Fe8  1  0.262667  0.489826  0.667048  1
  Fe  Fe9  1  0.262667  0.010174  0.167048  1
  Fe  Fe10  1  0.762667  0.989826  0.832952  1
  Fe  Fe11  1  0.762667  0.510174  0.332952  1
  Si  Si12  1  0.257965  0.251255  0.912404  1
  Si  Si13  1  0.757965  0.751255  0.587596  1
  Si  Si14  1  0.257965  0.248745  0.412404  1
  Si  Si15  1  0.757965  0.748745  0.087596  1
  O  O16  1  0.867878  0.753410  0.946078  1
  O  O17  1  0.931600  0.250875  0.912309  1
  O  O18  1  0.363740  0.470530  0.844223  1
  O  O19  1  0.357754  0.036056  0.837757  1
  O  O20  1  0.863740  0.970530  0.655777  1
  O  O21  1  0.857754  0.536056  0.662243  1
  O  O22  1  0.431600  0.750875  0.587691  1
  O  O23  1  0.367878  0.253410  0.553922  1
  O  O24  1  0.867878  0.746590  0.446078  1
  O  O25  1  0.931600  0.249125  0.412309  1
  O  O26  1  0.363740  0.029470  0.344223  1
  O  O27  1  0.357754  0.463944  0.337757  1
  O  O28  1  0.863740  0.529470  0.155777  1
  O  O29  1  0.857754  0.963944  0.162243  1
  O  O30  1  0.431600  0.749125  0.087691  1
  O  O31  1  0.367878  0.246590  0.053922  1
