# generated using pymatgen
data_LiMnVP2(HO5)2
_symmetry_space_group_name_H-M   'P 1'
_cell_length_a   7.35190962
_cell_length_b   8.11841113
_cell_length_c   10.11205758
_cell_angle_alpha   111.23410863
_cell_angle_beta   103.40058362
_cell_angle_gamma   94.72498295
_symmetry_Int_Tables_number   1
_chemical_formula_structural   LiMnVP2(HO5)2
_chemical_formula_sum   'Li3 Mn3 V3 P6 H6 O30'
_cell_volume   537.96971933
_cell_formula_units_Z   3
loop_
 _symmetry_equiv_pos_site_id
 _symmetry_equiv_pos_as_xyz
  1  'x, y, z'
loop_
 _atom_site_type_symbol
 _atom_site_label
 _atom_site_symmetry_multiplicity
 _atom_site_fract_x
 _atom_site_fract_y
 _atom_site_fract_z
 _atom_site_occupancy
  Li  Li0  1  0.010707  0.765952  0.162596  1
  Li  Li1  1  0.656276  0.569134  0.504443  1
  Li  Li2  1  0.988332  0.233802  0.837046  1
  Mn  Mn3  1  0.334832  0.668149  0.333588  1
  Mn  Mn4  1  0.660077  0.332567  0.665694  1
  Mn  Mn5  1  0.001914  0.001688  0.000851  1
  V  V6  1  0.172569  0.833856  0.665705  1
  V  V7  1  0.831719  0.165633  0.332907  1
  V  V8  1  0.498843  0.499387  0.999729  1
  P  P9  1  0.757990  0.923576  0.525087  1
  P  P10  1  0.912745  0.410307  0.140807  1
  P  P11  1  0.421634  0.257596  0.192874  1
  P  P12  1  0.582783  0.744425  0.807592  1
  P  P13  1  0.085912  0.590487  0.859337  1
  P  P14  1  0.243268  0.076665  0.473750  1
  H  H15  1  0.744527  0.897589  0.089744  1
  H  H16  1  0.573206  0.777168  0.237496  1
  H  H17  1  0.094830  0.555542  0.428732  1
  H  H18  1  0.918738  0.435913  0.577765  1
  H  H19  1  0.423675  0.222898  0.762537  1
  H  H20  1  0.256450  0.102345  0.909534  1
  O  O21  1  0.208816  0.900110  0.341508  1
  O  O22  1  0.869857  0.976009  0.149652  1
  O  O23  1  0.103536  0.536753  0.176339  1
  O  O24  1  0.463939  0.675059  0.183620  1
  O  O25  1  0.762313  0.951998  0.380288  1
  O  O26  1  0.762195  0.528838  0.109031  1
  O  O27  1  0.433303  0.289451  0.049557  1
  O  O28  1  0.203719  0.657635  0.482553  1
  O  O29  1  0.565055  0.802731  0.493398  1
  O  O30  1  0.226298  0.143746  0.158643  1
  O  O31  1  0.456164  0.433760  0.325423  1
  O  O32  1  0.889559  0.238812  0.006029  1
  O  O33  1  0.423581  0.854707  0.775209  1
  O  O34  1  0.906333  0.803980  0.557887  1
  O  O35  1  0.095659  0.625362  0.718686  1
  O  O36  1  0.903698  0.376586  0.281976  1
  O  O37  1  0.085767  0.188249  0.440586  1
  O  O38  1  0.578708  0.145671  0.226232  1
  O  O39  1  0.109331  0.761692  0.994384  1
  O  O40  1  0.559442  0.573728  0.671913  1
  O  O41  1  0.776188  0.863747  0.845328  1
  O  O42  1  0.438843  0.189122  0.506878  1
  O  O43  1  0.793446  0.357245  0.517012  1
  O  O44  1  0.567493  0.707130  0.947438  1
  O  O45  1  0.236346  0.471763  0.890974  1
  O  O46  1  0.232418  0.045136  0.617262  1
  O  O47  1  0.532945  0.324497  0.815640  1
  O  O48  1  0.895166  0.462795  0.822277  1
  O  O49  1  0.130896  0.023850  0.850043  1
  O  O50  1  0.792851  0.101311  0.655847  1
