# generated using pymatgen
data_La3Ti3CrO12
_symmetry_space_group_name_H-M   'P 1'
_cell_length_a   5.53226200
_cell_length_b   5.53418363
_cell_length_c   7.84630259
_cell_angle_alpha   89.87367899
_cell_angle_beta   89.97293189
_cell_angle_gamma   89.98588583
_symmetry_Int_Tables_number   1
_chemical_formula_structural   La3Ti3CrO12
_chemical_formula_sum   'La3 Ti3 Cr1 O12'
_cell_volume   240.22612742
_cell_formula_units_Z   1
loop_
 _symmetry_equiv_pos_site_id
 _symmetry_equiv_pos_as_xyz
  1  'x, y, z'
loop_
 _atom_site_type_symbol
 _atom_site_label
 _atom_site_symmetry_multiplicity
 _atom_site_fract_x
 _atom_site_fract_y
 _atom_site_fract_z
 _atom_site_occupancy
  La  La0  1  0.519315  0.483030  0.739946  1
  La  La1  1  0.489911  0.493629  0.250748  1
  La  La2  1  0.985647  0.996240  0.258638  1
  Ti  Ti3  1  0.495387  0.992866  0.992267  1
  Ti  Ti4  1  0.496766  0.998612  0.507259  1
  Ti  Ti5  1  0.000697  0.496328  0.984252  1
  Cr  Cr6  1  0.001473  0.499667  0.501687  1
  O  O7  1  0.495182  0.935974  0.752759  1
  O  O8  1  0.750903  0.255012  0.983804  1
  O  O9  1  0.748785  0.242864  0.518383  1
  O  O10  1  0.282717  0.285535  0.979184  1
  O  O11  1  0.281441  0.274943  0.520604  1
  O  O12  1  0.991653  0.546192  0.754627  1
  O  O13  1  0.007658  0.432951  0.249657  1
  O  O14  1  0.729523  0.735199  0.462217  1
  O  O15  1  0.735042  0.742940  0.040922  1
  O  O16  1  0.244146  0.762830  0.457404  1
  O  O17  1  0.239283  0.768097  0.045903  1
  O  O18  1  0.503031  0.055252  0.249740  1
