# generated using pymatgen
data_Li4Co3Ni3(TeO8)2
_symmetry_space_group_name_H-M   'P 1'
_cell_length_a   5.89398328
_cell_length_b   5.89398328
_cell_length_c   9.59038669
_cell_angle_alpha   88.56966169
_cell_angle_beta   91.43033831
_cell_angle_gamma   120.62259083
_symmetry_Int_Tables_number   1
_chemical_formula_structural   Li4Co3Ni3(TeO8)2
_chemical_formula_sum   'Li4 Co3 Ni3 Te2 O16'
_cell_volume   286.58025216
_cell_formula_units_Z   1
loop_
 _symmetry_equiv_pos_site_id
 _symmetry_equiv_pos_as_xyz
  1  'x, y, z'
loop_
 _atom_site_type_symbol
 _atom_site_label
 _atom_site_symmetry_multiplicity
 _atom_site_fract_x
 _atom_site_fract_y
 _atom_site_fract_z
 _atom_site_occupancy
  Li  Li0  1  0.659854  0.340146  0.905988  1
  Li  Li1  1  0.000966  0.999034  0.987565  1
  Li  Li2  1  0.005325  0.994675  0.486901  1
  Li  Li3  1  0.331810  0.668190  0.414671  1
  Co  Co4  1  0.340073  0.170735  0.212090  1
  Co  Co5  1  0.829265  0.659927  0.212090  1
  Co  Co6  1  0.173451  0.826549  0.715076  1
  Ni  Ni7  1  0.828847  0.171153  0.213170  1
  Ni  Ni8  1  0.173168  0.337003  0.711678  1
  Ni  Ni9  1  0.662997  0.826832  0.711678  1
  Te  Te10  1  0.669632  0.330368  0.485072  1
  Te  Te11  1  0.332153  0.667847  0.981941  1
  O  O12  1  0.340641  0.158862  0.594719  1
  O  O13  1  0.514809  0.485191  0.357573  1
  O  O14  1  0.654529  0.345471  0.117538  1
  O  O15  1  0.009868  0.990132  0.293561  1
  O  O16  1  0.010551  0.989449  0.797788  1
  O  O17  1  0.841138  0.659359  0.594719  1
  O  O18  1  0.509101  0.034881  0.350386  1
  O  O19  1  0.965119  0.490899  0.350386  1
  O  O20  1  0.171054  0.828946  0.089282  1
  O  O21  1  0.836943  0.163057  0.587116  1
  O  O22  1  0.031658  0.529264  0.844945  1
  O  O23  1  0.470736  0.968342  0.844945  1
  O  O24  1  0.325582  0.674418  0.616276  1
  O  O25  1  0.167246  0.336753  0.088901  1
  O  O26  1  0.478960  0.521040  0.852827  1
  O  O27  1  0.663247  0.832754  0.088901  1
