# generated using pymatgen
data_Mg2MnH24(ClO2)6
_symmetry_space_group_name_H-M   'P 1'
_cell_length_a   9.94779234
_cell_length_b   9.94779234
_cell_length_c   11.59577990
_cell_angle_alpha   90.00000000
_cell_angle_beta   90.00000000
_cell_angle_gamma   120.00000000
_symmetry_Int_Tables_number   1
_chemical_formula_structural   Mg2MnH24(ClO2)6
_chemical_formula_sum   'Mg4 Mn2 H48 Cl12 O24'
_cell_volume   993.76573076
_cell_formula_units_Z   2
loop_
 _symmetry_equiv_pos_site_id
 _symmetry_equiv_pos_as_xyz
  1  'x, y, z'
loop_
 _atom_site_type_symbol
 _atom_site_label
 _atom_site_symmetry_multiplicity
 _atom_site_fract_x
 _atom_site_fract_y
 _atom_site_fract_z
 _atom_site_occupancy
  Mg  Mg0  1  0.333333  0.666667  0.998560  1
  Mg  Mg1  1  0.666667  0.333333  0.498560  1
  Mg  Mg2  1  0.000000  0.000000  0.601646  1
  Mg  Mg3  1  0.000000  0.000000  0.101646  1
  Mn  Mn4  1  0.333333  0.666667  0.502579  1
  Mn  Mn5  1  0.666667  0.333333  0.002579  1
  H  H6  1  0.465243  0.503755  0.908421  1
  H  H7  1  0.496245  0.961489  0.908421  1
  H  H8  1  0.038511  0.534757  0.908421  1
  H  H9  1  0.503755  0.465243  0.408421  1
  H  H10  1  0.961489  0.496245  0.408421  1
  H  H11  1  0.534757  0.038511  0.408421  1
  H  H12  1  0.475474  0.618242  0.812882  1
  H  H13  1  0.381758  0.857232  0.812882  1
  H  H14  1  0.142768  0.524526  0.812882  1
  H  H15  1  0.618242  0.475474  0.312882  1
  H  H16  1  0.857232  0.381758  0.312882  1
  H  H17  1  0.524526  0.142768  0.312882  1
  H  H18  1  0.538163  0.916614  0.113434  1
  H  H19  1  0.083386  0.621548  0.113434  1
  H  H20  1  0.378452  0.461837  0.113434  1
  H  H21  1  0.916614  0.538163  0.613434  1
  H  H22  1  0.621548  0.083386  0.613434  1
  H  H23  1  0.461837  0.378452  0.613434  1
  H  H24  1  0.532635  0.783675  0.186980  1
  H  H25  1  0.216325  0.748960  0.186980  1
  H  H26  1  0.251040  0.467365  0.186980  1
  H  H27  1  0.783675  0.532635  0.686980  1
  H  H28  1  0.748960  0.216325  0.686980  1
  H  H29  1  0.467365  0.251040  0.686980  1
  H  H30  1  0.887635  0.180458  0.519116  1
  H  H31  1  0.819542  0.707177  0.519116  1
  H  H32  1  0.292823  0.112365  0.519116  1
  H  H33  1  0.180458  0.887635  0.019116  1
  H  H34  1  0.707177  0.819542  0.019116  1
  H  H35  1  0.112365  0.292823  0.019116  1
  H  H36  1  0.042740  0.223996  0.452109  1
  H  H37  1  0.776004  0.818744  0.452109  1
  H  H38  1  0.181256  0.957260  0.452109  1
  H  H39  1  0.223996  0.042740  0.952109  1
  H  H40  1  0.818744  0.776004  0.952109  1
  H  H41  1  0.957260  0.181256  0.952109  1
  H  H42  1  0.705786  0.834337  0.692418  1
  H  H43  1  0.165663  0.871449  0.692418  1
  H  H44  1  0.128551  0.294214  0.692418  1
  H  H45  1  0.834337  0.705786  0.192418  1
  H  H46  1  0.871449  0.165663  0.192418  1
  H  H47  1  0.294214  0.128551  0.192418  1
  H  H48  1  0.792903  0.986431  0.770828  1
  H  H49  1  0.013569  0.806473  0.770828  1
  H  H50  1  0.193527  0.207097  0.770828  1
  H  H51  1  0.986431  0.792903  0.270828  1
  H  H52  1  0.806473  0.013569  0.270828  1
  H  H53  1  0.207097  0.193527  0.270828  1
  Cl  Cl54  1  0.505281  0.611276  0.635257  1
  Cl  Cl55  1  0.388724  0.894005  0.635257  1
  Cl  Cl56  1  0.105995  0.494719  0.635257  1
  Cl  Cl57  1  0.611276  0.505281  0.135257  1
  Cl  Cl58  1  0.894005  0.388724  0.135257  1
  Cl  Cl59  1  0.494719  0.105995  0.135257  1
  Cl  Cl60  1  0.255737  0.426412  0.375178  1
  Cl  Cl61  1  0.573588  0.829325  0.375178  1
  Cl  Cl62  1  0.170675  0.744263  0.375178  1
  Cl  Cl63  1  0.426412  0.255737  0.875178  1
  Cl  Cl64  1  0.829325  0.573588  0.875178  1
  Cl  Cl65  1  0.744263  0.170675  0.875178  1
  O  O66  1  0.464292  0.601500  0.897734  1
  O  O67  1  0.398500  0.862792  0.897734  1
  O  O68  1  0.137208  0.535708  0.897734  1
  O  O69  1  0.601500  0.464292  0.397734  1
  O  O70  1  0.862792  0.398500  0.397734  1
  O  O71  1  0.535708  0.137208  0.397734  1
  O  O72  1  0.526089  0.811594  0.105781  1
  O  O73  1  0.188406  0.714495  0.105781  1
  O  O74  1  0.285505  0.473911  0.105781  1
  O  O75  1  0.811594  0.526089  0.605781  1
  O  O76  1  0.714495  0.188406  0.605781  1
  O  O77  1  0.473911  0.285505  0.605781  1
  O  O78  1  0.953611  0.138892  0.492541  1
  O  O79  1  0.861108  0.814718  0.492541  1
  O  O80  1  0.185282  0.046389  0.492541  1
  O  O81  1  0.138892  0.953611  0.992541  1
  O  O82  1  0.814718  0.861108  0.992541  1
  O  O83  1  0.046389  0.185282  0.992541  1
  O  O84  1  0.806339  0.928872  0.707696  1
  O  O85  1  0.071128  0.877467  0.707696  1
  O  O86  1  0.122533  0.193661  0.707696  1
  O  O87  1  0.928872  0.806339  0.207696  1
  O  O88  1  0.877467  0.071128  0.207696  1
  O  O89  1  0.193661  0.122533  0.207696  1
