# generated using pymatgen
data_Ni3OF5
_symmetry_space_group_name_H-M   'P 1'
_cell_length_a   4.68460518
_cell_length_b   4.68460825
_cell_length_c   9.28178117
_cell_angle_alpha   90.00000000
_cell_angle_beta   90.00000000
_cell_angle_gamma   90.00000000
_symmetry_Int_Tables_number   1
_chemical_formula_structural   Ni3OF5
_chemical_formula_sum   'Ni6 O2 F10'
_cell_volume   203.69370063
_cell_formula_units_Z   2
loop_
 _symmetry_equiv_pos_site_id
 _symmetry_equiv_pos_as_xyz
  1  'x, y, z'
loop_
 _atom_site_type_symbol
 _atom_site_label
 _atom_site_symmetry_multiplicity
 _atom_site_fract_x
 _atom_site_fract_y
 _atom_site_fract_z
 _atom_site_occupancy
  Ni  Ni0  1  0.753575  0.992042  0.662449  1
  Ni  Ni1  1  0.753575  0.992042  0.337551  1
  Ni  Ni2  1  0.762511  0.013104  0.000000  1
  Ni  Ni3  1  0.246425  0.492042  0.162449  1
  Ni  Ni4  1  0.246425  0.492042  0.837551  1
  Ni  Ni5  1  0.237489  0.513104  0.500000  1
  O  O6  1  0.942611  0.805487  0.500000  1
  O  O7  1  0.057389  0.305487  0.000000  1
  F  F8  1  0.948281  0.802833  0.166752  1
  F  F9  1  0.948281  0.802833  0.833248  1
  F  F10  1  0.051719  0.302833  0.333248  1
  F  F11  1  0.051719  0.302833  0.666752  1
  F  F12  1  0.455316  0.703933  0.000000  1
  F  F13  1  0.442725  0.693864  0.330513  1
  F  F14  1  0.442725  0.693864  0.669487  1
  F  F15  1  0.557275  0.193864  0.830513  1
  F  F16  1  0.557275  0.193864  0.169487  1
  F  F17  1  0.544684  0.203933  0.500000  1
