# generated using pymatgen
data_K3Li2Nb6(PO8)3
_symmetry_space_group_name_H-M   'P 1'
_cell_length_a   8.52016172
_cell_length_b   8.52016172
_cell_length_c   8.52016172
_cell_angle_alpha   103.22672075
_cell_angle_beta   103.22672075
_cell_angle_gamma   103.22672075
_symmetry_Int_Tables_number   1
_chemical_formula_structural   K3Li2Nb6(PO8)3
_chemical_formula_sum   'K3 Li2 Nb6 P3 O24'
_cell_volume   559.73487992
_cell_formula_units_Z   1
loop_
 _symmetry_equiv_pos_site_id
 _symmetry_equiv_pos_as_xyz
  1  'x, y, z'
loop_
 _atom_site_type_symbol
 _atom_site_label
 _atom_site_symmetry_multiplicity
 _atom_site_fract_x
 _atom_site_fract_y
 _atom_site_fract_z
 _atom_site_occupancy
  K  K0  1  0.911572  0.596842  0.311661  1
  K  K1  1  0.311661  0.911572  0.596842  1
  K  K2  1  0.596842  0.311661  0.911572  1
  Li  Li3  1  0.366261  0.366261  0.366261  1
  Li  Li4  1  0.633702  0.633702  0.633702  1
  Nb  Nb5  1  0.155296  0.347032  0.025288  1
  Nb  Nb6  1  0.347032  0.025288  0.155296  1
  Nb  Nb7  1  0.845266  0.976191  0.654545  1
  Nb  Nb8  1  0.025288  0.155296  0.347032  1
  Nb  Nb9  1  0.976191  0.654545  0.845266  1
  Nb  Nb10  1  0.654545  0.845266  0.976191  1
  P  P11  1  0.499941  0.715590  0.282194  1
  P  P12  1  0.715590  0.282194  0.499941  1
  P  P13  1  0.282194  0.499941  0.715590  1
  O  O14  1  0.499634  0.974417  0.024096  1
  O  O15  1  0.153130  0.847131  0.999870  1
  O  O16  1  0.583666  0.702579  0.137251  1
  O  O17  1  0.316030  0.208299  0.069642  1
  O  O18  1  0.847131  0.999870  0.153130  1
  O  O19  1  0.418517  0.862192  0.296788  1
  O  O20  1  0.363487  0.546570  0.249122  1
  O  O21  1  0.636288  0.747855  0.451890  1
  O  O22  1  0.069642  0.316030  0.208299  1
  O  O23  1  0.862192  0.296788  0.418517  1
  O  O24  1  0.546570  0.249122  0.363487  1
  O  O25  1  0.208299  0.069642  0.316030  1
  O  O26  1  0.974417  0.024096  0.499634  1
  O  O27  1  0.929914  0.791106  0.682525  1
  O  O28  1  0.747855  0.451890  0.636288  1
  O  O29  1  0.702579  0.137251  0.583666  1
  O  O30  1  0.682525  0.929914  0.791106  1
  O  O31  1  0.249122  0.363487  0.546570  1
  O  O32  1  0.451890  0.636288  0.747855  1
  O  O33  1  0.137251  0.583666  0.702579  1
  O  O34  1  0.791106  0.682525  0.929914  1
  O  O35  1  0.296788  0.418517  0.862192  1
  O  O36  1  0.999870  0.153130  0.847131  1
  O  O37  1  0.024096  0.499634  0.974417  1
