# generated using pymatgen
data_LiCrF4
_symmetry_space_group_name_H-M   'P 1'
_cell_length_a   9.37029045
_cell_length_b   9.37029045
_cell_length_c   7.36325029
_cell_angle_alpha   81.04837835
_cell_angle_beta   98.95162165
_cell_angle_gamma   113.88772667
_symmetry_Int_Tables_number   1
_chemical_formula_structural   LiCrF4
_chemical_formula_sum   'Li8 Cr8 F32'
_cell_volume   580.85468206
_cell_formula_units_Z   8
loop_
 _symmetry_equiv_pos_site_id
 _symmetry_equiv_pos_as_xyz
  1  'x, y, z'
loop_
 _atom_site_type_symbol
 _atom_site_label
 _atom_site_symmetry_multiplicity
 _atom_site_fract_x
 _atom_site_fract_y
 _atom_site_fract_z
 _atom_site_occupancy
  Li  Li0  1  0.513153  0.888713  0.391563  1
  Li  Li1  1  0.111287  0.486847  0.891563  1
  Li  Li2  1  0.381991  0.611128  0.658837  1
  Li  Li3  1  0.388872  0.618009  0.158837  1
  Li  Li4  1  0.611128  0.381991  0.841163  1
  Li  Li5  1  0.618009  0.388872  0.341163  1
  Li  Li6  1  0.888713  0.513153  0.108437  1
  Li  Li7  1  0.486847  0.111287  0.608437  1
  Cr  Cr8  1  0.171102  0.821009  0.589551  1
  Cr  Cr9  1  0.178991  0.828898  0.089551  1
  Cr  Cr10  1  0.749252  0.744326  0.498209  1
  Cr  Cr11  1  0.744326  0.749252  0.001791  1
  Cr  Cr12  1  0.255674  0.250748  0.998209  1
  Cr  Cr13  1  0.250748  0.255674  0.501791  1
  Cr  Cr14  1  0.821009  0.171102  0.910449  1
  Cr  Cr15  1  0.828898  0.178991  0.410449  1
  F  F16  1  0.237096  0.889499  0.837594  1
  F  F17  1  0.832238  0.968245  0.898758  1
  F  F18  1  0.390727  0.895770  0.180032  1
  F  F19  1  0.381517  0.824223  0.587205  1
  F  F20  1  0.110501  0.762904  0.337594  1
  F  F21  1  0.731352  0.950725  0.502390  1
  F  F22  1  0.545021  0.747322  0.006210  1
  F  F23  1  0.104230  0.609273  0.680032  1
  F  F24  1  0.175777  0.618483  0.087205  1
  F  F25  1  0.968245  0.832238  0.601242  1
  F  F26  1  0.815054  0.815054  0.250000  1
  F  F27  1  0.672595  0.672595  0.750000  1
  F  F28  1  0.950725  0.731352  0.997610  1
  F  F29  1  0.528551  0.681021  0.401476  1
  F  F30  1  0.318979  0.471449  0.901476  1
  F  F31  1  0.252678  0.454979  0.506210  1
  F  F32  1  0.049275  0.268648  0.002390  1
  F  F33  1  0.747322  0.545021  0.493790  1
  F  F34  1  0.681021  0.528551  0.098524  1
  F  F35  1  0.471449  0.318979  0.598524  1
  F  F36  1  0.327405  0.327405  0.250000  1
  F  F37  1  0.184946  0.184946  0.750000  1
  F  F38  1  0.031755  0.167762  0.398758  1
  F  F39  1  0.824223  0.381517  0.912795  1
  F  F40  1  0.895770  0.390727  0.319968  1
  F  F41  1  0.454979  0.252678  0.993790  1
  F  F42  1  0.268648  0.049275  0.497610  1
  F  F43  1  0.889499  0.237096  0.662406  1
  F  F44  1  0.618483  0.175777  0.412795  1
  F  F45  1  0.609273  0.104230  0.819968  1
  F  F46  1  0.167762  0.031755  0.101242  1
  F  F47  1  0.762904  0.110501  0.162406  1
