# generated using pymatgen
data_Li4Nb3V3Cr2O16
_symmetry_space_group_name_H-M   'P 1'
_cell_length_a   6.03983679
_cell_length_b   6.03983679
_cell_length_c   9.80421290
_cell_angle_alpha   89.27652814
_cell_angle_beta   90.72347186
_cell_angle_gamma   120.03369513
_symmetry_Int_Tables_number   1
_chemical_formula_structural   Li4Nb3V3Cr2O16
_chemical_formula_sum   'Li4 Nb3 V3 Cr2 O16'
_cell_volume   309.59936678
_cell_formula_units_Z   1
loop_
 _symmetry_equiv_pos_site_id
 _symmetry_equiv_pos_as_xyz
  1  'x, y, z'
loop_
 _atom_site_type_symbol
 _atom_site_label
 _atom_site_symmetry_multiplicity
 _atom_site_fract_x
 _atom_site_fract_y
 _atom_site_fract_z
 _atom_site_occupancy
  Li  Li0  1  0.666559  0.333441  0.102146  1
  Li  Li1  1  0.007961  0.992039  0.006314  1
  Li  Li2  1  0.008701  0.991299  0.504691  1
  Li  Li3  1  0.334418  0.665582  0.613138  1
  Nb  Nb4  1  0.831364  0.168636  0.786315  1
  Nb  Nb5  1  0.648732  0.825808  0.287551  1
  Nb  Nb6  1  0.174192  0.351268  0.287551  1
  V  V7  1  0.831967  0.659026  0.787269  1
  V  V8  1  0.340974  0.168033  0.787269  1
  V  V9  1  0.173204  0.826796  0.288157  1
  Cr  Cr10  1  0.661239  0.338761  0.518516  1
  Cr  Cr11  1  0.330237  0.669763  0.010306  1
  O  O12  1  0.820162  0.668101  0.399397  1
  O  O13  1  0.520723  0.479277  0.662872  1
  O  O14  1  0.673110  0.326890  0.899854  1
  O  O15  1  0.997890  0.002110  0.686558  1
  O  O16  1  0.997811  0.002189  0.189626  1
  O  O17  1  0.331899  0.179838  0.399397  1
  O  O18  1  0.959730  0.476313  0.658240  1
  O  O19  1  0.523687  0.040270  0.658240  1
  O  O20  1  0.162550  0.837450  0.897198  1
  O  O21  1  0.831345  0.168655  0.398814  1
  O  O22  1  0.488066  0.960797  0.152925  1
  O  O23  1  0.039203  0.511934  0.152925  1
  O  O24  1  0.333903  0.666097  0.414003  1
  O  O25  1  0.668677  0.839901  0.896794  1
  O  O26  1  0.481217  0.518783  0.149317  1
  O  O27  1  0.160099  0.331323  0.896794  1
