# generated using pymatgen
data_MgFeO3
_symmetry_space_group_name_H-M   'P 1'
_cell_length_a   5.50642995
_cell_length_b   5.50642995
_cell_length_c   5.50642995
_cell_angle_alpha   55.14471656
_cell_angle_beta   55.14471656
_cell_angle_gamma   55.14471656
_symmetry_Int_Tables_number   1
_chemical_formula_structural   MgFeO3
_chemical_formula_sum   'Mg2 Fe2 O6'
_cell_volume   104.72918373
_cell_formula_units_Z   2
loop_
 _symmetry_equiv_pos_site_id
 _symmetry_equiv_pos_as_xyz
  1  'x, y, z'
loop_
 _atom_site_type_symbol
 _atom_site_label
 _atom_site_symmetry_multiplicity
 _atom_site_fract_x
 _atom_site_fract_y
 _atom_site_fract_z
 _atom_site_occupancy
  Mg  Mg0  1  0.858508  0.858508  0.858508  1
  Mg  Mg1  1  0.141492  0.141492  0.141492  1
  Fe  Fe2  1  0.652410  0.652410  0.652410  1
  Fe  Fe3  1  0.347590  0.347590  0.347590  1
  O  O4  1  0.275807  0.541660  0.941618  1
  O  O5  1  0.058382  0.724193  0.458340  1
  O  O6  1  0.458340  0.058382  0.724193  1
  O  O7  1  0.541660  0.941618  0.275807  1
  O  O8  1  0.941618  0.275807  0.541660  1
  O  O9  1  0.724193  0.458340  0.058382  1
