# generated using pymatgen
data_Mn3O5F
_symmetry_space_group_name_H-M   'P 1'
_cell_length_a   5.44549842
_cell_length_b   5.44901492
_cell_length_c   7.09839434
_cell_angle_alpha   72.81664256
_cell_angle_beta   72.74781005
_cell_angle_gamma   72.28405149
_symmetry_Int_Tables_number   1
_chemical_formula_structural   Mn3O5F
_chemical_formula_sum   'Mn6 O10 F2'
_cell_volume   186.67484476
_cell_formula_units_Z   2
loop_
 _symmetry_equiv_pos_site_id
 _symmetry_equiv_pos_as_xyz
  1  'x, y, z'
loop_
 _atom_site_type_symbol
 _atom_site_label
 _atom_site_symmetry_multiplicity
 _atom_site_fract_x
 _atom_site_fract_y
 _atom_site_fract_z
 _atom_site_occupancy
  Mn  Mn0  1  0.316911  0.331740  0.174592  1
  Mn  Mn1  1  0.657879  0.667908  0.331844  1
  Mn  Mn2  1  0.339566  0.349160  0.666987  1
  Mn  Mn3  1  0.669014  0.684130  0.829286  1
  Mn  Mn4  1  0.991998  0.994740  0.489330  1
  Mn  Mn5  1  0.019392  0.978394  0.009382  1
  O  O6  1  0.353099  0.972198  0.335554  1
  O  O7  1  0.028315  0.645988  0.665085  1
  O  O8  1  0.433699  0.432368  0.372148  1
  O  O9  1  0.771766  0.768978  0.037995  1
  O  O10  1  0.891566  0.893816  0.298365  1
  O  O11  1  0.233130  0.229323  0.962756  1
  O  O12  1  0.571129  0.567959  0.628362  1
  O  O13  1  0.639635  0.035699  0.663764  1
  O  O14  1  0.965084  0.358655  0.336750  1
  O  O15  1  0.312521  0.685908  0.999813  1
  F  F16  1  0.102051  0.104680  0.698964  1
  F  F17  1  0.703245  0.298354  0.999022  1
