# generated using pymatgen
data_LiFe2P2HO8
_symmetry_space_group_name_H-M   'P 1'
_cell_length_a   5.05438851
_cell_length_b   8.57133913
_cell_length_c   7.76696864
_cell_angle_alpha   90.00000000
_cell_angle_beta   104.31322439
_cell_angle_gamma   90.00000000
_symmetry_Int_Tables_number   1
_chemical_formula_structural   LiFe2P2HO8
_chemical_formula_sum   'Li2 Fe4 P4 H2 O16'
_cell_volume   326.04242613
_cell_formula_units_Z   2
loop_
 _symmetry_equiv_pos_site_id
 _symmetry_equiv_pos_as_xyz
  1  'x, y, z'
loop_
 _atom_site_type_symbol
 _atom_site_label
 _atom_site_symmetry_multiplicity
 _atom_site_fract_x
 _atom_site_fract_y
 _atom_site_fract_z
 _atom_site_occupancy
  Li  Li0  1  0.254903  0.001363  0.742667  1
  Li  Li1  1  0.745097  0.501363  0.257333  1
  Fe  Fe2  1  0.376245  0.653224  0.918738  1
  Fe  Fe3  1  0.623755  0.153224  0.081262  1
  Fe  Fe4  1  0.859224  0.847440  0.429107  1
  Fe  Fe5  1  0.140776  0.347440  0.570893  1
  P  P6  1  0.378613  0.648205  0.527606  1
  P  P7  1  0.621387  0.148205  0.472394  1
  P  P8  1  0.889403  0.850917  0.023176  1
  P  P9  1  0.110597  0.350917  0.976824  1
  H  H10  1  0.778733  0.481011  0.757379  1
  H  H11  1  0.221267  0.981011  0.242621  1
  O  O12  1  0.331453  0.465196  0.074222  1
  O  O13  1  0.260222  0.803699  0.575858  1
  O  O14  1  0.397565  0.172376  0.573612  1
  O  O15  1  0.503171  0.557517  0.708814  1
  O  O16  1  0.668547  0.965196  0.925778  1
  O  O17  1  0.763138  0.699631  0.073810  1
  O  O18  1  0.496829  0.057517  0.291186  1
  O  O19  1  0.602435  0.672376  0.426388  1
  O  O20  1  0.885733  0.325618  0.073901  1
  O  O21  1  0.025392  0.932177  0.215406  1
  O  O22  1  0.739778  0.303699  0.424142  1
  O  O23  1  0.853302  0.042623  0.578641  1
  O  O24  1  0.974608  0.432177  0.784594  1
  O  O25  1  0.114267  0.825618  0.926099  1
  O  O26  1  0.236862  0.199631  0.926190  1
  O  O27  1  0.146698  0.542623  0.421359  1
