# generated using pymatgen
data_Li5SbS4
_symmetry_space_group_name_H-M   'P 1'
_cell_length_a   10.65643573
_cell_length_b   12.30870015
_cell_length_c   12.61042149
_cell_angle_alpha   90.00000000
_cell_angle_beta   90.00000000
_cell_angle_gamma   90.00000000
_symmetry_Int_Tables_number   1
_chemical_formula_structural   Li5SbS4
_chemical_formula_sum   'Li40 Sb8 S32'
_cell_volume   1654.06954231
_cell_formula_units_Z   8
loop_
 _symmetry_equiv_pos_site_id
 _symmetry_equiv_pos_as_xyz
  1  'x, y, z'
loop_
 _atom_site_type_symbol
 _atom_site_label
 _atom_site_symmetry_multiplicity
 _atom_site_fract_x
 _atom_site_fract_y
 _atom_site_fract_z
 _atom_site_occupancy
  Li  Li0  1  0.880044  0.118645  0.130299  1
  Li  Li1  1  0.380044  0.118645  0.369701  1
  Li  Li2  1  0.094711  0.146110  0.661297  1
  Li  Li3  1  0.594711  0.146110  0.838703  1
  Li  Li4  1  0.887022  0.140977  0.901752  1
  Li  Li5  1  0.387022  0.140977  0.598248  1
  Li  Li6  1  0.657681  0.097313  0.361823  1
  Li  Li7  1  0.157681  0.097313  0.138177  1
  Li  Li8  1  0.661075  0.116826  0.604635  1
  Li  Li9  1  0.161075  0.116826  0.895365  1
  Li  Li10  1  0.661075  0.383174  0.104635  1
  Li  Li11  1  0.161075  0.383174  0.395365  1
  Li  Li12  1  0.657681  0.402687  0.861823  1
  Li  Li13  1  0.157681  0.402687  0.638177  1
  Li  Li14  1  0.887022  0.359023  0.401752  1
  Li  Li15  1  0.387022  0.359023  0.098248  1
  Li  Li16  1  0.594711  0.353890  0.338703  1
  Li  Li17  1  0.094711  0.353890  0.161297  1
  Li  Li18  1  0.380044  0.381355  0.869701  1
  Li  Li19  1  0.880044  0.381355  0.630299  1
  Li  Li20  1  0.619956  0.618645  0.130299  1
  Li  Li21  1  0.119956  0.618645  0.369701  1
  Li  Li22  1  0.405289  0.646110  0.661297  1
  Li  Li23  1  0.905289  0.646110  0.838703  1
  Li  Li24  1  0.112978  0.640977  0.598248  1
  Li  Li25  1  0.612978  0.640977  0.901752  1
  Li  Li26  1  0.842319  0.597313  0.361823  1
  Li  Li27  1  0.342319  0.597313  0.138177  1
  Li  Li28  1  0.838925  0.616826  0.604635  1
  Li  Li29  1  0.338925  0.616826  0.895365  1
  Li  Li30  1  0.838925  0.883174  0.104635  1
  Li  Li31  1  0.338925  0.883174  0.395365  1
  Li  Li32  1  0.842319  0.902687  0.861823  1
  Li  Li33  1  0.342319  0.902687  0.638177  1
  Li  Li34  1  0.112978  0.859023  0.098248  1
  Li  Li35  1  0.612978  0.859023  0.401752  1
  Li  Li36  1  0.405289  0.853890  0.161297  1
  Li  Li37  1  0.905289  0.853890  0.338703  1
  Li  Li38  1  0.619956  0.881355  0.630299  1
  Li  Li39  1  0.119956  0.881355  0.869701  1
  Sb  Sb40  1  0.568991  0.120525  0.108425  1
  Sb  Sb41  1  0.068991  0.120525  0.391575  1
  Sb  Sb42  1  0.568991  0.379475  0.608425  1
  Sb  Sb43  1  0.068991  0.379475  0.891575  1
  Sb  Sb44  1  0.931009  0.620525  0.108425  1
  Sb  Sb45  1  0.431009  0.620525  0.391575  1
  Sb  Sb46  1  0.931009  0.879475  0.608425  1
  Sb  Sb47  1  0.431009  0.879475  0.891575  1
  S  S48  1  0.503397  0.975031  0.286011  1
  S  S49  1  0.003397  0.975031  0.213989  1
  S  S50  1  0.731530  0.030278  0.994436  1
  S  S51  1  0.231530  0.030278  0.505564  1
  S  S52  1  0.720882  0.224535  0.221237  1
  S  S53  1  0.220882  0.224535  0.278763  1
  S  S54  1  0.034298  0.219916  0.024675  1
  S  S55  1  0.534298  0.219916  0.475325  1
  S  S56  1  0.534298  0.280084  0.975325  1
  S  S57  1  0.034298  0.280084  0.524675  1
  S  S58  1  0.720882  0.275465  0.721237  1
  S  S59  1  0.220882  0.275465  0.778763  1
  S  S60  1  0.731530  0.469722  0.494436  1
  S  S61  1  0.231530  0.469722  0.005564  1
  S  S62  1  0.003397  0.524969  0.713989  1
  S  S63  1  0.503397  0.524969  0.786011  1
  S  S64  1  0.996603  0.475031  0.286011  1
  S  S65  1  0.496603  0.475031  0.213989  1
  S  S66  1  0.768470  0.530278  0.994436  1
  S  S67  1  0.268470  0.530278  0.505564  1
  S  S68  1  0.779118  0.724535  0.221237  1
  S  S69  1  0.279118  0.724535  0.278763  1
  S  S70  1  0.965702  0.719916  0.475325  1
  S  S71  1  0.465702  0.719916  0.024675  1
  S  S72  1  0.465702  0.780084  0.524675  1
  S  S73  1  0.965702  0.780084  0.975325  1
  S  S74  1  0.779118  0.775465  0.721237  1
  S  S75  1  0.279118  0.775465  0.778763  1
  S  S76  1  0.768470  0.969722  0.494436  1
  S  S77  1  0.268470  0.969722  0.005564  1
  S  S78  1  0.996603  0.024969  0.786011  1
  S  S79  1  0.496603  0.024969  0.713989  1
