# generated using pymatgen
data_CdFeSn(PO4)3
_symmetry_space_group_name_H-M   'P 1'
_cell_length_a   8.90330763
_cell_length_b   8.90330763
_cell_length_c   8.90330763
_cell_angle_alpha   58.72860632
_cell_angle_beta   58.72860632
_cell_angle_gamma   58.72860632
_symmetry_Int_Tables_number   1
_chemical_formula_structural   CdFeSn(PO4)3
_chemical_formula_sum   'Cd2 Fe2 Sn2 P6 O24'
_cell_volume   484.54881168
_cell_formula_units_Z   2
loop_
 _symmetry_equiv_pos_site_id
 _symmetry_equiv_pos_as_xyz
  1  'x, y, z'
loop_
 _atom_site_type_symbol
 _atom_site_label
 _atom_site_symmetry_multiplicity
 _atom_site_fract_x
 _atom_site_fract_y
 _atom_site_fract_z
 _atom_site_occupancy
  Cd  Cd0  1  0.002954  0.002954  0.002954  1
  Cd  Cd1  1  0.502954  0.502954  0.502954  1
  Fe  Fe2  1  0.647474  0.647474  0.647474  1
  Fe  Fe3  1  0.147474  0.147474  0.147474  1
  Sn  Sn4  1  0.853590  0.853590  0.853590  1
  Sn  Sn5  1  0.353590  0.353590  0.353590  1
  P  P6  1  0.251221  0.540007  0.954984  1
  P  P7  1  0.954984  0.251221  0.540007  1
  P  P8  1  0.540007  0.954984  0.251221  1
  P  P9  1  0.454984  0.040007  0.751221  1
  P  P10  1  0.040007  0.751221  0.454984  1
  P  P11  1  0.751221  0.454984  0.040007  1
  O  O12  1  0.699178  0.494478  0.881491  1
  O  O13  1  0.494478  0.881491  0.699178  1
  O  O14  1  0.082671  0.730954  0.939200  1
  O  O15  1  0.881491  0.699178  0.494478  1
  O  O16  1  0.199178  0.381491  0.994478  1
  O  O17  1  0.417036  0.561230  0.768431  1
  O  O18  1  0.939200  0.082671  0.730954  1
  O  O19  1  0.768431  0.417036  0.561230  1
  O  O20  1  0.613646  0.014957  0.796500  1
  O  O21  1  0.561230  0.768431  0.417036  1
  O  O22  1  0.268431  0.061230  0.917036  1
  O  O23  1  0.014957  0.796500  0.613646  1
  O  O24  1  0.994478  0.199178  0.381491  1
  O  O25  1  0.730954  0.939200  0.082671  1
  O  O26  1  0.439200  0.230954  0.582671  1
  O  O27  1  0.381491  0.994478  0.199178  1
  O  O28  1  0.230954  0.582671  0.439200  1
  O  O29  1  0.061230  0.917036  0.268431  1
  O  O30  1  0.582671  0.439200  0.230954  1
  O  O31  1  0.796500  0.613646  0.014957  1
  O  O32  1  0.113646  0.296500  0.514957  1
  O  O33  1  0.917036  0.268431  0.061230  1
  O  O34  1  0.514957  0.113646  0.296500  1
  O  O35  1  0.296500  0.514957  0.113646  1
