# generated using pymatgen
data_Ta3AgO8
_symmetry_space_group_name_H-M   'P 1'
_cell_length_a   7.76365344
_cell_length_b   5.26462179
_cell_length_c   15.84573211
_cell_angle_alpha   90.00000000
_cell_angle_beta   106.97663630
_cell_angle_gamma   90.00000000
_symmetry_Int_Tables_number   1
_chemical_formula_structural   Ta3AgO8
_chemical_formula_sum   'Ta12 Ag4 O32'
_cell_volume   619.43543577
_cell_formula_units_Z   4
loop_
 _symmetry_equiv_pos_site_id
 _symmetry_equiv_pos_as_xyz
  1  'x, y, z'
loop_
 _atom_site_type_symbol
 _atom_site_label
 _atom_site_symmetry_multiplicity
 _atom_site_fract_x
 _atom_site_fract_y
 _atom_site_fract_z
 _atom_site_occupancy
  Ta  Ta0  1  0.009648  0.259023  0.834642  1
  Ta  Ta1  1  0.757252  0.761926  0.916314  1
  Ta  Ta2  1  0.500202  0.264874  0.834882  1
  Ta  Ta3  1  0.990352  0.759023  0.665358  1
  Ta  Ta4  1  0.499798  0.764874  0.665118  1
  Ta  Ta5  1  0.242748  0.261926  0.583686  1
  Ta  Ta6  1  0.757252  0.738074  0.416314  1
  Ta  Ta7  1  0.500202  0.235126  0.334882  1
  Ta  Ta8  1  0.009648  0.240977  0.334642  1
  Ta  Ta9  1  0.499798  0.735126  0.165118  1
  Ta  Ta10  1  0.242748  0.238074  0.083686  1
  Ta  Ta11  1  0.990352  0.740977  0.165358  1
  Ag  Ag12  1  0.268349  0.759448  0.922015  1
  Ag  Ag13  1  0.731651  0.259448  0.577985  1
  Ag  Ag14  1  0.268349  0.740552  0.422015  1
  Ag  Ag15  1  0.731651  0.240552  0.077985  1
  O  O16  1  0.132513  0.147684  0.965148  1
  O  O17  1  0.948260  0.575274  0.889580  1
  O  O18  1  0.643828  0.457672  0.941444  1
  O  O19  1  0.524422  0.956916  0.901306  1
  O  O20  1  0.272410  0.352448  0.843004  1
  O  O21  1  0.059035  0.942508  0.774598  1
  O  O22  1  0.788529  0.090626  0.845381  1
  O  O23  1  0.940965  0.442508  0.725402  1
  O  O24  1  0.575789  0.595832  0.781799  1
  O  O25  1  0.727590  0.852448  0.656996  1
  O  O26  1  0.424211  0.095832  0.718201  1
  O  O27  1  0.211471  0.590626  0.654619  1
  O  O28  1  0.051740  0.075274  0.610420  1
  O  O29  1  0.867487  0.647684  0.534852  1
  O  O30  1  0.475578  0.456916  0.598694  1
  O  O31  1  0.643828  0.042328  0.441444  1
  O  O32  1  0.356172  0.957672  0.558556  1
  O  O33  1  0.524422  0.543084  0.401306  1
  O  O34  1  0.132513  0.352316  0.465148  1
  O  O35  1  0.948260  0.924726  0.389580  1
  O  O36  1  0.788529  0.409374  0.345381  1
  O  O37  1  0.575789  0.904168  0.281799  1
  O  O38  1  0.272410  0.147552  0.343004  1
  O  O39  1  0.424211  0.404168  0.218201  1
  O  O40  1  0.059035  0.557492  0.274598  1
  O  O41  1  0.211471  0.909374  0.154619  1
  O  O42  1  0.940965  0.057492  0.225402  1
  O  O43  1  0.727590  0.647552  0.156996  1
  O  O44  1  0.475578  0.043084  0.098694  1
  O  O45  1  0.356172  0.542328  0.058556  1
  O  O46  1  0.051740  0.424726  0.110420  1
  O  O47  1  0.867487  0.852316  0.034852  1
