# generated using pymatgen
data_DyInO3
_symmetry_space_group_name_H-M   'P 1'
_cell_length_a   6.37222371
_cell_length_b   6.37222371
_cell_length_c   12.34008985
_cell_angle_alpha   90.00000000
_cell_angle_beta   90.00000000
_cell_angle_gamma   120.00000000
_symmetry_Int_Tables_number   1
_chemical_formula_structural   DyInO3
_chemical_formula_sum   'Dy6 In6 O18'
_cell_volume   433.94129639
_cell_formula_units_Z   6
loop_
 _symmetry_equiv_pos_site_id
 _symmetry_equiv_pos_as_xyz
  1  'x, y, z'
loop_
 _atom_site_type_symbol
 _atom_site_label
 _atom_site_symmetry_multiplicity
 _atom_site_fract_x
 _atom_site_fract_y
 _atom_site_fract_z
 _atom_site_occupancy
  Dy  Dy0  1  0.333333  0.666667  0.230134  1
  Dy  Dy1  1  0.000000  0.000000  0.265559  1
  Dy  Dy2  1  0.000000  0.000000  0.765559  1
  Dy  Dy3  1  0.333333  0.666667  0.730134  1
  Dy  Dy4  1  0.666667  0.333333  0.730134  1
  Dy  Dy5  1  0.666667  0.333333  0.230134  1
  In  In6  1  0.000000  0.666440  0.495904  1
  In  In7  1  0.000000  0.333560  0.995904  1
  In  In8  1  0.333560  0.333560  0.495904  1
  In  In9  1  0.666440  0.666440  0.995904  1
  In  In10  1  0.333560  0.000000  0.995904  1
  In  In11  1  0.666440  0.000000  0.495904  1
  O  O12  1  0.000000  0.694444  0.668360  1
  O  O13  1  0.000000  0.636981  0.325495  1
  O  O14  1  0.000000  0.363019  0.825495  1
  O  O15  1  0.000000  0.305556  0.168360  1
  O  O16  1  0.333333  0.666667  0.027079  1
  O  O17  1  0.000000  0.000000  0.462024  1
  O  O18  1  0.333333  0.666667  0.527079  1
  O  O19  1  0.000000  0.000000  0.962024  1
  O  O20  1  0.305556  0.305556  0.668360  1
  O  O21  1  0.363019  0.363019  0.325495  1
  O  O22  1  0.305556  0.000000  0.168360  1
  O  O23  1  0.636981  0.636981  0.825495  1
  O  O24  1  0.694444  0.694444  0.168360  1
  O  O25  1  0.363019  0.000000  0.825495  1
  O  O26  1  0.666667  0.333333  0.527079  1
  O  O27  1  0.666667  0.333333  0.027079  1
  O  O28  1  0.636981  0.000000  0.325495  1
  O  O29  1  0.694444  0.000000  0.668360  1
