# generated using pymatgen
data_Li4Fe3Cu2Sb3O16
_symmetry_space_group_name_H-M   'P 1'
_cell_length_a   6.11267665
_cell_length_b   6.11267665
_cell_length_c   9.94921887
_cell_angle_alpha   89.05544562
_cell_angle_beta   90.94455438
_cell_angle_gamma   119.68565884
_symmetry_Int_Tables_number   1
_chemical_formula_structural   Li4Fe3Cu2Sb3O16
_chemical_formula_sum   'Li4 Fe3 Cu2 Sb3 O16'
_cell_volume   322.90179061
_cell_formula_units_Z   1
loop_
 _symmetry_equiv_pos_site_id
 _symmetry_equiv_pos_as_xyz
  1  'x, y, z'
loop_
 _atom_site_type_symbol
 _atom_site_label
 _atom_site_symmetry_multiplicity
 _atom_site_fract_x
 _atom_site_fract_y
 _atom_site_fract_z
 _atom_site_occupancy
  Li  Li0  1  0.665461  0.334539  0.876819  1
  Li  Li1  1  0.989360  0.010640  0.991544  1
  Li  Li2  1  0.991666  0.008334  0.502806  1
  Li  Li3  1  0.331349  0.668651  0.396514  1
  Fe  Fe4  1  0.835287  0.164713  0.217537  1
  Fe  Fe5  1  0.167576  0.333814  0.715688  1
  Fe  Fe6  1  0.666186  0.832424  0.715688  1
  Cu  Cu7  1  0.672319  0.327681  0.529627  1
  Cu  Cu8  1  0.350584  0.649416  0.978639  1
  Sb  Sb9  1  0.340784  0.161829  0.214453  1
  Sb  Sb10  1  0.838171  0.659216  0.214453  1
  Sb  Sb11  1  0.172224  0.827776  0.716785  1
  O  O12  1  0.312837  0.148999  0.603501  1
  O  O13  1  0.517856  0.482144  0.327643  1
  O  O14  1  0.666055  0.333945  0.100134  1
  O  O15  1  0.008614  0.991386  0.320087  1
  O  O16  1  0.005724  0.994276  0.813423  1
  O  O17  1  0.851001  0.687163  0.603501  1
  O  O18  1  0.509514  0.014472  0.320941  1
  O  O19  1  0.985528  0.490486  0.320941  1
  O  O20  1  0.156778  0.843222  0.100921  1
  O  O21  1  0.841287  0.158713  0.607405  1
  O  O22  1  0.027372  0.511215  0.832331  1
  O  O23  1  0.488785  0.972628  0.832331  1
  O  O24  1  0.330979  0.669021  0.603455  1
  O  O25  1  0.165221  0.309490  0.105401  1
  O  O26  1  0.481628  0.518372  0.835018  1
  O  O27  1  0.690510  0.834779  0.105401  1
