# generated using pymatgen
data_Li3Cu3(PO4)2
_symmetry_space_group_name_H-M   'P 1'
_cell_length_a   5.44904929
_cell_length_b   6.21412443
_cell_length_c   10.18835666
_cell_angle_alpha   90.12590119
_cell_angle_beta   90.21705959
_cell_angle_gamma   90.55061005
_symmetry_Int_Tables_number   1
_chemical_formula_structural   Li3Cu3(PO4)2
_chemical_formula_sum   'Li6 Cu6 P4 O16'
_cell_volume   344.96939502
_cell_formula_units_Z   2
loop_
 _symmetry_equiv_pos_site_id
 _symmetry_equiv_pos_as_xyz
  1  'x, y, z'
loop_
 _atom_site_type_symbol
 _atom_site_label
 _atom_site_symmetry_multiplicity
 _atom_site_fract_x
 _atom_site_fract_y
 _atom_site_fract_z
 _atom_site_occupancy
  Li  Li0  1  0.155170  0.001648  0.745995  1
  Li  Li1  1  0.153247  0.000094  0.248334  1
  Li  Li2  1  0.328311  0.754385  0.497964  1
  Li  Li3  1  0.328524  0.751008  0.996487  1
  Li  Li4  1  0.673293  0.745514  0.745210  1
  Li  Li5  1  0.847173  0.498902  0.496178  1
  Cu  Cu6  1  0.656664  0.744952  0.251493  1
  Cu  Cu7  1  0.816790  0.502364  0.995798  1
  Cu  Cu8  1  0.665382  0.263770  0.744648  1
  Cu  Cu9  1  0.657424  0.254391  0.247899  1
  Cu  Cu10  1  0.337404  0.241592  0.497208  1
  Cu  Cu11  1  0.330906  0.249786  0.998624  1
  P  P12  1  0.834162  0.992475  0.996502  1
  P  P13  1  0.830530  0.992598  0.502380  1
  P  P14  1  0.175274  0.504770  0.251938  1
  P  P15  1  0.176726  0.509212  0.745834  1
  O  O16  1  0.836005  0.991270  0.655569  1
  O  O17  1  0.095833  0.985326  0.445551  1
  O  O18  1  0.843480  0.994324  0.149343  1
  O  O19  1  0.099301  0.986386  0.940483  1
  O  O20  1  0.682295  0.790005  0.455301  1
  O  O21  1  0.680474  0.796857  0.943173  1
  O  O22  1  0.302284  0.709093  0.193219  1
  O  O23  1  0.320154  0.708532  0.692515  1
  O  O24  1  0.181597  0.514256  0.899522  1
  O  O25  1  0.908183  0.514566  0.692659  1
  O  O26  1  0.175668  0.512465  0.404668  1
  O  O27  1  0.905647  0.500106  0.200713  1
  O  O28  1  0.297540  0.292888  0.700716  1
  O  O29  1  0.298962  0.291459  0.204303  1
  O  O30  1  0.705763  0.205141  0.454413  1
  O  O31  1  0.699833  0.199864  0.947955  1
