# generated using pymatgen
data_K2TeO4
_symmetry_space_group_name_H-M   'P 1'
_cell_length_a   6.38847596
_cell_length_b   8.32225215
_cell_length_c   12.13219356
_cell_angle_alpha   90.00000000
_cell_angle_beta   116.04575169
_cell_angle_gamma   90.00000000
_symmetry_Int_Tables_number   1
_chemical_formula_structural   K2TeO4
_chemical_formula_sum   'K8 Te4 O16'
_cell_volume   579.51988095
_cell_formula_units_Z   4
loop_
 _symmetry_equiv_pos_site_id
 _symmetry_equiv_pos_as_xyz
  1  'x, y, z'
loop_
 _atom_site_type_symbol
 _atom_site_label
 _atom_site_symmetry_multiplicity
 _atom_site_fract_x
 _atom_site_fract_y
 _atom_site_fract_z
 _atom_site_occupancy
  K  K0  1  0.219292  0.246947  0.908856  1
  K  K1  1  0.481107  0.503680  0.725658  1
  K  K2  1  0.219292  0.253053  0.408856  1
  K  K3  1  0.518893  0.003680  0.774342  1
  K  K4  1  0.481107  0.996320  0.225658  1
  K  K5  1  0.780708  0.746947  0.591144  1
  K  K6  1  0.518893  0.496320  0.274342  1
  K  K7  1  0.780708  0.753053  0.091144  1
  Te  Te8  1  0.134831  0.728573  0.930442  1
  Te  Te9  1  0.134831  0.771427  0.430442  1
  Te  Te10  1  0.865169  0.228573  0.569558  1
  Te  Te11  1  0.865169  0.271427  0.069558  1
  O  O12  1  0.270974  0.918504  0.917680  1
  O  O13  1  0.240202  0.565656  0.865124  1
  O  O14  1  0.221002  0.799384  0.596247  1
  O  O15  1  0.188483  0.241436  0.648479  1
  O  O16  1  0.270974  0.581496  0.417680  1
  O  O17  1  0.240202  0.934344  0.365124  1
  O  O18  1  0.811517  0.741436  0.851521  1
  O  O19  1  0.778998  0.299384  0.903753  1
  O  O20  1  0.221002  0.700616  0.096247  1
  O  O21  1  0.188483  0.258564  0.148479  1
  O  O22  1  0.759798  0.065656  0.634876  1
  O  O23  1  0.729026  0.418504  0.582320  1
  O  O24  1  0.811517  0.758564  0.351521  1
  O  O25  1  0.778998  0.200616  0.403753  1
  O  O26  1  0.759798  0.434344  0.134876  1
  O  O27  1  0.729026  0.081496  0.082320  1
