# generated using pymatgen
data_Li3V2(O2F)2
_symmetry_space_group_name_H-M   'P 1'
_cell_length_a   5.15235611
_cell_length_b   5.15235611
_cell_length_c   14.85375366
_cell_angle_alpha   89.65246662
_cell_angle_beta   90.34753338
_cell_angle_gamma   59.74824749
_symmetry_Int_Tables_number   1
_chemical_formula_structural   Li3V2(O2F)2
_chemical_formula_sum   'Li9 V6 O12 F6'
_cell_volume   340.59562184
_cell_formula_units_Z   3
loop_
 _symmetry_equiv_pos_site_id
 _symmetry_equiv_pos_as_xyz
  1  'x, y, z'
loop_
 _atom_site_type_symbol
 _atom_site_label
 _atom_site_symmetry_multiplicity
 _atom_site_fract_x
 _atom_site_fract_y
 _atom_site_fract_z
 _atom_site_occupancy
  Li  Li0  1  0.656989  0.656989  0.500000  1
  Li  Li1  1  0.666623  0.666623  0.000000  1
  Li  Li2  1  0.000000  1.000000  0.500000  1
  Li  Li3  1  0.996856  0.337562  0.359337  1
  Li  Li4  1  0.003144  0.662438  0.640663  1
  Li  Li5  1  0.333377  0.333377  0.000000  1
  Li  Li6  1  0.343011  0.343011  0.500000  1
  Li  Li7  1  0.337562  0.996856  0.640663  1
  Li  Li8  1  0.662438  0.003144  0.359337  1
  V  V9  1  0.333036  0.666964  0.831218  1
  V  V10  1  0.666964  0.333036  0.168782  1
  V  V11  1  0.996961  0.329865  0.832696  1
  V  V12  1  0.003039  0.670135  0.167304  1
  V  V13  1  0.329865  0.996961  0.167304  1
  V  V14  1  0.670135  0.003039  0.832696  1
  O  O15  1  0.354383  0.645617  0.093479  1
  O  O16  1  0.660528  0.674761  0.764987  1
  O  O17  1  0.674761  0.660528  0.235013  1
  O  O18  1  0.645617  0.354383  0.906521  1
  O  O19  1  0.020379  0.979621  0.763499  1
  O  O20  1  0.979621  0.020379  0.236501  1
  O  O21  1  0.994279  0.346741  0.094403  1
  O  O22  1  0.005721  0.653259  0.905597  1
  O  O23  1  0.339472  0.325239  0.235013  1
  O  O24  1  0.325239  0.339472  0.764987  1
  O  O25  1  0.346741  0.994279  0.905597  1
  O  O26  1  0.653259  0.005721  0.094403  1
  F  F27  1  0.312910  0.687090  0.576536  1
  F  F28  1  0.687090  0.312910  0.423464  1
  F  F29  1  0.025257  0.331337  0.579624  1
  F  F30  1  0.974743  0.668663  0.420376  1
  F  F31  1  0.331337  0.025257  0.420376  1
  F  F32  1  0.668663  0.974743  0.579624  1
