# generated using pymatgen
data_LiV2OF5
_symmetry_space_group_name_H-M   'P 1'
_cell_length_a   5.24785894
_cell_length_b   5.24785894
_cell_length_c   13.88358754
_cell_angle_alpha   90.00000000
_cell_angle_beta   90.00000000
_cell_angle_gamma   120.00000000
_symmetry_Int_Tables_number   1
_chemical_formula_structural   LiV2OF5
_chemical_formula_sum   'Li3 V6 O3 F15'
_cell_volume   331.12855937
_cell_formula_units_Z   3
loop_
 _symmetry_equiv_pos_site_id
 _symmetry_equiv_pos_as_xyz
  1  'x, y, z'
loop_
 _atom_site_type_symbol
 _atom_site_label
 _atom_site_symmetry_multiplicity
 _atom_site_fract_x
 _atom_site_fract_y
 _atom_site_fract_z
 _atom_site_occupancy
  Li  Li0  1  0.343063  0.342160  0.907538  1
  Li  Li1  1  0.999097  0.656937  0.240871  1
  Li  Li2  1  0.657840  0.000903  0.574205  1
  V  V3  1  0.308263  0.332960  0.170823  1
  V  V4  1  0.974781  0.666516  0.995789  1
  V  V5  1  0.333484  0.308265  0.662456  1
  V  V6  1  0.691735  0.025219  0.329123  1
  V  V7  1  0.024696  0.691737  0.504157  1
  V  V8  1  0.667040  0.975304  0.837490  1
  O  O9  1  0.999835  0.287388  0.250034  1
  O  O10  1  0.287553  0.000165  0.583368  1
  O  O11  1  0.712612  0.712447  0.916701  1
  F  F12  1  0.254103  0.612543  0.083502  1
  F  F13  1  0.387457  0.641559  0.750169  1
  F  F14  1  0.027389  0.366267  0.581959  1
  F  F15  1  0.633733  0.661122  0.248626  1
  F  F16  1  0.661055  0.634588  0.585033  1
  F  F17  1  0.647816  0.390847  0.086216  1
  F  F18  1  0.002596  0.058291  0.751107  1
  F  F19  1  0.743031  0.352184  0.419549  1
  F  F20  1  0.055696  0.997404  0.084440  1
  F  F21  1  0.609153  0.256969  0.752883  1
  F  F22  1  0.973533  0.338945  0.918366  1
  F  F23  1  0.365412  0.026467  0.251699  1
  F  F24  1  0.338878  0.972611  0.915292  1
  F  F25  1  0.358441  0.745897  0.416835  1
  F  F26  1  0.941709  0.944304  0.417774  1
