# generated using pymatgen
data_Li3FeS3
_symmetry_space_group_name_H-M   'P 1'
_cell_length_a   6.57553176
_cell_length_b   6.29988897
_cell_length_c   12.95271364
_cell_angle_alpha   90.00000000
_cell_angle_beta   117.91476086
_cell_angle_gamma   90.00000000
_symmetry_Int_Tables_number   1
_chemical_formula_structural   Li3FeS3
_chemical_formula_sum   'Li12 Fe4 S12'
_cell_volume   474.13540705
_cell_formula_units_Z   4
loop_
 _symmetry_equiv_pos_site_id
 _symmetry_equiv_pos_as_xyz
  1  'x, y, z'
loop_
 _atom_site_type_symbol
 _atom_site_label
 _atom_site_symmetry_multiplicity
 _atom_site_fract_x
 _atom_site_fract_y
 _atom_site_fract_z
 _atom_site_occupancy
  Li  Li0  1  0.039876  0.998969  0.886299  1
  Li  Li1  1  0.095770  0.504560  0.893624  1
  Li  Li2  1  0.530363  0.004664  0.287513  1
  Li  Li3  1  0.469637  0.504664  0.212487  1
  Li  Li4  1  0.904230  0.004560  0.606376  1
  Li  Li5  1  0.960124  0.498969  0.613701  1
  Li  Li6  1  0.039876  0.501031  0.386299  1
  Li  Li7  1  0.095770  0.995440  0.393624  1
  Li  Li8  1  0.530363  0.495336  0.787513  1
  Li  Li9  1  0.469637  0.995336  0.712487  1
  Li  Li10  1  0.904230  0.495440  0.106376  1
  Li  Li11  1  0.960124  0.001031  0.113701  1
  Fe  Fe12  1  0.503972  0.365009  0.425478  1
  Fe  Fe13  1  0.496028  0.865009  0.074522  1
  Fe  Fe14  1  0.503972  0.134991  0.925478  1
  Fe  Fe15  1  0.496028  0.634991  0.574522  1
  S  S16  1  0.810270  0.747237  0.730394  1
  S  S17  1  0.505111  0.717825  0.409810  1
  S  S18  1  0.174436  0.740843  0.065910  1
  S  S19  1  0.825564  0.240843  0.434090  1
  S  S20  1  0.189730  0.247237  0.769606  1
  S  S21  1  0.494889  0.217825  0.090190  1
  S  S22  1  0.505111  0.782175  0.909810  1
  S  S23  1  0.810270  0.752763  0.230394  1
  S  S24  1  0.174436  0.759157  0.565910  1
  S  S25  1  0.825564  0.259157  0.934090  1
  S  S26  1  0.494889  0.282175  0.590190  1
  S  S27  1  0.189730  0.252763  0.269606  1
