# generated using pymatgen
data_LiMnPO4F
_symmetry_space_group_name_H-M   'P 1'
_cell_length_a   5.11096059
_cell_length_b   12.87747760
_cell_length_c   13.04451310
_cell_angle_alpha   119.22336222
_cell_angle_beta   89.95851776
_cell_angle_gamma   90.34874175
_symmetry_Int_Tables_number   1
_chemical_formula_structural   LiMnPO4F
_chemical_formula_sum   'Li8 Mn8 P8 O32 F8'
_cell_volume   749.25247348
_cell_formula_units_Z   8
loop_
 _symmetry_equiv_pos_site_id
 _symmetry_equiv_pos_as_xyz
  1  'x, y, z'
loop_
 _atom_site_type_symbol
 _atom_site_label
 _atom_site_symmetry_multiplicity
 _atom_site_fract_x
 _atom_site_fract_y
 _atom_site_fract_z
 _atom_site_occupancy
  Li  Li0  1  0.792237  0.329393  0.171151  1
  Li  Li1  1  0.724583  0.826770  0.668276  1
  Li  Li2  1  0.251353  0.928000  0.844113  1
  Li  Li3  1  0.737779  0.820881  0.414394  1
  Li  Li4  1  0.244763  0.661259  0.081132  1
  Li  Li5  1  0.742518  0.835378  0.163597  1
  Li  Li6  1  0.262427  0.183377  0.589721  1
  Li  Li7  1  0.756415  0.569234  0.676817  1
  Mn  Mn8  1  0.282121  0.182716  0.119043  1
  Mn  Mn9  1  0.228123  0.675133  0.604564  1
  Mn  Mn10  1  0.788143  0.602768  0.179430  1
  Mn  Mn11  1  0.289876  0.898640  0.322192  1
  Mn  Mn12  1  0.697599  0.118840  0.687903  1
  Mn  Mn13  1  0.209719  0.388394  0.818300  1
  Mn  Mn14  1  0.786836  0.319102  0.386536  1
  Mn  Mn15  1  0.716877  0.821403  0.895768  1
  P  P16  1  0.733156  0.585450  0.423562  1
  P  P17  1  0.278897  0.416799  0.079311  1
  P  P18  1  0.764249  0.083145  0.925500  1
  P  P19  1  0.228103  0.917178  0.577510  1
  P  P20  1  0.776926  0.083417  0.425482  1
  P  P21  1  0.230359  0.913906  0.077314  1
  P  P22  1  0.725835  0.580369  0.924069  1
  P  P23  1  0.263614  0.418592  0.574685  1
  O  O24  1  0.618098  0.169067  0.039740  1
  O  O25  1  0.175687  0.330613  0.121439  1
  O  O26  1  0.847150  0.458709  0.362991  1
  O  O27  1  0.444716  0.591211  0.453690  1
  O  O28  1  0.882166  0.669335  0.542120  1
  O  O29  1  0.572119  0.444291  0.108918  1
  O  O30  1  0.131647  0.538227  0.149196  1
  O  O31  1  0.788801  0.643607  0.345329  1
  O  O32  1  0.320947  0.836886  0.630109  1
  O  O33  1  0.630631  0.955156  0.868742  1
  O  O34  1  0.052655  0.070727  0.949909  1
  O  O35  1  0.339578  0.860175  0.449973  1
  O  O36  1  0.926428  0.926375  0.580271  1
  O  O37  1  0.846064  0.648837  0.051919  1
  O  O38  1  0.358269  0.039032  0.653986  1
  O  O39  1  0.725345  0.125665  0.836220  1
  O  O40  1  0.326786  0.858044  0.154422  1
  O  O41  1  0.640565  0.960083  0.342056  1
  O  O42  1  0.206913  0.360430  0.949124  1
  O  O43  1  0.069503  0.056792  0.430057  1
  O  O44  1  0.644586  0.132743  0.547281  1
  O  O45  1  0.931948  0.894728  0.059635  1
  O  O46  1  0.326360  0.042759  0.136526  1
  O  O47  1  0.717378  0.166448  0.376820  1
  O  O48  1  0.211372  0.368019  0.658717  1
  O  O49  1  0.872982  0.464828  0.849636  1
  O  O50  1  0.433403  0.558041  0.932442  1
  O  O51  1  0.123006  0.335057  0.458767  1
  O  O52  1  0.557310  0.428254  0.555162  1
  O  O53  1  0.133274  0.545375  0.632454  1
  O  O54  1  0.771969  0.659392  0.865199  1
  O  O55  1  0.362822  0.838181  0.955524  1
  F  F56  1  0.511624  0.287815  0.275206  1
  F  F57  1  0.997413  0.800141  0.780404  1
  F  F58  1  0.504052  0.713380  0.219669  1
  F  F59  1  0.988746  0.797111  0.271883  1
  F  F60  1  0.006041  0.207594  0.713564  1
  F  F61  1  0.494025  0.282161  0.760419  1
  F  F62  1  0.985251  0.218583  0.215681  1
  F  F63  1  0.524942  0.710456  0.711448  1
