# generated using pymatgen
data_Fe6O7F5
_symmetry_space_group_name_H-M   'P 1'
_cell_length_a   4.69503709
_cell_length_b   5.61679051
_cell_length_c   7.77444666
_cell_angle_alpha   85.08255385
_cell_angle_beta   88.08746928
_cell_angle_gamma   87.68478879
_symmetry_Int_Tables_number   1
_chemical_formula_structural   Fe6O7F5
_chemical_formula_sum   'Fe6 O7 F5'
_cell_volume   204.00672397
_cell_formula_units_Z   1
loop_
 _symmetry_equiv_pos_site_id
 _symmetry_equiv_pos_as_xyz
  1  'x, y, z'
loop_
 _atom_site_type_symbol
 _atom_site_label
 _atom_site_symmetry_multiplicity
 _atom_site_fract_x
 _atom_site_fract_y
 _atom_site_fract_z
 _atom_site_occupancy
  Fe  Fe0  1  0.515011  0.828429  0.651133  1
  Fe  Fe1  1  0.511685  0.487849  0.001426  1
  Fe  Fe2  1  0.495617  0.170400  0.340148  1
  Fe  Fe3  1  0.022548  0.341783  0.685256  1
  Fe  Fe4  1  0.977838  0.657132  0.311126  1
  Fe  Fe5  1  0.981766  0.011493  0.007675  1
  O  O6  1  0.807518  0.707900  0.092098  1
  O  O7  1  0.697290  0.201525  0.121512  1
  O  O8  1  0.689874  0.537183  0.762655  1
  O  O9  1  0.698038  0.877127  0.425025  1
  O  O10  1  0.309260  0.136446  0.561968  1
  O  O11  1  0.304194  0.453714  0.241168  1
  O  O12  1  0.190635  0.288312  0.905800  1
  F  F13  1  0.809391  0.373054  0.444529  1
  F  F14  1  0.801129  0.035094  0.768638  1
  F  F15  1  0.295388  0.800367  0.891533  1
  F  F16  1  0.204514  0.952692  0.228036  1
  F  F17  1  0.188305  0.639499  0.560271  1
