# generated using pymatgen
data_Li3MnV(PO4)3
_symmetry_space_group_name_H-M   'P 1'
_cell_length_a   8.50646408
_cell_length_b   8.50604923
_cell_length_c   8.71118741
_cell_angle_alpha   62.41859437
_cell_angle_beta   61.85115345
_cell_angle_gamma   62.97813102
_symmetry_Int_Tables_number   1
_chemical_formula_structural   Li3MnV(PO4)3
_chemical_formula_sum   'Li6 Mn2 V2 P6 O24'
_cell_volume   469.62351278
_cell_formula_units_Z   2
loop_
 _symmetry_equiv_pos_site_id
 _symmetry_equiv_pos_as_xyz
  1  'x, y, z'
loop_
 _atom_site_type_symbol
 _atom_site_label
 _atom_site_symmetry_multiplicity
 _atom_site_fract_x
 _atom_site_fract_y
 _atom_site_fract_z
 _atom_site_occupancy
  Li  Li0  1  0.241253  0.136571  0.847562  1
  Li  Li1  1  0.000000  0.500000  0.000000  1
  Li  Li2  1  0.128305  0.272081  0.343833  1
  Li  Li3  1  0.871695  0.727919  0.656167  1
  Li  Li4  1  0.500000  0.000000  0.500000  1
  Li  Li5  1  0.758747  0.863429  0.152438  1
  Mn  Mn6  1  0.852990  0.359530  0.855543  1
  Mn  Mn7  1  0.147010  0.640470  0.144457  1
  V  V8  1  0.639758  0.146546  0.650612  1
  V  V9  1  0.360242  0.853454  0.349388  1
  P  P10  1  0.557110  0.752967  0.959842  1
  P  P11  1  0.948276  0.050669  0.252948  1
  P  P12  1  0.255861  0.445705  0.536080  1
  P  P13  1  0.744139  0.554295  0.463920  1
  P  P14  1  0.051724  0.949331  0.747052  1
  P  P15  1  0.442890  0.247033  0.040158  1
  O  O16  1  0.472357  0.175978  0.888832  1
  O  O17  1  0.045598  0.105901  0.792934  1
  O  O18  1  0.602885  0.313779  0.987075  1
  O  O19  1  0.765591  0.074080  0.423252  1
  O  O20  1  0.754959  0.615745  0.923928  1
  O  O21  1  0.411692  0.254900  0.578244  1
  O  O22  1  0.101374  0.460216  0.721051  1
  O  O23  1  0.121310  0.995925  0.310279  1
  O  O24  1  0.045407  0.767897  0.908509  1
  O  O25  1  0.673005  0.382783  0.544705  1
  O  O26  1  0.440552  0.082372  0.230895  1
  O  O27  1  0.804638  0.558530  0.600528  1
  O  O28  1  0.195362  0.441470  0.399472  1
  O  O29  1  0.559448  0.917628  0.769105  1
  O  O30  1  0.326995  0.617217  0.455295  1
  O  O31  1  0.954593  0.232103  0.091491  1
  O  O32  1  0.878690  0.004075  0.689721  1
  O  O33  1  0.898626  0.539784  0.278949  1
  O  O34  1  0.588308  0.745100  0.421756  1
  O  O35  1  0.245041  0.384255  0.076072  1
  O  O36  1  0.234409  0.925920  0.576748  1
  O  O37  1  0.397115  0.686221  0.012925  1
  O  O38  1  0.954402  0.894099  0.207066  1
  O  O39  1  0.527643  0.824022  0.111168  1
