# generated using pymatgen
data_Li3Cu4TeO8
_symmetry_space_group_name_H-M   'P 1'
_cell_length_a   5.93109726
_cell_length_b   5.93109726
_cell_length_c   6.57899100
_cell_angle_alpha   58.95130023
_cell_angle_beta   121.04869977
_cell_angle_gamma   113.78564830
_symmetry_Int_Tables_number   1
_chemical_formula_structural   Li3Cu4TeO8
_chemical_formula_sum   'Li3 Cu4 Te1 O8'
_cell_volume   166.87140343
_cell_formula_units_Z   1
loop_
 _symmetry_equiv_pos_site_id
 _symmetry_equiv_pos_as_xyz
  1  'x, y, z'
loop_
 _atom_site_type_symbol
 _atom_site_label
 _atom_site_symmetry_multiplicity
 _atom_site_fract_x
 _atom_site_fract_y
 _atom_site_fract_z
 _atom_site_occupancy
  Li  Li0  1  0.000000  0.500000  0.500000  1
  Li  Li1  1  0.500000  0.000000  0.500000  1
  Li  Li2  1  0.000000  0.000000  0.000000  1
  Cu  Cu3  1  1.000000  0.000000  0.500000  1
  Cu  Cu4  1  0.500000  0.000000  0.000000  1
  Cu  Cu5  1  0.000000  0.500000  0.000000  1
  Cu  Cu6  1  0.500000  0.500000  0.000000  1
  Te  Te7  1  0.500000  0.500000  0.500000  1
  O  O8  1  0.747459  0.252541  0.701668  1
  O  O9  1  0.278911  0.285871  0.283737  1
  O  O10  1  0.714129  0.721089  0.283737  1
  O  O11  1  0.252541  0.747459  0.298332  1
  O  O12  1  0.251137  0.748863  0.808377  1
  O  O13  1  0.721089  0.714129  0.716263  1
  O  O14  1  0.285871  0.278911  0.716263  1
  O  O15  1  0.748863  0.251137  0.191623  1
