# generated using pymatgen
data_Li2Sn(BO3)2
_symmetry_space_group_name_H-M   'P 1'
_cell_length_a   5.26268073
_cell_length_b   8.94113361
_cell_length_c   10.28822550
_cell_angle_alpha   89.67190145
_cell_angle_beta   87.32549856
_cell_angle_gamma   89.18161170
_symmetry_Int_Tables_number   1
_chemical_formula_structural   Li2Sn(BO3)2
_chemical_formula_sum   'Li8 Sn4 B8 O24'
_cell_volume   483.52272312
_cell_formula_units_Z   4
loop_
 _symmetry_equiv_pos_site_id
 _symmetry_equiv_pos_as_xyz
  1  'x, y, z'
loop_
 _atom_site_type_symbol
 _atom_site_label
 _atom_site_symmetry_multiplicity
 _atom_site_fract_x
 _atom_site_fract_y
 _atom_site_fract_z
 _atom_site_occupancy
  Li  Li0  1  0.316406  0.520007  0.582231  1
  Li  Li1  1  0.366929  0.539978  0.179154  1
  Li  Li2  1  0.627769  0.454794  0.834753  1
  Li  Li3  1  0.687920  0.472022  0.391764  1
  Li  Li4  1  0.666274  0.137807  0.893080  1
  Li  Li5  1  0.875759  0.957510  0.099725  1
  Li  Li6  1  0.810181  0.646803  0.617382  1
  Li  Li7  1  0.859750  0.966584  0.678235  1
  Sn  Sn8  1  0.124073  0.703748  0.875772  1
  Sn  Sn9  1  0.361264  0.187785  0.631020  1
  Sn  Sn10  1  0.621411  0.815728  0.370878  1
  Sn  Sn11  1  0.880348  0.297816  0.127139  1
  B  B12  1  0.167190  0.694939  0.390945  1
  B  B13  1  0.155933  0.351367  0.866056  1
  B  B14  1  0.333054  0.198120  0.106903  1
  B  B15  1  0.333440  0.843834  0.631218  1
  B  B16  1  0.654077  0.155514  0.369097  1
  B  B17  1  0.659943  0.799002  0.873563  1
  B  B18  1  0.850845  0.649772  0.134217  1
  B  B19  1  0.830636  0.317242  0.626798  1
  O  O20  1  0.089905  0.665061  0.073810  1
  O  O21  1  0.085264  0.347936  0.607780  1
  O  O22  1  0.124708  0.107671  0.099805  1
  O  O23  1  0.215027  0.980536  0.649934  1
  O  O24  1  0.188997  0.717054  0.665494  1
  O  O25  1  0.267189  0.347293  0.135858  1
  O  O26  1  0.236302  0.841254  0.369520  1
  O  O27  1  0.318163  0.231555  0.827885  1
  O  O28  1  0.264618  0.491130  0.850095  1
  O  O29  1  0.364860  0.589727  0.391235  1
  O  O30  1  0.430396  0.175434  0.440932  1
  O  O31  1  0.415044  0.843388  0.889860  1
  O  O32  1  0.585390  0.155919  0.080240  1
  O  O33  1  0.587929  0.829827  0.584299  1
  O  O34  1  0.650235  0.428924  0.614632  1
  O  O35  1  0.736523  0.513035  0.154931  1
  O  O36  1  0.716046  0.776255  0.176498  1
  O  O37  1  0.749389  0.172462  0.664143  1
  O  O38  1  0.745644  0.654003  0.838707  1
  O  O39  1  0.777964  0.281853  0.321002  1
  O  O40  1  0.759874  0.018077  0.336269  1
  O  O41  1  0.856874  0.899818  0.885832  1
  O  O42  1  0.909887  0.658408  0.415072  1
  O  O43  1  0.907572  0.330806  0.916238  1
