# generated using pymatgen
data_Li5Fe3Cu2(PO4)6
_symmetry_space_group_name_H-M   'P 1'
_cell_length_a   8.32605110
_cell_length_b   8.52001381
_cell_length_c   8.75337347
_cell_angle_alpha   61.59745486
_cell_angle_beta   62.17418250
_cell_angle_gamma   62.56330126
_symmetry_Int_Tables_number   1
_chemical_formula_structural   Li5Fe3Cu2(PO4)6
_chemical_formula_sum   'Li5 Fe3 Cu2 P6 O24'
_cell_volume   459.73587085
_cell_formula_units_Z   1
loop_
 _symmetry_equiv_pos_site_id
 _symmetry_equiv_pos_as_xyz
  1  'x, y, z'
loop_
 _atom_site_type_symbol
 _atom_site_label
 _atom_site_symmetry_multiplicity
 _atom_site_fract_x
 _atom_site_fract_y
 _atom_site_fract_z
 _atom_site_occupancy
  Li  Li0  1  0.752473  0.142502  0.353802  1
  Li  Li1  1  0.200471  0.853627  0.673519  1
  Li  Li2  1  0.661108  0.191622  0.853915  1
  Li  Li3  1  0.854448  0.664101  0.186820  1
  Li  Li4  1  0.847324  0.841819  0.840256  1
  Fe  Fe5  1  0.147926  0.142637  0.142302  1
  Fe  Fe6  1  0.353016  0.360308  0.352334  1
  Fe  Fe7  1  0.648774  0.648519  0.656643  1
  Cu  Cu8  1  0.002710  0.000255  0.993688  1
  Cu  Cu9  1  0.492070  0.502264  0.503742  1
  P  P10  1  0.753825  0.449025  0.050264  1
  P  P11  1  0.063624  0.748799  0.458899  1
  P  P12  1  0.442607  0.051587  0.756332  1
  P  P13  1  0.253937  0.545971  0.960227  1
  P  P14  1  0.555198  0.961802  0.256272  1
  P  P15  1  0.941454  0.253842  0.533590  1
  O  O16  1  0.103321  0.334023  0.463837  1
  O  O17  1  0.334819  0.494077  0.108229  1
  O  O18  1  0.061586  0.909170  0.271078  1
  O  O19  1  0.528263  0.104465  0.331890  1
  O  O20  1  0.042593  0.808436  0.605601  1
  O  O21  1  0.261722  0.589067  0.429093  1
  O  O22  1  0.242080  0.063024  0.911224  1
  O  O23  1  0.432353  0.241193  0.590822  1
  O  O24  1  0.187155  0.386044  0.999414  1
  O  O25  1  0.600521  0.417292  0.245265  1
  O  O26  1  0.092172  0.737723  0.953135  1
  O  O27  1  0.387162  0.018765  0.192602  1
  O  O28  1  0.593409  0.021841  0.826444  1
  O  O29  1  0.904610  0.244424  0.072928  1
  O  O30  1  0.402389  0.576895  0.762052  1
  O  O31  1  0.820363  0.600814  0.022062  1
  O  O32  1  0.574601  0.759681  0.403035  1
  O  O33  1  0.746948  0.950894  0.092660  1
  O  O34  1  0.737142  0.408313  0.570734  1
  O  O35  1  0.956063  0.194716  0.384931  1
  O  O36  1  0.485916  0.890892  0.692907  1
  O  O37  1  0.944120  0.098063  0.720350  1
  O  O38  1  0.692528  0.489499  0.890600  1
  O  O39  1  0.897202  0.679009  0.509503  1
