# generated using pymatgen
data_Zr4N2O5
_symmetry_space_group_name_H-M   'P 1'
_cell_length_a   8.90776247
_cell_length_b   8.90776247
_cell_length_c   8.90776247
_cell_angle_alpha   109.15423500
_cell_angle_beta   109.15423500
_cell_angle_gamma   110.10706914
_symmetry_Int_Tables_number   1
_chemical_formula_structural   Zr4N2O5
_chemical_formula_sum   'Zr16 N8 O20'
_cell_volume   544.05627569
_cell_formula_units_Z   4
loop_
 _symmetry_equiv_pos_site_id
 _symmetry_equiv_pos_as_xyz
  1  'x, y, z'
loop_
 _atom_site_type_symbol
 _atom_site_label
 _atom_site_symmetry_multiplicity
 _atom_site_fract_x
 _atom_site_fract_y
 _atom_site_fract_z
 _atom_site_occupancy
  Zr  Zr0  1  0.216774  0.491477  0.213833  1
  Zr  Zr1  1  0.998574  0.998574  0.000000  1
  Zr  Zr2  1  0.463475  0.963475  0.500000  1
  Zr  Zr3  1  0.498574  0.498574  0.000000  1
  Zr  Zr4  1  0.777644  0.991477  0.274703  1
  Zr  Zr5  1  0.203107  0.703107  0.956783  1
  Zr  Zr6  1  0.703107  0.746323  0.500000  1
  Zr  Zr7  1  0.491477  0.277644  0.274703  1
  Zr  Zr8  1  0.991477  0.716774  0.213833  1
  Zr  Zr9  1  0.002941  0.216774  0.725297  1
  Zr  Zr10  1  0.502941  0.777644  0.786167  1
  Zr  Zr11  1  0.746323  0.246323  0.043217  1
  Zr  Zr12  1  0.246323  0.203107  0.500000  1
  Zr  Zr13  1  0.716774  0.502941  0.725297  1
  Zr  Zr14  1  0.963475  0.463475  0.500000  1
  Zr  Zr15  1  0.277644  0.002941  0.786167  1
  N  N16  1  0.249121  0.749121  0.226989  1
  N  N17  1  0.217518  0.717518  0.720388  1
  N  N18  1  0.717518  0.997129  0.500000  1
  N  N19  1  0.022132  0.249121  0.500000  1
  N  N20  1  0.749121  0.522132  0.500000  1
  N  N21  1  0.997129  0.497129  0.279611  1
  N  N22  1  0.497129  0.217518  0.500000  1
  N  N23  1  0.522132  0.022132  0.773011  1
  O  O24  1  0.007642  0.975036  0.240424  1
  O  O25  1  0.265780  0.999486  0.032357  1
  O  O26  1  0.499486  0.765780  0.032357  1
  O  O27  1  0.196399  0.941238  0.500000  1
  O  O28  1  0.475036  0.507642  0.240424  1
  O  O29  1  0.441238  0.696399  0.500000  1
  O  O30  1  0.233422  0.265780  0.266293  1
  O  O31  1  0.507642  0.267218  0.032606  1
  O  O32  1  0.765780  0.733422  0.266293  1
  O  O33  1  0.467129  0.499486  0.733707  1
  O  O34  1  0.234612  0.475036  0.967394  1
  O  O35  1  0.734612  0.767218  0.759576  1
  O  O36  1  0.999486  0.967129  0.733707  1
  O  O37  1  0.696399  0.196399  0.255161  1
  O  O38  1  0.267218  0.234612  0.759576  1
  O  O39  1  0.767218  0.007642  0.032606  1
  O  O40  1  0.975036  0.734612  0.967394  1
  O  O41  1  0.941238  0.441238  0.744839  1
  O  O42  1  0.733422  0.467129  0.967643  1
  O  O43  1  0.967129  0.233422  0.967643  1
