# generated using pymatgen
data_Li3Mn2Fe(BO3)3
_symmetry_space_group_name_H-M   'P 1'
_cell_length_a   8.84940985
_cell_length_b   8.84940985
_cell_length_c   8.27254368
_cell_angle_alpha   62.11801662
_cell_angle_beta   117.88198338
_cell_angle_gamma   137.96134336
_symmetry_Int_Tables_number   1
_chemical_formula_structural   Li3Mn2Fe(BO3)3
_chemical_formula_sum   'Li6 Mn4 Fe2 B6 O18'
_cell_volume   375.44638182
_cell_formula_units_Z   2
loop_
 _symmetry_equiv_pos_site_id
 _symmetry_equiv_pos_as_xyz
  1  'x, y, z'
loop_
 _atom_site_type_symbol
 _atom_site_label
 _atom_site_symmetry_multiplicity
 _atom_site_fract_x
 _atom_site_fract_y
 _atom_site_fract_z
 _atom_site_occupancy
  Li  Li0  1  0.740849  0.759115  0.283500  1
  Li  Li1  1  0.240885  0.259151  0.283500  1
  Li  Li2  1  0.899681  0.598527  0.016900  1
  Li  Li3  1  0.401473  0.100319  0.016900  1
  Li  Li4  1  0.607972  0.891963  0.698436  1
  Li  Li5  1  0.108037  0.392028  0.698436  1
  Mn  Mn6  1  0.179861  0.820139  0.371968  1
  Mn  Mn7  1  0.679882  0.320118  0.371823  1
  Mn  Mn8  1  0.006369  0.993631  0.640844  1
  Mn  Mn9  1  0.314200  0.685800  0.987744  1
  Fe  Fe10  1  0.504040  0.495960  0.640518  1
  Fe  Fe11  1  0.815873  0.184127  0.991742  1
  B  B12  1  0.084077  0.416315  0.333547  1
  B  B13  1  0.583685  0.915923  0.333547  1
  B  B14  1  0.914161  0.581124  0.667920  1
  B  B15  1  0.418876  0.085839  0.667920  1
  B  B16  1  0.998874  0.001126  0.998104  1
  B  B17  1  0.500951  0.499049  0.999437  1
  O  O18  1  0.460754  0.539246  0.112642  1
  O  O19  1  0.958035  0.041965  0.111121  1
  O  O20  1  0.544626  0.962713  0.139634  1
  O  O21  1  0.037287  0.455374  0.139634  1
  O  O22  1  0.095825  0.904175  0.078844  1
  O  O23  1  0.597655  0.402345  0.079156  1
  O  O24  1  0.185033  0.323477  0.441815  1
  O  O25  1  0.676523  0.814967  0.441815  1
  O  O26  1  0.529742  0.970098  0.418875  1
  O  O27  1  0.029902  0.470258  0.418875  1
  O  O28  1  0.875701  0.624608  0.473822  1
  O  O29  1  0.375392  0.124299  0.473822  1
  O  O30  1  0.444314  0.555686  0.804860  1
  O  O31  1  0.941857  0.058143  0.804854  1
  O  O32  1  0.011420  0.484210  0.780055  1
  O  O33  1  0.515790  0.988580  0.780055  1
  O  O34  1  0.857276  0.636876  0.748667  1
  O  O35  1  0.363124  0.142724  0.748667  1
