# generated using pymatgen
data_Mn2OF3
_symmetry_space_group_name_H-M   'P 1'
_cell_length_a   7.39209167
_cell_length_b   7.39209167
_cell_length_c   7.11907686
_cell_angle_alpha   90.00000000
_cell_angle_beta   90.00000000
_cell_angle_gamma   128.75293701
_symmetry_Int_Tables_number   1
_chemical_formula_structural   Mn2OF3
_chemical_formula_sum   'Mn8 O4 F12'
_cell_volume   303.36870692
_cell_formula_units_Z   4
loop_
 _symmetry_equiv_pos_site_id
 _symmetry_equiv_pos_as_xyz
  1  'x, y, z'
loop_
 _atom_site_type_symbol
 _atom_site_label
 _atom_site_symmetry_multiplicity
 _atom_site_fract_x
 _atom_site_fract_y
 _atom_site_fract_z
 _atom_site_occupancy
  Mn  Mn0  1  0.764571  0.764571  1.000000  1
  Mn  Mn1  1  0.235429  0.235429  1.000000  1
  Mn  Mn2  1  0.757507  0.242493  1.000000  1
  Mn  Mn3  1  0.500000  0.500000  0.500000  1
  Mn  Mn4  1  0.242493  0.757507  1.000000  1
  Mn  Mn5  1  0.000000  0.000000  0.500000  1
  Mn  Mn6  1  0.000000  0.500000  0.500000  1
  Mn  Mn7  1  0.500000  0.000000  0.500000  1
  O  O8  1  0.907406  0.092594  1.000000  1
  O  O9  1  0.092594  0.907406  0.000000  1
  O  O10  1  0.345611  0.654389  0.500000  1
  O  O11  1  0.654389  0.345611  0.500000  1
  F  F12  1  0.404852  0.595148  0.000000  1
  F  F13  1  0.743712  0.743712  0.694601  1
  F  F14  1  0.256288  0.256288  0.694601  1
  F  F15  1  0.500000  0.000000  0.803128  1
  F  F16  1  0.743712  0.743712  0.305399  1
  F  F17  1  0.256288  0.256288  0.305399  1
  F  F18  1  0.000000  0.500000  0.803128  1
  F  F19  1  0.847193  0.152807  0.500000  1
  F  F20  1  0.595148  0.404852  1.000000  1
  F  F21  1  0.152807  0.847193  0.500000  1
  F  F22  1  0.500000  0.000000  0.196872  1
  F  F23  1  0.000000  0.500000  0.196872  1
