# generated using pymatgen
data_Li3Cr5O10
_symmetry_space_group_name_H-M   'P 1'
_cell_length_a   5.13014863
_cell_length_b   5.96981463
_cell_length_c   6.64090514
_cell_angle_alpha   103.58929940
_cell_angle_beta   97.60112121
_cell_angle_gamma   106.68062740
_symmetry_Int_Tables_number   1
_chemical_formula_structural   Li3Cr5O10
_chemical_formula_sum   'Li3 Cr5 O10'
_cell_volume   184.96425009
_cell_formula_units_Z   1
loop_
 _symmetry_equiv_pos_site_id
 _symmetry_equiv_pos_as_xyz
  1  'x, y, z'
loop_
 _atom_site_type_symbol
 _atom_site_label
 _atom_site_symmetry_multiplicity
 _atom_site_fract_x
 _atom_site_fract_y
 _atom_site_fract_z
 _atom_site_occupancy
  Li  Li0  1  0.203220  0.901488  0.901801  1
  Li  Li1  1  0.796780  0.098512  0.098199  1
  Li  Li2  1  0.000000  0.500000  0.500000  1
  Cr  Cr3  1  0.398765  0.796353  0.306094  1
  Cr  Cr4  1  0.000000  0.000000  0.500000  1
  Cr  Cr5  1  0.202741  0.401163  0.903864  1
  Cr  Cr6  1  0.601235  0.203647  0.693906  1
  Cr  Cr7  1  0.797259  0.598837  0.096136  1
  O  O8  1  0.290309  0.872789  0.587599  1
  O  O9  1  0.491682  0.729800  0.021348  1
  O  O10  1  0.088810  0.923446  0.211390  1
  O  O11  1  0.278747  0.317071  0.616492  1
  O  O12  1  0.709691  0.127211  0.412401  1
  O  O13  1  0.508318  0.270200  0.978652  1
  O  O14  1  0.911190  0.076554  0.788610  1
  O  O15  1  0.094874  0.471208  0.185532  1
  O  O16  1  0.721253  0.682929  0.383508  1
  O  O17  1  0.905126  0.528792  0.814468  1
