# generated using pymatgen
data_Li24Ti5Cr7O36
_symmetry_space_group_name_H-M   'P 1'
_cell_length_a   5.05217313
_cell_length_b   9.78099574
_cell_length_c   13.41169239
_cell_angle_alpha   80.94222258
_cell_angle_beta   79.18032843
_cell_angle_gamma   85.34030586
_symmetry_Int_Tables_number   1
_chemical_formula_structural   Li24Ti5Cr7O36
_chemical_formula_sum   'Li24 Ti5 Cr7 O36'
_cell_volume   641.93024624
_cell_formula_units_Z   1
loop_
 _symmetry_equiv_pos_site_id
 _symmetry_equiv_pos_as_xyz
  1  'x, y, z'
loop_
 _atom_site_type_symbol
 _atom_site_label
 _atom_site_symmetry_multiplicity
 _atom_site_fract_x
 _atom_site_fract_y
 _atom_site_fract_z
 _atom_site_occupancy
  Li  Li0  1  0.664803  0.000935  0.167234  1
  Li  Li1  1  0.566200  0.001905  0.385836  1
  Li  Li2  1  0.247237  0.749191  0.750794  1
  Li  Li3  1  0.585081  0.750521  0.082913  1
  Li  Li4  1  0.065346  0.498813  0.888063  1
  Li  Li5  1  0.406551  0.500511  0.221219  1
  Li  Li6  1  0.166032  0.500516  0.667497  1
  Li  Li7  1  0.500460  0.501194  0.000329  1
  Li  Li8  1  0.267435  0.502772  0.444216  1
  Li  Li9  1  0.083831  0.250256  0.583540  1
  Li  Li10  1  0.990816  0.996967  0.500015  1
  Li  Li11  1  0.771562  0.998358  0.948871  1
  Li  Li12  1  0.104406  0.996767  0.281889  1
  Li  Li13  1  0.898047  0.998005  0.719242  1
  Li  Li14  1  0.226102  0.001942  0.050913  1
  Li  Li15  1  0.918065  0.749999  0.417502  1
  Li  Li16  1  0.738009  0.498549  0.555817  1
  Li  Li17  1  0.823579  0.498819  0.334295  1
  Li  Li18  1  0.598796  0.501291  0.777222  1
  Li  Li19  1  0.931259  0.498612  0.112298  1
  Li  Li20  1  0.416374  0.250396  0.915464  1
  Li  Li21  1  0.342376  0.001823  0.832771  1
  Li  Li22  1  0.747913  0.249962  0.250099  1
  Li  Li23  1  0.434576  0.001782  0.612613  1
  Ti  Ti24  1  0.356080  0.757585  0.526171  1
  Ti  Ti25  1  0.974973  0.247270  0.806760  1
  Ti  Ti26  1  0.197243  0.246862  0.361683  1
  Ti  Ti27  1  0.300074  0.254789  0.138822  1
  Ti  Ti28  1  0.035709  0.744869  0.191682  1
  Cr  Cr29  1  0.856781  0.249056  0.026836  1
  Cr  Cr30  1  0.478758  0.750785  0.305823  1
  Cr  Cr31  1  0.695911  0.747121  0.864815  1
  Cr  Cr32  1  0.796167  0.748295  0.641942  1
  Cr  Cr33  1  0.526442  0.253058  0.692638  1
  Cr  Cr34  1  0.642989  0.249007  0.474660  1
  Cr  Cr35  1  0.140587  0.751851  0.967971  1
  O  O36  1  0.932450  0.861696  0.068741  1
  O  O37  1  0.718266  0.633199  0.213280  1
  O  O38  1  0.424320  0.362031  0.575970  1
  O  O39  1  0.500856  0.361911  0.359417  1
  O  O40  1  0.615093  0.366533  0.119228  1
  O  O41  1  0.255845  0.865549  0.405288  1
  O  O42  1  0.224816  0.134434  0.713639  1
  O  O43  1  0.335275  0.138723  0.478636  1
  O  O44  1  0.556540  0.135422  0.046708  1
  O  O45  1  0.008169  0.862391  0.858375  1
  O  O46  1  0.115035  0.864161  0.620798  1
  O  O47  1  0.337322  0.861932  0.190521  1
  O  O48  1  0.403354  0.136255  0.261964  1
  O  O49  1  0.825492  0.637841  0.974515  1
  O  O50  1  0.044753  0.635522  0.550957  1
  O  O51  1  0.170959  0.638342  0.310563  1
  O  O52  1  0.901582  0.637008  0.766227  1
  O  O53  1  0.240758  0.636981  0.092511  1
  O  O54  1  0.760833  0.361278  0.907809  1
  O  O55  1  0.094603  0.365153  0.237867  1
  O  O56  1  0.830810  0.361142  0.689262  1
  O  O57  1  0.942132  0.365365  0.453399  1
  O  O58  1  0.163113  0.362055  0.021529  1
  O  O59  1  0.599536  0.859595  0.736832  1
  O  O60  1  0.665584  0.137527  0.807776  1
  O  O61  1  0.883323  0.133742  0.380929  1
  O  O62  1  0.996292  0.138429  0.141560  1
  O  O63  1  0.462219  0.865107  0.947444  1
  O  O64  1  0.664563  0.864027  0.522895  1
  O  O65  1  0.777705  0.864613  0.285100  1
  O  O66  1  0.742453  0.138986  0.591944  1
  O  O67  1  0.370856  0.635807  0.883951  1
  O  O68  1  0.507512  0.636639  0.644666  1
  O  O69  1  0.571072  0.638496  0.425600  1
  O  O70  1  0.282093  0.367125  0.786114  1
  O  O71  1  0.077848  0.134547  0.927532  1
