# generated using pymatgen
data_Sr3LaCl9
_symmetry_space_group_name_H-M   'P 1'
_cell_length_a   7.38935337
_cell_length_b   6.88462835
_cell_length_c   28.95387885
_cell_angle_alpha   90.00000000
_cell_angle_beta   91.94006720
_cell_angle_gamma   90.00000000
_symmetry_Int_Tables_number   1
_chemical_formula_structural   Sr3LaCl9
_chemical_formula_sum   'Sr12 La4 Cl36'
_cell_volume   1472.12495372
_cell_formula_units_Z   4
loop_
 _symmetry_equiv_pos_site_id
 _symmetry_equiv_pos_as_xyz
  1  'x, y, z'
loop_
 _atom_site_type_symbol
 _atom_site_label
 _atom_site_symmetry_multiplicity
 _atom_site_fract_x
 _atom_site_fract_y
 _atom_site_fract_z
 _atom_site_occupancy
  Sr  Sr0  1  0.673907  0.971640  0.066948  1
  Sr  Sr1  1  0.705807  0.003738  0.307794  1
  Sr  Sr2  1  0.673907  0.028360  0.566948  1
  Sr  Sr3  1  0.705807  0.996262  0.807794  1
  Sr  Sr4  1  0.314793  0.989944  0.431209  1
  Sr  Sr5  1  0.281116  0.986038  0.190910  1
  Sr  Sr6  1  0.314793  0.010056  0.931209  1
  Sr  Sr7  1  0.281116  0.013962  0.690910  1
  Sr  Sr8  1  0.216776  0.520434  0.307941  1
  Sr  Sr9  1  0.180303  0.513479  0.068295  1
  Sr  Sr10  1  0.216776  0.479566  0.807941  1
  Sr  Sr11  1  0.180303  0.486521  0.568295  1
  La  La12  1  0.793300  0.520310  0.192874  1
  La  La13  1  0.818566  0.543003  0.432745  1
  La  La14  1  0.793300  0.479690  0.692874  1
  La  La15  1  0.818566  0.456997  0.932745  1
  Cl  Cl16  1  0.983402  0.798581  0.130375  1
  Cl  Cl17  1  0.989751  0.819760  0.248524  1
  Cl  Cl18  1  0.998271  0.815506  0.371256  1
  Cl  Cl19  1  0.983402  0.201419  0.630375  1
  Cl  Cl20  1  0.989751  0.180240  0.748524  1
  Cl  Cl21  1  0.892810  0.709214  0.008768  1
  Cl  Cl22  1  0.998271  0.184494  0.871256  1
  Cl  Cl23  1  0.850832  0.326377  0.105802  1
  Cl  Cl24  1  0.892810  0.290786  0.508768  1
  Cl  Cl25  1  0.844630  0.393888  0.293431  1
  Cl  Cl26  1  0.850832  0.673623  0.605802  1
  Cl  Cl27  1  0.844630  0.606112  0.793431  1
  Cl  Cl28  1  0.642514  0.150554  0.204714  1
  Cl  Cl29  1  0.645122  0.199478  0.399734  1
  Cl  Cl30  1  0.642514  0.849446  0.704714  1
  Cl  Cl31  1  0.645122  0.800522  0.899734  1
  Cl  Cl32  1  0.582870  0.754519  0.489491  1
  Cl  Cl33  1  0.501472  0.684523  0.131918  1
  Cl  Cl34  1  0.506047  0.696176  0.249074  1
  Cl  Cl35  1  0.517600  0.702925  0.371306  1
  Cl  Cl36  1  0.582870  0.245481  0.989491  1
  Cl  Cl37  1  0.501472  0.315477  0.631918  1
  Cl  Cl38  1  0.506047  0.303824  0.749074  1
  Cl  Cl39  1  0.517600  0.297075  0.871306  1
  Cl  Cl40  1  0.396305  0.762791  0.010689  1
  Cl  Cl41  1  0.396305  0.237209  0.510689  1
  Cl  Cl42  1  0.346001  0.155730  0.100025  1
  Cl  Cl43  1  0.329630  0.118479  0.300708  1
  Cl  Cl44  1  0.346001  0.844270  0.600025  1
  Cl  Cl45  1  0.329630  0.881521  0.800708  1
  Cl  Cl46  1  0.152975  0.388108  0.203117  1
  Cl  Cl47  1  0.131467  0.351002  0.400470  1
  Cl  Cl48  1  0.152975  0.611892  0.703117  1
  Cl  Cl49  1  0.131467  0.648998  0.900470  1
  Cl  Cl50  1  0.073001  0.757368  0.490068  1
  Cl  Cl51  1  0.073001  0.242632  0.990068  1
