# generated using pymatgen
data_Li5NbO5
_symmetry_space_group_name_H-M   'P 1'
_cell_length_a   5.50807780
_cell_length_b   5.50807780
_cell_length_c   9.09201636
_cell_angle_alpha   82.46835013
_cell_angle_beta   97.53164987
_cell_angle_gamma   62.96373303
_symmetry_Int_Tables_number   1
_chemical_formula_structural   Li5NbO5
_chemical_formula_sum   'Li10 Nb2 O10'
_cell_volume   237.83285486
_cell_formula_units_Z   2
loop_
 _symmetry_equiv_pos_site_id
 _symmetry_equiv_pos_as_xyz
  1  'x, y, z'
loop_
 _atom_site_type_symbol
 _atom_site_label
 _atom_site_symmetry_multiplicity
 _atom_site_fract_x
 _atom_site_fract_y
 _atom_site_fract_z
 _atom_site_occupancy
  Li  Li0  1  0.695780  0.958556  0.438748  1
  Li  Li1  1  0.544881  0.223327  0.042269  1
  Li  Li2  1  0.672018  0.672018  0.250000  1
  Li  Li3  1  0.041444  0.304220  0.938748  1
  Li  Li4  1  0.776673  0.455119  0.542269  1
  Li  Li5  1  0.223327  0.544881  0.457731  1
  Li  Li6  1  0.958556  0.695780  0.061252  1
  Li  Li7  1  0.327982  0.327982  0.750000  1
  Li  Li8  1  0.455119  0.776673  0.957731  1
  Li  Li9  1  0.304220  0.041444  0.561252  1
  Nb  Nb10  1  0.087834  0.087834  0.250000  1
  Nb  Nb11  1  0.912166  0.912166  0.750000  1
  O  O12  1  0.326171  0.016240  0.105487  1
  O  O13  1  0.429182  0.796738  0.411377  1
  O  O14  1  0.983760  0.673829  0.605487  1
  O  O15  1  0.203262  0.570818  0.911377  1
  O  O16  1  0.886339  0.886339  0.250000  1
  O  O17  1  0.113661  0.113661  0.750000  1
  O  O18  1  0.796738  0.429182  0.088623  1
  O  O19  1  0.016240  0.326171  0.394513  1
  O  O20  1  0.570818  0.203262  0.588623  1
  O  O21  1  0.673829  0.983760  0.894513  1
