# generated using pymatgen
data_LiMn2(PO4)3
_symmetry_space_group_name_H-M   'P 1'
_cell_length_a   8.44919881
_cell_length_b   8.53561951
_cell_length_c   14.41524282
_cell_angle_alpha   90.00000000
_cell_angle_beta   125.43658652
_cell_angle_gamma   90.00000000
_symmetry_Int_Tables_number   1
_chemical_formula_structural   LiMn2(PO4)3
_chemical_formula_sum   'Li4 Mn8 P12 O48'
_cell_volume   847.03435752
_cell_formula_units_Z   4
loop_
 _symmetry_equiv_pos_site_id
 _symmetry_equiv_pos_as_xyz
  1  'x, y, z'
loop_
 _atom_site_type_symbol
 _atom_site_label
 _atom_site_symmetry_multiplicity
 _atom_site_fract_x
 _atom_site_fract_y
 _atom_site_fract_z
 _atom_site_occupancy
  Li  Li0  1  0.030526  0.220985  0.821713  1
  Li  Li1  1  0.969474  0.720985  0.678287  1
  Li  Li2  1  0.030526  0.279015  0.321713  1
  Li  Li3  1  0.969474  0.779015  0.178287  1
  Mn  Mn4  1  0.138871  0.537487  0.886036  1
  Mn  Mn5  1  0.371066  0.961283  0.121450  1
  Mn  Mn6  1  0.628934  0.461283  0.378550  1
  Mn  Mn7  1  0.861129  0.037487  0.613964  1
  Mn  Mn8  1  0.138871  0.962513  0.386036  1
  Mn  Mn9  1  0.371066  0.538717  0.621450  1
  Mn  Mn10  1  0.628934  0.038717  0.878550  1
  Mn  Mn11  1  0.861129  0.462513  0.113964  1
  P  P12  1  0.531649  0.749309  0.500503  1
  P  P13  1  0.253881  0.611792  0.148052  1
  P  P14  1  0.956933  0.889975  0.856570  1
  P  P15  1  0.043067  0.389975  0.643430  1
  P  P16  1  0.746119  0.111792  0.351948  1
  P  P17  1  0.468351  0.249309  0.999497  1
  P  P18  1  0.531649  0.750691  0.000503  1
  P  P19  1  0.253881  0.888208  0.648052  1
  P  P20  1  0.956933  0.610025  0.356570  1
  P  P21  1  0.043067  0.110025  0.143430  1
  P  P22  1  0.746119  0.388208  0.851948  1
  P  P23  1  0.468351  0.250691  0.499497  1
  O  O24  1  0.634925  0.137687  0.581184  1
  O  O25  1  0.483411  0.319241  0.406217  1
  O  O26  1  0.232133  0.111635  0.151219  1
  O  O27  1  0.915785  0.405029  0.838776  1
  O  O28  1  0.537677  0.627754  0.425083  1
  O  O29  1  0.312873  0.785351  0.180908  1
  O  O30  1  0.731237  0.836552  0.568271  1
  O  O31  1  0.176729  0.580004  0.024063  1
  O  O32  1  0.134363  0.936656  0.973482  1
  O  O33  1  0.979325  0.725870  0.818605  1
  O  O34  1  0.944641  0.011897  0.771982  1
  O  O35  1  0.412635  0.490405  0.222573  1
  O  O36  1  0.587365  0.990405  0.277427  1
  O  O37  1  0.055359  0.511897  0.728018  1
  O  O38  1  0.020675  0.225870  0.681395  1
  O  O39  1  0.865637  0.436656  0.526518  1
  O  O40  1  0.823271  0.080004  0.475937  1
  O  O41  1  0.268763  0.336552  0.931729  1
  O  O42  1  0.687127  0.285351  0.319092  1
  O  O43  1  0.462323  0.127754  0.074917  1
  O  O44  1  0.084215  0.905029  0.661224  1
  O  O45  1  0.767867  0.611635  0.348781  1
  O  O46  1  0.516589  0.819241  0.093783  1
  O  O47  1  0.365075  0.637687  0.918816  1
  O  O48  1  0.634925  0.362313  0.081184  1
  O  O49  1  0.483411  0.180759  0.906217  1
  O  O50  1  0.232133  0.388365  0.651219  1
  O  O51  1  0.915785  0.094971  0.338776  1
  O  O52  1  0.537677  0.872246  0.925083  1
  O  O53  1  0.312873  0.714649  0.680908  1
  O  O54  1  0.731237  0.663448  0.068271  1
  O  O55  1  0.176729  0.919996  0.524063  1
  O  O56  1  0.134363  0.563344  0.473482  1
  O  O57  1  0.979325  0.774130  0.318605  1
  O  O58  1  0.944641  0.488103  0.271982  1
  O  O59  1  0.412635  0.009595  0.722573  1
  O  O60  1  0.587365  0.509595  0.777427  1
  O  O61  1  0.055359  0.988103  0.228018  1
  O  O62  1  0.020675  0.274130  0.181395  1
  O  O63  1  0.865637  0.063344  0.026518  1
  O  O64  1  0.823271  0.419996  0.975937  1
  O  O65  1  0.268763  0.163448  0.431729  1
  O  O66  1  0.687127  0.214649  0.819092  1
  O  O67  1  0.462323  0.372246  0.574917  1
  O  O68  1  0.084215  0.594971  0.161224  1
  O  O69  1  0.767867  0.888365  0.848781  1
  O  O70  1  0.516589  0.680759  0.593783  1
  O  O71  1  0.365075  0.862313  0.418816  1
