# generated using pymatgen
data_NiSnO3
_symmetry_space_group_name_H-M   'P 1'
_cell_length_a   5.61267156
_cell_length_b   5.61267156
_cell_length_c   5.61267156
_cell_angle_alpha   56.50909793
_cell_angle_beta   56.50909793
_cell_angle_gamma   56.50909793
_symmetry_Int_Tables_number   1
_chemical_formula_structural   NiSnO3
_chemical_formula_sum   'Ni2 Sn2 O6'
_cell_volume   114.93673055
_cell_formula_units_Z   2
loop_
 _symmetry_equiv_pos_site_id
 _symmetry_equiv_pos_as_xyz
  1  'x, y, z'
loop_
 _atom_site_type_symbol
 _atom_site_label
 _atom_site_symmetry_multiplicity
 _atom_site_fract_x
 _atom_site_fract_y
 _atom_site_fract_z
 _atom_site_occupancy
  Ni  Ni0  1  0.646295  0.646295  0.646295  1
  Ni  Ni1  1  0.353705  0.353705  0.353705  1
  Sn  Sn2  1  0.853583  0.853583  0.853583  1
  Sn  Sn3  1  0.146417  0.146417  0.146417  1
  O  O4  1  0.247800  0.551028  0.950225  1
  O  O5  1  0.950225  0.247800  0.551028  1
  O  O6  1  0.448972  0.049775  0.752200  1
  O  O7  1  0.551028  0.950225  0.247800  1
  O  O8  1  0.049775  0.752200  0.448972  1
  O  O9  1  0.752200  0.448972  0.049775  1
