# generated using pymatgen
data_Li4Nb2Cr3Cu3O16
_symmetry_space_group_name_H-M   'P 1'
_cell_length_a   5.99738950
_cell_length_b   5.99738950
_cell_length_c   9.77252486
_cell_angle_alpha   86.59114993
_cell_angle_beta   93.40885007
_cell_angle_gamma   121.65906461
_symmetry_Int_Tables_number   1
_chemical_formula_structural   Li4Nb2Cr3Cu3O16
_chemical_formula_sum   'Li4 Nb2 Cr3 Cu3 O16'
_cell_volume   298.50157667
_cell_formula_units_Z   1
loop_
 _symmetry_equiv_pos_site_id
 _symmetry_equiv_pos_as_xyz
  1  'x, y, z'
loop_
 _atom_site_type_symbol
 _atom_site_label
 _atom_site_symmetry_multiplicity
 _atom_site_fract_x
 _atom_site_fract_y
 _atom_site_fract_z
 _atom_site_occupancy
  Li  Li0  1  0.662107  0.337893  0.101157  1
  Li  Li1  1  0.999865  0.000135  0.006819  1
  Li  Li2  1  0.005005  0.994995  0.511574  1
  Li  Li3  1  0.340719  0.659281  0.596286  1
  Nb  Nb4  1  0.685260  0.314740  0.503964  1
  Nb  Nb5  1  0.334778  0.665222  0.010800  1
  Cr  Cr6  1  0.830544  0.169456  0.781974  1
  Cr  Cr7  1  0.660225  0.831720  0.284384  1
  Cr  Cr8  1  0.168280  0.339775  0.284384  1
  Cu  Cu9  1  0.836394  0.659921  0.787034  1
  Cu  Cu10  1  0.340079  0.163606  0.787034  1
  Cu  Cu11  1  0.168662  0.831338  0.285916  1
  O  O12  1  0.826105  0.666808  0.411507  1
  O  O13  1  0.528967  0.471033  0.667898  1
  O  O14  1  0.668942  0.331058  0.880067  1
  O  O15  1  0.000589  0.999411  0.701362  1
  O  O16  1  0.996842  0.003158  0.193258  1
  O  O17  1  0.333192  0.173895  0.411507  1
  O  O18  1  0.977796  0.458155  0.644113  1
  O  O19  1  0.541845  0.022204  0.644113  1
  O  O20  1  0.154464  0.845536  0.904661  1
  O  O21  1  0.836836  0.163164  0.396188  1
  O  O22  1  0.478176  0.965558  0.158672  1
  O  O23  1  0.034442  0.521824  0.158672  1
  O  O24  1  0.337210  0.662790  0.388298  1
  O  O25  1  0.649550  0.858194  0.914819  1
  O  O26  1  0.479657  0.520343  0.160749  1
  O  O27  1  0.141806  0.350450  0.914819  1
