# generated using pymatgen
data_Ce(ClO4)3
_symmetry_space_group_name_H-M   'P 1'
_cell_length_a   9.79823669
_cell_length_b   9.79823669
_cell_length_c   9.79823669
_cell_angle_alpha   51.55075442
_cell_angle_beta   51.55075442
_cell_angle_gamma   51.55075442
_symmetry_Int_Tables_number   1
_chemical_formula_structural   Ce(ClO4)3
_chemical_formula_sum   'Ce2 Cl6 O24'
_cell_volume   532.86579230
_cell_formula_units_Z   2
loop_
 _symmetry_equiv_pos_site_id
 _symmetry_equiv_pos_as_xyz
  1  'x, y, z'
loop_
 _atom_site_type_symbol
 _atom_site_label
 _atom_site_symmetry_multiplicity
 _atom_site_fract_x
 _atom_site_fract_y
 _atom_site_fract_z
 _atom_site_occupancy
  Ce  Ce0  1  0.941406  0.941406  0.941406  1
  Ce  Ce1  1  0.441406  0.441406  0.441406  1
  Cl  Cl2  1  0.032510  0.312306  0.654341  1
  Cl  Cl3  1  0.154341  0.812306  0.532510  1
  Cl  Cl4  1  0.532510  0.154341  0.812306  1
  Cl  Cl5  1  0.312306  0.654341  0.032510  1
  Cl  Cl6  1  0.654341  0.032510  0.312306  1
  Cl  Cl7  1  0.812306  0.532510  0.154341  1
  O  O8  1  0.253601  0.861200  0.924603  1
  O  O9  1  0.115207  0.798765  0.711174  1
  O  O10  1  0.428952  0.053294  0.997236  1
  O  O11  1  0.078530  0.167647  0.606717  1
  O  O12  1  0.106717  0.667647  0.578530  1
  O  O13  1  0.497236  0.553294  0.928952  1
  O  O14  1  0.211174  0.298765  0.615207  1
  O  O15  1  0.053294  0.997236  0.428952  1
  O  O16  1  0.424603  0.361200  0.753601  1
  O  O17  1  0.711174  0.115207  0.798765  1
  O  O18  1  0.578530  0.106717  0.667647  1
  O  O19  1  0.361200  0.753601  0.424603  1
  O  O20  1  0.553294  0.928952  0.497236  1
  O  O21  1  0.924603  0.253601  0.861200  1
  O  O22  1  0.167647  0.606717  0.078530  1
  O  O23  1  0.298765  0.615207  0.211174  1
  O  O24  1  0.615207  0.211174  0.298765  1
  O  O25  1  0.928952  0.497236  0.553294  1
  O  O26  1  0.753601  0.424603  0.361200  1
  O  O27  1  0.606717  0.078530  0.167647  1
  O  O28  1  0.667647  0.578530  0.106717  1
  O  O29  1  0.861200  0.924603  0.253601  1
  O  O30  1  0.798765  0.711174  0.115207  1
  O  O31  1  0.997236  0.428952  0.053294  1
