# generated using pymatgen
data_Li2CoSiO4
_symmetry_space_group_name_H-M   'P 1'
_cell_length_a   4.98774906
_cell_length_b   5.44641139
_cell_length_c   6.17863953
_cell_angle_alpha   90.00000000
_cell_angle_beta   90.00000000
_cell_angle_gamma   90.00000000
_symmetry_Int_Tables_number   1
_chemical_formula_structural   Li2CoSiO4
_chemical_formula_sum   'Li4 Co2 Si2 O8'
_cell_volume   167.84480200
_cell_formula_units_Z   2
loop_
 _symmetry_equiv_pos_site_id
 _symmetry_equiv_pos_as_xyz
  1  'x, y, z'
loop_
 _atom_site_type_symbol
 _atom_site_label
 _atom_site_symmetry_multiplicity
 _atom_site_fract_x
 _atom_site_fract_y
 _atom_site_fract_z
 _atom_site_occupancy
  Li  Li0  1  0.492988  0.831525  0.249319  1
  Li  Li1  1  0.992988  0.168475  0.250681  1
  Li  Li2  1  0.492988  0.831525  0.750681  1
  Li  Li3  1  0.992988  0.168475  0.749319  1
  Co  Co4  1  0.993177  0.660243  0.000000  1
  Co  Co5  1  0.493177  0.339757  0.500000  1
  Si  Si6  1  0.499379  0.326831  0.000000  1
  Si  Si7  1  0.999379  0.673169  0.500000  1
  O  O8  1  0.891492  0.819610  0.282319  1
  O  O9  1  0.391492  0.180390  0.217681  1
  O  O10  1  0.394580  0.615979  0.000000  1
  O  O11  1  0.830777  0.326897  0.000000  1
  O  O12  1  0.391492  0.180390  0.782319  1
  O  O13  1  0.891492  0.819610  0.717681  1
  O  O14  1  0.894580  0.384021  0.500000  1
  O  O15  1  0.330777  0.673103  0.500000  1
