# generated using pymatgen
data_Pr20AlSi19N33Cl2O19
_symmetry_space_group_name_H-M   'P 1'
_cell_length_a   10.62744463
_cell_length_b   11.71260777
_cell_length_c   11.29521973
_cell_angle_alpha   90.00000000
_cell_angle_beta   90.10852477
_cell_angle_gamma   90.00000000
_symmetry_Int_Tables_number   1
_chemical_formula_structural   Pr20AlSi19N33Cl2O19
_chemical_formula_sum   'Pr20 Al1 Si19 N33 Cl2 O19'
_cell_volume   1405.97097734
_cell_formula_units_Z   1
loop_
 _symmetry_equiv_pos_site_id
 _symmetry_equiv_pos_as_xyz
  1  'x, y, z'
loop_
 _atom_site_type_symbol
 _atom_site_label
 _atom_site_symmetry_multiplicity
 _atom_site_fract_x
 _atom_site_fract_y
 _atom_site_fract_z
 _atom_site_occupancy
  Pr  Pr0  1  0.003432  0.164817  0.999065  1
  Pr  Pr1  1  0.897874  0.000000  0.637482  1
  Pr  Pr2  1  0.869137  0.500000  0.881648  1
  Pr  Pr3  1  0.860876  0.768665  0.394971  1
  Pr  Pr4  1  0.860876  0.231335  0.394971  1
  Pr  Pr5  1  0.645319  0.756685  0.896230  1
  Pr  Pr6  1  0.645319  0.243315  0.896230  1
  Pr  Pr7  1  0.624551  0.500000  0.381014  1
  Pr  Pr8  1  0.611174  0.000000  0.126614  1
  Pr  Pr9  1  0.498859  0.172758  0.502256  1
  Pr  Pr10  1  0.498859  0.827242  0.502256  1
  Pr  Pr11  1  0.364313  0.000000  0.875461  1
  Pr  Pr12  1  0.359891  0.500000  0.615575  1
  Pr  Pr13  1  0.353226  0.772355  0.104178  1
  Pr  Pr14  1  0.353226  0.227645  0.104178  1
  Pr  Pr15  1  0.141295  0.763183  0.599219  1
  Pr  Pr16  1  0.141295  0.236817  0.599219  1
  Pr  Pr17  1  0.126145  0.500000  0.119271  1
  Pr  Pr18  1  0.139313  0.000000  0.373161  1
  Pr  Pr19  1  0.003432  0.835183  0.999065  1
  Al  Al20  1  0.780878  0.000000  0.891576  1
  Si  Si21  1  0.884408  0.750764  0.742891  1
  Si  Si22  1  0.884408  0.249236  0.742891  1
  Si  Si23  1  0.850060  0.364100  0.144596  1
  Si  Si24  1  0.850060  0.635900  0.144596  1
  Si  Si25  1  0.706605  0.000000  0.389298  1
  Si  Si26  1  0.650344  0.366736  0.643748  1
  Si  Si27  1  0.650344  0.633264  0.643748  1
  Si  Si28  1  0.616202  0.246643  0.243019  1
  Si  Si29  1  0.616202  0.753357  0.243019  1
  Si  Si30  1  0.386720  0.754555  0.756605  1
  Si  Si31  1  0.386720  0.245445  0.756605  1
  Si  Si32  1  0.348437  0.364018  0.352208  1
  Si  Si33  1  0.348437  0.635982  0.352208  1
  Si  Si34  1  0.281549  0.000000  0.615113  1
  Si  Si35  1  0.215451  0.000000  0.106938  1
  Si  Si36  1  0.152681  0.364977  0.854838  1
  Si  Si37  1  0.152681  0.635023  0.854838  1
  Si  Si38  1  0.113722  0.242825  0.261253  1
  Si  Si39  1  0.113722  0.757175  0.261253  1
  N  N40  1  0.976466  0.715036  0.192302  1
  N  N41  1  0.976466  0.284964  0.192302  1
  N  N42  1  0.899056  0.500000  0.115036  1
  N  N43  1  0.828747  0.871162  0.813634  1
  N  N44  1  0.828747  0.128838  0.813634  1
  N  N45  1  0.772249  0.355757  0.744444  1
  N  N46  1  0.772249  0.644243  0.744444  1
  N  N47  1  0.730470  0.350374  0.248432  1
  N  N48  1  0.730470  0.649626  0.248432  1
  N  N49  1  0.667184  0.878148  0.314869  1
  N  N50  1  0.667184  0.121852  0.314869  1
  N  N51  1  0.595777  0.500000  0.609171  1
  N  N52  1  0.527907  0.718248  0.694112  1
  N  N53  1  0.527907  0.281752  0.694112  1
  N  N54  1  0.476316  0.715857  0.304839  1
  N  N55  1  0.476316  0.284143  0.304839  1
  N  N56  1  0.398500  0.500000  0.380946  1
  N  N57  1  0.380997  0.000000  0.098137  1
  N  N58  1  0.337005  0.876924  0.681619  1
  N  N59  1  0.337005  0.123076  0.681619  1
  N  N60  1  0.274701  0.350722  0.754096  1
  N  N61  1  0.274701  0.649278  0.754096  1
  N  N62  1  0.229799  0.348574  0.249509  1
  N  N63  1  0.229799  0.651426  0.249509  1
  N  N64  1  0.167669  0.877369  0.181401  1
  N  N65  1  0.167669  0.122631  0.181401  1
  N  N66  1  0.153424  0.000000  0.964902  1
  N  N67  1  0.120996  0.000000  0.598529  1
  N  N68  1  0.103800  0.500000  0.889882  1
  N  N69  1  0.080279  0.802097  0.400650  1
  N  N70  1  0.080279  0.197903  0.400650  1
  N  N71  1  0.025232  0.713842  0.805385  1
  N  N72  1  0.025232  0.286158  0.805385  1
  Cl  Cl73  1  0.577115  0.500000  0.949215  1
  Cl  Cl74  1  0.079483  0.500000  0.549273  1
  O  O75  1  0.913770  0.794049  0.603932  1
  O  O76  1  0.913770  0.205951  0.603932  1
  O  O77  1  0.861563  0.000000  0.418842  1
  O  O78  1  0.849333  0.000000  0.036338  1
  O  O79  1  0.818129  0.313389  0.009149  1
  O  O80  1  0.818129  0.686611  0.009149  1
  O  O81  1  0.682076  0.685867  0.508141  1
  O  O82  1  0.682076  0.314133  0.508141  1
  O  O83  1  0.639384  0.000000  0.522485  1
  O  O84  1  0.613840  0.000000  0.916204  1
  O  O85  1  0.584507  0.794754  0.104135  1
  O  O86  1  0.584507  0.205246  0.104135  1
  O  O87  1  0.418937  0.797529  0.895196  1
  O  O88  1  0.418937  0.202471  0.895196  1
  O  O89  1  0.348122  0.000000  0.477181  1
  O  O90  1  0.323413  0.687278  0.489387  1
  O  O91  1  0.323413  0.312722  0.489387  1
  O  O92  1  0.185926  0.312647  0.990044  1
  O  O93  1  0.185926  0.687353  0.990044  1
