# generated using pymatgen
data_Ta7InO19
_symmetry_space_group_name_H-M   'P 1'
_cell_length_a   6.25056112
_cell_length_b   6.25056112
_cell_length_c   20.20885293
_cell_angle_alpha   90.00000000
_cell_angle_beta   90.00000000
_cell_angle_gamma   120.00000000
_symmetry_Int_Tables_number   1
_chemical_formula_structural   Ta7InO19
_chemical_formula_sum   'Ta14 In2 O38'
_cell_volume   683.77041716
_cell_formula_units_Z   2
loop_
 _symmetry_equiv_pos_site_id
 _symmetry_equiv_pos_as_xyz
  1  'x, y, z'
loop_
 _atom_site_type_symbol
 _atom_site_label
 _atom_site_symmetry_multiplicity
 _atom_site_fract_x
 _atom_site_fract_y
 _atom_site_fract_z
 _atom_site_occupancy
  Ta  Ta0  1  0.693809  0.028496  0.155607  1
  Ta  Ta1  1  0.693809  0.028496  0.344393  1
  Ta  Ta2  1  0.971504  0.306191  0.655607  1
  Ta  Ta3  1  0.971504  0.306191  0.844393  1
  Ta  Ta4  1  0.693809  0.665314  0.844393  1
  Ta  Ta5  1  0.693809  0.665314  0.655607  1
  Ta  Ta6  1  0.000000  0.000000  0.500000  1
  Ta  Ta7  1  0.000000  0.000000  0.000000  1
  Ta  Ta8  1  0.971504  0.665314  0.155607  1
  Ta  Ta9  1  0.971504  0.665314  0.344393  1
  Ta  Ta10  1  0.334686  0.306191  0.155607  1
  Ta  Ta11  1  0.334686  0.306191  0.344393  1
  Ta  Ta12  1  0.334686  0.028496  0.844393  1
  Ta  Ta13  1  0.334686  0.028496  0.655607  1
  In  In14  1  0.666667  0.333333  0.000000  1
  In  In15  1  0.666667  0.333333  0.500000  1
  O  O16  1  0.332744  0.419548  0.652913  1
  O  O17  1  0.332744  0.419548  0.847087  1
  O  O18  1  0.372388  0.291951  0.250000  1
  O  O19  1  0.580452  0.667256  0.347087  1
  O  O20  1  0.580452  0.667256  0.152913  1
  O  O21  1  0.372388  0.080437  0.750000  1
  O  O22  1  0.332744  0.913196  0.152913  1
  O  O23  1  0.332744  0.913196  0.347087  1
  O  O24  1  0.708049  0.627612  0.750000  1
  O  O25  1  0.666667  0.333333  0.134871  1
  O  O26  1  0.666667  0.333333  0.865129  1
  O  O27  1  0.666667  0.333333  0.634871  1
  O  O28  1  0.666667  0.333333  0.365129  1
  O  O29  1  0.919563  0.627612  0.250000  1
  O  O30  1  0.580452  0.913196  0.652913  1
  O  O31  1  0.580452  0.913196  0.847087  1
  O  O32  1  0.708049  0.080437  0.250000  1
  O  O33  1  0.761212  0.057623  0.054987  1
  O  O34  1  0.761212  0.057623  0.445013  1
  O  O35  1  0.086804  0.667256  0.847087  1
  O  O36  1  0.086804  0.667256  0.652913  1
  O  O37  1  0.919563  0.291951  0.750000  1
  O  O38  1  0.942377  0.238788  0.945013  1
  O  O39  1  0.942377  0.238788  0.554987  1
  O  O40  1  0.086804  0.419548  0.152913  1
  O  O41  1  0.086804  0.419548  0.347087  1
  O  O42  1  0.761212  0.703589  0.554987  1
  O  O43  1  0.761212  0.703589  0.945013  1
  O  O44  1  0.000000  0.000000  0.335842  1
  O  O45  1  0.000000  0.000000  0.835842  1
  O  O46  1  0.000000  0.000000  0.664158  1
  O  O47  1  0.000000  0.000000  0.164158  1
  O  O48  1  0.942377  0.703589  0.054987  1
  O  O49  1  0.942377  0.703589  0.445013  1
  O  O50  1  0.296411  0.238788  0.054987  1
  O  O51  1  0.296411  0.238788  0.445013  1
  O  O52  1  0.296411  0.057623  0.554987  1
  O  O53  1  0.296411  0.057623  0.945013  1
