# generated using pymatgen
data_TiOF
_symmetry_space_group_name_H-M   'P 1'
_cell_length_a   5.17381422
_cell_length_b   4.77031506
_cell_length_c   5.70201244
_cell_angle_alpha   90.00000000
_cell_angle_beta   92.11765398
_cell_angle_gamma   90.00000000
_symmetry_Int_Tables_number   1
_chemical_formula_structural   TiOF
_chemical_formula_sum   'Ti4 O4 F4'
_cell_volume   140.63368417
_cell_formula_units_Z   4
loop_
 _symmetry_equiv_pos_site_id
 _symmetry_equiv_pos_as_xyz
  1  'x, y, z'
loop_
 _atom_site_type_symbol
 _atom_site_label
 _atom_site_symmetry_multiplicity
 _atom_site_fract_x
 _atom_site_fract_y
 _atom_site_fract_z
 _atom_site_occupancy
  Ti  Ti0  1  0.214775  0.515607  0.140342  1
  Ti  Ti1  1  0.214775  0.984393  0.640342  1
  Ti  Ti2  1  0.785225  0.015607  0.359658  1
  Ti  Ti3  1  0.785225  0.484393  0.859658  1
  O  O4  1  0.088683  0.765388  0.368671  1
  O  O5  1  0.088683  0.734612  0.868671  1
  O  O6  1  0.911317  0.265388  0.131329  1
  O  O7  1  0.911317  0.234612  0.631329  1
  F  F8  1  0.417385  0.230263  0.378347  1
  F  F9  1  0.417385  0.269737  0.878347  1
  F  F10  1  0.582615  0.730263  0.121653  1
  F  F11  1  0.582615  0.769737  0.621653  1
