# generated using pymatgen
data_Li2FePCO7
_symmetry_space_group_name_H-M   'P 1'
_cell_length_a   6.50418349
_cell_length_b   9.37477862
_cell_length_c   10.11776986
_cell_angle_alpha   62.76196068
_cell_angle_beta   89.63648884
_cell_angle_gamma   89.35455311
_symmetry_Int_Tables_number   1
_chemical_formula_structural   Li2FePCO7
_chemical_formula_sum   'Li8 Fe4 P4 C4 O28'
_cell_volume   548.48843271
_cell_formula_units_Z   4
loop_
 _symmetry_equiv_pos_site_id
 _symmetry_equiv_pos_as_xyz
  1  'x, y, z'
loop_
 _atom_site_type_symbol
 _atom_site_label
 _atom_site_symmetry_multiplicity
 _atom_site_fract_x
 _atom_site_fract_y
 _atom_site_fract_z
 _atom_site_occupancy
  Li  Li0  1  0.253050  0.332266  0.570218  1
  Li  Li1  1  0.256464  0.833633  0.068616  1
  Li  Li2  1  0.033016  0.988396  0.734900  1
  Li  Li3  1  0.464153  0.488412  0.234811  1
  Li  Li4  1  0.968071  0.513443  0.762658  1
  Li  Li5  1  0.969999  0.012170  0.262164  1
  Li  Li6  1  0.734466  0.167205  0.927733  1
  Li  Li7  1  0.747501  0.666900  0.430492  1
  Fe  Fe8  1  0.745676  0.734498  0.936375  1
  Fe  Fe9  1  0.754197  0.234502  0.435749  1
  Fe  Fe10  1  0.259415  0.764824  0.564458  1
  Fe  Fe11  1  0.261448  0.264906  0.064509  1
  P  P12  1  0.246634  0.651327  0.928437  1
  P  P13  1  0.244363  0.151394  0.428934  1
  P  P14  1  0.759843  0.847929  0.571758  1
  P  P15  1  0.752283  0.348000  0.071425  1
  C  C16  1  0.759788  0.330583  0.629565  1
  C  C17  1  0.755481  0.830725  0.130040  1
  C  C18  1  0.228929  0.169808  0.871075  1
  C  C19  1  0.252400  0.669781  0.370201  1
  O  O20  1  0.760004  0.935355  0.988157  1
  O  O21  1  0.740515  0.434987  0.488587  1
  O  O22  1  0.216774  0.132638  0.765923  1
  O  O23  1  0.756272  0.179753  0.655662  1
  O  O24  1  0.275965  0.634021  0.264627  1
  O  O25  1  0.726009  0.681849  0.155528  1
  O  O26  1  0.065531  0.753400  0.943886  1
  O  O27  1  0.439488  0.741913  0.937440  1
  O  O28  1  0.061495  0.248548  0.447896  1
  O  O29  1  0.435211  0.246422  0.435892  1
  O  O30  1  0.772691  0.862087  0.717639  1
  O  O31  1  0.236511  0.978301  0.561181  1
  O  O32  1  0.721123  0.362267  0.216450  1
  O  O33  1  0.256613  0.478561  0.060998  1
  O  O34  1  0.781223  0.520199  0.940722  1
  O  O35  1  0.226201  0.638311  0.782624  1
  O  O36  1  0.782275  0.020037  0.439419  1
  O  O37  1  0.232789  0.138029  0.282913  1
  O  O38  1  0.563217  0.767057  0.554014  1
  O  O39  1  0.935668  0.737328  0.564480  1
  O  O40  1  0.937525  0.240713  0.075059  1
  O  O41  1  0.565529  0.264059  0.042134  1
  O  O42  1  0.226199  0.320289  0.845886  1
  O  O43  1  0.781219  0.367731  0.734252  1
  O  O44  1  0.226944  0.819293  0.345204  1
  O  O45  1  0.779864  0.866315  0.235352  1
  O  O46  1  0.257868  0.564729  0.511835  1
  O  O47  1  0.248126  0.065107  0.012122  1
