# generated using pymatgen
data_GdAsO4
_symmetry_space_group_name_H-M   'P 1'
_cell_length_a   6.79090830
_cell_length_b   6.79090830
_cell_length_c   6.79090830
_cell_angle_alpha   135.89773736
_cell_angle_beta   135.89773736
_cell_angle_gamma   64.13847453
_symmetry_Int_Tables_number   1
_chemical_formula_structural   GdAsO4
_chemical_formula_sum   'Gd2 As2 O8'
_cell_volume   149.62446162
_cell_formula_units_Z   2
loop_
 _symmetry_equiv_pos_site_id
 _symmetry_equiv_pos_as_xyz
  1  'x, y, z'
loop_
 _atom_site_type_symbol
 _atom_site_label
 _atom_site_symmetry_multiplicity
 _atom_site_fract_x
 _atom_site_fract_y
 _atom_site_fract_z
 _atom_site_occupancy
  Gd  Gd0  1  0.250000  0.750000  0.500000  1
  Gd  Gd1  1  0.500000  0.500000  0.000000  1
  As  As2  1  0.750000  0.250000  0.500000  1
  As  As3  1  0.000000  0.000000  0.000000  1
  O  O4  1  0.818133  0.422099  0.896598  1
  O  O5  1  0.224499  0.328465  0.396598  1
  O  O6  1  0.078465  0.181867  0.603966  1
  O  O7  1  0.172099  0.775501  0.103966  1
  O  O8  1  0.577901  0.474499  0.396034  1
  O  O9  1  0.671535  0.068133  0.896034  1
  O  O10  1  0.931867  0.827901  0.603402  1
  O  O11  1  0.525501  0.921535  0.103402  1
