# generated using pymatgen
data_YB4Mo
_symmetry_space_group_name_H-M   'P 1'
_cell_length_a   3.62821403
_cell_length_b   6.03884925
_cell_length_c   11.66916635
_cell_angle_alpha   90.00000000
_cell_angle_beta   90.00000000
_cell_angle_gamma   90.00000000
_symmetry_Int_Tables_number   1
_chemical_formula_structural   YB4Mo
_chemical_formula_sum   'Y4 B16 Mo4'
_cell_volume   255.67420702
_cell_formula_units_Z   4
loop_
 _symmetry_equiv_pos_site_id
 _symmetry_equiv_pos_as_xyz
  1  'x, y, z'
loop_
 _atom_site_type_symbol
 _atom_site_label
 _atom_site_symmetry_multiplicity
 _atom_site_fract_x
 _atom_site_fract_y
 _atom_site_fract_z
 _atom_site_occupancy
  Y  Y0  1  0.000000  0.126919  0.149846  1
  Y  Y1  1  0.000000  0.873081  0.850154  1
  Y  Y2  1  0.000000  0.626919  0.350154  1
  Y  Y3  1  0.000000  0.373081  0.649846  1
  B  B4  1  0.500000  0.023713  0.693456  1
  B  B5  1  0.500000  0.976287  0.306544  1
  B  B6  1  0.500000  0.523713  0.806544  1
  B  B7  1  0.500000  0.476287  0.193456  1
  B  B8  1  0.500000  0.113873  0.547434  1
  B  B9  1  0.500000  0.886127  0.452566  1
  B  B10  1  0.500000  0.613873  0.952566  1
  B  B11  1  0.500000  0.386127  0.047434  1
  B  B12  1  0.500000  0.286764  0.313875  1
  B  B13  1  0.500000  0.713236  0.686125  1
  B  B14  1  0.500000  0.786764  0.186125  1
  B  B15  1  0.500000  0.213236  0.813875  1
  B  B16  1  0.500000  0.366540  0.468121  1
  B  B17  1  0.500000  0.633460  0.531879  1
  B  B18  1  0.500000  0.866540  0.031879  1
  B  B19  1  0.500000  0.133460  0.968121  1
  Mo  Mo20  1  0.000000  0.129616  0.416378  1
  Mo  Mo21  1  0.000000  0.870384  0.583622  1
  Mo  Mo22  1  0.000000  0.629616  0.083622  1
  Mo  Mo23  1  0.000000  0.370384  0.916378  1
