# generated using pymatgen
data_NaHoO2
_symmetry_space_group_name_H-M   'P 1'
_cell_length_a   7.41263969
_cell_length_b   7.41263969
_cell_length_c   5.96043427
_cell_angle_alpha   76.02654127
_cell_angle_beta   103.97345873
_cell_angle_gamma   53.36921548
_symmetry_Int_Tables_number   1
_chemical_formula_structural   NaHoO2
_chemical_formula_sum   'Na4 Ho4 O8'
_cell_volume   221.59652210
_cell_formula_units_Z   4
loop_
 _symmetry_equiv_pos_site_id
 _symmetry_equiv_pos_as_xyz
  1  'x, y, z'
loop_
 _atom_site_type_symbol
 _atom_site_label
 _atom_site_symmetry_multiplicity
 _atom_site_fract_x
 _atom_site_fract_y
 _atom_site_fract_z
 _atom_site_occupancy
  Na  Na0  1  0.055738  0.055738  0.250000  1
  Na  Na1  1  0.819911  0.819911  0.250000  1
  Na  Na2  1  0.180089  0.180089  0.750000  1
  Na  Na3  1  0.944262  0.944262  0.750000  1
  Ho  Ho4  1  0.567153  0.567153  0.250000  1
  Ho  Ho5  1  0.306802  0.306802  0.250000  1
  Ho  Ho6  1  0.432847  0.432847  0.750000  1
  Ho  Ho7  1  0.693198  0.693198  0.750000  1
  O  O8  1  0.539521  0.084269  0.705782  1
  O  O9  1  0.359830  0.767151  0.796225  1
  O  O10  1  0.915731  0.460479  0.205782  1
  O  O11  1  0.232849  0.640170  0.296225  1
  O  O12  1  0.767151  0.359830  0.703775  1
  O  O13  1  0.084269  0.539521  0.794218  1
  O  O14  1  0.640170  0.232849  0.203775  1
  O  O15  1  0.460479  0.915731  0.294218  1
