# generated using pymatgen
data_NaLiCu(PO3)3
_symmetry_space_group_name_H-M   'P 1'
_cell_length_a   8.81039616
_cell_length_b   9.12133278
_cell_length_c   9.15755880
_cell_angle_alpha   90.00000000
_cell_angle_beta   90.00000000
_cell_angle_gamma   90.00000000
_symmetry_Int_Tables_number   1
_chemical_formula_structural   NaLiCu(PO3)3
_chemical_formula_sum   'Na4 Li4 Cu4 P12 O36'
_cell_volume   735.92482547
_cell_formula_units_Z   4
loop_
 _symmetry_equiv_pos_site_id
 _symmetry_equiv_pos_as_xyz
  1  'x, y, z'
loop_
 _atom_site_type_symbol
 _atom_site_label
 _atom_site_symmetry_multiplicity
 _atom_site_fract_x
 _atom_site_fract_y
 _atom_site_fract_z
 _atom_site_occupancy
  Na  Na0  1  0.862233  0.586995  0.895118  1
  Na  Na1  1  0.137767  0.086995  0.604882  1
  Na  Na2  1  0.637767  0.413005  0.395118  1
  Na  Na3  1  0.362233  0.913005  0.104882  1
  Li  Li4  1  0.122995  0.411561  0.832560  1
  Li  Li5  1  0.877005  0.911561  0.667440  1
  Li  Li6  1  0.377005  0.588439  0.332560  1
  Li  Li7  1  0.622995  0.088439  0.167440  1
  Cu  Cu8  1  0.113068  0.858122  0.894189  1
  Cu  Cu9  1  0.886932  0.358122  0.605811  1
  Cu  Cu10  1  0.386932  0.141878  0.394189  1
  Cu  Cu11  1  0.613068  0.641878  0.105811  1
  P  P12  1  0.953297  0.174777  0.951815  1
  P  P13  1  0.720656  0.933908  0.929843  1
  P  P14  1  0.556298  0.444149  0.767277  1
  P  P15  1  0.443702  0.944149  0.732723  1
  P  P16  1  0.279344  0.433908  0.570157  1
  P  P17  1  0.046703  0.674777  0.548185  1
  P  P18  1  0.546703  0.825223  0.451815  1
  P  P19  1  0.779344  0.066092  0.429843  1
  P  P20  1  0.943702  0.555851  0.267277  1
  P  P21  1  0.056298  0.055851  0.232723  1
  P  P22  1  0.220656  0.566092  0.070157  1
  P  P23  1  0.453297  0.325223  0.048185  1
  O  O24  1  0.788096  0.094187  0.979037  1
  O  O25  1  0.130597  0.613877  0.938190  1
  O  O26  1  0.929056  0.331427  0.904808  1
  O  O27  1  0.515443  0.313919  0.883261  1
  O  O28  1  0.845290  0.840220  0.866820  1
  O  O29  1  0.049721  0.080641  0.853817  1
  O  O30  1  0.607307  0.575647  0.851274  1
  O  O31  1  0.349105  0.877886  0.851755  1
  O  O32  1  0.614374  0.980960  0.795647  1
  O  O33  1  0.385626  0.480960  0.704353  1
  O  O34  1  0.650895  0.377886  0.648245  1
  O  O35  1  0.392693  0.075647  0.648726  1
  O  O36  1  0.950279  0.580641  0.646183  1
  O  O37  1  0.154710  0.340220  0.633180  1
  O  O38  1  0.484557  0.813919  0.616739  1
  O  O39  1  0.070944  0.831427  0.595192  1
  O  O40  1  0.869403  0.113877  0.561810  1
  O  O41  1  0.211904  0.594187  0.520963  1
  O  O42  1  0.711904  0.905813  0.479037  1
  O  O43  1  0.369403  0.386123  0.438190  1
  O  O44  1  0.570944  0.668573  0.404808  1
  O  O45  1  0.984557  0.686081  0.383261  1
  O  O46  1  0.654710  0.159780  0.366820  1
  O  O47  1  0.450279  0.919359  0.353817  1
  O  O48  1  0.892693  0.424353  0.351274  1
  O  O49  1  0.150895  0.122114  0.351755  1
  O  O50  1  0.885626  0.019040  0.295647  1
  O  O51  1  0.114374  0.519040  0.204353  1
  O  O52  1  0.849105  0.622114  0.148245  1
  O  O53  1  0.107307  0.924353  0.148726  1
  O  O54  1  0.549721  0.419359  0.146183  1
  O  O55  1  0.345290  0.659780  0.133180  1
  O  O56  1  0.015443  0.186081  0.116739  1
  O  O57  1  0.429056  0.168573  0.095192  1
  O  O58  1  0.630597  0.886123  0.061810  1
  O  O59  1  0.288096  0.405813  0.020963  1
