# generated using pymatgen
data_Ba2SrI6
_symmetry_space_group_name_H-M   'P 1'
_cell_length_a   8.29727899
_cell_length_b   8.29727899
_cell_length_c   24.89701096
_cell_angle_alpha   90.00000000
_cell_angle_beta   90.00000000
_cell_angle_gamma   90.00000000
_symmetry_Int_Tables_number   1
_chemical_formula_structural   Ba2SrI6
_chemical_formula_sum   'Ba8 Sr4 I24'
_cell_volume   1714.03070211
_cell_formula_units_Z   4
loop_
 _symmetry_equiv_pos_site_id
 _symmetry_equiv_pos_as_xyz
  1  'x, y, z'
loop_
 _atom_site_type_symbol
 _atom_site_label
 _atom_site_symmetry_multiplicity
 _atom_site_fract_x
 _atom_site_fract_y
 _atom_site_fract_z
 _atom_site_occupancy
  Ba  Ba0  1  0.500000  0.000000  0.165162  1
  Ba  Ba1  1  0.000000  0.000000  0.334410  1
  Ba  Ba2  1  0.000000  0.000000  0.665590  1
  Ba  Ba3  1  0.500000  0.000000  0.834838  1
  Ba  Ba4  1  0.500000  0.500000  0.334410  1
  Ba  Ba5  1  0.000000  0.500000  0.165162  1
  Ba  Ba6  1  0.000000  0.500000  0.834838  1
  Ba  Ba7  1  0.500000  0.500000  0.665590  1
  Sr  Sr8  1  0.000000  0.000000  0.000000  1
  Sr  Sr9  1  0.500000  0.000000  0.500000  1
  Sr  Sr10  1  0.000000  0.500000  0.500000  1
  Sr  Sr11  1  0.500000  0.500000  0.000000  1
  I  I12  1  0.261757  0.235577  0.580814  1
  I  I13  1  0.230126  0.225519  0.080877  1
  I  I14  1  0.774481  0.230126  0.919123  1
  I  I15  1  0.264423  0.238243  0.419186  1
  I  I16  1  0.751783  0.246806  0.249820  1
  I  I17  1  0.746806  0.251783  0.750180  1
  I  I18  1  0.246806  0.248217  0.750180  1
  I  I19  1  0.251783  0.253194  0.249820  1
  I  I20  1  0.274481  0.269874  0.919123  1
  I  I21  1  0.764423  0.261757  0.419186  1
  I  I22  1  0.730126  0.274481  0.080877  1
  I  I23  1  0.761757  0.264423  0.580814  1
  I  I24  1  0.238243  0.735577  0.580814  1
  I  I25  1  0.269874  0.725519  0.080877  1
  I  I26  1  0.235577  0.738243  0.419186  1
  I  I27  1  0.725519  0.730126  0.919123  1
  I  I28  1  0.748217  0.746806  0.249820  1
  I  I29  1  0.753194  0.751783  0.750180  1
  I  I30  1  0.253194  0.748217  0.750180  1
  I  I31  1  0.248217  0.753194  0.249820  1
  I  I32  1  0.735577  0.761757  0.419186  1
  I  I33  1  0.225519  0.769874  0.919123  1
  I  I34  1  0.769874  0.774481  0.080877  1
  I  I35  1  0.738243  0.764423  0.580814  1
