# generated using pymatgen
data_Li6V3W3O16
_symmetry_space_group_name_H-M   'P 1'
_cell_length_a   6.06774046
_cell_length_b   6.07480711
_cell_length_c   10.11696540
_cell_angle_alpha   89.01559994
_cell_angle_beta   89.14105052
_cell_angle_gamma   60.29342358
_symmetry_Int_Tables_number   1
_chemical_formula_structural   Li6V3W3O16
_chemical_formula_sum   'Li6 V3 W3 O16'
_cell_volume   323.84762521
_cell_formula_units_Z   1
loop_
 _symmetry_equiv_pos_site_id
 _symmetry_equiv_pos_as_xyz
  1  'x, y, z'
loop_
 _atom_site_type_symbol
 _atom_site_label
 _atom_site_symmetry_multiplicity
 _atom_site_fract_x
 _atom_site_fract_y
 _atom_site_fract_z
 _atom_site_occupancy
  Li  Li0  1  0.662283  0.667716  0.484938  1
  Li  Li1  1  0.668189  0.663259  0.112255  1
  Li  Li2  1  0.994781  0.996062  0.003488  1
  Li  Li3  1  0.990546  0.995271  0.499552  1
  Li  Li4  1  0.330457  0.328113  0.991535  1
  Li  Li5  1  0.334057  0.332459  0.604555  1
  V  V6  1  0.833733  0.833151  0.786435  1
  V  V7  1  0.664552  0.172575  0.285693  1
  V  V8  1  0.167508  0.665268  0.285534  1
  W  W9  1  0.831005  0.341148  0.784383  1
  W  W10  1  0.340797  0.830617  0.784441  1
  W  W11  1  0.172023  0.170157  0.285013  1
  O  O12  1  0.857695  0.306191  0.391967  1
  O  O13  1  0.511625  0.512842  0.670632  1
  O  O14  1  0.662589  0.661440  0.901431  1
  O  O15  1  0.006196  0.006900  0.678877  1
  O  O16  1  0.003125  0.018142  0.182325  1
  O  O17  1  0.302059  0.855706  0.390944  1
  O  O18  1  0.975440  0.507907  0.680755  1
  O  O19  1  0.507637  0.975141  0.681206  1
  O  O20  1  0.153666  0.152374  0.897124  1
  O  O21  1  0.833850  0.866208  0.383444  1
  O  O22  1  0.477450  0.026196  0.179655  1
  O  O23  1  0.029382  0.478518  0.179646  1
  O  O24  1  0.330513  0.315626  0.397144  1
  O  O25  1  0.694842  0.160432  0.890621  1
  O  O26  1  0.502873  0.466058  0.186906  1
  O  O27  1  0.161430  0.694224  0.891659  1
