# generated using pymatgen
data_V3NiO8
_symmetry_space_group_name_H-M   'P 1'
_cell_length_a   6.35694969
_cell_length_b   6.35694969
_cell_length_c   6.46274270
_cell_angle_alpha   73.86425019
_cell_angle_beta   106.13574981
_cell_angle_gamma   145.48335130
_symmetry_Int_Tables_number   1
_chemical_formula_structural   V3NiO8
_chemical_formula_sum   'V3 Ni1 O8'
_cell_volume   141.58262205
_cell_formula_units_Z   1
loop_
 _symmetry_equiv_pos_site_id
 _symmetry_equiv_pos_as_xyz
  1  'x, y, z'
loop_
 _atom_site_type_symbol
 _atom_site_label
 _atom_site_symmetry_multiplicity
 _atom_site_fract_x
 _atom_site_fract_y
 _atom_site_fract_z
 _atom_site_occupancy
  V  V0  1  0.600341  0.399659  0.718087  1
  V  V1  1  0.399558  0.600442  0.275925  1
  V  V2  1  0.705569  0.294431  0.301080  1
  Ni  Ni3  1  0.295452  0.704548  0.692753  1
  O  O4  1  0.868393  0.131607  0.310220  1
  O  O5  1  0.748778  0.251222  0.628237  1
  O  O6  1  0.641962  0.358038  0.010866  1
  O  O7  1  0.551883  0.448117  0.358807  1
  O  O8  1  0.453281  0.546719  0.647894  1
  O  O9  1  0.366079  0.633921  0.010258  1
  O  O10  1  0.243903  0.756097  0.338102  1
  O  O11  1  0.124801  0.875199  0.707771  1
