# generated using pymatgen
data_Li4Mn3Nb5O16
_symmetry_space_group_name_H-M   'P 1'
_cell_length_a   6.22249873
_cell_length_b   6.22249873
_cell_length_c   10.06859305
_cell_angle_alpha   89.21204850
_cell_angle_beta   90.78795150
_cell_angle_gamma   121.35630688
_symmetry_Int_Tables_number   1
_chemical_formula_structural   Li4Mn3Nb5O16
_chemical_formula_sum   'Li4 Mn3 Nb5 O16'
_cell_volume   332.87083855
_cell_formula_units_Z   1
loop_
 _symmetry_equiv_pos_site_id
 _symmetry_equiv_pos_as_xyz
  1  'x, y, z'
loop_
 _atom_site_type_symbol
 _atom_site_label
 _atom_site_symmetry_multiplicity
 _atom_site_fract_x
 _atom_site_fract_y
 _atom_site_fract_z
 _atom_site_occupancy
  Li  Li0  1  0.671843  0.328157  0.091233  1
  Li  Li1  1  0.998487  0.001513  0.012040  1
  Li  Li2  1  0.002169  0.997831  0.511141  1
  Li  Li3  1  0.342029  0.657971  0.600307  1
  Mn  Mn4  1  0.829128  0.661281  0.792725  1
  Mn  Mn5  1  0.338719  0.170872  0.792725  1
  Mn  Mn6  1  0.162669  0.837331  0.288361  1
  Nb  Nb7  1  0.659758  0.340242  0.510376  1
  Nb  Nb8  1  0.826678  0.173322  0.772711  1
  Nb  Nb9  1  0.330566  0.669434  0.001620  1
  Nb  Nb10  1  0.635016  0.816818  0.284487  1
  Nb  Nb11  1  0.183182  0.364984  0.284487  1
  O  O12  1  0.808842  0.659917  0.407345  1
  O  O13  1  0.530626  0.469374  0.644739  1
  O  O14  1  0.684651  0.315349  0.895035  1
  O  O15  1  0.992750  0.007250  0.695956  1
  O  O16  1  0.993727  0.006273  0.195210  1
  O  O17  1  0.340083  0.191158  0.407345  1
  O  O18  1  0.972057  0.468502  0.651477  1
  O  O19  1  0.531498  0.027943  0.651477  1
  O  O20  1  0.169115  0.830885  0.921816  1
  O  O21  1  0.832829  0.167171  0.405458  1
  O  O22  1  0.493636  0.953988  0.155433  1
  O  O23  1  0.046012  0.506364  0.155433  1
  O  O24  1  0.326164  0.673836  0.409873  1
  O  O25  1  0.655518  0.844082  0.905188  1
  O  O26  1  0.486407  0.513593  0.142992  1
  O  O27  1  0.155918  0.344482  0.905188  1
