# generated using pymatgen
data_Rb3SbO3
_symmetry_space_group_name_H-M   'P 1'
_cell_length_a   8.86215294
_cell_length_b   8.86215294
_cell_length_c   8.86215294
_cell_angle_alpha   90.00000000
_cell_angle_beta   90.00000000
_cell_angle_gamma   90.00000000
_symmetry_Int_Tables_number   1
_chemical_formula_structural   Rb3SbO3
_chemical_formula_sum   'Rb12 Sb4 O12'
_cell_volume   696.01359400
_cell_formula_units_Z   4
loop_
 _symmetry_equiv_pos_site_id
 _symmetry_equiv_pos_as_xyz
  1  'x, y, z'
loop_
 _atom_site_type_symbol
 _atom_site_label
 _atom_site_symmetry_multiplicity
 _atom_site_fract_x
 _atom_site_fract_y
 _atom_site_fract_z
 _atom_site_occupancy
  Rb  Rb0  1  0.024884  0.024884  0.024884  1
  Rb  Rb1  1  0.212309  0.287691  0.712309  1
  Rb  Rb2  1  0.218052  0.718052  0.781948  1
  Rb  Rb3  1  0.281948  0.281948  0.281948  1
  Rb  Rb4  1  0.287691  0.712309  0.212309  1
  Rb  Rb5  1  0.475116  0.975116  0.524884  1
  Rb  Rb6  1  0.524884  0.475116  0.975116  1
  Rb  Rb7  1  0.712309  0.212309  0.287691  1
  Rb  Rb8  1  0.718052  0.781948  0.218052  1
  Rb  Rb9  1  0.781948  0.218052  0.718052  1
  Rb  Rb10  1  0.787691  0.787691  0.787691  1
  Rb  Rb11  1  0.975116  0.524884  0.475116  1
  Sb  Sb12  1  0.010432  0.989568  0.489568  1
  Sb  Sb13  1  0.489568  0.010432  0.989568  1
  Sb  Sb14  1  0.510432  0.510432  0.510432  1
  Sb  Sb15  1  0.989568  0.489568  0.010432  1
  O  O16  1  0.004590  0.206546  0.443003  1
  O  O17  1  0.056997  0.995410  0.706546  1
  O  O18  1  0.206546  0.443003  0.004590  1
  O  O19  1  0.293454  0.556997  0.504590  1
  O  O20  1  0.443003  0.004590  0.206546  1
  O  O21  1  0.495410  0.793454  0.943003  1
  O  O22  1  0.504590  0.293454  0.556997  1
  O  O23  1  0.556997  0.504590  0.293454  1
  O  O24  1  0.706546  0.056997  0.995410  1
  O  O25  1  0.793454  0.943003  0.495410  1
  O  O26  1  0.943003  0.495410  0.793454  1
  O  O27  1  0.995410  0.706546  0.056997  1
