# generated using pymatgen
data_Mn2Co3Te3O16
_symmetry_space_group_name_H-M   'P 1'
_cell_length_a   5.96985529
_cell_length_b   5.96985529
_cell_length_c   9.30052133
_cell_angle_alpha   89.79843151
_cell_angle_beta   90.20156849
_cell_angle_gamma   119.41143775
_symmetry_Int_Tables_number   1
_chemical_formula_structural   Mn2Co3Te3O16
_chemical_formula_sum   'Mn2 Co3 Te3 O16'
_cell_volume   288.74015463
_cell_formula_units_Z   1
loop_
 _symmetry_equiv_pos_site_id
 _symmetry_equiv_pos_as_xyz
  1  'x, y, z'
loop_
 _atom_site_type_symbol
 _atom_site_label
 _atom_site_symmetry_multiplicity
 _atom_site_fract_x
 _atom_site_fract_y
 _atom_site_fract_z
 _atom_site_occupancy
  Mn  Mn0  1  0.675629  0.324371  0.511089  1
  Mn  Mn1  1  0.348296  0.651704  0.974836  1
  Co  Co2  1  0.835098  0.164902  0.208488  1
  Co  Co3  1  0.159110  0.342955  0.713162  1
  Co  Co4  1  0.657045  0.840890  0.713162  1
  Te  Te5  1  0.339240  0.165297  0.213717  1
  Te  Te6  1  0.834703  0.660760  0.213717  1
  Te  Te7  1  0.159162  0.840838  0.713467  1
  O  O8  1  0.315738  0.164701  0.607201  1
  O  O9  1  0.519275  0.480725  0.340654  1
  O  O10  1  0.656177  0.343823  0.091164  1
  O  O11  1  0.011109  0.988891  0.324961  1
  O  O12  1  0.991412  0.008588  0.817184  1
  O  O13  1  0.835299  0.684262  0.607201  1
  O  O14  1  0.508356  0.032534  0.329003  1
  O  O15  1  0.967466  0.491644  0.329003  1
  O  O16  1  0.168091  0.831909  0.096890  1
  O  O17  1  0.842569  0.157431  0.604290  1
  O  O18  1  0.029557  0.518455  0.830969  1
  O  O19  1  0.481545  0.970443  0.830969  1
  O  O20  1  0.328206  0.671794  0.607272  1
  O  O21  1  0.179168  0.318789  0.104337  1
  O  O22  1  0.472801  0.527199  0.826022  1
  O  O23  1  0.681211  0.820832  0.104337  1
