# generated using pymatgen
data_Li2V(CO3)2
_symmetry_space_group_name_H-M   'P 1'
_cell_length_a   5.23448184
_cell_length_b   7.76728974
_cell_length_c   7.05079241
_cell_angle_alpha   90.00000000
_cell_angle_beta   113.31650640
_cell_angle_gamma   90.00000000
_symmetry_Int_Tables_number   1
_chemical_formula_structural   Li2V(CO3)2
_chemical_formula_sum   'Li4 V2 C4 O12'
_cell_volume   263.25767050
_cell_formula_units_Z   2
loop_
 _symmetry_equiv_pos_site_id
 _symmetry_equiv_pos_as_xyz
  1  'x, y, z'
loop_
 _atom_site_type_symbol
 _atom_site_label
 _atom_site_symmetry_multiplicity
 _atom_site_fract_x
 _atom_site_fract_y
 _atom_site_fract_z
 _atom_site_occupancy
  Li  Li0  1  0.598531  0.415503  0.232215  1
  Li  Li1  1  0.401469  0.915503  0.267785  1
  Li  Li2  1  0.598531  0.084497  0.732215  1
  Li  Li3  1  0.401469  0.584497  0.767785  1
  V  V4  1  0.000000  0.500000  0.000000  1
  V  V5  1  0.000000  0.000000  0.500000  1
  C  C6  1  0.163338  0.264780  0.358162  1
  C  C7  1  0.836662  0.764781  0.141838  1
  C  C8  1  0.163338  0.235220  0.858162  1
  C  C9  1  0.836662  0.735220  0.641838  1
  O  O10  1  0.924769  0.264400  0.374340  1
  O  O11  1  0.310074  0.122162  0.411943  1
  O  O12  1  0.257793  0.396481  0.296336  1
  O  O13  1  0.742207  0.896481  0.203664  1
  O  O14  1  0.075231  0.764400  0.125660  1
  O  O15  1  0.310074  0.377838  0.911943  1
  O  O16  1  0.689926  0.622162  0.088057  1
  O  O17  1  0.924769  0.235600  0.874340  1
  O  O18  1  0.257793  0.103519  0.796336  1
  O  O19  1  0.742207  0.603519  0.703664  1
  O  O20  1  0.689926  0.877838  0.588057  1
  O  O21  1  0.075231  0.735600  0.625660  1
