# generated using pymatgen
data_NaLi5Mn2P2(CO7)2
_symmetry_space_group_name_H-M   'P 1'
_cell_length_a   6.63461209
_cell_length_b   8.65647415
_cell_length_c   9.98593457
_cell_angle_alpha   91.55015112
_cell_angle_beta   90.08112930
_cell_angle_gamma   90.44380987
_symmetry_Int_Tables_number   1
_chemical_formula_structural   NaLi5Mn2P2(CO7)2
_chemical_formula_sum   'Na2 Li10 Mn4 P4 C4 O28'
_cell_volume   573.28782274
_cell_formula_units_Z   2
loop_
 _symmetry_equiv_pos_site_id
 _symmetry_equiv_pos_as_xyz
  1  'x, y, z'
loop_
 _atom_site_type_symbol
 _atom_site_label
 _atom_site_symmetry_multiplicity
 _atom_site_fract_x
 _atom_site_fract_y
 _atom_site_fract_z
 _atom_site_occupancy
  Na  Na0  1  0.253239  0.084129  0.123117  1
  Na  Na1  1  0.997934  0.250245  0.874103  1
  Li  Li2  1  0.256909  0.080237  0.622840  1
  Li  Li3  1  0.020140  0.263332  0.384815  1
  Li  Li4  1  0.478470  0.264749  0.386280  1
  Li  Li5  1  0.482436  0.266488  0.881667  1
  Li  Li6  1  0.520045  0.735151  0.115556  1
  Li  Li7  1  0.980176  0.734759  0.114836  1
  Li  Li8  1  0.515676  0.738311  0.616918  1
  Li  Li9  1  0.984661  0.739401  0.617100  1
  Li  Li10  1  0.749472  0.916054  0.375225  1
  Li  Li11  1  0.741935  0.914152  0.874616  1
  Mn  Mn12  1  0.746721  0.358216  0.115296  1
  Mn  Mn13  1  0.748874  0.356177  0.609902  1
  Mn  Mn14  1  0.250470  0.647748  0.388048  1
  Mn  Mn15  1  0.249473  0.643594  0.887583  1
  P  P16  1  0.249782  0.413644  0.150486  1
  P  P17  1  0.254441  0.407255  0.645643  1
  P  P18  1  0.750291  0.594726  0.353636  1
  P  P19  1  0.745431  0.594711  0.852816  1
  C  C20  1  0.749385  0.042318  0.134828  1
  C  C21  1  0.747999  0.041910  0.632999  1
  C  C22  1  0.250086  0.957988  0.371433  1
  C  C23  1  0.258408  0.946962  0.859045  1
  O  O24  1  0.248111  0.106940  0.355644  1
  O  O25  1  0.275838  0.095144  0.842838  1
  O  O26  1  0.750444  0.088780  0.012235  1
  O  O27  1  0.749592  0.089043  0.511164  1
  O  O28  1  0.746480  0.142124  0.234262  1
  O  O29  1  0.744115  0.141396  0.732842  1
  O  O30  1  0.060979  0.322422  0.101532  1
  O  O31  1  0.432412  0.321235  0.094840  1
  O  O32  1  0.065067  0.311877  0.600303  1
  O  O33  1  0.434311  0.311836  0.589197  1
  O  O34  1  0.254562  0.416345  0.307404  1
  O  O35  1  0.750438  0.423644  0.399169  1
  O  O36  1  0.267162  0.415997  0.801864  1
  O  O37  1  0.732764  0.426658  0.902581  1
  O  O38  1  0.251332  0.584300  0.104568  1
  O  O39  1  0.749623  0.588949  0.196746  1
  O  O40  1  0.251233  0.576322  0.597119  1
  O  O41  1  0.748945  0.585517  0.695946  1
  O  O42  1  0.566832  0.688729  0.406126  1
  O  O43  1  0.935251  0.689005  0.406642  1
  O  O44  1  0.566269  0.696004  0.902451  1
  O  O45  1  0.933945  0.684239  0.906397  1
  O  O46  1  0.250348  0.863868  0.267975  1
  O  O47  1  0.247493  0.854810  0.754086  1
  O  O48  1  0.252029  0.903510  0.491260  1
  O  O49  1  0.251016  0.889245  0.977173  1
  O  O50  1  0.750817  0.895132  0.160162  1
  O  O51  1  0.750137  0.894675  0.658687  1
