# generated using pymatgen
data_Na2Fe2O5
_symmetry_space_group_name_H-M   'P 1'
_cell_length_a   8.29873923
_cell_length_b   8.29873923
_cell_length_c   8.29873923
_cell_angle_alpha   141.63535385
_cell_angle_beta   141.01617072
_cell_angle_gamma   55.84731875
_symmetry_Int_Tables_number   1
_chemical_formula_structural   Na2Fe2O5
_chemical_formula_sum   'Na4 Fe4 O10'
_cell_volume   221.46009367
_cell_formula_units_Z   2
loop_
 _symmetry_equiv_pos_site_id
 _symmetry_equiv_pos_as_xyz
  1  'x, y, z'
loop_
 _atom_site_type_symbol
 _atom_site_label
 _atom_site_symmetry_multiplicity
 _atom_site_fract_x
 _atom_site_fract_y
 _atom_site_fract_z
 _atom_site_occupancy
  Na  Na0  1  0.915190  0.394838  0.523514  1
  Na  Na1  1  0.628676  0.108324  0.523514  1
  Na  Na2  1  0.084810  0.608324  0.479648  1
  Na  Na3  1  0.371324  0.894838  0.479648  1
  Fe  Fe4  1  0.000000  0.009015  0.009015  1
  Fe  Fe5  1  0.679656  0.711064  0.890721  1
  Fe  Fe6  1  0.500000  0.509015  0.009015  1
  Fe  Fe7  1  0.320344  0.211064  0.031408  1
  O  O8  1  0.257887  0.768676  0.007808  1
  O  O9  1  0.260868  0.268676  0.510788  1
  O  O10  1  0.618936  0.374286  0.493222  1
  O  O11  1  0.911448  0.884795  0.074531  1
  O  O12  1  0.689736  0.663082  0.074531  1
  O  O13  1  0.088552  0.163082  0.973347  1
  O  O14  1  0.310264  0.384795  0.973347  1
  O  O15  1  0.381064  0.874286  0.755350  1
  O  O16  1  0.739132  0.249921  0.007808  1
  O  O17  1  0.742113  0.749921  0.510788  1
