# generated using pymatgen
data_Li34(Sb3S2)3
_symmetry_space_group_name_H-M   'P 1'
_cell_length_a   11.70584846
_cell_length_b   11.70584846
_cell_length_c   11.70584846
_cell_angle_alpha   129.97550449
_cell_angle_beta   129.97550449
_cell_angle_gamma   73.44592784
_symmetry_Int_Tables_number   1
_chemical_formula_structural   Li34(Sb3S2)3
_chemical_formula_sum   'Li34 Sb9 S6'
_cell_volume   919.36153663
_cell_formula_units_Z   1
loop_
 _symmetry_equiv_pos_site_id
 _symmetry_equiv_pos_as_xyz
  1  'x, y, z'
loop_
 _atom_site_type_symbol
 _atom_site_label
 _atom_site_symmetry_multiplicity
 _atom_site_fract_x
 _atom_site_fract_y
 _atom_site_fract_z
 _atom_site_occupancy
  Li  Li0  1  0.716624  0.150708  0.867332  1
  Li  Li1  1  0.052406  0.342680  0.145278  1
  Li  Li2  1  0.150708  0.283376  0.434084  1
  Li  Li3  1  0.484717  0.355538  0.689777  1
  Li  Li4  1  0.653643  0.547074  0.722894  1
  Li  Li5  1  0.930749  0.653643  0.106568  1
  Li  Li6  1  0.794940  0.484717  0.129179  1
  Li  Li7  1  0.657320  0.802599  0.709726  1
  Li  Li8  1  0.073047  0.573047  0.500000  1
  Li  Li9  1  0.250000  0.750000  0.500000  1
  Li  Li10  1  0.426953  0.926953  0.500000  1
  Li  Li11  1  0.092873  0.947594  0.290274  1
  Li  Li12  1  0.355538  0.665761  0.870821  1
  Li  Li13  1  0.547074  0.824180  0.893432  1
  Li  Li14  1  0.824180  0.930749  0.277106  1
  Li  Li15  1  0.802599  0.092873  0.145278  1
  Li  Li16  1  0.665761  0.794940  0.310223  1
  Li  Li17  1  0.849292  0.716624  0.565916  1
  Li  Li18  1  0.334239  0.205060  0.689777  1
  Li  Li19  1  0.197401  0.907127  0.854722  1
  Li  Li20  1  0.175820  0.069251  0.722894  1
  Li  Li21  1  0.283376  0.849292  0.132668  1
  Li  Li22  1  0.452926  0.175820  0.106568  1
  Li  Li23  1  0.644462  0.334239  0.129179  1
  Li  Li24  1  0.907127  0.052406  0.709726  1
  Li  Li25  1  0.750000  0.250000  0.500000  1
  Li  Li26  1  0.926953  0.426953  0.500000  1
  Li  Li27  1  0.573047  0.073047  0.500000  1
  Li  Li28  1  0.342680  0.197401  0.290274  1
  Li  Li29  1  0.205060  0.515283  0.870821  1
  Li  Li30  1  0.069251  0.346357  0.893432  1
  Li  Li31  1  0.346357  0.452926  0.277106  1
  Li  Li32  1  0.515283  0.644462  0.310223  1
  Li  Li33  1  0.947594  0.657320  0.854722  1
  Sb  Sb34  1  0.783214  0.345597  0.816329  1
  Sb  Sb35  1  0.345597  0.529267  0.562383  1
  Sb  Sb36  1  0.500000  0.500000  0.000000  1
  Sb  Sb37  1  0.966885  0.783214  0.437617  1
  Sb  Sb38  1  0.470733  0.033115  0.816329  1
  Sb  Sb39  1  0.529267  0.966885  0.183671  1
  Sb  Sb40  1  0.033115  0.216786  0.562383  1
  Sb  Sb41  1  0.654403  0.470733  0.437617  1
  Sb  Sb42  1  0.216786  0.654403  0.183671  1
  S  S43  1  0.313622  0.100169  0.413791  1
  S  S44  1  0.899831  0.313622  0.213453  1
  S  S45  1  0.815710  0.815710  0.000000  1
  S  S46  1  0.100169  0.686378  0.786547  1
  S  S47  1  0.686378  0.899831  0.586209  1
  S  S48  1  0.184290  0.184290  0.000000  1
