# generated using pymatgen
data_Li6NbFe5O12
_symmetry_space_group_name_H-M   'P 1'
_cell_length_a   5.21312608
_cell_length_b   5.21312608
_cell_length_c   10.31009894
_cell_angle_alpha   85.85266731
_cell_angle_beta   94.14733269
_cell_angle_gamma   59.84949538
_symmetry_Int_Tables_number   1
_chemical_formula_structural   Li6NbFe5O12
_chemical_formula_sum   'Li6 Nb1 Fe5 O12'
_cell_volume   239.72693391
_cell_formula_units_Z   1
loop_
 _symmetry_equiv_pos_site_id
 _symmetry_equiv_pos_as_xyz
  1  'x, y, z'
loop_
 _atom_site_type_symbol
 _atom_site_label
 _atom_site_symmetry_multiplicity
 _atom_site_fract_x
 _atom_site_fract_y
 _atom_site_fract_z
 _atom_site_occupancy
  Li  Li0  1  0.297396  0.053306  0.752886  1
  Li  Li1  1  0.043004  0.299872  0.242281  1
  Li  Li2  1  0.385611  0.614389  0.252078  1
  Li  Li3  1  0.617509  0.382491  0.757508  1
  Li  Li4  1  0.946694  0.702604  0.752886  1
  Li  Li5  1  0.700128  0.956996  0.242281  1
  Nb  Nb6  1  0.021820  0.978180  0.999002  1
  Fe  Fe7  1  0.661415  0.669643  0.000140  1
  Fe  Fe8  1  0.500214  0.499786  0.502859  1
  Fe  Fe9  1  0.330357  0.338585  0.000140  1
  Fe  Fe10  1  0.832607  0.835734  0.498987  1
  Fe  Fe11  1  0.164266  0.167393  0.498987  1
  O  O12  1  0.657483  0.019919  0.885683  1
  O  O13  1  0.030204  0.656020  0.122505  1
  O  O14  1  0.537293  0.799723  0.612570  1
  O  O15  1  0.133089  0.866911  0.390914  1
  O  O16  1  0.796718  0.535855  0.387310  1
  O  O17  1  0.283825  0.716175  0.874400  1
  O  O18  1  0.705705  0.294295  0.108182  1
  O  O19  1  0.200277  0.462707  0.612570  1
  O  O20  1  0.866634  0.133366  0.610519  1
  O  O21  1  0.464145  0.203282  0.387310  1
  O  O22  1  0.980081  0.342517  0.885683  1
  O  O23  1  0.343980  0.969796  0.122505  1
