# generated using pymatgen
data_Li2Ti7Nb6O30
_symmetry_space_group_name_H-M   'P 1'
_cell_length_a   5.20402601
_cell_length_b   5.20402601
_cell_length_c   24.02098796
_cell_angle_alpha   90.00000000
_cell_angle_beta   90.00000000
_cell_angle_gamma   120.00000000
_symmetry_Int_Tables_number   1
_chemical_formula_structural   Li2Ti7Nb6O30
_chemical_formula_sum   'Li2 Ti7 Nb6 O30'
_cell_volume   563.37868911
_cell_formula_units_Z   1
loop_
 _symmetry_equiv_pos_site_id
 _symmetry_equiv_pos_as_xyz
  1  'x, y, z'
loop_
 _atom_site_type_symbol
 _atom_site_label
 _atom_site_symmetry_multiplicity
 _atom_site_fract_x
 _atom_site_fract_y
 _atom_site_fract_z
 _atom_site_occupancy
  Li  Li0  1  0.333333  0.666667  0.207713  1
  Li  Li1  1  0.333333  0.666667  0.474860  1
  Ti  Ti2  1  0.000000  0.000000  0.286018  1
  Ti  Ti3  1  0.000000  0.000000  0.884460  1
  Ti  Ti4  1  0.000000  0.000000  0.005538  1
  Ti  Ti5  1  0.000000  0.000000  0.696957  1
  Ti  Ti6  1  0.333333  0.666667  0.978295  1
  Ti  Ti7  1  0.333333  0.666667  0.718435  1
  Ti  Ti8  1  0.333333  0.666667  0.314567  1
  Nb  Nb9  1  0.000000  0.000000  0.412982  1
  Nb  Nb10  1  0.666667  0.333333  0.197843  1
  Nb  Nb11  1  0.666667  0.333333  0.505369  1
  Nb  Nb12  1  0.666667  0.333333  0.804005  1
  Nb  Nb13  1  0.333333  0.666667  0.099425  1
  Nb  Nb14  1  0.333333  0.666667  0.597865  1
  O  O15  1  0.591532  0.995691  0.153479  1
  O  O16  1  0.687436  0.931739  0.346879  1
  O  O17  1  0.670385  0.003701  0.746527  1
  O  O18  1  0.967599  0.303919  0.450866  1
  O  O19  1  0.650803  0.727960  0.045928  1
  O  O20  1  0.077157  0.349197  0.045928  1
  O  O21  1  0.696081  0.663680  0.450866  1
  O  O22  1  0.996299  0.666684  0.746527  1
  O  O23  1  0.244304  0.312564  0.346879  1
  O  O24  1  0.004309  0.595842  0.153479  1
  O  O25  1  0.333316  0.329615  0.746527  1
  O  O26  1  0.068261  0.755696  0.346879  1
  O  O27  1  0.007073  0.611378  0.548070  1
  O  O28  1  0.404158  0.408468  0.153479  1
  O  O29  1  0.061015  0.751794  0.947832  1
  O  O30  1  0.272040  0.922843  0.045928  1
  O  O31  1  0.944577  0.277053  0.845552  1
  O  O32  1  0.336320  0.032401  0.450866  1
  O  O33  1  0.254363  0.908228  0.655051  1
  O  O34  1  0.006310  0.339332  0.252983  1
  O  O35  1  0.332476  0.055423  0.845552  1
  O  O36  1  0.091772  0.346134  0.655051  1
  O  O37  1  0.333022  0.993690  0.252983  1
  O  O38  1  0.604304  0.992927  0.548070  1
  O  O39  1  0.248206  0.309222  0.947832  1
  O  O40  1  0.690778  0.938985  0.947832  1
  O  O41  1  0.388622  0.395696  0.548070  1
  O  O42  1  0.660668  0.666978  0.252983  1
  O  O43  1  0.653866  0.745637  0.655051  1
  O  O44  1  0.722947  0.667524  0.845552  1
