# generated using pymatgen
data_LiFeO3
_symmetry_space_group_name_H-M   'P 1'
_cell_length_a   4.90058045
_cell_length_b   4.97252619
_cell_length_c   8.11935711
_cell_angle_alpha   90.00000000
_cell_angle_beta   90.00000000
_cell_angle_gamma   90.00000000
_symmetry_Int_Tables_number   1
_chemical_formula_structural   LiFeO3
_chemical_formula_sum   'Li4 Fe4 O12'
_cell_volume   197.85464271
_cell_formula_units_Z   4
loop_
 _symmetry_equiv_pos_site_id
 _symmetry_equiv_pos_as_xyz
  1  'x, y, z'
loop_
 _atom_site_type_symbol
 _atom_site_label
 _atom_site_symmetry_multiplicity
 _atom_site_fract_x
 _atom_site_fract_y
 _atom_site_fract_z
 _atom_site_occupancy
  Li  Li0  1  0.500000  0.750000  0.696879  1
  Li  Li1  1  0.000000  0.750000  0.803121  1
  Li  Li2  1  0.500000  0.250000  0.303121  1
  Li  Li3  1  0.000000  0.250000  0.196879  1
  Fe  Fe4  1  0.500000  0.750000  0.095420  1
  Fe  Fe5  1  0.000000  0.750000  0.404580  1
  Fe  Fe6  1  0.500000  0.250000  0.904580  1
  Fe  Fe7  1  0.000000  0.250000  0.595420  1
  O  O8  1  0.250000  0.596848  0.250000  1
  O  O9  1  0.195775  0.571320  0.580897  1
  O  O10  1  0.304225  0.571320  0.919103  1
  O  O11  1  0.804225  0.428680  0.419103  1
  O  O12  1  0.695775  0.428680  0.080897  1
  O  O13  1  0.750000  0.403152  0.750000  1
  O  O14  1  0.250000  0.096848  0.750000  1
  O  O15  1  0.304225  0.071320  0.080897  1
  O  O16  1  0.195775  0.071320  0.419103  1
  O  O17  1  0.695775  0.928680  0.919103  1
  O  O18  1  0.804225  0.928680  0.580897  1
  O  O19  1  0.750000  0.903152  0.250000  1
