# generated using pymatgen
data_Al(CrB)2
_symmetry_space_group_name_H-M   'P 1'
_cell_length_a   5.71756567
_cell_length_b   5.71756567
_cell_length_c   2.93991177
_cell_angle_alpha   90.00000000
_cell_angle_beta   90.00000000
_cell_angle_gamma   150.33650498
_symmetry_Int_Tables_number   1
_chemical_formula_structural   Al(CrB)2
_chemical_formula_sum   'Al1 Cr2 B2'
_cell_volume   47.56402291
_cell_formula_units_Z   1
loop_
 _symmetry_equiv_pos_site_id
 _symmetry_equiv_pos_as_xyz
  1  'x, y, z'
loop_
 _atom_site_type_symbol
 _atom_site_label
 _atom_site_symmetry_multiplicity
 _atom_site_fract_x
 _atom_site_fract_y
 _atom_site_fract_z
 _atom_site_occupancy
  Al  Al0  1  0.500000  0.500000  0.500000  1
  Cr  Cr1  1  0.851973  0.148027  1.000000  1
  Cr  Cr2  1  0.148027  0.851973  1.000000  1
  B  B3  1  0.705646  0.294354  0.500000  1
  B  B4  1  0.294354  0.705646  0.500000  1
