# generated using pymatgen
data_Li3MnFe2(BO3)3
_symmetry_space_group_name_H-M   'P 1'
_cell_length_a   8.25420898
_cell_length_b   3.15172671
_cell_length_c   14.30723964
_cell_angle_alpha   90.00000000
_cell_angle_beta   90.06399604
_cell_angle_gamma   90.00000000
_symmetry_Int_Tables_number   1
_chemical_formula_structural   Li3MnFe2(BO3)3
_chemical_formula_sum   'Li6 Mn2 Fe4 B6 O18'
_cell_volume   372.20276335
_cell_formula_units_Z   2
loop_
 _symmetry_equiv_pos_site_id
 _symmetry_equiv_pos_as_xyz
  1  'x, y, z'
loop_
 _atom_site_type_symbol
 _atom_site_label
 _atom_site_symmetry_multiplicity
 _atom_site_fract_x
 _atom_site_fract_y
 _atom_site_fract_z
 _atom_site_occupancy
  Li  Li0  1  0.707187  0.500000  0.990951  1
  Li  Li1  1  0.660985  0.500000  0.358883  1
  Li  Li2  1  0.634225  0.500000  0.650530  1
  Li  Li3  1  0.206551  0.500000  0.492689  1
  Li  Li4  1  0.157867  0.500000  0.856917  1
  Li  Li5  1  0.132287  0.500000  0.151147  1
  Mn  Mn6  1  0.366799  0.000000  0.005649  1
  Mn  Mn7  1  0.325627  0.000000  0.314314  1
  Fe  Fe8  1  0.863367  0.000000  0.504497  1
  Fe  Fe9  1  0.824141  0.000000  0.815530  1
  Fe  Fe10  1  0.813097  0.000000  0.179293  1
  Fe  Fe11  1  0.312405  0.000000  0.679699  1
  B  B12  1  0.999989  0.500000  0.666697  1
  B  B13  1  0.998596  0.000000  0.998954  1
  B  B14  1  0.997752  0.500000  0.333325  1
  B  B15  1  0.502378  0.500000  0.167355  1
  B  B16  1  0.499605  0.000000  0.501228  1
  B  B17  1  0.501017  0.500000  0.832284  1
  O  O18  1  0.986477  0.500000  0.430359  1
  O  O19  1  0.981484  0.500000  0.763424  1
  O  O20  1  0.863799  0.500000  0.608816  1
  O  O21  1  0.858220  0.500000  0.278526  1
  O  O22  1  0.846053  0.000000  0.957464  1
  O  O23  1  0.655138  0.500000  0.126239  1
  O  O24  1  0.652341  0.500000  0.789578  1
  O  O25  1  0.638530  0.000000  0.445848  1
  O  O26  1  0.513929  0.000000  0.598127  1
  O  O27  1  0.490140  0.500000  0.929193  1
  O  O28  1  0.487354  0.500000  0.264243  1
  O  O29  1  0.363140  0.500000  0.111987  1
  O  O30  1  0.360503  0.500000  0.778437  1
  O  O31  1  0.346681  0.000000  0.460183  1
  O  O32  1  0.154582  0.500000  0.627558  1
  O  O33  1  0.148581  0.500000  0.290561  1
  O  O34  1  0.136715  0.000000  0.943330  1
  O  O35  1  0.012462  0.000000  0.096188  1
