# generated using pymatgen
data_ZnNi9O10
_symmetry_space_group_name_H-M   'P 1'
_cell_length_a   5.19494860
_cell_length_b   5.99848092
_cell_length_c   6.70847343
_cell_angle_alpha   77.09430924
_cell_angle_beta   75.01823823
_cell_angle_gamma   73.21405905
_symmetry_Int_Tables_number   1
_chemical_formula_structural   ZnNi9O10
_chemical_formula_sum   'Zn1 Ni9 O10'
_cell_volume   190.82248119
_cell_formula_units_Z   1
loop_
 _symmetry_equiv_pos_site_id
 _symmetry_equiv_pos_as_xyz
  1  'x, y, z'
loop_
 _atom_site_type_symbol
 _atom_site_label
 _atom_site_symmetry_multiplicity
 _atom_site_fract_x
 _atom_site_fract_y
 _atom_site_fract_z
 _atom_site_occupancy
  Zn  Zn0  1  0.000000  0.500000  0.000000  1
  Ni  Ni1  1  0.399948  0.099431  0.200846  1
  Ni  Ni2  1  0.401347  0.599993  0.200142  1
  Ni  Ni3  1  0.800028  0.199184  0.401893  1
  Ni  Ni4  1  0.200982  0.299566  0.598902  1
  Ni  Ni5  1  0.799018  0.700434  0.401098  1
  Ni  Ni6  1  0.199972  0.800816  0.598107  1
  Ni  Ni7  1  0.598653  0.400007  0.799858  1
  Ni  Ni8  1  0.600052  0.900569  0.799154  1
  Ni  Ni9  1  0.000000  0.000000  0.000000  1
  O  O10  1  0.695934  0.298061  0.100065  1
  O  O11  1  0.100535  0.398737  0.304039  1
  O  O12  1  0.697244  0.803424  0.100927  1
  O  O13  1  0.099062  0.900540  0.299785  1
  O  O14  1  0.900938  0.099460  0.700215  1
  O  O15  1  0.500000  0.500000  0.500000  1
  O  O16  1  0.302756  0.196576  0.899073  1
  O  O17  1  0.899465  0.601263  0.695961  1
  O  O18  1  0.500000  0.000000  0.500000  1
  O  O19  1  0.304066  0.701939  0.899935  1
