# generated using pymatgen
data_Ca5P3HO13
_symmetry_space_group_name_H-M   'P 1'
_cell_length_a   9.50280915
_cell_length_b   6.93592362
_cell_length_c   18.99323091
_cell_angle_alpha   90.00000000
_cell_angle_beta   119.99032913
_cell_angle_gamma   90.00000000
_symmetry_Int_Tables_number   1
_chemical_formula_structural   Ca5P3HO13
_chemical_formula_sum   'Ca20 P12 H4 O52'
_cell_volume   1084.24668506
_cell_formula_units_Z   4
loop_
 _symmetry_equiv_pos_site_id
 _symmetry_equiv_pos_as_xyz
  1  'x, y, z'
loop_
 _atom_site_type_symbol
 _atom_site_label
 _atom_site_symmetry_multiplicity
 _atom_site_fract_x
 _atom_site_fract_y
 _atom_site_fract_z
 _atom_site_occupancy
  Ca  Ca0  1  0.833897  0.500330  0.079799  1
  Ca  Ca1  1  0.166103  0.000330  0.420201  1
  Ca  Ca2  1  0.166103  0.499670  0.920201  1
  Ca  Ca3  1  0.833897  0.999670  0.579799  1
  Ca  Ca4  1  0.832815  0.998092  0.087036  1
  Ca  Ca5  1  0.167185  0.498092  0.412964  1
  Ca  Ca6  1  0.167185  0.001908  0.912964  1
  Ca  Ca7  1  0.832815  0.501908  0.587036  1
  Ca  Ca8  1  0.246879  0.753486  0.746788  1
  Ca  Ca9  1  0.753121  0.253486  0.753212  1
  Ca  Ca10  1  0.753121  0.246514  0.253212  1
  Ca  Ca11  1  0.246879  0.746514  0.246788  1
  Ca  Ca12  1  0.252948  0.243600  0.123421  1
  Ca  Ca13  1  0.747052  0.743600  0.376579  1
  Ca  Ca14  1  0.747052  0.756400  0.876579  1
  Ca  Ca15  1  0.252948  0.256400  0.623421  1
  Ca  Ca16  1  0.493611  0.256512  0.873364  1
  Ca  Ca17  1  0.506389  0.756512  0.626636  1
  Ca  Ca18  1  0.506389  0.743488  0.126636  1
  Ca  Ca19  1  0.493611  0.243488  0.373364  1
  P  P20  1  0.469756  0.754874  0.934015  1
  P  P21  1  0.530244  0.254874  0.565985  1
  P  P22  1  0.530244  0.245126  0.065985  1
  P  P23  1  0.469756  0.745126  0.434015  1
  P  P24  1  0.898132  0.755470  0.764953  1
  P  P25  1  0.101868  0.255470  0.735047  1
  P  P26  1  0.101868  0.244530  0.235047  1
  P  P27  1  0.898132  0.744530  0.264953  1
  P  P28  1  0.868398  0.251542  0.949147  1
  P  P29  1  0.131602  0.751542  0.550853  1
  P  P30  1  0.131602  0.748458  0.050853  1
  P  P31  1  0.868398  0.248458  0.449147  1
  H  H32  1  0.500129  0.942730  0.750054  1
  H  H33  1  0.499871  0.442730  0.749946  1
  H  H34  1  0.499871  0.057270  0.249946  1
  H  H35  1  0.500129  0.557270  0.250054  1
  O  O36  1  0.656594  0.760023  0.992157  1
  O  O37  1  0.343406  0.260023  0.507843  1
  O  O38  1  0.343406  0.239977  0.007843  1
  O  O39  1  0.656594  0.739977  0.492157  1
  O  O40  1  0.171941  0.260041  0.828486  1
  O  O41  1  0.828059  0.760041  0.671514  1
  O  O42  1  0.828059  0.739959  0.171514  1
  O  O43  1  0.171941  0.239959  0.328486  1
  O  O44  1  0.015060  0.745744  0.085957  1
  O  O45  1  0.984940  0.245744  0.414043  1
  O  O46  1  0.984940  0.254256  0.914043  1
  O  O47  1  0.015060  0.754256  0.585957  1
  O  O48  1  0.378295  0.736642  0.982882  1
  O  O49  1  0.621705  0.236642  0.517118  1
  O  O50  1  0.621705  0.263358  0.017118  1
  O  O51  1  0.378295  0.763358  0.482882  1
  O  O52  1  0.087676  0.742587  0.811172  1
  O  O53  1  0.912324  0.242587  0.688828  1
  O  O54  1  0.912324  0.257413  0.188828  1
  O  O55  1  0.087676  0.757413  0.311172  1
  O  O56  1  0.965475  0.232311  0.043709  1
  O  O57  1  0.034525  0.732311  0.456291  1
  O  O58  1  0.034525  0.767689  0.956291  1
  O  O59  1  0.965475  0.267689  0.543709  1
  O  O60  1  0.421498  0.581887  0.874472  1
  O  O61  1  0.578502  0.081887  0.625528  1
  O  O62  1  0.578502  0.418113  0.125528  1
  O  O63  1  0.421498  0.918113  0.374472  1
  O  O64  1  0.832451  0.579044  0.790355  1
  O  O65  1  0.167549  0.079044  0.709645  1
  O  O66  1  0.167549  0.420956  0.209645  1
  O  O67  1  0.832451  0.920956  0.290355  1
  O  O68  1  0.746608  0.081242  0.913174  1
  O  O69  1  0.253392  0.581242  0.586826  1
  O  O70  1  0.253392  0.918758  0.086826  1
  O  O71  1  0.746608  0.418758  0.413174  1
  O  O72  1  0.406875  0.941626  0.882209  1
  O  O73  1  0.593125  0.441626  0.617791  1
  O  O74  1  0.593125  0.058374  0.117791  1
  O  O75  1  0.406875  0.558374  0.382209  1
  O  O76  1  0.852148  0.939709  0.795084  1
  O  O77  1  0.147852  0.439709  0.704916  1
  O  O78  1  0.147852  0.060291  0.204916  1
  O  O79  1  0.852148  0.560291  0.295084  1
  O  O80  1  0.767269  0.440435  0.928980  1
  O  O81  1  0.232731  0.940435  0.571020  1
  O  O82  1  0.232731  0.559565  0.071020  1
  O  O83  1  0.767269  0.059565  0.428980  1
  O  O84  1  0.500884  0.801033  0.750250  1
  O  O85  1  0.499116  0.301033  0.749750  1
  O  O86  1  0.499116  0.198967  0.249750  1
  O  O87  1  0.500884  0.698967  0.250250  1
