# generated using pymatgen
data_LiFe3P3O11
_symmetry_space_group_name_H-M   'P 1'
_cell_length_a   8.04087747
_cell_length_b   9.07751374
_cell_length_c   11.47227930
_cell_angle_alpha   90.00000000
_cell_angle_beta   97.25541510
_cell_angle_gamma   90.00000000
_symmetry_Int_Tables_number   1
_chemical_formula_structural   LiFe3P3O11
_chemical_formula_sum   'Li4 Fe12 P12 O44'
_cell_volume   830.67030675
_cell_formula_units_Z   4
loop_
 _symmetry_equiv_pos_site_id
 _symmetry_equiv_pos_as_xyz
  1  'x, y, z'
loop_
 _atom_site_type_symbol
 _atom_site_label
 _atom_site_symmetry_multiplicity
 _atom_site_fract_x
 _atom_site_fract_y
 _atom_site_fract_z
 _atom_site_occupancy
  Li  Li0  1  0.878830  0.731273  0.031696  1
  Li  Li1  1  0.878830  0.768727  0.531696  1
  Li  Li2  1  0.121170  0.231273  0.468304  1
  Li  Li3  1  0.121170  0.268727  0.968304  1
  Fe  Fe4  1  0.932191  0.367014  0.739661  1
  Fe  Fe5  1  0.932191  0.132986  0.239661  1
  Fe  Fe6  1  0.546727  0.357236  0.571660  1
  Fe  Fe7  1  0.576910  0.377269  0.850081  1
  Fe  Fe8  1  0.546727  0.142764  0.071660  1
  Fe  Fe9  1  0.423090  0.877269  0.649919  1
  Fe  Fe10  1  0.576910  0.122731  0.350081  1
  Fe  Fe11  1  0.453273  0.857236  0.928340  1
  Fe  Fe12  1  0.423090  0.622731  0.149919  1
  Fe  Fe13  1  0.453273  0.642764  0.428340  1
  Fe  Fe14  1  0.067809  0.867014  0.760339  1
  Fe  Fe15  1  0.067809  0.632986  0.260339  1
  P  P16  1  0.788282  0.069191  0.603735  1
  P  P17  1  0.778397  0.062675  0.855041  1
  P  P18  1  0.788282  0.430809  0.103735  1
  P  P19  1  0.680023  0.670729  0.702383  1
  P  P20  1  0.778397  0.437325  0.355041  1
  P  P21  1  0.680023  0.829271  0.202383  1
  P  P22  1  0.319977  0.170729  0.797617  1
  P  P23  1  0.221603  0.562675  0.644959  1
  P  P24  1  0.319977  0.329271  0.297617  1
  P  P25  1  0.211718  0.569191  0.896265  1
  P  P26  1  0.221603  0.937325  0.144959  1
  P  P27  1  0.211718  0.930809  0.396265  1
  O  O28  1  0.958295  0.991702  0.618011  1
  O  O29  1  0.939768  0.976761  0.880532  1
  O  O30  1  0.958295  0.508298  0.118011  1
  O  O31  1  0.863764  0.716394  0.718173  1
  O  O32  1  0.792636  0.239652  0.607716  1
  O  O33  1  0.939768  0.523239  0.380532  1
  O  O34  1  0.863764  0.783606  0.218173  1
  O  O35  1  0.797566  0.232488  0.855626  1
  O  O36  1  0.792636  0.260348  0.107716  1
  O  O37  1  0.674036  0.496336  0.712391  1
  O  O38  1  0.695078  0.020450  0.717960  1
  O  O39  1  0.797566  0.267512  0.355626  1
  O  O40  1  0.676821  0.485506  0.995409  1
  O  O41  1  0.602386  0.727395  0.577666  1
  O  O42  1  0.648041  0.016628  0.934371  1
  O  O43  1  0.674036  0.003664  0.212391  1
  O  O44  1  0.695078  0.479550  0.217960  1
  O  O45  1  0.566685  0.742476  0.788079  1
  O  O46  1  0.676821  0.014494  0.495409  1
  O  O47  1  0.602386  0.772605  0.077666  1
  O  O48  1  0.648041  0.483372  0.434371  1
  O  O49  1  0.566685  0.757524  0.288079  1
  O  O50  1  0.433315  0.242476  0.711921  1
  O  O51  1  0.351959  0.516628  0.565629  1
  O  O52  1  0.397614  0.227395  0.922334  1
  O  O53  1  0.323179  0.985506  0.504591  1
  O  O54  1  0.433315  0.257524  0.211921  1
  O  O55  1  0.304922  0.520450  0.782040  1
  O  O56  1  0.325964  0.996336  0.787609  1
  O  O57  1  0.351959  0.983372  0.065629  1
  O  O58  1  0.397614  0.272605  0.422334  1
  O  O59  1  0.323179  0.514494  0.004591  1
  O  O60  1  0.202434  0.732488  0.644374  1
  O  O61  1  0.304922  0.979550  0.282040  1
  O  O62  1  0.325964  0.503664  0.287609  1
  O  O63  1  0.207364  0.739652  0.892284  1
  O  O64  1  0.202434  0.767512  0.144374  1
  O  O65  1  0.136236  0.216394  0.781827  1
  O  O66  1  0.060232  0.476761  0.619468  1
  O  O67  1  0.207364  0.760348  0.392284  1
  O  O68  1  0.136236  0.283606  0.281827  1
  O  O69  1  0.041705  0.491702  0.881989  1
  O  O70  1  0.060232  0.023239  0.119468  1
  O  O71  1  0.041705  0.008298  0.381989  1
