# generated using pymatgen
data_Li5V(PO4)3
_symmetry_space_group_name_H-M   'P 1'
_cell_length_a   8.51153491
_cell_length_b   8.56546252
_cell_length_c   8.58421610
_cell_angle_alpha   62.66639912
_cell_angle_beta   62.22763303
_cell_angle_gamma   62.65724061
_symmetry_Int_Tables_number   1
_chemical_formula_structural   Li5V(PO4)3
_chemical_formula_sum   'Li10 V2 P6 O24'
_cell_volume   467.33529683
_cell_formula_units_Z   2
loop_
 _symmetry_equiv_pos_site_id
 _symmetry_equiv_pos_as_xyz
  1  'x, y, z'
loop_
 _atom_site_type_symbol
 _atom_site_label
 _atom_site_symmetry_multiplicity
 _atom_site_fract_x
 _atom_site_fract_y
 _atom_site_fract_z
 _atom_site_occupancy
  Li  Li0  1  0.490390  0.101104  0.799277  1
  Li  Li1  1  0.579901  0.995002  0.416321  1
  Li  Li2  1  0.994431  0.418590  0.579921  1
  Li  Li3  1  0.399590  0.410630  0.409263  1
  Li  Li4  1  0.262101  0.272876  0.254393  1
  Li  Li5  1  0.596556  0.586812  0.595884  1
  Li  Li6  1  0.746999  0.734344  0.723094  1
  Li  Li7  1  0.201703  0.902445  0.503543  1
  Li  Li8  1  0.799444  0.504908  0.101852  1
  Li  Li9  1  0.412529  0.571017  0.990934  1
  V  V10  1  0.098985  0.109692  0.113142  1
  V  V11  1  0.894421  0.888795  0.899498  1
  P  P12  1  0.288645  0.001485  0.711046  1
  P  P13  1  0.191574  0.498013  0.810406  1
  P  P14  1  0.806597  0.193145  0.511024  1
  P  P15  1  0.714575  0.288976  0.998355  1
  P  P16  1  0.001295  0.709810  0.285175  1
  P  P17  1  0.497336  0.806527  0.199048  1
  O  O18  1  0.802041  0.130987  0.912633  1
  O  O19  1  0.227977  0.093509  0.857770  1
  O  O20  1  0.289811  0.143552  0.517941  1
  O  O21  1  0.707216  0.479971  0.851217  1
  O  O22  1  0.628960  0.215277  0.487819  1
  O  O23  1  0.354203  0.544026  0.790111  1
  O  O24  1  0.998353  0.152841  0.349660  1
  O  O25  1  0.991364  0.650096  0.855722  1
  O  O26  1  0.211237  0.459382  0.645134  1
  O  O27  1  0.797143  0.355966  0.547153  1
  O  O28  1  0.330120  0.988826  0.171624  1
  O  O29  1  0.651503  0.855244  0.003952  1
  O  O30  1  0.848834  0.252912  0.097628  1
  O  O31  1  0.149333  0.900410  0.764473  1
  O  O32  1  0.486094  0.863834  0.705215  1
  O  O33  1  0.521794  0.284372  0.141211  1
  O  O34  1  0.158297  0.525687  0.285564  1
  O  O35  1  0.855041  0.705466  0.477374  1
  O  O36  1  0.164481  0.333176  0.000326  1
  O  O37  1  0.839861  0.000068  0.668274  1
  O  O38  1  0.518030  0.793184  0.373534  1
  O  O39  1  0.487776  0.627290  0.210157  1
  O  O40  1  0.078522  0.872421  0.214978  1
  O  O41  1  0.906757  0.759254  0.143894  1
