# generated using pymatgen
data_Li4V3P8O29
_symmetry_space_group_name_H-M   'P 1'
_cell_length_a   9.79812038
_cell_length_b   9.79812038
_cell_length_c   14.09911559
_cell_angle_alpha   89.91996504
_cell_angle_beta   90.08003496
_cell_angle_gamma   120.09820659
_symmetry_Int_Tables_number   1
_chemical_formula_structural   Li4V3P8O29
_chemical_formula_sum   'Li8 V6 P16 O58'
_cell_volume   1171.05381598
_cell_formula_units_Z   2
loop_
 _symmetry_equiv_pos_site_id
 _symmetry_equiv_pos_as_xyz
  1  'x, y, z'
loop_
 _atom_site_type_symbol
 _atom_site_label
 _atom_site_symmetry_multiplicity
 _atom_site_fract_x
 _atom_site_fract_y
 _atom_site_fract_z
 _atom_site_occupancy
  Li  Li0  1  0.317549  0.223694  0.057750  1
  Li  Li1  1  0.313975  0.085645  0.560796  1
  Li  Li2  1  0.776306  0.682451  0.557750  1
  Li  Li3  1  0.914355  0.686025  0.060796  1
  Li  Li4  1  0.085645  0.313975  0.939204  1
  Li  Li5  1  0.223694  0.317549  0.442250  1
  Li  Li6  1  0.686025  0.914355  0.439204  1
  Li  Li7  1  0.682451  0.776306  0.942250  1
  V  V8  1  0.569869  0.569869  0.750000  1
  V  V9  1  0.430811  0.994126  0.755867  1
  V  V10  1  0.005874  0.569189  0.255867  1
  V  V11  1  0.994126  0.430811  0.744133  1
  V  V12  1  0.569189  0.005874  0.244133  1
  V  V13  1  0.430131  0.430131  0.250000  1
  P  P14  1  0.321785  0.231872  0.840270  1
  P  P15  1  0.319671  0.085534  0.344749  1
  P  P16  1  0.768128  0.678215  0.340270  1
  P  P17  1  0.661028  0.331185  0.628858  1
  P  P18  1  0.668815  0.338972  0.128858  1
  P  P19  1  0.914466  0.680329  0.844749  1
  P  P20  1  0.086340  0.771319  0.660787  1
  P  P21  1  0.771319  0.086340  0.839213  1
  P  P22  1  0.228681  0.913660  0.160787  1
  P  P23  1  0.913660  0.228681  0.339213  1
  P  P24  1  0.085534  0.319671  0.155251  1
  P  P25  1  0.331185  0.661028  0.871142  1
  P  P26  1  0.338972  0.668815  0.371142  1
  P  P27  1  0.231872  0.321785  0.659730  1
  P  P28  1  0.680329  0.914466  0.655251  1
  P  P29  1  0.678215  0.768128  0.159730  1
  O  O30  1  0.238914  0.242288  0.570912  1
  O  O31  1  0.336994  0.251996  0.339411  1
  O  O32  1  0.206292  0.991550  0.256479  1
  O  O33  1  0.237238  0.006494  0.075802  1
  O  O34  1  0.481193  0.381642  0.823407  1
  O  O35  1  0.341238  0.084690  0.833900  1
  O  O36  1  0.513898  0.328687  0.167355  1
  O  O37  1  0.618358  0.518807  0.323407  1
  O  O38  1  0.757712  0.761086  0.070912  1
  O  O39  1  0.748004  0.663006  0.839411  1
  O  O40  1  0.512435  0.182076  0.670887  1
  O  O41  1  0.671313  0.486102  0.667355  1
  O  O42  1  0.479475  0.096037  0.319912  1
  O  O43  1  0.665317  0.330617  0.523512  1
  O  O44  1  0.669383  0.334683  0.023512  1
  O  O45  1  0.617751  0.095420  0.823497  1
  O  O46  1  0.817924  0.487565  0.170887  1
  O  O47  1  0.667819  0.187195  0.174356  1
  O  O48  1  0.915310  0.658762  0.333900  1
  O  O49  1  0.008450  0.793708  0.756479  1
  O  O50  1  0.993082  0.748013  0.936285  1
  O  O51  1  0.993506  0.762762  0.575802  1
  O  O52  1  0.903963  0.520525  0.819912  1
  O  O53  1  0.812805  0.332181  0.674356  1
  O  O54  1  0.744433  0.083829  0.338456  1
  O  O55  1  0.083829  0.744433  0.161544  1
  O  O56  1  0.904580  0.382249  0.323497  1
  O  O57  1  0.251987  0.006918  0.436285  1
  O  O58  1  0.748013  0.993082  0.563715  1
  O  O59  1  0.095420  0.617751  0.676503  1
  O  O60  1  0.916171  0.255567  0.838456  1
  O  O61  1  0.793708  0.008450  0.743521  1
  O  O62  1  0.255567  0.916171  0.661544  1
  O  O63  1  0.187195  0.667819  0.325644  1
  O  O64  1  0.096037  0.479475  0.180088  1
  O  O65  1  0.006918  0.251987  0.063715  1
  O  O66  1  0.006494  0.237238  0.424198  1
  O  O67  1  0.991550  0.206292  0.243521  1
  O  O68  1  0.084690  0.341238  0.666100  1
  O  O69  1  0.332181  0.812805  0.825644  1
  O  O70  1  0.382249  0.904580  0.176503  1
  O  O71  1  0.182076  0.512435  0.829113  1
  O  O72  1  0.334683  0.669383  0.476488  1
  O  O73  1  0.330617  0.665317  0.976488  1
  O  O74  1  0.520525  0.903963  0.680088  1
  O  O75  1  0.328687  0.513898  0.332645  1
  O  O76  1  0.487565  0.817924  0.329113  1
  O  O77  1  0.251996  0.336994  0.160589  1
  O  O78  1  0.210135  0.210135  0.750000  1
  O  O79  1  0.242288  0.238914  0.929088  1
  O  O80  1  0.381642  0.481193  0.676593  1
  O  O81  1  0.486102  0.671313  0.832645  1
  O  O82  1  0.658762  0.915310  0.166100  1
  O  O83  1  0.518807  0.618358  0.176593  1
  O  O84  1  0.762762  0.993506  0.924198  1
  O  O85  1  0.663006  0.748004  0.660589  1
  O  O86  1  0.761086  0.757712  0.429088  1
  O  O87  1  0.789865  0.789865  0.250000  1
