# generated using pymatgen
data_Li2Co3NiO8
_symmetry_space_group_name_H-M   'P 1'
_cell_length_a   8.04217211
_cell_length_b   8.04217211
_cell_length_c   8.04217211
_cell_angle_alpha   90.00000000
_cell_angle_beta   90.00000000
_cell_angle_gamma   90.00000000
_symmetry_Int_Tables_number   1
_chemical_formula_structural   Li2Co3NiO8
_chemical_formula_sum   'Li8 Co12 Ni4 O32'
_cell_volume   520.13980313
_cell_formula_units_Z   4
loop_
 _symmetry_equiv_pos_site_id
 _symmetry_equiv_pos_as_xyz
  1  'x, y, z'
loop_
 _atom_site_type_symbol
 _atom_site_label
 _atom_site_symmetry_multiplicity
 _atom_site_fract_x
 _atom_site_fract_y
 _atom_site_fract_z
 _atom_site_occupancy
  Li  Li0  1  0.002012  0.002012  0.002012  1
  Li  Li1  1  0.247988  0.247988  0.247988  1
  Li  Li2  1  0.252012  0.752012  0.747988  1
  Li  Li3  1  0.497988  0.997988  0.502012  1
  Li  Li4  1  0.502012  0.497988  0.997988  1
  Li  Li5  1  0.747988  0.252012  0.752012  1
  Li  Li6  1  0.752012  0.747988  0.252012  1
  Li  Li7  1  0.997988  0.502012  0.497988  1
  Co  Co8  1  0.122537  0.127463  0.625000  1
  Co  Co9  1  0.125000  0.377463  0.872537  1
  Co  Co10  1  0.127463  0.625000  0.122537  1
  Co  Co11  1  0.372537  0.375000  0.622537  1
  Co  Co12  1  0.375000  0.622537  0.372537  1
  Co  Co13  1  0.377463  0.872537  0.125000  1
  Co  Co14  1  0.622537  0.372537  0.375000  1
  Co  Co15  1  0.625000  0.122537  0.127463  1
  Co  Co16  1  0.627463  0.875000  0.877463  1
  Co  Co17  1  0.872537  0.125000  0.377463  1
  Co  Co18  1  0.875000  0.877463  0.627463  1
  Co  Co19  1  0.877463  0.627463  0.875000  1
  Ni  Ni20  1  0.125000  0.875000  0.375000  1
  Ni  Ni21  1  0.375000  0.125000  0.875000  1
  Ni  Ni22  1  0.625000  0.625000  0.625000  1
  Ni  Ni23  1  0.875000  0.375000  0.125000  1
  O  O24  1  0.114418  0.110589  0.389515  1
  O  O25  1  0.110485  0.885582  0.610589  1
  O  O26  1  0.113357  0.613357  0.886643  1
  O  O27  1  0.139411  0.135582  0.860485  1
  O  O28  1  0.110589  0.389515  0.114418  1
  O  O29  1  0.136643  0.363357  0.636643  1
  O  O30  1  0.139515  0.639411  0.364418  1
  O  O31  1  0.135582  0.860485  0.139411  1
  O  O32  1  0.364418  0.139515  0.639411  1
  O  O33  1  0.360485  0.360589  0.864418  1
  O  O34  1  0.363357  0.636643  0.136643  1
  O  O35  1  0.389411  0.610485  0.614418  1
  O  O36  1  0.360589  0.864418  0.360485  1
  O  O37  1  0.386643  0.386643  0.386643  1
  O  O38  1  0.389515  0.114418  0.110589  1
  O  O39  1  0.385582  0.889411  0.889515  1
  O  O40  1  0.614418  0.389411  0.610485  1
  O  O41  1  0.610485  0.614418  0.389411  1
  O  O42  1  0.613357  0.886643  0.113357  1
  O  O43  1  0.639411  0.364418  0.139515  1
  O  O44  1  0.610589  0.110485  0.885582  1
  O  O45  1  0.636643  0.136643  0.363357  1
  O  O46  1  0.639515  0.860589  0.635582  1
  O  O47  1  0.635582  0.639515  0.860589  1
  O  O48  1  0.864418  0.360485  0.360589  1
  O  O49  1  0.860485  0.139411  0.135582  1
  O  O50  1  0.863357  0.863357  0.863357  1
  O  O51  1  0.889411  0.889515  0.385582  1
  O  O52  1  0.860589  0.635582  0.639515  1
  O  O53  1  0.886643  0.113357  0.613357  1
  O  O54  1  0.889515  0.385582  0.889411  1
  O  O55  1  0.885582  0.610589  0.110485  1
