# generated using pymatgen
data_Cd(FeO2)2
_symmetry_space_group_name_H-M   'P 1'
_cell_length_a   3.03404699
_cell_length_b   9.37785105
_cell_length_c   10.86744244
_cell_angle_alpha   90.00000000
_cell_angle_beta   90.00000000
_cell_angle_gamma   90.00000000
_symmetry_Int_Tables_number   1
_chemical_formula_structural   Cd(FeO2)2
_chemical_formula_sum   'Cd4 Fe8 O16'
_cell_volume   309.20960912
_cell_formula_units_Z   4
loop_
 _symmetry_equiv_pos_site_id
 _symmetry_equiv_pos_as_xyz
  1  'x, y, z'
loop_
 _atom_site_type_symbol
 _atom_site_label
 _atom_site_symmetry_multiplicity
 _atom_site_fract_x
 _atom_site_fract_y
 _atom_site_fract_z
 _atom_site_occupancy
  Cd  Cd0  1  0.750000  0.757244  0.156428  1
  Cd  Cd1  1  0.750000  0.257244  0.343572  1
  Cd  Cd2  1  0.250000  0.742756  0.656428  1
  Cd  Cd3  1  0.250000  0.242756  0.843572  1
  Fe  Fe4  1  0.250000  0.084229  0.103639  1
  Fe  Fe5  1  0.750000  0.437317  0.113618  1
  Fe  Fe6  1  0.750000  0.937317  0.386382  1
  Fe  Fe7  1  0.250000  0.584229  0.396361  1
  Fe  Fe8  1  0.750000  0.415771  0.603639  1
  Fe  Fe9  1  0.250000  0.062683  0.613618  1
  Fe  Fe10  1  0.250000  0.562683  0.886382  1
  Fe  Fe11  1  0.750000  0.915771  0.896361  1
  O  O12  1  0.250000  0.883266  0.025682  1
  O  O13  1  0.250000  0.582101  0.071035  1
  O  O14  1  0.250000  0.297269  0.161385  1
  O  O15  1  0.750000  0.031296  0.215731  1
  O  O16  1  0.750000  0.531296  0.284269  1
  O  O17  1  0.250000  0.797269  0.338615  1
  O  O18  1  0.250000  0.082101  0.428965  1
  O  O19  1  0.250000  0.383266  0.474318  1
  O  O20  1  0.750000  0.616734  0.525682  1
  O  O21  1  0.750000  0.917899  0.571035  1
  O  O22  1  0.750000  0.202731  0.661385  1
  O  O23  1  0.250000  0.468704  0.715731  1
  O  O24  1  0.250000  0.968704  0.784269  1
  O  O25  1  0.750000  0.702731  0.838615  1
  O  O26  1  0.750000  0.417899  0.928965  1
  O  O27  1  0.750000  0.116734  0.974318  1
