# generated using pymatgen
data_LiMn2(CO4)2
_symmetry_space_group_name_H-M   'P 1'
_cell_length_a   6.38742540
_cell_length_b   9.30277596
_cell_length_c   9.78643433
_cell_angle_alpha   90.00000000
_cell_angle_beta   109.26130034
_cell_angle_gamma   90.00000000
_symmetry_Int_Tables_number   1
_chemical_formula_structural   LiMn2(CO4)2
_chemical_formula_sum   'Li4 Mn8 C8 O32'
_cell_volume   548.96659035
_cell_formula_units_Z   4
loop_
 _symmetry_equiv_pos_site_id
 _symmetry_equiv_pos_as_xyz
  1  'x, y, z'
loop_
 _atom_site_type_symbol
 _atom_site_label
 _atom_site_symmetry_multiplicity
 _atom_site_fract_x
 _atom_site_fract_y
 _atom_site_fract_z
 _atom_site_occupancy
  Li  Li0  1  0.224968  0.102128  0.684477  1
  Li  Li1  1  0.224968  0.397872  0.184477  1
  Li  Li2  1  0.775032  0.602128  0.815523  1
  Li  Li3  1  0.775032  0.897872  0.315523  1
  Mn  Mn4  1  0.404278  0.123102  0.055501  1
  Mn  Mn5  1  0.907700  0.116754  0.067572  1
  Mn  Mn6  1  0.404278  0.376898  0.555501  1
  Mn  Mn7  1  0.907700  0.383246  0.567572  1
  Mn  Mn8  1  0.595722  0.623102  0.444499  1
  Mn  Mn9  1  0.092300  0.616754  0.432428  1
  Mn  Mn10  1  0.595722  0.876898  0.944499  1
  Mn  Mn11  1  0.092300  0.883246  0.932428  1
  C  C12  1  0.555068  0.162684  0.367243  1
  C  C13  1  0.064817  0.160455  0.363756  1
  C  C14  1  0.064817  0.339545  0.863756  1
  C  C15  1  0.555068  0.337316  0.867243  1
  C  C16  1  0.444932  0.662684  0.132757  1
  C  C17  1  0.935183  0.660455  0.136244  1
  C  C18  1  0.444932  0.837316  0.632757  1
  C  C19  1  0.935183  0.839545  0.636244  1
  O  O20  1  0.809103  0.996054  0.898182  1
  O  O21  1  0.336860  0.000056  0.885539  1
  O  O22  1  0.035286  0.029791  0.367973  1
  O  O23  1  0.589924  0.032942  0.381780  1
  O  O24  1  0.604490  0.250326  0.484811  1
  O  O25  1  0.139829  0.238793  0.486688  1
  O  O26  1  0.021109  0.234277  0.243143  1
  O  O27  1  0.476055  0.230023  0.241958  1
  O  O28  1  0.021109  0.265723  0.743143  1
  O  O29  1  0.476055  0.269977  0.741958  1
  O  O30  1  0.139829  0.261207  0.986688  1
  O  O31  1  0.604490  0.249674  0.984811  1
  O  O32  1  0.589924  0.467058  0.881780  1
  O  O33  1  0.035286  0.470209  0.867973  1
  O  O34  1  0.336860  0.499944  0.385539  1
  O  O35  1  0.809103  0.503946  0.398182  1
  O  O36  1  0.663140  0.500056  0.614461  1
  O  O37  1  0.190897  0.496054  0.601818  1
  O  O38  1  0.410076  0.532942  0.118220  1
  O  O39  1  0.964714  0.529791  0.132027  1
  O  O40  1  0.395510  0.750326  0.015189  1
  O  O41  1  0.860171  0.738793  0.013312  1
  O  O42  1  0.523945  0.730023  0.258042  1
  O  O43  1  0.978891  0.734277  0.256857  1
  O  O44  1  0.978891  0.765723  0.756857  1
  O  O45  1  0.523945  0.769977  0.758042  1
  O  O46  1  0.395510  0.749674  0.515189  1
  O  O47  1  0.860171  0.761207  0.513312  1
  O  O48  1  0.964714  0.970209  0.632027  1
  O  O49  1  0.410076  0.967058  0.618220  1
  O  O50  1  0.663140  0.999944  0.114461  1
  O  O51  1  0.190897  0.003946  0.101818  1
