# generated using pymatgen
data_Li2BiO3
_symmetry_space_group_name_H-M   'P 1'
_cell_length_a   5.76864161
_cell_length_b   5.77971308
_cell_length_c   9.47750615
_cell_angle_alpha   90.00000000
_cell_angle_beta   90.00000000
_cell_angle_gamma   90.00000000
_symmetry_Int_Tables_number   1
_chemical_formula_structural   Li2BiO3
_chemical_formula_sum   'Li8 Bi4 O12'
_cell_volume   315.99041743
_cell_formula_units_Z   4
loop_
 _symmetry_equiv_pos_site_id
 _symmetry_equiv_pos_as_xyz
  1  'x, y, z'
loop_
 _atom_site_type_symbol
 _atom_site_label
 _atom_site_symmetry_multiplicity
 _atom_site_fract_x
 _atom_site_fract_y
 _atom_site_fract_z
 _atom_site_occupancy
  Li  Li0  1  0.500000  0.000000  0.000000  1
  Li  Li1  1  0.000000  0.000000  0.500000  1
  Li  Li2  1  0.250000  0.754236  0.750000  1
  Li  Li3  1  0.750000  0.745764  0.750000  1
  Li  Li4  1  0.500000  0.500000  0.000000  1
  Li  Li5  1  0.000000  0.500000  0.500000  1
  Li  Li6  1  0.250000  0.254236  0.250000  1
  Li  Li7  1  0.750000  0.245764  0.250000  1
  Bi  Bi8  1  0.000000  0.750000  0.099978  1
  Bi  Bi9  1  0.500000  0.750000  0.400022  1
  Bi  Bi10  1  0.500000  0.250000  0.599978  1
  Bi  Bi11  1  0.000000  0.250000  0.900022  1
  O  O12  1  0.787853  0.914552  0.923909  1
  O  O13  1  0.712147  0.914552  0.576091  1
  O  O14  1  0.750000  0.909155  0.250000  1
  O  O15  1  0.250000  0.590845  0.250000  1
  O  O16  1  0.212147  0.585448  0.923909  1
  O  O17  1  0.287853  0.585448  0.576091  1
  O  O18  1  0.787853  0.414552  0.076091  1
  O  O19  1  0.712147  0.414552  0.423909  1
  O  O20  1  0.750000  0.409155  0.750000  1
  O  O21  1  0.250000  0.090845  0.750000  1
  O  O22  1  0.287853  0.085448  0.423909  1
  O  O23  1  0.212147  0.085448  0.076091  1
