# generated using pymatgen
data_LiMnOF2
_symmetry_space_group_name_H-M   'P 1'
_cell_length_a   4.98819394
_cell_length_b   5.22071871
_cell_length_c   8.50842128
_cell_angle_alpha   90.00000000
_cell_angle_beta   90.00000000
_cell_angle_gamma   90.00000000
_symmetry_Int_Tables_number   1
_chemical_formula_structural   LiMnOF2
_chemical_formula_sum   'Li4 Mn4 O4 F8'
_cell_volume   221.57594478
_cell_formula_units_Z   4
loop_
 _symmetry_equiv_pos_site_id
 _symmetry_equiv_pos_as_xyz
  1  'x, y, z'
loop_
 _atom_site_type_symbol
 _atom_site_label
 _atom_site_symmetry_multiplicity
 _atom_site_fract_x
 _atom_site_fract_y
 _atom_site_fract_z
 _atom_site_occupancy
  Li  Li0  1  0.000000  0.000000  0.788556  1
  Li  Li1  1  0.000000  0.500000  0.174776  1
  Li  Li2  1  0.500000  0.500000  0.288556  1
  Li  Li3  1  0.500000  0.000000  0.674776  1
  Mn  Mn4  1  0.000000  0.000000  0.426905  1
  Mn  Mn5  1  0.000000  0.500000  0.594058  1
  Mn  Mn6  1  0.500000  0.500000  0.926905  1
  Mn  Mn7  1  0.500000  0.000000  0.094058  1
  O  O8  1  0.818611  0.182104  0.587775  1
  O  O9  1  0.681389  0.682104  0.087775  1
  O  O10  1  0.318611  0.317896  0.087775  1
  O  O11  1  0.181389  0.817896  0.587775  1
  F  F12  1  0.769776  0.651679  0.414775  1
  F  F13  1  0.771524  0.165438  0.255302  1
  F  F14  1  0.728476  0.665438  0.755302  1
  F  F15  1  0.730224  0.151679  0.914775  1
  F  F16  1  0.269776  0.848321  0.914775  1
  F  F17  1  0.271524  0.334562  0.755302  1
  F  F18  1  0.228476  0.834562  0.255302  1
  F  F19  1  0.230224  0.348321  0.414775  1
