# generated using pymatgen
data_Hf2N2O
_symmetry_space_group_name_H-M   'P 1'
_cell_length_a   8.72327759
_cell_length_b   8.72431661
_cell_length_c   8.73437387
_cell_angle_alpha   109.57742705
_cell_angle_beta   109.29064335
_cell_angle_gamma   109.41605348
_symmetry_Int_Tables_number   1
_chemical_formula_structural   Hf2N2O
_chemical_formula_sum   'Hf16 N16 O8'
_cell_volume   512.52057282
_cell_formula_units_Z   8
loop_
 _symmetry_equiv_pos_site_id
 _symmetry_equiv_pos_as_xyz
  1  'x, y, z'
loop_
 _atom_site_type_symbol
 _atom_site_label
 _atom_site_symmetry_multiplicity
 _atom_site_fract_x
 _atom_site_fract_y
 _atom_site_fract_z
 _atom_site_occupancy
  Hf  Hf0  1  0.240080  0.784494  0.967368  1
  Hf  Hf1  1  0.001491  0.007196  0.988513  1
  Hf  Hf2  1  0.468159  0.254379  0.775546  1
  Hf  Hf3  1  0.974829  0.249511  0.278967  1
  Hf  Hf4  1  0.500478  0.999450  0.502741  1
  Hf  Hf5  1  0.497385  0.497785  0.991385  1
  Hf  Hf6  1  0.747826  0.717021  0.541922  1
  Hf  Hf7  1  0.280987  0.030481  0.266746  1
  Hf  Hf8  1  0.715175  0.965967  0.746403  1
  Hf  Hf9  1  0.793159  0.534318  0.251316  1
  Hf  Hf10  1  0.212523  0.458644  0.747281  1
  Hf  Hf11  1  0.253552  0.287598  0.462196  1
  Hf  Hf12  1  0.001883  0.511220  0.499042  1
  Hf  Hf13  1  0.533604  0.756409  0.216502  1
  Hf  Hf14  1  0.027585  0.749862  0.716374  1
  Hf  Hf15  1  0.759088  0.212683  0.028093  1
  N  N16  1  0.992052  0.763071  0.968725  1
  N  N17  1  0.048014  0.530932  0.226177  1
  N  N18  1  0.742850  0.970558  0.481963  1
  N  N19  1  0.506926  0.037596  0.734393  1
  N  N20  1  0.231436  0.263983  0.229133  1
  N  N21  1  0.492718  0.957865  0.270967  1
  N  N22  1  0.725473  0.454836  0.531711  1
  N  N23  1  0.768256  0.736108  0.776907  1
  N  N24  1  0.238301  0.224045  0.729100  1
  N  N25  1  0.263096  0.033094  0.515444  1
  N  N26  1  0.034457  0.775494  0.449876  1
  N  N27  1  0.460800  0.511766  0.767211  1
  N  N28  1  0.775406  0.011036  0.950576  1
  N  N29  1  0.951823  0.467246  0.773018  1
  N  N30  1  0.274225  0.543397  0.462805  1
  N  N31  1  0.005674  0.234798  0.037538  1
  O  O32  1  0.719241  0.274864  0.264410  1
  O  O33  1  0.453002  0.722564  0.016502  1
  O  O34  1  0.754036  0.767680  0.273545  1
  O  O35  1  0.540105  0.489995  0.234786  1
  O  O36  1  0.966955  0.223091  0.549509  1
  O  O37  1  0.228652  0.989091  0.047964  1
  O  O38  1  0.275152  0.726623  0.739333  1
  O  O39  1  0.543543  0.273249  0.988014  1
