# generated using pymatgen
data_Li2Mn2OF6
_symmetry_space_group_name_H-M   'P 1'
_cell_length_a   5.48119873
_cell_length_b   6.44725384
_cell_length_c   8.82344143
_cell_angle_alpha   71.83963913
_cell_angle_beta   76.04151441
_cell_angle_gamma   84.82414394
_symmetry_Int_Tables_number   1
_chemical_formula_structural   Li2Mn2OF6
_chemical_formula_sum   'Li4 Mn4 O2 F12'
_cell_volume   287.48989163
_cell_formula_units_Z   2
loop_
 _symmetry_equiv_pos_site_id
 _symmetry_equiv_pos_as_xyz
  1  'x, y, z'
loop_
 _atom_site_type_symbol
 _atom_site_label
 _atom_site_symmetry_multiplicity
 _atom_site_fract_x
 _atom_site_fract_y
 _atom_site_fract_z
 _atom_site_occupancy
  Li  Li0  1  0.087824  0.398652  0.265003  1
  Li  Li1  1  0.552104  0.241371  0.359494  1
  Li  Li2  1  0.447896  0.758629  0.640506  1
  Li  Li3  1  0.912176  0.601348  0.734997  1
  Mn  Mn4  1  0.329813  0.997988  0.177837  1
  Mn  Mn5  1  0.788429  0.795758  0.304724  1
  Mn  Mn6  1  0.211571  0.204242  0.695276  1
  Mn  Mn7  1  0.670187  0.002012  0.822163  1
  O  O8  1  0.461653  0.893955  0.363026  1
  O  O9  1  0.538347  0.106045  0.636974  1
  F  F10  1  0.405799  0.287187  0.154245  1
  F  F11  1  0.928973  0.089345  0.262654  1
  F  F12  1  0.710542  0.915048  0.049620  1
  F  F13  1  0.147110  0.726132  0.221407  1
  F  F14  1  0.738441  0.505435  0.296718  1
  F  F15  1  0.199445  0.296568  0.458938  1
  F  F16  1  0.800555  0.703432  0.541062  1
  F  F17  1  0.261559  0.494565  0.703282  1
  F  F18  1  0.852890  0.273868  0.778593  1
  F  F19  1  0.289458  0.084952  0.950380  1
  F  F20  1  0.071027  0.910655  0.737346  1
  F  F21  1  0.594201  0.712813  0.845755  1
