# generated using pymatgen
data_Li2Cr2P2O9
_symmetry_space_group_name_H-M   'P 1'
_cell_length_a   5.59482224
_cell_length_b   8.38666069
_cell_length_c   14.38111981
_cell_angle_alpha   90.00000000
_cell_angle_beta   90.00000000
_cell_angle_gamma   90.00000000
_symmetry_Int_Tables_number   1
_chemical_formula_structural   Li2Cr2P2O9
_chemical_formula_sum   'Li8 Cr8 P8 O36'
_cell_volume   674.78911684
_cell_formula_units_Z   4
loop_
 _symmetry_equiv_pos_site_id
 _symmetry_equiv_pos_as_xyz
  1  'x, y, z'
loop_
 _atom_site_type_symbol
 _atom_site_label
 _atom_site_symmetry_multiplicity
 _atom_site_fract_x
 _atom_site_fract_y
 _atom_site_fract_z
 _atom_site_occupancy
  Li  Li0  1  0.250000  0.971448  0.742273  1
  Li  Li1  1  0.250000  0.982817  0.125991  1
  Li  Li2  1  0.750000  0.517183  0.625991  1
  Li  Li3  1  0.750000  0.528552  0.242273  1
  Li  Li4  1  0.250000  0.471448  0.757727  1
  Li  Li5  1  0.250000  0.482817  0.374009  1
  Li  Li6  1  0.750000  0.017183  0.874009  1
  Li  Li7  1  0.750000  0.028552  0.257727  1
  Cr  Cr8  1  0.500000  0.000000  0.500000  1
  Cr  Cr9  1  0.000000  0.000000  0.500000  1
  Cr  Cr10  1  0.250000  0.789535  0.936029  1
  Cr  Cr11  1  0.750000  0.710465  0.436029  1
  Cr  Cr12  1  0.500000  0.500000  0.000000  1
  Cr  Cr13  1  0.000000  0.500000  0.000000  1
  Cr  Cr14  1  0.250000  0.289535  0.563971  1
  Cr  Cr15  1  0.750000  0.210465  0.063971  1
  P  P16  1  0.750000  0.829206  0.068848  1
  P  P17  1  0.250000  0.795255  0.329396  1
  P  P18  1  0.750000  0.704745  0.829396  1
  P  P19  1  0.250000  0.670794  0.568848  1
  P  P20  1  0.750000  0.329206  0.431152  1
  P  P21  1  0.250000  0.295255  0.170604  1
  P  P22  1  0.750000  0.204745  0.670604  1
  P  P23  1  0.250000  0.170794  0.931152  1
  O  O24  1  0.250000  0.011734  0.985562  1
  O  O25  1  0.250000  0.936565  0.405411  1
  O  O26  1  0.750000  0.939948  0.412560  1
  O  O27  1  0.250000  0.870223  0.235870  1
  O  O28  1  0.750000  0.849736  0.172254  1
  O  O29  1  0.972991  0.816486  0.847149  1
  O  O30  1  0.527009  0.816486  0.847149  1
  O  O31  1  0.483542  0.765407  0.536476  1
  O  O32  1  0.016458  0.765407  0.536476  1
  O  O33  1  0.983542  0.734593  0.036476  1
  O  O34  1  0.516458  0.734593  0.036476  1
  O  O35  1  0.472991  0.683514  0.347149  1
  O  O36  1  0.027009  0.683514  0.347149  1
  O  O37  1  0.250000  0.650264  0.672254  1
  O  O38  1  0.750000  0.629777  0.735870  1
  O  O39  1  0.250000  0.560052  0.912560  1
  O  O40  1  0.750000  0.563435  0.905411  1
  O  O41  1  0.750000  0.488266  0.485562  1
  O  O42  1  0.250000  0.511734  0.514438  1
  O  O43  1  0.250000  0.436565  0.094589  1
  O  O44  1  0.750000  0.439948  0.087440  1
  O  O45  1  0.250000  0.370223  0.264130  1
  O  O46  1  0.750000  0.349736  0.327746  1
  O  O47  1  0.972991  0.316486  0.652851  1
  O  O48  1  0.527009  0.316486  0.652851  1
  O  O49  1  0.483542  0.265407  0.963524  1
  O  O50  1  0.016458  0.265407  0.963524  1
  O  O51  1  0.983542  0.234593  0.463524  1
  O  O52  1  0.516458  0.234593  0.463524  1
  O  O53  1  0.472991  0.183514  0.152851  1
  O  O54  1  0.027009  0.183514  0.152851  1
  O  O55  1  0.250000  0.150264  0.827746  1
  O  O56  1  0.750000  0.129777  0.764130  1
  O  O57  1  0.250000  0.060052  0.587440  1
  O  O58  1  0.750000  0.063435  0.594589  1
  O  O59  1  0.750000  0.988266  0.014438  1
