# generated using pymatgen
data_Mg3(AsO4)2
_symmetry_space_group_name_H-M   'P 1'
_cell_length_a   6.38598071
_cell_length_b   11.56852189
_cell_length_c   9.16533570
_cell_angle_alpha   90.00000000
_cell_angle_beta   99.75182467
_cell_angle_gamma   90.00000000
_symmetry_Int_Tables_number   1
_chemical_formula_structural   Mg3(AsO4)2
_chemical_formula_sum   'Mg12 As8 O32'
_cell_volume   667.31795054
_cell_formula_units_Z   4
loop_
 _symmetry_equiv_pos_site_id
 _symmetry_equiv_pos_as_xyz
  1  'x, y, z'
loop_
 _atom_site_type_symbol
 _atom_site_label
 _atom_site_symmetry_multiplicity
 _atom_site_fract_x
 _atom_site_fract_y
 _atom_site_fract_z
 _atom_site_occupancy
  Mg  Mg0  1  0.385351  0.388385  0.918906  1
  Mg  Mg1  1  0.885351  0.111615  0.918906  1
  Mg  Mg2  1  0.338781  0.083793  0.735947  1
  Mg  Mg3  1  0.367791  0.701799  0.637700  1
  Mg  Mg4  1  0.838781  0.416207  0.735947  1
  Mg  Mg5  1  0.867791  0.798201  0.637700  1
  Mg  Mg6  1  0.132209  0.201799  0.362300  1
  Mg  Mg7  1  0.161219  0.583793  0.264053  1
  Mg  Mg8  1  0.632209  0.298201  0.362300  1
  Mg  Mg9  1  0.661219  0.916207  0.264053  1
  Mg  Mg10  1  0.114649  0.888385  0.081094  1
  Mg  Mg11  1  0.614649  0.611615  0.081094  1
  As  As12  1  0.107918  0.634947  0.911779  1
  As  As13  1  0.607918  0.865053  0.911779  1
  As  As14  1  0.312643  0.419722  0.602574  1
  As  As15  1  0.812643  0.080278  0.602574  1
  As  As16  1  0.187357  0.919722  0.397426  1
  As  As17  1  0.687357  0.580278  0.397426  1
  As  As18  1  0.392082  0.134947  0.088221  1
  As  As19  1  0.892082  0.365053  0.088221  1
  O  O20  1  0.395423  0.211026  0.926432  1
  O  O21  1  0.349602  0.565115  0.927706  1
  O  O22  1  0.895423  0.288974  0.926432  1
  O  O23  1  0.382415  0.945813  0.871182  1
  O  O24  1  0.849602  0.934885  0.927706  1
  O  O25  1  0.119323  0.726193  0.764551  1
  O  O26  1  0.882415  0.554187  0.871182  1
  O  O27  1  0.034618  0.086272  0.737183  1
  O  O28  1  0.619323  0.773807  0.764551  1
  O  O29  1  0.132841  0.384078  0.715082  1
  O  O30  1  0.534618  0.413728  0.737183  1
  O  O31  1  0.632841  0.115922  0.715082  1
  O  O32  1  0.265216  0.554284  0.521540  1
  O  O33  1  0.165644  0.816108  0.526555  1
  O  O34  1  0.765216  0.945716  0.521540  1
  O  O35  1  0.665644  0.683892  0.526555  1
  O  O36  1  0.334356  0.316108  0.473445  1
  O  O37  1  0.234784  0.054284  0.478460  1
  O  O38  1  0.834356  0.183892  0.473445  1
  O  O39  1  0.734784  0.445716  0.478460  1
  O  O40  1  0.367159  0.884078  0.284918  1
  O  O41  1  0.465382  0.586272  0.262817  1
  O  O42  1  0.867159  0.615922  0.284918  1
  O  O43  1  0.380677  0.226193  0.235449  1
  O  O44  1  0.965382  0.913728  0.262817  1
  O  O45  1  0.117585  0.445813  0.128818  1
  O  O46  1  0.880677  0.273807  0.235449  1
  O  O47  1  0.150398  0.065115  0.072294  1
  O  O48  1  0.617585  0.054187  0.128818  1
  O  O49  1  0.104577  0.711026  0.073568  1
  O  O50  1  0.650398  0.434885  0.072294  1
  O  O51  1  0.604577  0.788974  0.073568  1
