# generated using pymatgen
data_Na3CuO2
_symmetry_space_group_name_H-M   'P 1'
_cell_length_a   7.86753097
_cell_length_b   7.86753097
_cell_length_c   11.58227370
_cell_angle_alpha   90.00000000
_cell_angle_beta   90.00000000
_cell_angle_gamma   90.00000000
_symmetry_Int_Tables_number   1
_chemical_formula_structural   Na3CuO2
_chemical_formula_sum   'Na24 Cu8 O16'
_cell_volume   716.92008205
_cell_formula_units_Z   8
loop_
 _symmetry_equiv_pos_site_id
 _symmetry_equiv_pos_as_xyz
  1  'x, y, z'
loop_
 _atom_site_type_symbol
 _atom_site_label
 _atom_site_symmetry_multiplicity
 _atom_site_fract_x
 _atom_site_fract_y
 _atom_site_fract_z
 _atom_site_occupancy
  Na  Na0  1  0.015162  0.984838  0.750000  1
  Na  Na1  1  0.026298  0.554945  0.748396  1
  Na  Na2  1  0.047798  0.047798  0.500000  1
  Na  Na3  1  0.054945  0.473702  0.498396  1
  Na  Na4  1  0.150795  0.264664  0.895344  1
  Na  Na5  1  0.235336  0.650795  0.145344  1
  Na  Na6  1  0.264664  0.150795  0.104656  1
  Na  Na7  1  0.349205  0.764664  0.354656  1
  Na  Na8  1  0.445055  0.973702  0.751604  1
  Na  Na9  1  0.452202  0.547798  0.750000  1
  Na  Na10  1  0.473702  0.054945  0.501604  1
  Na  Na11  1  0.484838  0.484838  0.500000  1
  Na  Na12  1  0.515162  0.515162  0.000000  1
  Na  Na13  1  0.526298  0.945055  0.001604  1
  Na  Na14  1  0.547798  0.452202  0.250000  1
  Na  Na15  1  0.554945  0.026298  0.251604  1
  Na  Na16  1  0.650795  0.235336  0.854656  1
  Na  Na17  1  0.735336  0.849205  0.604656  1
  Na  Na18  1  0.764664  0.349205  0.645344  1
  Na  Na19  1  0.849205  0.735336  0.395344  1
  Na  Na20  1  0.945055  0.526298  0.998396  1
  Na  Na21  1  0.952202  0.952202  0.000000  1
  Na  Na22  1  0.973702  0.445055  0.248396  1
  Na  Na23  1  0.984838  0.015162  0.250000  1
  Cu  Cu24  1  0.235563  0.764343  0.591331  1
  Cu  Cu25  1  0.235657  0.764437  0.908669  1
  Cu  Cu26  1  0.264343  0.264437  0.341331  1
  Cu  Cu27  1  0.264437  0.264343  0.658669  1
  Cu  Cu28  1  0.735563  0.735657  0.158669  1
  Cu  Cu29  1  0.735657  0.735563  0.841331  1
  Cu  Cu30  1  0.764343  0.235563  0.408669  1
  Cu  Cu31  1  0.764437  0.235657  0.091331  1
  O  O32  1  0.006013  0.761455  0.588296  1
  O  O33  1  0.034721  0.266009  0.666001  1
  O  O34  1  0.233991  0.534721  0.916001  1
  O  O35  1  0.238545  0.993987  0.911704  1
  O  O36  1  0.261455  0.493987  0.338296  1
  O  O37  1  0.266009  0.034721  0.333999  1
  O  O38  1  0.465279  0.766009  0.583999  1
  O  O39  1  0.493987  0.261455  0.661704  1
  O  O40  1  0.506013  0.738545  0.161704  1
  O  O41  1  0.534721  0.233991  0.083999  1
  O  O42  1  0.733991  0.965279  0.833999  1
  O  O43  1  0.738545  0.506013  0.838296  1
  O  O44  1  0.761455  0.006013  0.411704  1
  O  O45  1  0.766009  0.465279  0.416001  1
  O  O46  1  0.965279  0.733991  0.166001  1
  O  O47  1  0.993987  0.238545  0.088296  1
