# generated using pymatgen
data_Li3Ni(OF)2
_symmetry_space_group_name_H-M   'P 1'
_cell_length_a   4.97563484
_cell_length_b   5.87959038
_cell_length_c   5.01573168
_cell_angle_alpha   90.00000000
_cell_angle_beta   107.51552587
_cell_angle_gamma   90.00000000
_symmetry_Int_Tables_number   1
_chemical_formula_structural   Li3Ni(OF)2
_chemical_formula_sum   'Li6 Ni2 O4 F4'
_cell_volume   139.93045449
_cell_formula_units_Z   2
loop_
 _symmetry_equiv_pos_site_id
 _symmetry_equiv_pos_as_xyz
  1  'x, y, z'
loop_
 _atom_site_type_symbol
 _atom_site_label
 _atom_site_symmetry_multiplicity
 _atom_site_fract_x
 _atom_site_fract_y
 _atom_site_fract_z
 _atom_site_occupancy
  Li  Li0  1  0.250000  0.115998  0.500000  1
  Li  Li1  1  0.250000  0.637996  0.500000  1
  Li  Li2  1  0.250000  0.367774  0.000000  1
  Li  Li3  1  0.750000  0.362004  0.500000  1
  Li  Li4  1  0.750000  0.884002  0.500000  1
  Li  Li5  1  0.750000  0.632226  0.000000  1
  Ni  Ni6  1  0.250000  0.891007  0.000000  1
  Ni  Ni7  1  0.750000  0.108993  0.000000  1
  O  O8  1  0.015053  0.887488  0.227576  1
  O  O9  1  0.484947  0.887488  0.772424  1
  O  O10  1  0.515053  0.112512  0.227576  1
  O  O11  1  0.984947  0.112512  0.772424  1
  F  F12  1  0.003855  0.621775  0.748857  1
  F  F13  1  0.503855  0.378225  0.748857  1
  F  F14  1  0.496145  0.621775  0.251143  1
  F  F15  1  0.996145  0.378225  0.251143  1
