# generated using pymatgen
data_FeOF
_symmetry_space_group_name_H-M   'P 1'
_cell_length_a   9.51866751
_cell_length_b   3.09866466
_cell_length_c   14.24224863
_cell_angle_alpha   90.00000000
_cell_angle_beta   90.36493825
_cell_angle_gamma   90.00000000
_symmetry_Int_Tables_number   1
_chemical_formula_structural   FeOF
_chemical_formula_sum   'Fe12 O12 F12'
_cell_volume   420.06886143
_cell_formula_units_Z   12
loop_
 _symmetry_equiv_pos_site_id
 _symmetry_equiv_pos_as_xyz
  1  'x, y, z'
loop_
 _atom_site_type_symbol
 _atom_site_label
 _atom_site_symmetry_multiplicity
 _atom_site_fract_x
 _atom_site_fract_y
 _atom_site_fract_z
 _atom_site_occupancy
  Fe  Fe0  1  0.006313  0.000000  0.004198  1
  Fe  Fe1  1  0.493783  0.000000  0.007117  1
  Fe  Fe2  1  0.249688  0.500000  0.149899  1
  Fe  Fe3  1  0.783958  0.500000  0.167967  1
  Fe  Fe4  1  0.000034  0.000000  0.334002  1
  Fe  Fe5  1  0.498121  0.000000  0.344018  1
  Fe  Fe6  1  0.724770  0.500000  0.500685  1
  Fe  Fe7  1  0.243942  0.500000  0.484774  1
  Fe  Fe8  1  0.997712  0.000000  0.679613  1
  Fe  Fe9  1  0.513701  0.000000  0.667754  1
  Fe  Fe10  1  0.220982  0.500000  0.834729  1
  Fe  Fe11  1  0.747825  0.500000  0.819702  1
  O  O12  1  0.409655  0.500000  0.064213  1
  O  O13  1  0.903126  0.500000  0.064904  1
  O  O14  1  0.155897  0.000000  0.105012  1
  O  O15  1  0.857652  0.000000  0.238509  1
  O  O16  1  0.402881  0.500000  0.398248  1
  O  O17  1  0.145518  0.000000  0.431249  1
  O  O18  1  0.657717  0.000000  0.431684  1
  O  O19  1  0.593219  0.500000  0.602558  1
  O  O20  1  0.901409  0.500000  0.729336  1
  O  O21  1  0.154292  0.000000  0.765884  1
  O  O22  1  0.645587  0.000000  0.772543  1
  O  O23  1  0.095870  0.500000  0.936355  1
  F  F24  1  0.657381  0.000000  0.103265  1
  F  F25  1  0.350419  0.000000  0.231744  1
  F  F26  1  0.103806  0.500000  0.270106  1
  F  F27  1  0.596225  0.500000  0.264383  1
  F  F28  1  0.904644  0.500000  0.402039  1
  F  F29  1  0.339522  0.000000  0.566037  1
  F  F30  1  0.850914  0.000000  0.562438  1
  F  F31  1  0.097449  0.500000  0.598830  1
  F  F32  1  0.399468  0.500000  0.731920  1
  F  F33  1  0.353999  0.000000  0.897622  1
  F  F34  1  0.841369  0.000000  0.897776  1
  F  F35  1  0.601152  0.500000  0.938889  1
