# generated using pymatgen
data_Li3Cu2SbO6
_symmetry_space_group_name_H-M   'P 1'
_cell_length_a   5.17544861
_cell_length_b   5.17544861
_cell_length_c   9.90253454
_cell_angle_alpha   88.22180341
_cell_angle_beta   91.77819659
_cell_angle_gamma   65.17542694
_symmetry_Int_Tables_number   1
_chemical_formula_structural   Li3Cu2SbO6
_chemical_formula_sum   'Li6 Cu4 Sb2 O12'
_cell_volume   240.33314147
_cell_formula_units_Z   2
loop_
 _symmetry_equiv_pos_site_id
 _symmetry_equiv_pos_as_xyz
  1  'x, y, z'
loop_
 _atom_site_type_symbol
 _atom_site_label
 _atom_site_symmetry_multiplicity
 _atom_site_fract_x
 _atom_site_fract_y
 _atom_site_fract_z
 _atom_site_occupancy
  Li  Li0  1  0.679877  0.155041  0.001404  1
  Li  Li1  1  0.844959  0.320123  0.501404  1
  Li  Li2  1  0.089474  0.089474  0.250000  1
  Li  Li3  1  0.910526  0.910526  0.750000  1
  Li  Li4  1  0.155041  0.679877  0.498596  1
  Li  Li5  1  0.320123  0.844959  0.998596  1
  Cu  Cu6  1  1.000000  0.500000  0.000000  1
  Cu  Cu7  1  0.412264  0.412264  0.250000  1
  Cu  Cu8  1  0.587736  0.587736  0.750000  1
  Cu  Cu9  1  0.500000  1.000000  0.500000  1
  Sb  Sb10  1  0.751098  0.751098  0.250000  1
  Sb  Sb11  1  0.248902  0.248902  0.750000  1
  O  O12  1  0.428224  0.079867  0.148583  1
  O  O13  1  0.698592  0.465460  0.129915  1
  O  O14  1  0.920133  0.571776  0.648583  1
  O  O15  1  0.012463  0.791899  0.114219  1
  O  O16  1  0.534540  0.301408  0.629915  1
  O  O17  1  0.208101  0.987537  0.614219  1
  O  O18  1  0.791899  0.012463  0.385781  1
  O  O19  1  0.465460  0.698592  0.370085  1
  O  O20  1  0.987537  0.208101  0.885781  1
  O  O21  1  0.079867  0.428224  0.351417  1
  O  O22  1  0.301408  0.534540  0.870085  1
  O  O23  1  0.571776  0.920133  0.851417  1
