# generated using pymatgen
data_Li5Mn5V2O12
_symmetry_space_group_name_H-M   'P 1'
_cell_length_a   5.24712658
_cell_length_b   5.24712658
_cell_length_c   9.95928942
_cell_angle_alpha   85.53190227
_cell_angle_beta   94.46809773
_cell_angle_gamma   59.88299053
_symmetry_Int_Tables_number   1
_chemical_formula_structural   Li5Mn5V2O12
_chemical_formula_sum   'Li5 Mn5 V2 O12'
_cell_volume   234.27885564
_cell_formula_units_Z   1
loop_
 _symmetry_equiv_pos_site_id
 _symmetry_equiv_pos_as_xyz
  1  'x, y, z'
loop_
 _atom_site_type_symbol
 _atom_site_label
 _atom_site_symmetry_multiplicity
 _atom_site_fract_x
 _atom_site_fract_y
 _atom_site_fract_z
 _atom_site_occupancy
  Li  Li0  1  0.834444  0.338247  0.745689  1
  Li  Li1  1  0.676077  0.153217  0.254125  1
  Li  Li2  1  0.338247  0.834444  0.254311  1
  Li  Li3  1  0.153217  0.676077  0.745875  1
  Li  Li4  1  0.085387  0.085387  0.500000  1
  Mn  Mn5  1  0.921054  0.921054  0.000000  1
  Mn  Mn6  1  0.001269  0.493942  0.252910  1
  Mn  Mn7  1  0.493942  0.001269  0.747090  1
  Mn  Mn8  1  0.576087  0.576087  0.000000  1
  Mn  Mn9  1  0.424209  0.424209  0.500000  1
  V  V10  1  0.751674  0.751674  0.500000  1
  V  V11  1  0.248609  0.248609  0.000000  1
  O  O12  1  0.034115  0.768370  0.374647  1
  O  O13  1  0.768370  0.034115  0.625353  1
  O  O14  1  0.893386  0.603013  0.883155  1
  O  O15  1  0.603013  0.893386  0.116845  1
  O  O16  1  0.724803  0.472144  0.377195  1
  O  O17  1  0.472144  0.724803  0.622805  1
  O  O18  1  0.528997  0.277513  0.871254  1
  O  O19  1  0.277513  0.528997  0.128746  1
  O  O20  1  0.420993  0.087188  0.388888  1
  O  O21  1  0.087188  0.420993  0.611112  1
  O  O22  1  0.217557  0.967707  0.869918  1
  O  O23  1  0.967707  0.217557  0.130082  1
