# generated using pymatgen
data_Er5Si4
_symmetry_space_group_name_H-M   'P 1'
_cell_length_a   7.42021242
_cell_length_b   7.59929416
_cell_length_c   14.45715429
_cell_angle_alpha   90.00000000
_cell_angle_beta   93.48174937
_cell_angle_gamma   90.00000000
_symmetry_Int_Tables_number   1
_chemical_formula_structural   Er5Si4
_chemical_formula_sum   'Er20 Si16'
_cell_volume   813.71073523
_cell_formula_units_Z   4
loop_
 _symmetry_equiv_pos_site_id
 _symmetry_equiv_pos_as_xyz
  1  'x, y, z'
loop_
 _atom_site_type_symbol
 _atom_site_label
 _atom_site_symmetry_multiplicity
 _atom_site_fract_x
 _atom_site_fract_y
 _atom_site_fract_z
 _atom_site_occupancy
  Er  Er0  1  0.326949  0.822276  0.622466  1
  Er  Er1  1  0.173051  0.322276  0.377534  1
  Er  Er2  1  0.673051  0.177724  0.377534  1
  Er  Er3  1  0.826949  0.677724  0.622466  1
  Er  Er4  1  0.855143  0.665761  0.879623  1
  Er  Er5  1  0.644857  0.165761  0.120377  1
  Er  Er6  1  0.144857  0.334239  0.120377  1
  Er  Er7  1  0.355143  0.834239  0.879623  1
  Er  Er8  1  0.522323  0.683358  0.399107  1
  Er  Er9  1  0.977677  0.183358  0.600893  1
  Er  Er10  1  0.477677  0.316642  0.600893  1
  Er  Er11  1  0.022323  0.816642  0.399107  1
  Er  Er12  1  0.495418  0.680547  0.099357  1
  Er  Er13  1  0.004582  0.180547  0.900643  1
  Er  Er14  1  0.504582  0.319453  0.900643  1
  Er  Er15  1  0.995418  0.819453  0.099357  1
  Er  Er16  1  0.825973  0.504931  0.246107  1
  Er  Er17  1  0.674027  0.004931  0.753893  1
  Er  Er18  1  0.174027  0.495069  0.753893  1
  Er  Er19  1  0.325973  0.995069  0.246107  1
  Si  Si20  1  0.647241  0.971958  0.541147  1
  Si  Si21  1  0.852759  0.471958  0.458853  1
  Si  Si22  1  0.352759  0.028042  0.458853  1
  Si  Si23  1  0.147241  0.528042  0.541147  1
  Si  Si24  1  0.703136  0.964994  0.958292  1
  Si  Si25  1  0.796864  0.464994  0.041708  1
  Si  Si26  1  0.296864  0.035006  0.041708  1
  Si  Si27  1  0.203136  0.535006  0.958292  1
  Si  Si28  1  0.710770  0.869347  0.251913  1
  Si  Si29  1  0.789230  0.369347  0.748087  1
  Si  Si30  1  0.289230  0.130653  0.748087  1
  Si  Si31  1  0.210770  0.630653  0.251913  1
  Si  Si32  1  0.454707  0.392309  0.251991  1
  Si  Si33  1  0.045293  0.892309  0.748009  1
  Si  Si34  1  0.545293  0.607691  0.748009  1
  Si  Si35  1  0.954707  0.107691  0.251991  1
