# generated using pymatgen
data_MgP2H12O11
_symmetry_space_group_name_H-M   'P 1'
_cell_length_a   7.79348014
_cell_length_b   7.89613101
_cell_length_c   9.29768143
_cell_angle_alpha   112.51171591
_cell_angle_beta   84.89263581
_cell_angle_gamma   107.06341801
_symmetry_Int_Tables_number   1
_chemical_formula_structural   MgP2H12O11
_chemical_formula_sum   'Mg2 P4 H24 O22'
_cell_volume   505.12229374
_cell_formula_units_Z   2
loop_
 _symmetry_equiv_pos_site_id
 _symmetry_equiv_pos_as_xyz
  1  'x, y, z'
loop_
 _atom_site_type_symbol
 _atom_site_label
 _atom_site_symmetry_multiplicity
 _atom_site_fract_x
 _atom_site_fract_y
 _atom_site_fract_z
 _atom_site_occupancy
  Mg  Mg0  1  0.357925  0.231944  0.711122  1
  Mg  Mg1  1  0.642075  0.768056  0.288878  1
  P  P2  1  0.415714  0.097737  0.319998  1
  P  P3  1  0.584286  0.902263  0.680002  1
  P  P4  1  0.269843  0.435326  0.085995  1
  P  P5  1  0.730157  0.564674  0.914005  1
  H  H6  1  0.186237  0.013471  0.168039  1
  H  H7  1  0.813763  0.986529  0.831961  1
  H  H8  1  0.490650  0.320982  0.214632  1
  H  H9  1  0.509350  0.679018  0.785368  1
  H  H10  1  0.322686  0.736759  0.138452  1
  H  H11  1  0.677314  0.263241  0.861548  1
  H  H12  1  0.000042  0.267391  0.127636  1
  H  H13  1  0.999958  0.732609  0.872364  1
  H  H14  1  0.184885  0.440025  0.616608  1
  H  H15  1  0.815115  0.559975  0.383392  1
  H  H16  1  0.095884  0.414096  0.767957  1
  H  H17  1  0.904116  0.585904  0.232043  1
  H  H18  1  0.031204  0.961479  0.627614  1
  H  H19  1  0.968796  0.038521  0.372386  1
  H  H20  1  0.164376  0.833832  0.581355  1
  H  H21  1  0.835624  0.166168  0.418645  1
  H  H22  1  0.140952  0.500051  0.407639  1
  H  H23  1  0.859048  0.499949  0.592361  1
  H  H24  1  0.324545  0.631637  0.493940  1
  H  H25  1  0.675455  0.368363  0.506060  1
  H  H26  1  0.242537  0.895723  0.926566  1
  H  H27  1  0.757463  0.104277  0.073434  1
  H  H28  1  0.204621  0.977658  0.936620  1
  H  H29  1  0.795379  0.022342  0.063380  1
  O  O30  1  0.449743  0.222224  0.490396  1
  O  O31  1  0.550257  0.777776  0.509604  1
  O  O32  1  0.458034  0.906802  0.266646  1
  O  O33  1  0.541966  0.093198  0.733354  1
  O  O34  1  0.205515  0.057395  0.280610  1
  O  O35  1  0.794485  0.942605  0.719390  1
  O  O36  1  0.521458  0.203911  0.211501  1
  O  O37  1  0.478542  0.796089  0.788499  1
  O  O38  1  0.254981  0.271694  0.931796  1
  O  O39  1  0.745019  0.728306  0.068204  1
  O  O40  1  0.434261  0.499427  0.191744  1
  O  O41  1  0.565739  0.500573  0.808256  1
  O  O42  1  0.240603  0.613777  0.063183  1
  O  O43  1  0.759397  0.386223  0.936817  1
  O  O44  1  0.099993  0.372253  0.188714  1
  O  O45  1  0.900007  0.627747  0.811286  1
  O  O46  1  0.170071  0.361828  0.681990  1
  O  O47  1  0.829929  0.638172  0.318010  1
  O  O48  1  0.158728  0.966875  0.615760  1
  O  O49  1  0.841272  0.033125  0.384240  1
  O  O50  1  0.194978  0.582055  0.511866  1
  O  O51  1  0.805022  0.417945  0.488134  1
