# generated using pymatgen
data_LiCuPH2O5
_symmetry_space_group_name_H-M   'P 1'
_cell_length_a   6.13807451
_cell_length_b   6.99025969
_cell_length_c   9.82972689
_cell_angle_alpha   90.00000000
_cell_angle_beta   93.49241449
_cell_angle_gamma   90.00000000
_symmetry_Int_Tables_number   1
_chemical_formula_structural   LiCuPH2O5
_chemical_formula_sum   'Li4 Cu4 P4 H8 O20'
_cell_volume   420.97822041
_cell_formula_units_Z   4
loop_
 _symmetry_equiv_pos_site_id
 _symmetry_equiv_pos_as_xyz
  1  'x, y, z'
loop_
 _atom_site_type_symbol
 _atom_site_label
 _atom_site_symmetry_multiplicity
 _atom_site_fract_x
 _atom_site_fract_y
 _atom_site_fract_z
 _atom_site_occupancy
  Li  Li0  1  0.596697  0.414181  0.343413  1
  Li  Li1  1  0.096697  0.085819  0.343413  1
  Li  Li2  1  0.903303  0.914181  0.656587  1
  Li  Li3  1  0.403303  0.585819  0.656587  1
  Cu  Cu4  1  0.785718  0.202770  0.011657  1
  Cu  Cu5  1  0.285718  0.297230  0.011657  1
  Cu  Cu6  1  0.714282  0.702770  0.988343  1
  Cu  Cu7  1  0.214282  0.797230  0.988343  1
  P  P8  1  0.998165  0.527478  0.192568  1
  P  P9  1  0.498165  0.972522  0.192568  1
  P  P10  1  0.501835  0.027478  0.807432  1
  P  P11  1  0.001835  0.472522  0.807432  1
  H  H12  1  0.849630  0.728557  0.414788  1
  H  H13  1  0.679598  0.894097  0.437498  1
  H  H14  1  0.349630  0.771443  0.414788  1
  H  H15  1  0.179598  0.605903  0.437498  1
  H  H16  1  0.820402  0.394097  0.562502  1
  H  H17  1  0.650370  0.228557  0.585212  1
  H  H18  1  0.320402  0.105903  0.562502  1
  H  H19  1  0.150370  0.271443  0.585212  1
  O  O20  1  0.808289  0.462051  0.084362  1
  O  O21  1  0.308289  0.037949  0.084362  1
  O  O22  1  0.558132  0.766524  0.149670  1
  O  O23  1  0.058132  0.733476  0.149670  1
  O  O24  1  0.688370  0.119864  0.188532  1
  O  O25  1  0.188370  0.380136  0.188532  1
  O  O26  1  0.910440  0.525597  0.335142  1
  O  O27  1  0.410440  0.974403  0.335142  1
  O  O28  1  0.828448  0.850672  0.464950  1
  O  O29  1  0.328448  0.649328  0.464950  1
  O  O30  1  0.671552  0.350672  0.535050  1
  O  O31  1  0.171552  0.149328  0.535050  1
  O  O32  1  0.589560  0.025597  0.664858  1
  O  O33  1  0.089560  0.474403  0.664858  1
  O  O34  1  0.811630  0.619864  0.811468  1
  O  O35  1  0.311630  0.880136  0.811468  1
  O  O36  1  0.941868  0.266524  0.850330  1
  O  O37  1  0.441868  0.233476  0.850330  1
  O  O38  1  0.691711  0.962051  0.915638  1
  O  O39  1  0.191711  0.537949  0.915638  1
