# generated using pymatgen
data_Tm2TiO5
_symmetry_space_group_name_H-M   'P 1'
_cell_length_a   3.59102209
_cell_length_b   7.40388518
_cell_length_c   15.35163266
_cell_angle_alpha   90.00000000
_cell_angle_beta   90.00000000
_cell_angle_gamma   90.00000000
_symmetry_Int_Tables_number   1
_chemical_formula_structural   Tm2TiO5
_chemical_formula_sum   'Tm8 Ti4 O20'
_cell_volume   408.16176720
_cell_formula_units_Z   4
loop_
 _symmetry_equiv_pos_site_id
 _symmetry_equiv_pos_as_xyz
  1  'x, y, z'
loop_
 _atom_site_type_symbol
 _atom_site_label
 _atom_site_symmetry_multiplicity
 _atom_site_fract_x
 _atom_site_fract_y
 _atom_site_fract_z
 _atom_site_occupancy
  Tm  Tm0  1  0.750000  0.898968  0.084406  1
  Tm  Tm1  1  0.750000  0.839939  0.737572  1
  Tm  Tm2  1  0.250000  0.660061  0.237572  1
  Tm  Tm3  1  0.250000  0.601032  0.584406  1
  Tm  Tm4  1  0.750000  0.398968  0.415594  1
  Tm  Tm5  1  0.750000  0.339939  0.762428  1
  Tm  Tm6  1  0.250000  0.160061  0.262428  1
  Tm  Tm7  1  0.250000  0.101032  0.915594  1
  Ti  Ti8  1  0.750000  0.884453  0.423229  1
  Ti  Ti9  1  0.250000  0.615547  0.923229  1
  Ti  Ti10  1  0.750000  0.384453  0.076771  1
  Ti  Ti11  1  0.250000  0.115547  0.576771  1
  O  O12  1  0.250000  0.928068  0.174596  1
  O  O13  1  0.250000  0.925145  0.453477  1
  O  O14  1  0.250000  0.879807  0.648866  1
  O  O15  1  0.250000  0.844900  0.995653  1
  O  O16  1  0.750000  0.748613  0.322112  1
  O  O17  1  0.250000  0.751387  0.822112  1
  O  O18  1  0.750000  0.655100  0.495653  1
  O  O19  1  0.750000  0.620193  0.148866  1
  O  O20  1  0.750000  0.574855  0.953477  1
  O  O21  1  0.750000  0.571932  0.674596  1
  O  O22  1  0.250000  0.428068  0.325404  1
  O  O23  1  0.250000  0.425145  0.046523  1
  O  O24  1  0.250000  0.379807  0.851134  1
  O  O25  1  0.250000  0.344900  0.504347  1
  O  O26  1  0.750000  0.248613  0.177888  1
  O  O27  1  0.250000  0.251387  0.677888  1
  O  O28  1  0.750000  0.155100  0.004347  1
  O  O29  1  0.750000  0.120193  0.351134  1
  O  O30  1  0.750000  0.074855  0.546523  1
  O  O31  1  0.750000  0.071932  0.825404  1
