# generated using pymatgen
data_Sr4Ta2O9
_symmetry_space_group_name_H-M   'P 1'
_cell_length_a   10.22895584
_cell_length_b   5.81199344
_cell_length_c   17.90492984
_cell_angle_alpha   90.00000000
_cell_angle_beta   124.02067795
_cell_angle_gamma   90.00000000
_symmetry_Int_Tables_number   1
_chemical_formula_structural   Sr4Ta2O9
_chemical_formula_sum   'Sr16 Ta8 O36'
_cell_volume   882.26183936
_cell_formula_units_Z   4
loop_
 _symmetry_equiv_pos_site_id
 _symmetry_equiv_pos_as_xyz
  1  'x, y, z'
loop_
 _atom_site_type_symbol
 _atom_site_label
 _atom_site_symmetry_multiplicity
 _atom_site_fract_x
 _atom_site_fract_y
 _atom_site_fract_z
 _atom_site_occupancy
  Sr  Sr0  1  0.500000  0.000000  0.500000  1
  Sr  Sr1  1  0.000000  0.000000  0.000000  1
  Sr  Sr2  1  0.777519  0.000369  0.766206  1
  Sr  Sr3  1  0.548575  0.483061  0.396109  1
  Sr  Sr4  1  0.112977  0.514461  0.923519  1
  Sr  Sr5  1  0.887023  0.014461  0.576481  1
  Sr  Sr6  1  0.451425  0.983061  0.103891  1
  Sr  Sr7  1  0.222481  0.500369  0.733794  1
  Sr  Sr8  1  0.000000  0.500000  0.500000  1
  Sr  Sr9  1  0.777519  0.499631  0.266206  1
  Sr  Sr10  1  0.500000  0.500000  0.000000  1
  Sr  Sr11  1  0.548575  0.016939  0.896109  1
  Sr  Sr12  1  0.112977  0.985539  0.423519  1
  Sr  Sr13  1  0.887023  0.485539  0.076481  1
  Sr  Sr14  1  0.451425  0.516939  0.603891  1
  Sr  Sr15  1  0.222481  0.999631  0.233794  1
  Ta  Ta16  1  0.329667  0.491920  0.167180  1
  Ta  Ta17  1  0.835315  0.509233  0.667366  1
  Ta  Ta18  1  0.670333  0.991920  0.332820  1
  Ta  Ta19  1  0.164685  0.009233  0.832634  1
  Ta  Ta20  1  0.835315  0.990767  0.167366  1
  Ta  Ta21  1  0.329667  0.008080  0.667180  1
  Ta  Ta22  1  0.164685  0.490767  0.332634  1
  Ta  Ta23  1  0.670333  0.508080  0.832820  1
  O  O24  1  0.267991  0.569003  0.260835  1
  O  O25  1  0.135946  0.319579  0.104046  1
  O  O26  1  0.702759  0.782422  0.627455  1
  O  O27  1  0.679386  0.329569  0.563996  1
  O  O28  1  0.234887  0.773845  0.100292  1
  O  O29  1  0.062580  0.101023  0.892115  1
  O  O30  1  0.615229  0.901172  0.416169  1
  O  O31  1  0.463598  0.210330  0.249035  1
  O  O32  1  0.018072  0.723185  0.776766  1
  O  O33  1  0.981928  0.223185  0.723234  1
  O  O34  1  0.536402  0.710330  0.250965  1
  O  O35  1  0.384771  0.401172  0.083831  1
  O  O36  1  0.937420  0.601023  0.607885  1
  O  O37  1  0.765113  0.273845  0.399708  1
  O  O38  1  0.320614  0.829569  0.936004  1
  O  O39  1  0.297241  0.282422  0.872545  1
  O  O40  1  0.864054  0.819579  0.395954  1
  O  O41  1  0.732009  0.069003  0.239165  1
  O  O42  1  0.267991  0.930997  0.760835  1
  O  O43  1  0.135946  0.180421  0.604046  1
  O  O44  1  0.702759  0.717578  0.127455  1
  O  O45  1  0.679386  0.170431  0.063996  1
  O  O46  1  0.234887  0.726155  0.600292  1
  O  O47  1  0.062580  0.398977  0.392115  1
  O  O48  1  0.615229  0.598828  0.916169  1
  O  O49  1  0.463598  0.289670  0.749035  1
  O  O50  1  0.018072  0.776815  0.276766  1
  O  O51  1  0.981928  0.276815  0.223234  1
  O  O52  1  0.536402  0.789670  0.750965  1
  O  O53  1  0.384771  0.098828  0.583831  1
  O  O54  1  0.937420  0.898977  0.107885  1
  O  O55  1  0.765113  0.226155  0.899708  1
  O  O56  1  0.320614  0.670431  0.436004  1
  O  O57  1  0.297241  0.217578  0.372545  1
  O  O58  1  0.864054  0.680421  0.895954  1
  O  O59  1  0.732009  0.430997  0.739165  1
