# generated using pymatgen
data_Li2V3CoO8
_symmetry_space_group_name_H-M   'P 1'
_cell_length_a   6.39823724
_cell_length_b   6.39823724
_cell_length_c   6.52775981
_cell_angle_alpha   74.07695781
_cell_angle_beta   105.92304219
_cell_angle_gamma   143.54740483
_symmetry_Int_Tables_number   1
_chemical_formula_structural   Li2V3CoO8
_chemical_formula_sum   'Li2 V3 Co1 O8'
_cell_volume   152.00922759
_cell_formula_units_Z   1
loop_
 _symmetry_equiv_pos_site_id
 _symmetry_equiv_pos_as_xyz
  1  'x, y, z'
loop_
 _atom_site_type_symbol
 _atom_site_label
 _atom_site_symmetry_multiplicity
 _atom_site_fract_x
 _atom_site_fract_y
 _atom_site_fract_z
 _atom_site_occupancy
  Li  Li0  1  0.939826  0.060174  0.654054  1
  Li  Li1  1  0.060214  0.939786  0.362842  1
  V  V2  1  0.607860  0.392140  0.702351  1
  V  V3  1  0.388705  0.611295  0.277826  1
  V  V4  1  0.708850  0.291150  0.288129  1
  Co  Co5  1  0.289451  0.710549  0.698583  1
  O  O6  1  0.878919  0.121081  0.329114  1
  O  O7  1  0.758567  0.241433  0.636823  1
  O  O8  1  0.655327  0.344673  0.011400  1
  O  O9  1  0.559800  0.440200  0.359713  1
  O  O10  1  0.452042  0.547958  0.647241  1
  O  O11  1  0.355193  0.644807  0.009774  1
  O  O12  1  0.233677  0.766322  0.338289  1
  O  O13  1  0.111568  0.888432  0.683860  1
