# generated using pymatgen
data_Li4Ti3Mn4(FeO9)2
_symmetry_space_group_name_H-M   'P 1'
_cell_length_a   2.94015807
_cell_length_b   9.17193698
_cell_length_c   25.38955972
_cell_angle_alpha   90.00000000
_cell_angle_beta   90.00000000
_cell_angle_gamma   90.00000000
_symmetry_Int_Tables_number   1
_chemical_formula_structural   Li4Ti3Mn4(FeO9)2
_chemical_formula_sum   'Li8 Ti6 Mn8 Fe4 O36'
_cell_volume   684.67884889
_cell_formula_units_Z   2
loop_
 _symmetry_equiv_pos_site_id
 _symmetry_equiv_pos_as_xyz
  1  'x, y, z'
loop_
 _atom_site_type_symbol
 _atom_site_label
 _atom_site_symmetry_multiplicity
 _atom_site_fract_x
 _atom_site_fract_y
 _atom_site_fract_z
 _atom_site_occupancy
  Li  Li0  1  0.500000  0.931021  0.992733  1
  Li  Li1  1  0.500000  0.944655  0.208569  1
  Li  Li2  1  0.500000  0.055345  0.708569  1
  Li  Li3  1  0.500000  0.068979  0.492733  1
  Li  Li4  1  0.500000  0.430686  0.498856  1
  Li  Li5  1  0.500000  0.447772  0.308688  1
  Li  Li6  1  0.500000  0.552228  0.808688  1
  Li  Li7  1  0.500000  0.569314  0.998856  1
  Ti  Ti8  1  0.500000  0.750773  0.105264  1
  Ti  Ti9  1  0.500000  0.249227  0.605264  1
  Ti  Ti10  1  0.500000  0.243826  0.393927  1
  Ti  Ti11  1  0.000000  0.402989  0.694465  1
  Ti  Ti12  1  0.000000  0.597011  0.194465  1
  Ti  Ti13  1  0.500000  0.756174  0.893927  1
  Mn  Mn14  1  0.500000  0.764955  0.312563  1
  Mn  Mn15  1  0.000000  0.898130  0.586601  1
  Mn  Mn16  1  0.000000  0.101870  0.086601  1
  Mn  Mn17  1  0.500000  0.235045  0.812563  1
  Mn  Mn18  1  0.500000  0.258131  0.186065  1
  Mn  Mn19  1  0.000000  0.394529  0.913824  1
  Mn  Mn20  1  0.000000  0.605471  0.413824  1
  Mn  Mn21  1  0.500000  0.741869  0.686065  1
  Fe  Fe22  1  0.500000  0.750795  0.500280  1
  Fe  Fe23  1  0.000000  0.897203  0.803650  1
  Fe  Fe24  1  0.000000  0.102797  0.303650  1
  Fe  Fe25  1  0.500000  0.249205  0.000280  1
  O  O26  1  0.500000  0.743193  0.420502  1
  O  O27  1  0.500000  0.760583  0.580781  1
  O  O28  1  0.000000  0.790023  0.942613  1
  O  O29  1  0.000000  0.795494  0.161363  1
  O  O30  1  0.000000  0.869613  0.661058  1
  O  O31  1  0.500000  0.870738  0.753517  1
  O  O32  1  0.000000  0.904388  0.508563  1
  O  O33  1  0.000000  0.882712  0.285937  1
  O  O34  1  0.500000  0.933579  0.859989  1
  O  O35  1  0.500000  0.964287  0.087313  1
  O  O36  1  0.500000  0.035713  0.587313  1
  O  O37  1  0.500000  0.066421  0.359989  1
  O  O38  1  0.000000  0.117288  0.785937  1
  O  O39  1  0.000000  0.095612  0.008563  1
  O  O40  1  0.500000  0.129262  0.253517  1
  O  O41  1  0.000000  0.130387  0.161058  1
  O  O42  1  0.000000  0.204506  0.661363  1
  O  O43  1  0.000000  0.209977  0.442613  1
  O  O44  1  0.500000  0.239417  0.080781  1
  O  O45  1  0.500000  0.256807  0.920502  1
  O  O46  1  0.000000  0.288418  0.559176  1
  O  O47  1  0.000000  0.304854  0.339996  1
  O  O48  1  0.000000  0.364527  0.838526  1
  O  O49  1  0.500000  0.374350  0.742355  1
  O  O50  1  0.000000  0.402661  0.991621  1
  O  O51  1  0.000000  0.386121  0.206337  1
  O  O52  1  0.500000  0.432587  0.641443  1
  O  O53  1  0.500000  0.468538  0.413640  1
  O  O54  1  0.500000  0.531462  0.913640  1
  O  O55  1  0.500000  0.567413  0.141443  1
  O  O56  1  0.000000  0.613879  0.706337  1
  O  O57  1  0.000000  0.597339  0.491621  1
  O  O58  1  0.500000  0.625650  0.242355  1
  O  O59  1  0.000000  0.635473  0.338526  1
  O  O60  1  0.000000  0.695146  0.839996  1
  O  O61  1  0.000000  0.711582  0.059176  1
