# generated using pymatgen
data_Li2Zr2O5
_symmetry_space_group_name_H-M   'P 1'
_cell_length_a   5.63130055
_cell_length_b   5.63130055
_cell_length_c   7.60798650
_cell_angle_alpha   71.91807161
_cell_angle_beta   108.08192839
_cell_angle_gamma   107.99840996
_symmetry_Int_Tables_number   1
_chemical_formula_structural   Li2Zr2O5
_chemical_formula_sum   'Li4 Zr4 O10'
_cell_volume   211.89666553
_cell_formula_units_Z   2
loop_
 _symmetry_equiv_pos_site_id
 _symmetry_equiv_pos_as_xyz
  1  'x, y, z'
loop_
 _atom_site_type_symbol
 _atom_site_label
 _atom_site_symmetry_multiplicity
 _atom_site_fract_x
 _atom_site_fract_y
 _atom_site_fract_z
 _atom_site_occupancy
  Li  Li0  1  0.781445  0.815141  0.499282  1
  Li  Li1  1  0.184859  0.218555  0.999282  1
  Li  Li2  1  0.815141  0.781445  0.000718  1
  Li  Li3  1  0.218555  0.184859  0.500718  1
  Zr  Zr4  1  0.223001  0.721113  0.379130  1
  Zr  Zr5  1  0.278887  0.776999  0.879130  1
  Zr  Zr6  1  0.721113  0.223001  0.120870  1
  Zr  Zr7  1  0.776999  0.278887  0.620870  1
  O  O8  1  0.000000  0.500000  0.000000  1
  O  O9  1  0.929890  0.360728  0.371660  1
  O  O10  1  0.639272  0.070110  0.871660  1
  O  O11  1  0.938057  0.938057  0.250000  1
  O  O12  1  0.500000  0.500000  0.500000  1
  O  O13  1  0.061943  0.061943  0.750000  1
  O  O14  1  0.500000  0.500000  0.000000  1
  O  O15  1  0.360728  0.929890  0.128340  1
  O  O16  1  0.070110  0.639272  0.628340  1
  O  O17  1  0.500000  0.000000  0.500000  1
