# generated using pymatgen
data_Tb2WO6
_symmetry_space_group_name_H-M   'P 1'
_cell_length_a   5.65900121
_cell_length_b   5.42258667
_cell_length_c   8.26117300
_cell_angle_alpha   90.00000000
_cell_angle_beta   95.39127520
_cell_angle_gamma   90.00000000
_symmetry_Int_Tables_number   1
_chemical_formula_structural   Tb2WO6
_chemical_formula_sum   'Tb4 W2 O12'
_cell_volume   252.38442373
_cell_formula_units_Z   2
loop_
 _symmetry_equiv_pos_site_id
 _symmetry_equiv_pos_as_xyz
  1  'x, y, z'
loop_
 _atom_site_type_symbol
 _atom_site_label
 _atom_site_symmetry_multiplicity
 _atom_site_fract_x
 _atom_site_fract_y
 _atom_site_fract_z
 _atom_site_occupancy
  Tb  Tb0  1  0.484398  0.465179  0.865388  1
  Tb  Tb1  1  0.515602  0.965179  0.134612  1
  Tb  Tb2  1  0.986828  0.022610  0.864865  1
  Tb  Tb3  1  0.013172  0.522610  0.135135  1
  W  W4  1  0.239970  0.064368  0.477718  1
  W  W5  1  0.760030  0.564368  0.522282  1
  O  O6  1  0.289005  0.155497  0.695948  1
  O  O7  1  0.500352  0.208483  0.400684  1
  O  O8  1  0.250679  0.740280  0.976300  1
  O  O9  1  0.749321  0.240280  0.023700  1
  O  O10  1  0.499648  0.708483  0.599316  1
  O  O11  1  0.710995  0.655497  0.304052  1
  O  O12  1  0.793500  0.329729  0.688509  1
  O  O13  1  0.013136  0.302113  0.405441  1
  O  O14  1  0.750706  0.745446  0.972984  1
  O  O15  1  0.986864  0.802113  0.594559  1
  O  O16  1  0.249294  0.245446  0.027016  1
  O  O17  1  0.206500  0.829729  0.311491  1
