# generated using pymatgen
data_NaLi2MnPCO7
_symmetry_space_group_name_H-M   'P 1'
_cell_length_a   5.03820482
_cell_length_b   6.64771340
_cell_length_c   8.74180173
_cell_angle_alpha   90.74326737
_cell_angle_beta   91.28151412
_cell_angle_gamma   90.27588021
_symmetry_Int_Tables_number   1
_chemical_formula_structural   NaLi2MnPCO7
_chemical_formula_sum   'Na2 Li4 Mn2 P2 C2 O14'
_cell_volume   292.68348083
_cell_formula_units_Z   2
loop_
 _symmetry_equiv_pos_site_id
 _symmetry_equiv_pos_as_xyz
  1  'x, y, z'
loop_
 _atom_site_type_symbol
 _atom_site_label
 _atom_site_symmetry_multiplicity
 _atom_site_fract_x
 _atom_site_fract_y
 _atom_site_fract_z
 _atom_site_occupancy
  Na  Na0  1  0.754935  0.247305  0.914989  1
  Na  Na1  1  0.752651  0.501052  0.251453  1
  Li  Li2  1  0.229113  0.020451  0.732772  1
  Li  Li3  1  0.228476  0.480102  0.733692  1
  Li  Li4  1  0.771046  0.980206  0.268272  1
  Li  Li5  1  0.253661  0.763751  0.082926  1
  Mn  Mn6  1  0.777125  0.748443  0.643392  1
  Mn  Mn7  1  0.226106  0.244795  0.357277  1
  P  P8  1  0.708446  0.244001  0.589277  1
  P  P9  1  0.299972  0.753728  0.409948  1
  C  C10  1  0.727359  0.758808  0.955282  1
  C  C11  1  0.264069  0.247269  0.049143  1
  O  O12  1  0.277379  0.250047  0.900396  1
  O  O13  1  0.973232  0.752034  0.914053  1
  O  O14  1  0.535253  0.746344  0.853115  1
  O  O15  1  0.811229  0.063484  0.684329  1
  O  O16  1  0.819997  0.433835  0.674551  1
  O  O17  1  0.396579  0.247730  0.588074  1
  O  O18  1  0.199097  0.752606  0.577314  1
  O  O19  1  0.798775  0.232701  0.420922  1
  O  O20  1  0.608993  0.772590  0.419405  1
  O  O21  1  0.221303  0.560821  0.317194  1
  O  O22  1  0.183303  0.929142  0.313475  1
  O  O23  1  0.478854  0.242262  0.134228  1
  O  O24  1  0.036357  0.249052  0.115511  1
  O  O25  1  0.666689  0.777441  0.099009  1
