# generated using pymatgen
data_Li4Cr(PO4)3
_symmetry_space_group_name_H-M   'P 1'
_cell_length_a   6.99017352
_cell_length_b   7.62162668
_cell_length_c   13.49400358
_cell_angle_alpha   94.01607198
_cell_angle_beta   90.09581584
_cell_angle_gamma   103.57792282
_symmetry_Int_Tables_number   1
_chemical_formula_structural   Li4Cr(PO4)3
_chemical_formula_sum   'Li12 Cr3 P9 O36'
_cell_volume   696.98302118
_cell_formula_units_Z   3
loop_
 _symmetry_equiv_pos_site_id
 _symmetry_equiv_pos_as_xyz
  1  'x, y, z'
loop_
 _atom_site_type_symbol
 _atom_site_label
 _atom_site_symmetry_multiplicity
 _atom_site_fract_x
 _atom_site_fract_y
 _atom_site_fract_z
 _atom_site_occupancy
  Li  Li0  1  0.054948  0.782595  0.383606  1
  Li  Li1  1  0.092607  0.802600  0.889808  1
  Li  Li2  1  0.585762  0.791339  0.388572  1
  Li  Li3  1  0.565008  0.817431  0.893265  1
  Li  Li4  1  0.247509  0.511060  0.000593  1
  Li  Li5  1  0.238095  0.515464  0.499999  1
  Li  Li6  1  0.766919  0.484103  0.501034  1
  Li  Li7  1  0.747604  0.471832  0.000998  1
  Li  Li8  1  0.417850  0.189599  0.114483  1
  Li  Li9  1  0.418318  0.183856  0.624584  1
  Li  Li10  1  0.922955  0.198768  0.112864  1
  Li  Li11  1  0.922299  0.197724  0.612886  1
  Cr  Cr12  1  0.731261  0.401083  0.264873  1
  Cr  Cr13  1  0.730980  0.397477  0.769308  1
  Cr  Cr14  1  0.396233  0.175179  0.388078  1
  P  P15  1  0.050409  0.833818  0.112512  1
  P  P16  1  0.049783  0.833118  0.612669  1
  P  P17  1  0.616709  0.823631  0.113274  1
  P  P18  1  0.616454  0.823974  0.613306  1
  P  P19  1  0.275880  0.617835  0.225347  1
  P  P20  1  0.277408  0.618743  0.725886  1
  P  P21  1  0.385070  0.175229  0.886625  1
  P  P22  1  0.938466  0.158191  0.388300  1
  P  P23  1  0.945190  0.159370  0.887893  1
  O  O24  1  0.397668  0.961611  0.389939  1
  O  O25  1  0.376053  0.976587  0.890660  1
  O  O26  1  0.862714  0.956861  0.398550  1
  O  O27  1  0.867769  0.958335  0.894418  1
  O  O28  1  0.142731  0.765354  0.208807  1
  O  O29  1  0.064219  0.708345  0.022510  1
  O  O30  1  0.142275  0.763517  0.707960  1
  O  O31  1  0.060212  0.706975  0.522006  1
  O  O32  1  0.827377  0.798520  0.149638  1
  O  O33  1  0.544482  0.698545  0.022123  1
  O  O34  1  0.498006  0.740859  0.209994  1
  O  O35  1  0.827406  0.798616  0.649425  1
  O  O36  1  0.544356  0.698294  0.522561  1
  O  O37  1  0.497992  0.742572  0.709959  1
  O  O38  1  0.262839  0.595079  0.334740  1
  O  O39  1  0.266987  0.598135  0.835439  1
  O  O40  1  0.226859  0.463222  0.147587  1
  O  O41  1  0.227838  0.462202  0.649091  1
  O  O42  1  0.782297  0.572736  0.350577  1
  O  O43  1  0.782697  0.568766  0.852058  1
  O  O44  1  0.763014  0.422350  0.145381  1
  O  O45  1  0.744740  0.419932  0.649339  1
  O  O46  1  0.482492  0.279309  0.273598  1
  O  O47  1  0.468175  0.307723  0.490720  1
  O  O48  1  0.156354  0.197857  0.352833  1
  O  O49  1  0.485463  0.253288  0.788217  1
  O  O50  1  0.463223  0.299393  0.978082  1
  O  O51  1  0.171657  0.198963  0.859218  1
  O  O52  1  0.924203  0.287299  0.478483  1
  O  O53  1  0.838210  0.213118  0.293951  1
  O  O54  1  0.928382  0.286961  0.977362  1
  O  O55  1  0.865714  0.223511  0.790418  1
  O  O56  1  0.130416  0.034469  0.109496  1
  O  O57  1  0.132532  0.033399  0.609883  1
  O  O58  1  0.624303  0.021327  0.111556  1
  O  O59  1  0.624629  0.021955  0.612658  1
