# generated using pymatgen
data_Fe4OF7
_symmetry_space_group_name_H-M   'P 1'
_cell_length_a   5.79010300
_cell_length_b   4.78544179
_cell_length_c   10.88396583
_cell_angle_alpha   90.00000000
_cell_angle_beta   97.84454981
_cell_angle_gamma   90.00000000
_symmetry_Int_Tables_number   1
_chemical_formula_structural   Fe4OF7
_chemical_formula_sum   'Fe8 O2 F14'
_cell_volume   298.75297662
_cell_formula_units_Z   2
loop_
 _symmetry_equiv_pos_site_id
 _symmetry_equiv_pos_as_xyz
  1  'x, y, z'
loop_
 _atom_site_type_symbol
 _atom_site_label
 _atom_site_symmetry_multiplicity
 _atom_site_fract_x
 _atom_site_fract_y
 _atom_site_fract_z
 _atom_site_occupancy
  Fe  Fe0  1  0.009541  0.758628  0.503471  1
  Fe  Fe1  1  0.485143  0.755024  0.001208  1
  Fe  Fe2  1  0.246261  0.768725  0.235138  1
  Fe  Fe3  1  0.753006  0.751494  0.753767  1
  Fe  Fe4  1  0.246261  0.231275  0.735138  1
  Fe  Fe5  1  0.485143  0.244976  0.501208  1
  Fe  Fe6  1  0.753006  0.248506  0.253767  1
  Fe  Fe7  1  0.009541  0.241372  0.003471  1
  O  O8  1  0.221428  0.058478  0.582748  1
  O  O9  1  0.221428  0.941522  0.082748  1
  F  F10  1  0.477464  0.035600  0.325834  1
  F  F11  1  0.720767  0.051747  0.077963  1
  F  F12  1  0.986300  0.057556  0.817214  1
  F  F13  1  0.477464  0.964400  0.825834  1
  F  F14  1  0.720767  0.948253  0.577963  1
  F  F15  1  0.986300  0.942444  0.317214  1
  F  F16  1  0.777751  0.550559  0.929196  1
  F  F17  1  0.277647  0.556980  0.408906  1
  F  F18  1  0.518125  0.546470  0.184160  1
  F  F19  1  0.026567  0.543495  0.680396  1
  F  F20  1  0.026567  0.456505  0.180396  1
  F  F21  1  0.277647  0.443020  0.908906  1
  F  F22  1  0.518125  0.453530  0.684160  1
  F  F23  1  0.777751  0.449441  0.429196  1
