# generated using pymatgen
data_LiFeB2O5
_symmetry_space_group_name_H-M   'P 1'
_cell_length_a   4.36833977
_cell_length_b   11.85084004
_cell_length_c   6.21350179
_cell_angle_alpha   90.00000000
_cell_angle_beta   91.21672321
_cell_angle_gamma   90.00000000
_symmetry_Int_Tables_number   1
_chemical_formula_structural   LiFeB2O5
_chemical_formula_sum   'Li4 Fe4 B8 O20'
_cell_volume   321.59111529
_cell_formula_units_Z   4
loop_
 _symmetry_equiv_pos_site_id
 _symmetry_equiv_pos_as_xyz
  1  'x, y, z'
loop_
 _atom_site_type_symbol
 _atom_site_label
 _atom_site_symmetry_multiplicity
 _atom_site_fract_x
 _atom_site_fract_y
 _atom_site_fract_z
 _atom_site_occupancy
  Li  Li0  1  0.377969  0.722481  0.746004  1
  Li  Li1  1  0.377969  0.777519  0.246004  1
  Li  Li2  1  0.622031  0.222481  0.753996  1
  Li  Li3  1  0.622031  0.277519  0.253996  1
  Fe  Fe4  1  0.206343  0.399846  0.506968  1
  Fe  Fe5  1  0.206343  0.100154  0.006968  1
  Fe  Fe6  1  0.793657  0.899846  0.993032  1
  Fe  Fe7  1  0.793657  0.600154  0.493032  1
  B  B8  1  0.185428  0.366639  0.981495  1
  B  B9  1  0.185428  0.133361  0.481495  1
  B  B10  1  0.306918  0.942861  0.708502  1
  B  B11  1  0.306918  0.557139  0.208502  1
  B  B12  1  0.693082  0.442861  0.791498  1
  B  B13  1  0.693082  0.057139  0.291498  1
  B  B14  1  0.814572  0.866639  0.518505  1
  B  B15  1  0.814572  0.633361  0.018505  1
  O  O16  1  0.142050  0.862801  0.575432  1
  O  O17  1  0.142050  0.637199  0.075432  1
  O  O18  1  0.242169  0.924036  0.948543  1
  O  O19  1  0.242169  0.575964  0.448543  1
  O  O20  1  0.236828  0.066710  0.687678  1
  O  O21  1  0.306320  0.253574  0.013280  1
  O  O22  1  0.236828  0.433290  0.187678  1
  O  O23  1  0.306320  0.246426  0.513280  1
  O  O24  1  0.356764  0.425912  0.808171  1
  O  O25  1  0.356764  0.074088  0.308171  1
  O  O26  1  0.643236  0.925912  0.691829  1
  O  O27  1  0.643236  0.574088  0.191829  1
  O  O28  1  0.693680  0.753574  0.486720  1
  O  O29  1  0.763172  0.566710  0.812322  1
  O  O30  1  0.693680  0.746426  0.986720  1
  O  O31  1  0.763172  0.933290  0.312322  1
  O  O32  1  0.757831  0.424036  0.551457  1
  O  O33  1  0.757831  0.075964  0.051457  1
  O  O34  1  0.857950  0.362801  0.924568  1
  O  O35  1  0.857950  0.137199  0.424568  1
