# generated using pymatgen
data_Li5Mn3(NiO5)2
_symmetry_space_group_name_H-M   'P 1'
_cell_length_a   5.04554945
_cell_length_b   5.14504952
_cell_length_c   7.86087211
_cell_angle_alpha   107.34734512
_cell_angle_beta   102.97296690
_cell_angle_gamma   99.46297247
_symmetry_Int_Tables_number   1
_chemical_formula_structural   Li5Mn3(NiO5)2
_chemical_formula_sum   'Li5 Mn3 Ni2 O10'
_cell_volume   183.84688794
_cell_formula_units_Z   1
loop_
 _symmetry_equiv_pos_site_id
 _symmetry_equiv_pos_as_xyz
  1  'x, y, z'
loop_
 _atom_site_type_symbol
 _atom_site_label
 _atom_site_symmetry_multiplicity
 _atom_site_fract_x
 _atom_site_fract_y
 _atom_site_fract_z
 _atom_site_occupancy
  Li  Li0  1  0.773133  0.508840  0.424358  1
  Li  Li1  1  0.626833  0.515869  0.764637  1
  Li  Li2  1  1.000000  0.000000  0.500000  1
  Li  Li3  1  0.373167  0.484131  0.235363  1
  Li  Li4  1  0.226867  0.491160  0.575642  1
  Mn  Mn5  1  0.000000  0.500000  0.000000  1
  Mn  Mn6  1  0.796376  0.003341  0.894249  1
  Mn  Mn7  1  0.203624  0.996659  0.105751  1
  Ni  Ni8  1  0.416054  0.004161  0.683591  1
  Ni  Ni9  1  0.583946  0.995839  0.316409  1
  O  O10  1  0.166973  0.239962  0.871891  1
  O  O11  1  0.406010  0.782901  0.955839  1
  O  O12  1  0.590708  0.755597  0.551492  1
  O  O13  1  0.017708  0.241694  0.218282  1
  O  O14  1  0.800259  0.232591  0.673399  1
  O  O15  1  0.199741  0.767409  0.326601  1
  O  O16  1  0.982292  0.758306  0.781718  1
  O  O17  1  0.409292  0.244403  0.448508  1
  O  O18  1  0.593990  0.217099  0.044161  1
  O  O19  1  0.833027  0.760038  0.128109  1
