# generated using pymatgen
data_Rb2ZrO3
_symmetry_space_group_name_H-M   'P 1'
_cell_length_a   7.01970208
_cell_length_b   7.01970208
_cell_length_c   13.93868583
_cell_angle_alpha   90.00000000
_cell_angle_beta   90.00000000
_cell_angle_gamma   125.15213738
_symmetry_Int_Tables_number   1
_chemical_formula_structural   Rb2ZrO3
_chemical_formula_sum   'Rb8 Zr4 O12'
_cell_volume   561.58300913
_cell_formula_units_Z   4
loop_
 _symmetry_equiv_pos_site_id
 _symmetry_equiv_pos_as_xyz
  1  'x, y, z'
loop_
 _atom_site_type_symbol
 _atom_site_label
 _atom_site_symmetry_multiplicity
 _atom_site_fract_x
 _atom_site_fract_y
 _atom_site_fract_z
 _atom_site_occupancy
  Rb  Rb0  1  0.054385  0.945615  0.866499  1
  Rb  Rb1  1  0.128646  0.871354  0.427160  1
  Rb  Rb2  1  0.554385  0.445615  0.633501  1
  Rb  Rb3  1  0.371354  0.628646  0.927160  1
  Rb  Rb4  1  0.445615  0.554385  0.366499  1
  Rb  Rb5  1  0.945615  0.054385  0.133501  1
  Rb  Rb6  1  0.628646  0.371354  0.072840  1
  Rb  Rb7  1  0.871354  0.128646  0.572840  1
  Zr  Zr8  1  0.245420  0.754580  0.667015  1
  Zr  Zr9  1  0.254580  0.745420  0.167015  1
  Zr  Zr10  1  0.745420  0.254580  0.832985  1
  Zr  Zr11  1  0.754580  0.245420  0.332985  1
  O  O12  1  0.029661  0.470339  0.750000  1
  O  O13  1  0.470339  0.029661  0.250000  1
  O  O14  1  0.092804  0.907196  0.633941  1
  O  O15  1  0.337106  0.662894  0.553517  1
  O  O16  1  0.662894  0.337106  0.446483  1
  O  O17  1  0.407196  0.592804  0.133941  1
  O  O18  1  0.162894  0.837106  0.053517  1
  O  O19  1  0.837106  0.162894  0.946483  1
  O  O20  1  0.592804  0.407196  0.866059  1
  O  O21  1  0.907196  0.092804  0.366059  1
  O  O22  1  0.529661  0.970339  0.750000  1
  O  O23  1  0.970339  0.529661  0.250000  1
