# generated using pymatgen
data_Mn6O7F5
_symmetry_space_group_name_H-M   'P 1'
_cell_length_a   4.69724734
_cell_length_b   5.58230092
_cell_length_c   7.75104121
_cell_angle_alpha   85.92091450
_cell_angle_beta   88.59358828
_cell_angle_gamma   88.43078732
_symmetry_Int_Tables_number   1
_chemical_formula_structural   Mn6O7F5
_chemical_formula_sum   'Mn6 O7 F5'
_cell_volume   202.60059903
_cell_formula_units_Z   1
loop_
 _symmetry_equiv_pos_site_id
 _symmetry_equiv_pos_as_xyz
  1  'x, y, z'
loop_
 _atom_site_type_symbol
 _atom_site_label
 _atom_site_symmetry_multiplicity
 _atom_site_fract_x
 _atom_site_fract_y
 _atom_site_fract_z
 _atom_site_occupancy
  Mn  Mn0  1  0.458941  0.487059  0.005909  1
  Mn  Mn1  1  0.515751  0.844994  0.675007  1
  Mn  Mn2  1  0.542946  0.177834  0.327733  1
  Mn  Mn3  1  0.992480  0.323775  0.667722  1
  Mn  Mn4  1  0.989833  0.658953  0.336702  1
  Mn  Mn5  1  0.999080  0.007187  0.985726  1
  O  O6  1  0.810331  0.376680  0.446459  1
  O  O7  1  0.811236  0.035239  0.765281  1
  O  O8  1  0.697772  0.207328  0.094961  1
  O  O9  1  0.695677  0.874860  0.435303  1
  O  O10  1  0.307372  0.460208  0.238356  1
  O  O11  1  0.303945  0.794034  0.900852  1
  O  O12  1  0.184682  0.285663  0.889685  1
  F  F13  1  0.803693  0.712732  0.086715  1
  F  F14  1  0.688348  0.523734  0.781576  1
  F  F15  1  0.305864  0.141042  0.550071  1
  F  F16  1  0.206340  0.628429  0.584275  1
  F  F17  1  0.185710  0.960250  0.227666  1
