# generated using pymatgen
data_Li3Fe(BO3)2
_symmetry_space_group_name_H-M   'P 1'
_cell_length_a   5.92590553
_cell_length_b   7.80786046
_cell_length_c   10.96933531
_cell_angle_alpha   90.00000000
_cell_angle_beta   117.15848709
_cell_angle_gamma   90.00000000
_symmetry_Int_Tables_number   1
_chemical_formula_structural   Li3Fe(BO3)2
_chemical_formula_sum   'Li12 Fe4 B8 O24'
_cell_volume   451.57903318
_cell_formula_units_Z   4
loop_
 _symmetry_equiv_pos_site_id
 _symmetry_equiv_pos_as_xyz
  1  'x, y, z'
loop_
 _atom_site_type_symbol
 _atom_site_label
 _atom_site_symmetry_multiplicity
 _atom_site_fract_x
 _atom_site_fract_y
 _atom_site_fract_z
 _atom_site_occupancy
  Li  Li0  1  0.379947  0.216114  0.377556  1
  Li  Li1  1  0.942652  0.297428  0.923916  1
  Li  Li2  1  0.271246  0.053124  0.115219  1
  Li  Li3  1  0.728754  0.553124  0.384781  1
  Li  Li4  1  0.620053  0.716114  0.122444  1
  Li  Li5  1  0.942652  0.202572  0.423916  1
  Li  Li6  1  0.057348  0.797428  0.576084  1
  Li  Li7  1  0.379947  0.283886  0.877556  1
  Li  Li8  1  0.271246  0.446876  0.615219  1
  Li  Li9  1  0.728754  0.946876  0.884781  1
  Li  Li10  1  0.057348  0.702572  0.076084  1
  Li  Li11  1  0.620053  0.783886  0.622444  1
  Fe  Fe12  1  0.898437  0.123188  0.666127  1
  Fe  Fe13  1  0.101563  0.623188  0.833873  1
  Fe  Fe14  1  0.898437  0.376812  0.166127  1
  Fe  Fe15  1  0.101563  0.876812  0.333873  1
  B  B16  1  0.364892  0.406936  0.127992  1
  B  B17  1  0.806123  0.439865  0.607941  1
  B  B18  1  0.635108  0.906936  0.372008  1
  B  B19  1  0.193877  0.939865  0.892059  1
  B  B20  1  0.806123  0.060135  0.107941  1
  B  B21  1  0.364892  0.093064  0.627992  1
  B  B22  1  0.193877  0.560135  0.392059  1
  B  B23  1  0.635108  0.593064  0.872008  1
  O  O24  1  0.238080  0.297031  0.176593  1
  O  O25  1  0.381162  0.947492  0.292201  1
  O  O26  1  0.231854  0.471701  0.997085  1
  O  O27  1  0.720039  0.316157  0.505916  1
  O  O28  1  0.880467  0.382843  0.741194  1
  O  O29  1  0.768146  0.971701  0.502915  1
  O  O30  1  0.849493  0.606709  0.587016  1
  O  O31  1  0.150507  0.106709  0.912984  1
  O  O32  1  0.119533  0.882843  0.758806  1
  O  O33  1  0.279961  0.816157  0.994084  1
  O  O34  1  0.618838  0.447492  0.207799  1
  O  O35  1  0.761920  0.797031  0.323407  1
  O  O36  1  0.238080  0.202969  0.676593  1
  O  O37  1  0.381162  0.552508  0.792201  1
  O  O38  1  0.720039  0.183843  0.005916  1
  O  O39  1  0.880467  0.117157  0.241194  1
  O  O40  1  0.849493  0.893291  0.087016  1
  O  O41  1  0.150507  0.393291  0.412984  1
  O  O42  1  0.231854  0.028299  0.497085  1
  O  O43  1  0.119533  0.617157  0.258806  1
  O  O44  1  0.279961  0.683843  0.494084  1
  O  O45  1  0.768146  0.528299  0.002915  1
  O  O46  1  0.618838  0.052508  0.707799  1
  O  O47  1  0.761920  0.702969  0.823407  1
