# generated using pymatgen
data_Li2VO2F
_symmetry_space_group_name_H-M   'P 1'
_cell_length_a   7.37142478
_cell_length_b   3.03221550
_cell_length_c   10.33938365
_cell_angle_alpha   90.00000000
_cell_angle_beta   91.54846532
_cell_angle_gamma   90.00000000
_symmetry_Int_Tables_number   1
_chemical_formula_structural   Li2VO2F
_chemical_formula_sum   'Li8 V4 O8 F4'
_cell_volume   231.01890962
_cell_formula_units_Z   4
loop_
 _symmetry_equiv_pos_site_id
 _symmetry_equiv_pos_as_xyz
  1  'x, y, z'
loop_
 _atom_site_type_symbol
 _atom_site_label
 _atom_site_symmetry_multiplicity
 _atom_site_fract_x
 _atom_site_fract_y
 _atom_site_fract_z
 _atom_site_occupancy
  Li  Li0  1  0.872773  0.500000  0.322846  1
  Li  Li1  1  0.842369  0.500000  0.828501  1
  Li  Li2  1  0.159092  0.500000  0.665436  1
  Li  Li3  1  0.128199  0.500000  0.187746  1
  Li  Li4  1  0.841792  0.000000  0.579852  1
  Li  Li5  1  0.880164  0.000000  0.084988  1
  Li  Li6  1  0.156665  0.000000  0.913728  1
  Li  Li7  1  0.134404  0.000000  0.408175  1
  V  V8  1  0.499419  0.500000  0.992847  1
  V  V9  1  0.498033  0.500000  0.503632  1
  V  V10  1  0.500737  0.000000  0.748971  1
  V  V11  1  0.481507  0.000000  0.259890  1
  O  O12  1  0.345206  0.500000  0.333959  1
  O  O13  1  0.346878  0.500000  0.830572  1
  O  O14  1  0.652084  0.500000  0.668718  1
  O  O15  1  0.347746  0.000000  0.585225  1
  O  O16  1  0.370107  0.000000  0.080950  1
  O  O17  1  0.655429  0.000000  0.916746  1
  O  O18  1  0.640102  0.000000  0.418894  1
  O  O19  1  0.996188  0.000000  0.248591  1
  F  F20  1  0.651724  0.500000  0.171873  1
  F  F21  1  0.002961  0.500000  0.989497  1
  F  F22  1  0.996842  0.500000  0.508992  1
  F  F23  1  0.999579  0.000000  0.749373  1
