# generated using pymatgen
data_BiOF
_symmetry_space_group_name_H-M   'P 1'
_cell_length_a   3.79164631
_cell_length_b   6.37656803
_cell_length_c   7.38875823
_cell_angle_alpha   90.00000000
_cell_angle_beta   90.00000000
_cell_angle_gamma   90.00000000
_symmetry_Int_Tables_number   1
_chemical_formula_structural   BiOF
_chemical_formula_sum   'Bi4 O4 F4'
_cell_volume   178.64311071
_cell_formula_units_Z   4
loop_
 _symmetry_equiv_pos_site_id
 _symmetry_equiv_pos_as_xyz
  1  'x, y, z'
loop_
 _atom_site_type_symbol
 _atom_site_label
 _atom_site_symmetry_multiplicity
 _atom_site_fract_x
 _atom_site_fract_y
 _atom_site_fract_z
 _atom_site_occupancy
  Bi  Bi0  1  0.250000  0.219849  0.913572  1
  Bi  Bi1  1  0.750000  0.280151  0.413572  1
  Bi  Bi2  1  0.250000  0.719849  0.586428  1
  Bi  Bi3  1  0.750000  0.780151  0.086428  1
  O  O4  1  0.750000  0.137064  0.068262  1
  O  O5  1  0.250000  0.362936  0.568262  1
  O  O6  1  0.750000  0.637064  0.431738  1
  O  O7  1  0.250000  0.862936  0.931738  1
  F  F8  1  0.750000  0.042842  0.660754  1
  F  F9  1  0.250000  0.457158  0.160754  1
  F  F10  1  0.750000  0.542842  0.839246  1
  F  F11  1  0.250000  0.957158  0.339246  1
