# generated using pymatgen
data_Li2TiMn2O5
_symmetry_space_group_name_H-M   'P 1'
_cell_length_a   7.97704674
_cell_length_b   7.97704674
_cell_length_c   5.44055277
_cell_angle_alpha   82.34099116
_cell_angle_beta   97.65900884
_cell_angle_gamma   39.68842155
_symmetry_Int_Tables_number   1
_chemical_formula_structural   Li2TiMn2O5
_chemical_formula_sum   'Li4 Ti2 Mn4 O10'
_cell_volume   203.33540375
_cell_formula_units_Z   2
loop_
 _symmetry_equiv_pos_site_id
 _symmetry_equiv_pos_as_xyz
  1  'x, y, z'
loop_
 _atom_site_type_symbol
 _atom_site_label
 _atom_site_symmetry_multiplicity
 _atom_site_fract_x
 _atom_site_fract_y
 _atom_site_fract_z
 _atom_site_occupancy
  Li  Li0  1  0.101923  0.101923  0.000000  1
  Li  Li1  1  0.502053  0.502053  0.000000  1
  Li  Li2  1  0.797325  0.797325  0.500000  1
  Li  Li3  1  0.198574  0.198574  0.500000  1
  Ti  Ti4  1  0.696294  0.696294  0.000000  1
  Ti  Ti5  1  0.000947  0.000947  0.500000  1
  Mn  Mn6  1  0.902246  0.902246  0.000000  1
  Mn  Mn7  1  0.298919  0.298919  0.000000  1
  Mn  Mn8  1  0.603502  0.603502  0.500000  1
  Mn  Mn9  1  0.394121  0.394121  0.500000  1
  O  O10  1  0.850868  0.349381  0.250041  1
  O  O11  1  0.668574  0.149669  0.262540  1
  O  O12  1  0.483869  0.916432  0.215186  1
  O  O13  1  0.916432  0.483869  0.784814  1
  O  O14  1  0.036259  0.547012  0.236827  1
  O  O15  1  0.220045  0.781956  0.282429  1
  O  O16  1  0.349381  0.850868  0.749959  1
  O  O17  1  0.781956  0.220045  0.717571  1
  O  O18  1  0.547012  0.036259  0.763173  1
  O  O19  1  0.149669  0.668574  0.737460  1
