# generated using pymatgen
data_FeO2F
_symmetry_space_group_name_H-M   'P 1'
_cell_length_a   5.02988465
_cell_length_b   5.02988465
_cell_length_c   4.86860605
_cell_angle_alpha   66.48099738
_cell_angle_beta   113.51900262
_cell_angle_gamma   121.84626895
_symmetry_Int_Tables_number   1
_chemical_formula_structural   FeO2F
_chemical_formula_sum   'Fe2 O4 F2'
_cell_volume   93.08878039
_cell_formula_units_Z   2
loop_
 _symmetry_equiv_pos_site_id
 _symmetry_equiv_pos_as_xyz
  1  'x, y, z'
loop_
 _atom_site_type_symbol
 _atom_site_label
 _atom_site_symmetry_multiplicity
 _atom_site_fract_x
 _atom_site_fract_y
 _atom_site_fract_z
 _atom_site_occupancy
  Fe  Fe0  1  0.000000  0.500000  0.500000  1
  Fe  Fe1  1  0.500000  0.000000  0.000000  1
  O  O2  1  0.940582  0.364680  0.126100  1
  O  O3  1  0.364680  0.940582  0.373900  1
  O  O4  1  0.635320  0.059418  0.626100  1
  O  O5  1  0.059418  0.635320  0.873900  1
  F  F6  1  0.297159  0.297159  0.750000  1
  F  F7  1  0.702841  0.702841  0.250000  1
