# generated using pymatgen
data_InP(H2O3)2
_symmetry_space_group_name_H-M   'P 1'
_cell_length_a   8.91771740
_cell_length_b   10.30642374
_cell_length_c   10.50725571
_cell_angle_alpha   90.00000000
_cell_angle_beta   90.00000000
_cell_angle_gamma   90.00000000
_symmetry_Int_Tables_number   1
_chemical_formula_structural   InP(H2O3)2
_chemical_formula_sum   'In8 P8 H32 O48'
_cell_volume   965.71950101
_cell_formula_units_Z   8
loop_
 _symmetry_equiv_pos_site_id
 _symmetry_equiv_pos_as_xyz
  1  'x, y, z'
loop_
 _atom_site_type_symbol
 _atom_site_label
 _atom_site_symmetry_multiplicity
 _atom_site_fract_x
 _atom_site_fract_y
 _atom_site_fract_z
 _atom_site_occupancy
  In  In0  1  0.651606  0.673055  0.630423  1
  In  In1  1  0.151606  0.826945  0.369577  1
  In  In2  1  0.348394  0.173055  0.869577  1
  In  In3  1  0.848394  0.326945  0.130423  1
  In  In4  1  0.348394  0.326945  0.369577  1
  In  In5  1  0.848394  0.173055  0.630423  1
  In  In6  1  0.651606  0.826945  0.130423  1
  In  In7  1  0.151606  0.673055  0.869577  1
  P  P8  1  0.531605  0.358677  0.652329  1
  P  P9  1  0.031605  0.141323  0.347671  1
  P  P10  1  0.468395  0.858677  0.847671  1
  P  P11  1  0.968395  0.641323  0.152329  1
  P  P12  1  0.468395  0.641323  0.347671  1
  P  P13  1  0.968395  0.858677  0.652329  1
  P  P14  1  0.531605  0.141323  0.152329  1
  P  P15  1  0.031605  0.358677  0.847671  1
  H  H16  1  0.812359  0.465703  0.558947  1
  H  H17  1  0.312359  0.034297  0.441053  1
  H  H18  1  0.187641  0.965703  0.941053  1
  H  H19  1  0.687641  0.534297  0.058947  1
  H  H20  1  0.187641  0.534297  0.441053  1
  H  H21  1  0.687641  0.965703  0.558947  1
  H  H22  1  0.812359  0.034297  0.058947  1
  H  H23  1  0.312359  0.465703  0.941053  1
  H  H24  1  0.873962  0.575946  0.464425  1
  H  H25  1  0.373962  0.924054  0.535575  1
  H  H26  1  0.126038  0.075946  0.035575  1
  H  H27  1  0.626038  0.424054  0.964425  1
  H  H28  1  0.126038  0.424054  0.535575  1
  H  H29  1  0.626038  0.075946  0.464425  1
  H  H30  1  0.873962  0.924054  0.964425  1
  H  H31  1  0.373962  0.575946  0.035575  1
  H  H32  1  0.711360  0.672059  0.876412  1
  H  H33  1  0.211360  0.827941  0.123588  1
  H  H34  1  0.288640  0.172059  0.623588  1
  H  H35  1  0.788640  0.327941  0.376412  1
  H  H36  1  0.288640  0.327941  0.123588  1
  H  H37  1  0.788640  0.172059  0.876412  1
  H  H38  1  0.711360  0.827941  0.376412  1
  H  H39  1  0.211360  0.672059  0.623588  1
  H  H40  1  0.841003  0.570229  0.822065  1
  H  H41  1  0.341003  0.929771  0.177935  1
  H  H42  1  0.158997  0.070229  0.677935  1
  H  H43  1  0.658997  0.429771  0.322065  1
  H  H44  1  0.158997  0.429771  0.177935  1
  H  H45  1  0.658997  0.070229  0.822065  1
  H  H46  1  0.841003  0.929771  0.322065  1
  H  H47  1  0.341003  0.570229  0.677935  1
  O  O48  1  0.846611  0.557611  0.552860  1
  O  O49  1  0.346611  0.942389  0.447140  1
  O  O50  1  0.153389  0.057611  0.947140  1
  O  O51  1  0.653389  0.442389  0.052860  1
  O  O52  1  0.153389  0.442389  0.447140  1
  O  O53  1  0.653389  0.057611  0.552860  1
  O  O54  1  0.846611  0.942389  0.052860  1
  O  O55  1  0.346611  0.557611  0.947140  1
  O  O56  1  0.734122  0.602604  0.814020  1
  O  O57  1  0.234122  0.897396  0.185980  1
  O  O58  1  0.265878  0.102604  0.685980  1
  O  O59  1  0.765878  0.397396  0.314020  1
  O  O60  1  0.265878  0.397396  0.185980  1
  O  O61  1  0.765878  0.102604  0.814020  1
  O  O62  1  0.734122  0.897396  0.314020  1
  O  O63  1  0.234122  0.602604  0.685980  1
  O  O64  1  0.490904  0.804930  0.711397  1
  O  O65  1  0.990904  0.695070  0.288603  1
  O  O66  1  0.509096  0.304930  0.788603  1
  O  O67  1  0.009096  0.195070  0.211397  1
  O  O68  1  0.509096  0.195070  0.288603  1
  O  O69  1  0.009096  0.304930  0.711397  1
  O  O70  1  0.490904  0.695070  0.211397  1
  O  O71  1  0.990904  0.804930  0.788603  1
  O  O72  1  0.582983  0.709920  0.437698  1
  O  O73  1  0.082983  0.790080  0.562302  1
  O  O74  1  0.417017  0.209920  0.062302  1
  O  O75  1  0.917017  0.290080  0.937698  1
  O  O76  1  0.417017  0.290080  0.562302  1
  O  O77  1  0.917017  0.209920  0.437698  1
  O  O78  1  0.582983  0.790080  0.937698  1
  O  O79  1  0.082983  0.709920  0.062302  1
  O  O80  1  0.803721  0.835746  0.607247  1
  O  O81  1  0.303721  0.664254  0.392753  1
  O  O82  1  0.196279  0.335746  0.892753  1
  O  O83  1  0.696279  0.164254  0.107247  1
  O  O84  1  0.196279  0.164254  0.392753  1
  O  O85  1  0.696279  0.335746  0.607247  1
  O  O86  1  0.803721  0.664254  0.107247  1
  O  O87  1  0.303721  0.835746  0.892753  1
  O  O88  1  0.502840  0.507808  0.648209  1
  O  O89  1  0.002840  0.992192  0.351791  1
  O  O90  1  0.497160  0.007808  0.851791  1
  O  O91  1  0.997160  0.492192  0.148209  1
  O  O92  1  0.497160  0.492192  0.351791  1
  O  O93  1  0.997160  0.007808  0.648209  1
  O  O94  1  0.502840  0.992192  0.148209  1
  O  O95  1  0.002840  0.507808  0.851791  1
