# generated using pymatgen
data_LiVFeP2(HO5)2
_symmetry_space_group_name_H-M   'P 1'
_cell_length_a   6.90544973
_cell_length_b   7.48422028
_cell_length_c   11.11918672
_cell_angle_alpha   99.28821896
_cell_angle_beta   107.44095477
_cell_angle_gamma   89.41952701
_symmetry_Int_Tables_number   1
_chemical_formula_structural   LiVFeP2(HO5)2
_chemical_formula_sum   'Li3 V3 Fe3 P6 H6 O30'
_cell_volume   540.60692236
_cell_formula_units_Z   3
loop_
 _symmetry_equiv_pos_site_id
 _symmetry_equiv_pos_as_xyz
  1  'x, y, z'
loop_
 _atom_site_type_symbol
 _atom_site_label
 _atom_site_symmetry_multiplicity
 _atom_site_fract_x
 _atom_site_fract_y
 _atom_site_fract_z
 _atom_site_occupancy
  Li  Li0  1  0.250837  0.311586  0.158891  1
  Li  Li1  1  0.083492  0.353435  0.507092  1
  Li  Li2  1  0.749319  0.687987  0.839977  1
  V  V3  1  0.169187  0.333041  0.834372  1
  V  V4  1  0.829031  0.664410  0.166414  1
  V  V5  1  0.502417  0.000119  0.501061  1
  Fe  Fe6  1  0.666052  0.331173  0.332734  1
  Fe  Fe7  1  0.331006  0.672741  0.665885  1
  Fe  Fe8  1  0.999438  0.998180  0.999393  1
  P  P9  1  0.054973  0.073121  0.300250  1
  P  P10  1  0.613293  0.258015  0.031079  1
  P  P11  1  0.278777  0.592565  0.365110  1
  P  P12  1  0.721436  0.406231  0.635683  1
  P  P13  1  0.386873  0.740628  0.967480  1
  P  P14  1  0.945606  0.924847  0.699637  1
  H  H15  1  0.042691  0.669222  0.018581  1
  H  H16  1  0.689647  0.998239  0.341201  1
  H  H17  1  0.375678  0.336716  0.684809  1
  H  H18  1  0.642617  0.666976  0.325760  1
  H  H19  1  0.308803  0.002540  0.658422  1
  H  H20  1  0.956677  0.329954  0.981407  1
  O  O21  1  0.140697  0.079147  0.188225  1
  O  O22  1  0.227790  0.088777  0.429498  1
  O  O23  1  0.105573  0.579245  0.235857  1
  O  O24  1  0.082178  0.100865  0.721548  1
  O  O25  1  0.521361  0.269953  0.142488  1
  O  O26  1  0.739236  0.091022  0.021021  1
  O  O27  1  0.194123  0.584351  0.477343  1
  O  O28  1  0.597357  0.084711  0.369813  1
  O  O29  1  0.402155  0.422900  0.344832  1
  O  O30  1  0.756260  0.429957  0.050502  1
  O  O31  1  0.072784  0.255516  0.972137  1
  O  O32  1  0.561829  0.746061  0.094512  1
  O  O33  1  0.258732  0.410129  0.693904  1
  O  O34  1  0.074756  0.759896  0.685818  1
  O  O35  1  0.417340  0.764750  0.386649  1
  O  O36  1  0.576242  0.237806  0.615616  1
  O  O37  1  0.930494  0.242275  0.320422  1
  O  O38  1  0.735626  0.581154  0.296918  1
  O  O39  1  0.438991  0.254979  0.903654  1
  O  O40  1  0.926626  0.743595  0.027216  1
  O  O41  1  0.244571  0.568061  0.948133  1
  O  O42  1  0.600424  0.577843  0.652281  1
  O  O43  1  0.399604  0.915351  0.629070  1
  O  O44  1  0.811981  0.396821  0.524284  1
  O  O45  1  0.260559  0.907480  0.977910  1
  O  O46  1  0.478199  0.725883  0.855577  1
  O  O47  1  0.917336  0.900028  0.278487  1
  O  O48  1  0.893274  0.419746  0.765565  1
  O  O49  1  0.770770  0.920107  0.573022  1
  O  O50  1  0.857964  0.921593  0.811643  1
