# generated using pymatgen
data_Cr2Fe3Te(PO4)6
_symmetry_space_group_name_H-M   'P 1'
_cell_length_a   8.58342046
_cell_length_b   8.58342046
_cell_length_c   8.58342046
_cell_angle_alpha   61.29077930
_cell_angle_beta   61.29077930
_cell_angle_gamma   61.29077930
_symmetry_Int_Tables_number   1
_chemical_formula_structural   Cr2Fe3Te(PO4)6
_chemical_formula_sum   'Cr2 Fe3 Te1 P6 O24'
_cell_volume   460.13860113
_cell_formula_units_Z   1
loop_
 _symmetry_equiv_pos_site_id
 _symmetry_equiv_pos_as_xyz
  1  'x, y, z'
loop_
 _atom_site_type_symbol
 _atom_site_label
 _atom_site_symmetry_multiplicity
 _atom_site_fract_x
 _atom_site_fract_y
 _atom_site_fract_z
 _atom_site_occupancy
  Cr  Cr0  1  0.996936  0.996936  0.996936  1
  Cr  Cr1  1  0.501385  0.501385  0.501385  1
  Fe  Fe2  1  0.852028  0.852028  0.852028  1
  Fe  Fe3  1  0.647504  0.647504  0.647504  1
  Fe  Fe4  1  0.354087  0.354087  0.354087  1
  Te  Te5  1  0.147555  0.147555  0.147555  1
  P  P6  1  0.945419  0.253603  0.558161  1
  P  P7  1  0.558161  0.945419  0.253603  1
  P  P8  1  0.742235  0.457680  0.048824  1
  P  P9  1  0.457680  0.048824  0.742235  1
  P  P10  1  0.048824  0.742235  0.457680  1
  P  P11  1  0.253603  0.558161  0.945419  1
  O  O12  1  0.897107  0.669118  0.502637  1
  O  O13  1  0.669118  0.502637  0.897107  1
  O  O14  1  0.933935  0.095463  0.752898  1
  O  O15  1  0.502637  0.897107  0.669118  1
  O  O16  1  0.974658  0.178351  0.410715  1
  O  O17  1  0.749329  0.408318  0.571643  1
  O  O18  1  0.752898  0.933935  0.095463  1
  O  O19  1  0.571643  0.749329  0.408318  1
  O  O20  1  0.822086  0.605240  0.004817  1
  O  O21  1  0.408318  0.571643  0.749329  1
  O  O22  1  0.898044  0.255258  0.057361  1
  O  O23  1  0.605240  0.004817  0.822086  1
  O  O24  1  0.410715  0.974658  0.178351  1
  O  O25  1  0.095463  0.752898  0.933935  1
  O  O26  1  0.591617  0.440212  0.248345  1
  O  O27  1  0.178351  0.410715  0.974658  1
  O  O28  1  0.440212  0.248345  0.591617  1
  O  O29  1  0.255258  0.057361  0.898044  1
  O  O30  1  0.248345  0.591617  0.440212  1
  O  O31  1  0.004817  0.822086  0.605240  1
  O  O32  1  0.501992  0.108739  0.316701  1
  O  O33  1  0.057361  0.898044  0.255258  1
  O  O34  1  0.316701  0.501992  0.108739  1
  O  O35  1  0.108739  0.316701  0.501992  1
