# generated using pymatgen
data_Li3V3P8O29
_symmetry_space_group_name_H-M   'P 1'
_cell_length_a   9.78689226
_cell_length_b   9.78689226
_cell_length_c   14.27488557
_cell_angle_alpha   89.26917430
_cell_angle_beta   90.73082570
_cell_angle_gamma   119.95445998
_symmetry_Int_Tables_number   1
_chemical_formula_structural   Li3V3P8O29
_chemical_formula_sum   'Li6 V6 P16 O58'
_cell_volume   1184.52672427
_cell_formula_units_Z   2
loop_
 _symmetry_equiv_pos_site_id
 _symmetry_equiv_pos_as_xyz
  1  'x, y, z'
loop_
 _atom_site_type_symbol
 _atom_site_label
 _atom_site_symmetry_multiplicity
 _atom_site_fract_x
 _atom_site_fract_y
 _atom_site_fract_z
 _atom_site_occupancy
  Li  Li0  1  0.917398  0.222317  0.194010  1
  Li  Li1  1  0.774347  0.093050  0.686972  1
  Li  Li2  1  0.776119  0.695391  0.196189  1
  Li  Li3  1  0.695391  0.776119  0.803811  1
  Li  Li4  1  0.222317  0.917398  0.805990  1
  Li  Li5  1  0.093050  0.774347  0.313028  1
  V  V6  1  0.994648  0.563139  0.508189  1
  V  V7  1  0.563139  0.994648  0.491811  1
  V  V8  1  0.559382  0.559382  0.000000  1
  V  V9  1  0.430878  0.430878  0.500000  1
  V  V10  1  0.433466  0.004638  0.006943  1
  V  V11  1  0.004638  0.433466  0.993057  1
  P  P12  1  0.913588  0.235079  0.408426  1
  P  P13  1  0.763447  0.085182  0.908109  1
  P  P14  1  0.910922  0.684127  0.910866  1
  P  P15  1  0.662725  0.325770  0.619926  1
  P  P16  1  0.675532  0.337397  0.118427  1
  P  P17  1  0.769613  0.681375  0.410555  1
  P  P18  1  0.681375  0.769613  0.589445  1
  P  P19  1  0.312935  0.088920  0.411270  1
  P  P20  1  0.684127  0.910922  0.089134  1
  P  P21  1  0.310676  0.226946  0.908213  1
  P  P22  1  0.226946  0.310676  0.091787  1
  P  P23  1  0.325770  0.662725  0.380074  1
  P  P24  1  0.337397  0.675532  0.881573  1
  P  P25  1  0.088920  0.312935  0.588730  1
  P  P26  1  0.235079  0.913588  0.591574  1
  P  P27  1  0.085182  0.763447  0.091891  1
  O  O28  1  0.994314  0.226589  0.671211  1
  O  O29  1  0.909606  0.252996  0.917275  1
  O  O30  1  0.782046  0.986099  0.993060  1
  O  O31  1  0.771451  0.006507  0.171159  1
  O  O32  1  0.905140  0.385212  0.430615  1
  O  O33  1  0.744405  0.090283  0.420398  1
  O  O34  1  0.821001  0.334159  0.076915  1
  O  O35  1  0.904255  0.522260  0.926659  1
  O  O36  1  0.004926  0.754208  0.182007  1
  O  O37  1  0.916756  0.659791  0.416356  1
  O  O38  1  0.664899  0.178724  0.580612  1
  O  O39  1  0.815561  0.477534  0.575994  1
  O  O40  1  0.613460  0.093935  0.928962  1
  O  O41  1  0.672222  0.333476  0.723670  1
  O  O42  1  0.674544  0.336843  0.222114  1
  O  O43  1  0.475819  0.095728  0.425806  1
  O  O44  1  0.672208  0.487107  0.076324  1
  O  O45  1  0.523880  0.187161  0.074575  1
  O  O46  1  0.741446  0.659371  0.910630  1
  O  O47  1  0.789786  0.789786  0.500000  1
  O  O48  1  0.765310  0.755659  0.319892  1
  O  O49  1  0.755659  0.765310  0.680108  1
  O  O50  1  0.617105  0.522193  0.429147  1
  O  O51  1  0.520085  0.334380  0.574609  1
  O  O52  1  0.337960  0.082783  0.916346  1
  O  O53  1  0.659371  0.741446  0.089370  1
  O  O54  1  0.474521  0.380949  0.930699  1
  O  O55  1  0.754208  0.004926  0.817993  1
  O  O56  1  0.240018  0.984730  0.682742  1
  O  O57  1  0.522193  0.617105  0.570853  1
  O  O58  1  0.342704  0.259210  0.415313  1
  O  O59  1  0.215169  0.011359  0.506683  1
  O  O60  1  0.659791  0.916756  0.583644  1
  O  O61  1  0.487107  0.672208  0.923676  1
  O  O62  1  0.380949  0.474521  0.069301  1
  O  O63  1  0.238881  0.239113  0.180390  1
  O  O64  1  0.239113  0.238881  0.819610  1
  O  O65  1  0.207585  0.207585  0.000000  1
  O  O66  1  0.259210  0.342704  0.584687  1
  O  O67  1  0.477534  0.815561  0.424006  1
  O  O68  1  0.522260  0.904255  0.073341  1
  O  O69  1  0.334380  0.520085  0.425391  1
  O  O70  1  0.336843  0.674544  0.777886  1
  O  O71  1  0.333476  0.672222  0.276330  1
  O  O72  1  0.385212  0.905140  0.569385  1
  O  O73  1  0.187161  0.523880  0.925425  1
  O  O74  1  0.334159  0.821001  0.923085  1
  O  O75  1  0.082783  0.337960  0.083654  1
  O  O76  1  0.011359  0.215169  0.493317  1
  O  O77  1  0.984730  0.240018  0.317258  1
  O  O78  1  0.095728  0.475819  0.574194  1
  O  O79  1  0.178724  0.664899  0.419388  1
  O  O80  1  0.252996  0.909606  0.082725  1
  O  O81  1  0.093935  0.613460  0.071038  1
  O  O82  1  0.226589  0.994314  0.328789  1
  O  O83  1  0.090283  0.744405  0.579602  1
  O  O84  1  0.006507  0.771451  0.828841  1
  O  O85  1  0.986099  0.782046  0.006940  1
