# generated using pymatgen
data_Na4Cu6O5
_symmetry_space_group_name_H-M   'P 1'
_cell_length_a   7.81103937
_cell_length_b   7.81103937
_cell_length_c   8.05252347
_cell_angle_alpha   90.00000000
_cell_angle_beta   90.00000000
_cell_angle_gamma   120.00000000
_symmetry_Int_Tables_number   1
_chemical_formula_structural   Na4Cu6O5
_chemical_formula_sum   'Na8 Cu12 O10'
_cell_volume   425.48111089
_cell_formula_units_Z   2
loop_
 _symmetry_equiv_pos_site_id
 _symmetry_equiv_pos_as_xyz
  1  'x, y, z'
loop_
 _atom_site_type_symbol
 _atom_site_label
 _atom_site_symmetry_multiplicity
 _atom_site_fract_x
 _atom_site_fract_y
 _atom_site_fract_z
 _atom_site_occupancy
  Na  Na0  1  0.120823  0.408414  0.250000  1
  Na  Na1  1  0.287591  0.879177  0.250000  1
  Na  Na2  1  0.000000  0.000000  0.500000  1
  Na  Na3  1  0.000000  0.000000  0.000000  1
  Na  Na4  1  0.591586  0.712409  0.250000  1
  Na  Na5  1  0.712409  0.591586  0.750000  1
  Na  Na6  1  0.408414  0.120823  0.750000  1
  Na  Na7  1  0.879177  0.287591  0.750000  1
  Cu  Cu8  1  0.167912  0.712395  0.909366  1
  Cu  Cu9  1  0.167912  0.712395  0.590634  1
  Cu  Cu10  1  0.287605  0.455517  0.909366  1
  Cu  Cu11  1  0.287605  0.455517  0.590634  1
  Cu  Cu12  1  0.544483  0.832088  0.590634  1
  Cu  Cu13  1  0.544483  0.832088  0.909366  1
  Cu  Cu14  1  0.455517  0.287605  0.090634  1
  Cu  Cu15  1  0.455517  0.287605  0.409366  1
  Cu  Cu16  1  0.832088  0.544483  0.090634  1
  Cu  Cu17  1  0.832088  0.544483  0.409366  1
  Cu  Cu18  1  0.712395  0.167912  0.090634  1
  Cu  Cu19  1  0.712395  0.167912  0.409366  1
  O  O20  1  0.051501  0.789936  0.750000  1
  O  O21  1  0.333333  0.666667  0.445807  1
  O  O22  1  0.333333  0.666667  0.054193  1
  O  O23  1  0.210064  0.261565  0.750000  1
  O  O24  1  0.261565  0.210064  0.250000  1
  O  O25  1  0.738435  0.948499  0.750000  1
  O  O26  1  0.666667  0.333333  0.554193  1
  O  O27  1  0.666667  0.333333  0.945807  1
  O  O28  1  0.948499  0.738435  0.250000  1
  O  O29  1  0.789936  0.051501  0.250000  1
