# generated using pymatgen
data_Li8Mn3Fe5(BO3)8
_symmetry_space_group_name_H-M   'P 1'
_cell_length_a   5.24509082
_cell_length_b   6.03815794
_cell_length_c   16.14375455
_cell_angle_alpha   81.61021234
_cell_angle_beta   89.28654183
_cell_angle_gamma   88.91434651
_symmetry_Int_Tables_number   1
_chemical_formula_structural   Li8Mn3Fe5(BO3)8
_chemical_formula_sum   'Li8 Mn3 Fe5 B8 O24'
_cell_volume   505.69716194
_cell_formula_units_Z   1
loop_
 _symmetry_equiv_pos_site_id
 _symmetry_equiv_pos_as_xyz
  1  'x, y, z'
loop_
 _atom_site_type_symbol
 _atom_site_label
 _atom_site_symmetry_multiplicity
 _atom_site_fract_x
 _atom_site_fract_y
 _atom_site_fract_z
 _atom_site_occupancy
  Li  Li0  1  0.847503  0.063667  0.389669  1
  Li  Li1  1  0.152288  0.435087  0.109085  1
  Li  Li2  1  0.650752  0.186681  0.860574  1
  Li  Li3  1  0.349408  0.312787  0.640347  1
  Li  Li4  1  0.651730  0.685032  0.358889  1
  Li  Li5  1  0.347643  0.814753  0.140868  1
  Li  Li6  1  0.848313  0.565070  0.890501  1
  Li  Li7  1  0.151527  0.935470  0.610134  1
  Mn  Mn8  1  0.167665  0.524847  0.290762  1
  Mn  Mn9  1  0.668453  0.770226  0.540751  1
  Mn  Mn10  1  0.331917  0.727461  0.958873  1
  Fe  Fe11  1  0.662989  0.274314  0.041847  1
  Fe  Fe12  1  0.162454  0.029023  0.788095  1
  Fe  Fe13  1  0.339345  0.223529  0.459165  1
  Fe  Fe14  1  0.828109  0.472649  0.712490  1
  Fe  Fe15  1  0.835673  0.974812  0.207900  1
  B  B16  1  0.328356  0.036847  0.297763  1
  B  B17  1  0.832318  0.286121  0.547521  1
  B  B18  1  0.669650  0.463277  0.201779  1
  B  B19  1  0.171383  0.214293  0.952008  1
  B  B20  1  0.830844  0.786679  0.047973  1
  B  B21  1  0.326386  0.537565  0.795579  1
  B  B22  1  0.171002  0.713319  0.453022  1
  B  B23  1  0.670877  0.962480  0.704019  1
  O  O24  1  0.587415  0.012976  0.308225  1
  O  O25  1  0.182670  0.168323  0.346558  1
  O  O26  1  0.708320  0.175055  0.489825  1
  O  O27  1  0.297773  0.327476  0.008779  1
  O  O28  1  0.791488  0.078635  0.761057  1
  O  O29  1  0.819012  0.329351  0.154708  1
  O  O30  1  0.316097  0.083217  0.903357  1
  O  O31  1  0.091337  0.261921  0.558923  1
  O  O32  1  0.410265  0.485841  0.188760  1
  O  O33  1  0.912010  0.238683  0.941893  1
  O  O34  1  0.686381  0.415860  0.596485  1
  O  O35  1  0.207642  0.419453  0.739517  1
  O  O36  1  0.786948  0.579898  0.258433  1
  O  O37  1  0.321157  0.578932  0.406984  1
  O  O38  1  0.090010  0.764128  0.061105  1
  O  O39  1  0.588225  0.514681  0.808009  1
  O  O40  1  0.911700  0.736268  0.438744  1
  O  O41  1  0.681501  0.919954  0.095415  1
  O  O42  1  0.181432  0.671213  0.842688  1
  O  O43  1  0.202401  0.924109  0.241064  1
  O  O44  1  0.713552  0.671769  0.990800  1
  O  O45  1  0.286987  0.830613  0.509878  1
  O  O46  1  0.817643  0.829560  0.656993  1
  O  O47  1  0.411454  0.986099  0.692189  1
