# generated using pymatgen
data_KP2H8SN7O2
_symmetry_space_group_name_H-M   'P 1'
_cell_length_a   9.92259240
_cell_length_b   13.37657011
_cell_length_c   13.89345378
_cell_angle_alpha   90.00000000
_cell_angle_beta   90.00000000
_cell_angle_gamma   90.00000000
_symmetry_Int_Tables_number   1
_chemical_formula_structural   KP2H8SN7O2
_chemical_formula_sum   'K8 P16 H64 S8 N56 O16'
_cell_volume   1844.08163403
_cell_formula_units_Z   8
loop_
 _symmetry_equiv_pos_site_id
 _symmetry_equiv_pos_as_xyz
  1  'x, y, z'
loop_
 _atom_site_type_symbol
 _atom_site_label
 _atom_site_symmetry_multiplicity
 _atom_site_fract_x
 _atom_site_fract_y
 _atom_site_fract_z
 _atom_site_occupancy
  K  K0  1  0.590623  0.127270  0.393483  1
  K  K1  1  0.090623  0.372730  0.606517  1
  K  K2  1  0.409377  0.627270  0.106517  1
  K  K3  1  0.909377  0.872730  0.893483  1
  K  K4  1  0.409377  0.872730  0.606517  1
  K  K5  1  0.909377  0.627270  0.393483  1
  K  K6  1  0.590623  0.372730  0.893483  1
  K  K7  1  0.090623  0.127270  0.106517  1
  P  P8  1  0.219561  0.266211  0.345522  1
  P  P9  1  0.719561  0.233789  0.654478  1
  P  P10  1  0.780439  0.766211  0.154478  1
  P  P11  1  0.280439  0.733789  0.845522  1
  P  P12  1  0.780439  0.733789  0.654478  1
  P  P13  1  0.280439  0.766211  0.345522  1
  P  P14  1  0.219561  0.233789  0.845522  1
  P  P15  1  0.719561  0.266211  0.154478  1
  P  P16  1  0.053432  0.094327  0.365327  1
  P  P17  1  0.553432  0.405673  0.634673  1
  P  P18  1  0.946568  0.594327  0.134673  1
  P  P19  1  0.446568  0.905673  0.865327  1
  P  P20  1  0.946568  0.905673  0.634673  1
  P  P21  1  0.446568  0.594327  0.365327  1
  P  P22  1  0.053432  0.405673  0.865327  1
  P  P23  1  0.553432  0.094327  0.134673  1
  H  H24  1  0.046684  0.373718  0.396104  1
  H  H25  1  0.546684  0.126282  0.603896  1
  H  H26  1  0.953316  0.873718  0.103896  1
  H  H27  1  0.453316  0.626282  0.896104  1
  H  H28  1  0.953316  0.626282  0.603896  1
  H  H29  1  0.453316  0.873718  0.396104  1
  H  H30  1  0.046684  0.126282  0.896104  1
  H  H31  1  0.546684  0.373718  0.103896  1
  H  H32  1  0.201353  0.434565  0.394829  1
  H  H33  1  0.701353  0.065435  0.605171  1
  H  H34  1  0.798647  0.934565  0.105171  1
  H  H35  1  0.298647  0.565435  0.894829  1
  H  H36  1  0.798647  0.565435  0.605171  1
  H  H37  1  0.298647  0.934565  0.394829  1
  H  H38  1  0.201353  0.065435  0.894829  1
  H  H39  1  0.701353  0.434565  0.105171  1
  H  H40  1  0.406623  0.258377  0.246551  1
  H  H41  1  0.906623  0.241623  0.753449  1
  H  H42  1  0.593377  0.758377  0.253449  1
  H  H43  1  0.093377  0.741623  0.746551  1
  H  H44  1  0.593377  0.741623  0.753449  1
  H  H45  1  0.093377  0.758377  0.246551  1
  H  H46  1  0.406623  0.241623  0.746551  1
  H  H47  1  0.906623  0.258377  0.253449  1
  H  H48  1  0.279104  0.323158  0.196857  1
  H  H49  1  0.779104  0.176842  0.803143  1
  H  H50  1  0.720896  0.823158  0.303143  1
  H  H51  1  0.220896  0.676842  0.696857  1
  H  H52  1  0.720896  0.676842  0.803143  1
  H  H53  1  0.220896  0.823158  0.196857  1
  H  H54  1  0.279104  0.176842  0.696857  1
  H  H55  1  0.779104  0.323158  0.303143  1
  H  H56  1  0.879306  0.057436  0.463965  1
  H  H57  1  0.379306  0.442564  0.536035  1
  H  H58  1  0.120694  0.557436  0.036035  1
  H  H59  1  0.620694  0.942564  0.963965  1
  H  H60  1  0.120694  0.942564  0.536035  1
  H  H61  1  0.620694  0.557436  0.463965  1
  H  H62  1  0.879306  0.442564  0.963965  1
  H  H63  1  0.379306  0.057436  0.036035  1
  H  H64  1  0.899730  0.180784  0.456038  1
  H  H65  1  0.399730  0.319216  0.543962  1
  H  H66  1  0.100270  0.680784  0.043962  1
  H  H67  1  0.600270  0.819216  0.956038  1
  H  H68  1  0.100270  0.819216  0.543962  1
  H  H69  1  0.600270  0.680784  0.456038  1
  H  H70  1  0.899730  0.319216  0.956038  1
  H  H71  1  0.399730  0.180784  0.043962  1
  H  H72  1  0.080189  0.942494  0.284682  1
  H  H73  1  0.580189  0.557506  0.715318  1
  H  H74  1  0.919811  0.442494  0.215318  1
  H  H75  1  0.419811  0.057506  0.784682  1
  H  H76  1  0.919811  0.057506  0.715318  1
  H  H77  1  0.419811  0.442494  0.284682  1
  H  H78  1  0.080189  0.557506  0.784682  1
  H  H79  1  0.580189  0.942494  0.215318  1
  H  H80  1  0.919433  0.983184  0.285404  1
  H  H81  1  0.419433  0.516816  0.714596  1
  H  H82  1  0.080567  0.483184  0.214596  1
  H  H83  1  0.580567  0.016816  0.785404  1
  H  H84  1  0.080567  0.016816  0.714596  1
  H  H85  1  0.580567  0.483184  0.285404  1
  H  H86  1  0.919433  0.516816  0.785404  1
  H  H87  1  0.419433  0.983184  0.214596  1
  S  S88  1  0.261874  0.129168  0.493713  1
  S  S89  1  0.761874  0.370832  0.506287  1
  S  S90  1  0.738126  0.629168  0.006287  1
  S  S91  1  0.238126  0.870832  0.993713  1
  S  S92  1  0.738126  0.870832  0.506287  1
  S  S93  1  0.238126  0.629168  0.493713  1
  S  S94  1  0.261874  0.370832  0.993713  1
  S  S95  1  0.761874  0.129168  0.006287  1
  N  N96  1  0.320933  0.212309  0.422732  1
  N  N97  1  0.820933  0.287691  0.577268  1
  N  N98  1  0.679067  0.712309  0.077268  1
  N  N99  1  0.179067  0.787691  0.922732  1
  N  N100  1  0.679067  0.787691  0.577268  1
  N  N101  1  0.179067  0.712309  0.422732  1
  N  N102  1  0.320933  0.287691  0.922732  1
  N  N103  1  0.820933  0.212309  0.077268  1
  N  N104  1  0.171802  0.049816  0.435474  1
  N  N105  1  0.671802  0.450184  0.564526  1
  N  N106  1  0.828198  0.549816  0.064526  1
  N  N107  1  0.328198  0.950184  0.935474  1
  N  N108  1  0.828198  0.950184  0.564526  1
  N  N109  1  0.328198  0.549816  0.435474  1
  N  N110  1  0.171802  0.450184  0.935474  1
  N  N111  1  0.671802  0.049816  0.064526  1
  N  N112  1  0.096951  0.195249  0.310359  1
  N  N113  1  0.596951  0.304751  0.689641  1
  N  N114  1  0.903049  0.695249  0.189641  1
  N  N115  1  0.403049  0.804751  0.810359  1
  N  N116  1  0.903049  0.804751  0.689641  1
  N  N117  1  0.403049  0.695249  0.310359  1
  N  N118  1  0.096951  0.304751  0.810359  1
  N  N119  1  0.596951  0.195249  0.189641  1
  N  N120  1  0.146454  0.371836  0.378281  1
  N  N121  1  0.646454  0.128164  0.621719  1
  N  N122  1  0.853546  0.871836  0.121719  1
  N  N123  1  0.353546  0.628164  0.878281  1
  N  N124  1  0.853546  0.628164  0.621719  1
  N  N125  1  0.353546  0.871836  0.378281  1
  N  N126  1  0.146454  0.128164  0.878281  1
  N  N127  1  0.646454  0.371836  0.121719  1
  N  N128  1  0.325701  0.303920  0.260561  1
  N  N129  1  0.825701  0.196080  0.739439  1
  N  N130  1  0.674299  0.803920  0.239439  1
  N  N131  1  0.174299  0.696080  0.760561  1
  N  N132  1  0.674299  0.696080  0.739439  1
  N  N133  1  0.174299  0.803920  0.260561  1
  N  N134  1  0.325701  0.196080  0.760561  1
  N  N135  1  0.825701  0.303920  0.239439  1
  N  N136  1  0.904408  0.115172  0.417726  1
  N  N137  1  0.404408  0.384828  0.582274  1
  N  N138  1  0.095592  0.615172  0.082274  1
  N  N139  1  0.595592  0.884828  0.917726  1
  N  N140  1  0.095592  0.884828  0.582274  1
  N  N141  1  0.595592  0.615172  0.417726  1
  N  N142  1  0.904408  0.384828  0.917726  1
  N  N143  1  0.404408  0.115172  0.082274  1
  N  N144  1  0.018171  0.004144  0.287823  1
  N  N145  1  0.518171  0.495856  0.712177  1
  N  N146  1  0.981829  0.504144  0.212177  1
  N  N147  1  0.481829  0.995856  0.787823  1
  N  N148  1  0.981829  0.995856  0.712177  1
  N  N149  1  0.481829  0.504144  0.287823  1
  N  N150  1  0.018171  0.495856  0.787823  1
  N  N151  1  0.518171  0.004144  0.212177  1
  O  O152  1  0.377091  0.072036  0.532082  1
  O  O153  1  0.877091  0.427964  0.467918  1
  O  O154  1  0.622909  0.572036  0.967918  1
  O  O155  1  0.122909  0.927964  0.032082  1
  O  O156  1  0.622909  0.927964  0.467918  1
  O  O157  1  0.122909  0.572036  0.532082  1
  O  O158  1  0.377091  0.427964  0.032082  1
  O  O159  1  0.877091  0.072036  0.967918  1
  O  O160  1  0.181553  0.176946  0.570878  1
  O  O161  1  0.681553  0.323054  0.429122  1
  O  O162  1  0.818447  0.676946  0.929122  1
  O  O163  1  0.318447  0.823054  0.070878  1
  O  O164  1  0.818447  0.823054  0.429122  1
  O  O165  1  0.318447  0.676946  0.570878  1
  O  O166  1  0.181553  0.323054  0.070878  1
  O  O167  1  0.681553  0.176946  0.929122  1
