# generated using pymatgen
data_Tm2WO6
_symmetry_space_group_name_H-M   'P 1'
_cell_length_a   5.54665132
_cell_length_b   10.49748342
_cell_length_c   16.03127713
_cell_angle_alpha   90.00000000
_cell_angle_beta   90.00000000
_cell_angle_gamma   90.00000000
_symmetry_Int_Tables_number   1
_chemical_formula_structural   Tm2WO6
_chemical_formula_sum   'Tm16 W8 O48'
_cell_volume   933.43522272
_cell_formula_units_Z   8
loop_
 _symmetry_equiv_pos_site_id
 _symmetry_equiv_pos_as_xyz
  1  'x, y, z'
loop_
 _atom_site_type_symbol
 _atom_site_label
 _atom_site_symmetry_multiplicity
 _atom_site_fract_x
 _atom_site_fract_y
 _atom_site_fract_z
 _atom_site_occupancy
  Tm  Tm0  1  0.898878  0.643229  0.061795  1
  Tm  Tm1  1  0.398878  0.856771  0.061795  1
  Tm  Tm2  1  0.953792  0.853466  0.228726  1
  Tm  Tm3  1  0.453792  0.646534  0.228726  1
  Tm  Tm4  1  0.953792  0.353466  0.271274  1
  Tm  Tm5  1  0.453792  0.146534  0.271274  1
  Tm  Tm6  1  0.398878  0.356771  0.438205  1
  Tm  Tm7  1  0.898878  0.143229  0.438205  1
  Tm  Tm8  1  0.101122  0.856771  0.561795  1
  Tm  Tm9  1  0.601122  0.643229  0.561795  1
  Tm  Tm10  1  0.546208  0.853466  0.728726  1
  Tm  Tm11  1  0.046208  0.646534  0.728726  1
  Tm  Tm12  1  0.546208  0.353466  0.771274  1
  Tm  Tm13  1  0.046208  0.146534  0.771274  1
  Tm  Tm14  1  0.101122  0.356771  0.938205  1
  Tm  Tm15  1  0.601122  0.143229  0.938205  1
  W  W16  1  0.387564  0.380534  0.119870  1
  W  W17  1  0.887564  0.119466  0.119870  1
  W  W18  1  0.387564  0.880534  0.380130  1
  W  W19  1  0.887564  0.619466  0.380130  1
  W  W20  1  0.112436  0.380534  0.619870  1
  W  W21  1  0.612436  0.119466  0.619870  1
  W  W22  1  0.112436  0.880534  0.880130  1
  W  W23  1  0.612436  0.619466  0.880130  1
  O  O24  1  0.918769  0.216780  0.021320  1
  O  O25  1  0.418769  0.283220  0.021320  1
  O  O26  1  0.119358  0.460423  0.070226  1
  O  O27  1  0.619358  0.039577  0.070226  1
  O  O28  1  0.097348  0.985697  0.106850  1
  O  O29  1  0.597348  0.514303  0.106850  1
  O  O30  1  0.677853  0.771493  0.146190  1
  O  O31  1  0.177853  0.728507  0.146190  1
  O  O32  1  0.661872  0.269281  0.173100  1
  O  O33  1  0.161872  0.230719  0.173100  1
  O  O34  1  0.810657  0.054126  0.231368  1
  O  O35  1  0.310657  0.445874  0.231368  1
  O  O36  1  0.310657  0.945874  0.268632  1
  O  O37  1  0.810657  0.554126  0.268632  1
  O  O38  1  0.661872  0.769281  0.326900  1
  O  O39  1  0.161872  0.730719  0.326900  1
  O  O40  1  0.677853  0.271493  0.353810  1
  O  O41  1  0.177853  0.228507  0.353810  1
  O  O42  1  0.097348  0.485697  0.393150  1
  O  O43  1  0.597348  0.014303  0.393150  1
  O  O44  1  0.119358  0.960423  0.429774  1
  O  O45  1  0.619358  0.539577  0.429774  1
  O  O46  1  0.418769  0.783220  0.478680  1
  O  O47  1  0.918769  0.716780  0.478680  1
  O  O48  1  0.081231  0.283220  0.521320  1
  O  O49  1  0.581231  0.216780  0.521320  1
  O  O50  1  0.380642  0.460423  0.570226  1
  O  O51  1  0.880642  0.039577  0.570226  1
  O  O52  1  0.402652  0.985697  0.606850  1
  O  O53  1  0.902652  0.514303  0.606850  1
  O  O54  1  0.822147  0.771493  0.646190  1
  O  O55  1  0.322147  0.728507  0.646190  1
  O  O56  1  0.838128  0.269281  0.673100  1
  O  O57  1  0.338128  0.230719  0.673100  1
  O  O58  1  0.189343  0.445874  0.731368  1
  O  O59  1  0.689343  0.054126  0.731368  1
  O  O60  1  0.189343  0.945874  0.768632  1
  O  O61  1  0.689343  0.554126  0.768632  1
  O  O62  1  0.838128  0.769281  0.826900  1
  O  O63  1  0.338128  0.730719  0.826900  1
  O  O64  1  0.822147  0.271493  0.853810  1
  O  O65  1  0.322147  0.228507  0.853810  1
  O  O66  1  0.402652  0.485697  0.893150  1
  O  O67  1  0.902652  0.014303  0.893150  1
  O  O68  1  0.380642  0.960423  0.929774  1
  O  O69  1  0.880642  0.539577  0.929774  1
  O  O70  1  0.081231  0.783220  0.978680  1
  O  O71  1  0.581231  0.716780  0.978680  1
