# generated using pymatgen
data_V4OF11
_symmetry_space_group_name_H-M   'P 1'
_cell_length_a   5.46864375
_cell_length_b   5.46864375
_cell_length_c   17.69359068
_cell_angle_alpha   78.75611832
_cell_angle_beta   101.24388168
_cell_angle_gamma   122.04453188
_symmetry_Int_Tables_number   1
_chemical_formula_structural   V4OF11
_chemical_formula_sum   'V8 O2 F22'
_cell_volume   437.23972171
_cell_formula_units_Z   2
loop_
 _symmetry_equiv_pos_site_id
 _symmetry_equiv_pos_as_xyz
  1  'x, y, z'
loop_
 _atom_site_type_symbol
 _atom_site_label
 _atom_site_symmetry_multiplicity
 _atom_site_fract_x
 _atom_site_fract_y
 _atom_site_fract_z
 _atom_site_occupancy
  V  V0  1  0.632349  0.251229  0.063327  1
  V  V1  1  0.126534  0.746302  0.563125  1
  V  V2  1  0.251229  0.632349  0.936673  1
  V  V3  1  0.746302  0.126534  0.436875  1
  V  V4  1  0.900859  0.991406  0.817452  1
  V  V5  1  0.369085  0.502744  0.310931  1
  V  V6  1  0.991406  0.900859  0.182548  1
  V  V7  1  0.502744  0.369085  0.689069  1
  O  O8  1  0.894848  0.130986  0.128601  1
  O  O9  1  0.130986  0.894848  0.871399  1
  F  F10  1  0.844224  0.638748  0.100190  1
  F  F11  1  0.419388  0.659960  0.624747  1
  F  F12  1  0.348587  0.348587  0.000000  1
  F  F13  1  0.638748  0.844224  0.899810  1
  F  F14  1  0.341977  0.135672  0.601314  1
  F  F15  1  0.135672  0.341977  0.398686  1
  F  F16  1  0.383831  0.091823  0.149149  1
  F  F17  1  0.409679  0.865934  0.023396  1
  F  F18  1  0.911402  0.357009  0.525274  1
  F  F19  1  0.112378  0.160211  0.725489  1
  F  F20  1  0.833118  0.833118  0.500000  1
  F  F21  1  0.091823  0.383831  0.850851  1
  F  F22  1  0.893675  0.583933  0.651609  1
  F  F23  1  0.583933  0.893675  0.348391  1
  F  F24  1  0.612731  0.654633  0.225185  1
  F  F25  1  0.654633  0.612731  0.774815  1
  F  F26  1  0.865934  0.409679  0.976604  1
  F  F27  1  0.357009  0.911402  0.474726  1
  F  F28  1  0.659960  0.419388  0.375253  1
  F  F29  1  0.087152  0.601844  0.246435  1
  F  F30  1  0.601844  0.087152  0.753565  1
  F  F31  1  0.160211  0.112378  0.274511  1
