# generated using pymatgen
data_CaV5H19O23
_symmetry_space_group_name_H-M   'P 1'
_cell_length_a   9.75342528
_cell_length_b   10.11192698
_cell_length_c   10.88458917
_cell_angle_alpha   89.48775814
_cell_angle_beta   103.99160322
_cell_angle_gamma   109.94795755
_symmetry_Int_Tables_number   1
_chemical_formula_structural   CaV5H19O23
_chemical_formula_sum   'Ca2 V10 H38 O46'
_cell_volume   975.96861509
_cell_formula_units_Z   2
loop_
 _symmetry_equiv_pos_site_id
 _symmetry_equiv_pos_as_xyz
  1  'x, y, z'
loop_
 _atom_site_type_symbol
 _atom_site_label
 _atom_site_symmetry_multiplicity
 _atom_site_fract_x
 _atom_site_fract_y
 _atom_site_fract_z
 _atom_site_occupancy
  Ca  Ca0  1  0.161337  0.269418  0.408445  1
  Ca  Ca1  1  0.838663  0.730582  0.591555  1
  V  V2  1  0.349216  0.040250  0.945598  1
  V  V3  1  0.650784  0.959750  0.054402  1
  V  V4  1  0.658813  0.280048  0.093458  1
  V  V5  1  0.341187  0.719952  0.906542  1
  V  V6  1  0.481866  0.043574  0.244217  1
  V  V7  1  0.518134  0.956426  0.755783  1
  V  V8  1  0.175764  0.801996  0.097199  1
  V  V9  1  0.824236  0.198004  0.902801  1
  V  V10  1  0.527011  0.267688  0.793678  1
  V  V11  1  0.472989  0.732312  0.206322  1
  H  H12  1  0.256566  0.022516  0.395716  1
  H  H13  1  0.743434  0.977484  0.604284  1
  H  H14  1  0.339672  0.087007  0.537867  1
  H  H15  1  0.660328  0.912993  0.462133  1
  H  H16  1  0.167448  0.072925  0.194885  1
  H  H17  1  0.832552  0.927075  0.805115  1
  H  H18  1  0.012508  0.094690  0.141227  1
  H  H19  1  0.987492  0.905310  0.858773  1
  H  H20  1  0.870153  0.060797  0.432235  1
  H  H21  1  0.129847  0.939203  0.567765  1
  H  H22  1  0.818166  0.127611  0.303906  1
  H  H23  1  0.181834  0.872389  0.696094  1
  H  H24  1  0.184223  0.767753  0.501391  1
  H  H25  1  0.815777  0.232247  0.498609  1
  H  H26  1  0.234953  0.743602  0.377680  1
  H  H27  1  0.765047  0.256398  0.622320  1
  H  H28  1  0.004923  0.378130  0.170940  1
  H  H29  1  0.995077  0.621870  0.829060  1
  H  H30  1  0.145453  0.511665  0.234756  1
  H  H31  1  0.854547  0.488335  0.765244  1
  H  H32  1  0.474474  0.306740  0.383323  1
  H  H33  1  0.525526  0.693260  0.616677  1
  H  H34  1  0.461823  0.458129  0.367561  1
  H  H35  1  0.538177  0.541871  0.632439  1
  H  H36  1  0.034109  0.247057  0.639517  1
  H  H37  1  0.965891  0.752943  0.360483  1
  H  H38  1  0.175421  0.205485  0.705168  1
  H  H39  1  0.824579  0.794515  0.294832  1
  H  H40  1  0.235264  0.501199  0.615658  1
  H  H41  1  0.764736  0.498801  0.384342  1
  H  H42  1  0.187154  0.562619  0.484801  1
  H  H43  1  0.812846  0.437381  0.515199  1
  H  H44  1  0.647111  0.520111  0.961601  1
  H  H45  1  0.352889  0.479889  0.038399  1
  H  H46  1  0.646763  0.699759  0.937931  1
  H  H47  1  0.353237  0.300241  0.062069  1
  H  H48  1  0.806678  0.678217  0.017472  1
  H  H49  1  0.193322  0.321783  0.982528  1
  O  O50  1  0.571850  0.097832  0.934348  1
  O  O51  1  0.428150  0.902168  0.065652  1
  O  O52  1  0.441527  0.170013  0.096477  1
  O  O53  1  0.558473  0.829987  0.903523  1
  O  O54  1  0.328170  0.893728  0.819237  1
  O  O55  1  0.671830  0.106272  0.180763  1
  O  O56  1  0.330216  0.166547  0.840844  1
  O  O57  1  0.669784  0.833453  0.159156  1
  O  O58  1  0.277490  0.958678  0.224117  1
  O  O59  1  0.722510  0.041322  0.775883  1
  O  O60  1  0.175529  0.957407  0.978255  1
  O  O61  1  0.824471  0.042593  0.021745  1
  O  O62  1  0.530453  0.895905  0.316431  1
  O  O63  1  0.469547  0.104095  0.683569  1
  O  O64  1  0.729223  0.304360  0.798551  1
  O  O65  1  0.270777  0.695640  0.201449  1
  O  O66  1  0.834813  0.302175  0.048325  1
  O  O67  1  0.165187  0.697825  0.951675  1
  O  O68  1  0.588152  0.374715  0.956922  1
  O  O69  1  0.411848  0.625285  0.043078  1
  O  O70  1  0.536599  0.159838  0.366667  1
  O  O71  1  0.463401  0.840162  0.633333  1
  O  O72  1  0.709891  0.395576  0.214111  1
  O  O73  1  0.290109  0.604424  0.785889  1
  O  O74  1  0.000003  0.746102  0.106912  1
  O  O75  1  0.999997  0.253898  0.893088  1
  O  O76  1  0.476528  0.376462  0.697839  1
  O  O77  1  0.523472  0.623538  0.302161  1
  O  O78  1  0.244852  0.068348  0.469716  1
  O  O79  1  0.755148  0.931652  0.530284  1
  O  O80  1  0.110114  0.134069  0.203854  1
  O  O81  1  0.889886  0.865931  0.796146  1
  O  O82  1  0.897821  0.145903  0.385277  1
  O  O83  1  0.102179  0.854097  0.614723  1
  O  O84  1  0.155235  0.707126  0.422360  1
  O  O85  1  0.844765  0.292874  0.577640  1
  O  O86  1  0.088152  0.414423  0.248018  1
  O  O87  1  0.911848  0.585577  0.751982  1
  O  O88  1  0.408785  0.361186  0.385615  1
  O  O89  1  0.591215  0.638814  0.614385  1
  O  O90  1  0.109750  0.210489  0.623073  1
  O  O91  1  0.890250  0.789511  0.376927  1
  O  O92  1  0.215253  0.483158  0.523830  1
  O  O93  1  0.784747  0.516842  0.476170  1
  O  O94  1  0.705028  0.634077  0.957803  1
  O  O95  1  0.294972  0.365923  0.042197  1
