# generated using pymatgen
data_MnCr3(PO4)4
_symmetry_space_group_name_H-M   'P 1'
_cell_length_a   4.80196134
_cell_length_b   5.83754817
_cell_length_c   9.91234834
_cell_angle_alpha   90.00000000
_cell_angle_beta   90.69555530
_cell_angle_gamma   90.00000000
_symmetry_Int_Tables_number   1
_chemical_formula_structural   MnCr3(PO4)4
_chemical_formula_sum   'Mn1 Cr3 P4 O16'
_cell_volume   277.83930852
_cell_formula_units_Z   1
loop_
 _symmetry_equiv_pos_site_id
 _symmetry_equiv_pos_as_xyz
  1  'x, y, z'
loop_
 _atom_site_type_symbol
 _atom_site_label
 _atom_site_symmetry_multiplicity
 _atom_site_fract_x
 _atom_site_fract_y
 _atom_site_fract_z
 _atom_site_occupancy
  Mn  Mn0  1  0.052798  0.000000  0.723153  1
  Cr  Cr1  1  0.470554  0.000000  0.229697  1
  Cr  Cr2  1  0.528944  0.500000  0.773043  1
  Cr  Cr3  1  0.972094  0.500000  0.269937  1
  P  P4  1  0.082838  0.500000  0.593308  1
  P  P5  1  0.411552  0.500000  0.092897  1
  P  P6  1  0.585684  0.000000  0.904639  1
  P  P7  1  0.920405  0.000000  0.406329  1
  O  O8  1  0.166084  0.500000  0.445870  1
  O  O9  1  0.236753  0.298262  0.671604  1
  O  O10  1  0.236753  0.701738  0.671604  1
  O  O11  1  0.234373  0.000000  0.390568  1
  O  O12  1  0.264883  0.000000  0.886535  1
  O  O13  1  0.264969  0.295814  0.172674  1
  O  O14  1  0.264969  0.704186  0.172674  1
  O  O15  1  0.323669  0.500000  0.945596  1
  O  O16  1  0.657412  0.000000  0.054759  1
  O  O17  1  0.724887  0.792742  0.830425  1
  O  O18  1  0.724887  0.207258  0.830425  1
  O  O19  1  0.726553  0.500000  0.110166  1
  O  O20  1  0.769599  0.500000  0.610986  1
  O  O21  1  0.768405  0.795804  0.328814  1
  O  O22  1  0.768405  0.204196  0.328814  1
  O  O23  1  0.842532  0.000000  0.555484  1
