# generated using pymatgen
data_RbPH4O5
_symmetry_space_group_name_H-M   'P 1'
_cell_length_a   7.34085575
_cell_length_b   7.82936893
_cell_length_c   9.57589151
_cell_angle_alpha   90.00000000
_cell_angle_beta   104.07425006
_cell_angle_gamma   90.00000000
_symmetry_Int_Tables_number   1
_chemical_formula_structural   RbPH4O5
_chemical_formula_sum   'Rb4 P4 H16 O20'
_cell_volume   533.84609859
_cell_formula_units_Z   4
loop_
 _symmetry_equiv_pos_site_id
 _symmetry_equiv_pos_as_xyz
  1  'x, y, z'
loop_
 _atom_site_type_symbol
 _atom_site_label
 _atom_site_symmetry_multiplicity
 _atom_site_fract_x
 _atom_site_fract_y
 _atom_site_fract_z
 _atom_site_occupancy
  Rb  Rb0  1  0.180024  0.775708  0.535532  1
  Rb  Rb1  1  0.819976  0.275708  0.964468  1
  Rb  Rb2  1  0.819976  0.224292  0.464468  1
  Rb  Rb3  1  0.180024  0.724292  0.035532  1
  P  P4  1  0.634372  0.788993  0.842288  1
  P  P5  1  0.365628  0.288993  0.657712  1
  P  P6  1  0.365628  0.211007  0.157712  1
  P  P7  1  0.634372  0.711007  0.342288  1
  H  H8  1  0.425951  0.001835  0.830902  1
  H  H9  1  0.574049  0.501835  0.669098  1
  H  H10  1  0.574049  0.998165  0.169098  1
  H  H11  1  0.425951  0.498165  0.330902  1
  H  H12  1  0.067791  0.019527  0.218721  1
  H  H13  1  0.932209  0.519527  0.281279  1
  H  H14  1  0.932209  0.980473  0.781279  1
  H  H15  1  0.067791  0.480473  0.718721  1
  H  H16  1  0.881410  0.918680  0.225435  1
  H  H17  1  0.118590  0.418680  0.274565  1
  H  H18  1  0.118590  0.081320  0.774565  1
  H  H19  1  0.881410  0.581320  0.725435  1
  H  H20  1  0.639978  0.677625  0.051260  1
  H  H21  1  0.360022  0.177625  0.448740  1
  H  H22  1  0.360022  0.322375  0.948740  1
  H  H23  1  0.639978  0.822375  0.551260  1
  O  O24  1  0.623149  0.704698  0.695639  1
  O  O25  1  0.376851  0.204698  0.804361  1
  O  O26  1  0.376851  0.295302  0.304361  1
  O  O27  1  0.623149  0.795302  0.195639  1
  O  O28  1  0.645131  0.634147  0.953019  1
  O  O29  1  0.354869  0.134147  0.546981  1
  O  O30  1  0.354869  0.365853  0.046981  1
  O  O31  1  0.645131  0.865853  0.453019  1
  O  O32  1  0.434963  0.872919  0.841271  1
  O  O33  1  0.565037  0.372919  0.658729  1
  O  O34  1  0.565037  0.127081  0.158729  1
  O  O35  1  0.434963  0.627081  0.341271  1
  O  O36  1  0.793597  0.914438  0.890892  1
  O  O37  1  0.206403  0.414438  0.609108  1
  O  O38  1  0.206403  0.085562  0.109108  1
  O  O39  1  0.793597  0.585562  0.390892  1
  O  O40  1  0.992688  0.975348  0.284675  1
  O  O41  1  0.007312  0.475348  0.215325  1
  O  O42  1  0.007312  0.024652  0.715325  1
  O  O43  1  0.992688  0.524652  0.784675  1
