# generated using pymatgen
data_Bi2O3
_symmetry_space_group_name_H-M   'P 1'
_cell_length_a   10.41362084
_cell_length_b   10.41362084
_cell_length_c   10.41362084
_cell_angle_alpha   90.04988895
_cell_angle_beta   90.04988895
_cell_angle_gamma   90.04988895
_symmetry_Int_Tables_number   1
_chemical_formula_structural   Bi2O3
_chemical_formula_sum   'Bi26 O39'
_cell_volume   1129.28819763
_cell_formula_units_Z   13
loop_
 _symmetry_equiv_pos_site_id
 _symmetry_equiv_pos_as_xyz
  1  'x, y, z'
loop_
 _atom_site_type_symbol
 _atom_site_label
 _atom_site_symmetry_multiplicity
 _atom_site_fract_x
 _atom_site_fract_y
 _atom_site_fract_z
 _atom_site_occupancy
  Bi  Bi0  1  0.182078  0.332352  0.980905  1
  Bi  Bi1  1  0.823092  0.684510  0.985052  1
  Bi  Bi2  1  0.324640  0.013741  0.819675  1
  Bi  Bi3  1  0.684510  0.985052  0.823092  1
  Bi  Bi4  1  0.490104  0.679073  0.818612  1
  Bi  Bi5  1  0.513363  0.321742  0.817058  1
  Bi  Bi6  1  0.016088  0.176071  0.687141  1
  Bi  Bi7  1  0.985052  0.823092  0.684510  1
  Bi  Bi8  1  0.818612  0.490104  0.679073  1
  Bi  Bi9  1  0.178783  0.511474  0.673746  1
  Bi  Bi10  1  0.321742  0.817058  0.513363  1
  Bi  Bi11  1  0.673746  0.178783  0.511474  1
  Bi  Bi12  1  0.500042  0.500042  0.500042  1
  Bi  Bi13  1  0.320377  0.182134  0.488511  1
  Bi  Bi14  1  0.679073  0.818612  0.490104  1
  Bi  Bi15  1  0.817058  0.513363  0.321742  1
  Bi  Bi16  1  0.182134  0.488511  0.320377  1
  Bi  Bi17  1  0.980905  0.182078  0.332352  1
  Bi  Bi18  1  0.013741  0.819675  0.324640  1
  Bi  Bi19  1  0.511474  0.673746  0.178783  1
  Bi  Bi20  1  0.488511  0.320377  0.182134  1
  Bi  Bi21  1  0.332352  0.980905  0.182078  1
  Bi  Bi22  1  0.687141  0.016088  0.176071  1
  Bi  Bi23  1  0.176071  0.687141  0.016088  1
  Bi  Bi24  1  0.819675  0.324640  0.013741  1
  Bi  Bi25  1  0.013605  0.013605  0.013605  1
  O  O26  1  0.366221  0.254925  0.007643  1
  O  O27  1  0.630767  0.744044  0.006924  1
  O  O28  1  0.104951  0.883365  0.886161  1
  O  O29  1  0.886161  0.104951  0.883365  1
  O  O30  1  0.242834  0.491645  0.866649  1
  O  O31  1  0.757120  0.506546  0.870701  1
  O  O32  1  0.186313  0.185622  0.816423  1
  O  O33  1  0.809822  0.809822  0.809822  1
  O  O34  1  0.506546  0.870701  0.757120  1
  O  O35  1  0.492673  0.129867  0.756078  1
  O  O36  1  0.994529  0.368668  0.745498  1
  O  O37  1  0.006924  0.630767  0.744044  1
  O  O38  1  0.313893  0.683534  0.685272  1
  O  O39  1  0.685272  0.313893  0.683534  1
  O  O40  1  0.255630  0.993268  0.630686  1
  O  O41  1  0.744044  0.006924  0.630767  1
  O  O42  1  0.372702  0.373637  0.624202  1
  O  O43  1  0.626720  0.626720  0.626720  1
  O  O44  1  0.129867  0.756078  0.492673  1
  O  O45  1  0.866649  0.242834  0.491645  1
  O  O46  1  0.870701  0.757120  0.506546  1
  O  O47  1  0.127026  0.241263  0.507420  1
  O  O48  1  0.624202  0.372702  0.373637  1
  O  O49  1  0.373637  0.624202  0.372702  1
  O  O50  1  0.254925  0.007643  0.366221  1
  O  O51  1  0.745498  0.994529  0.368668  1
  O  O52  1  0.313372  0.313372  0.313372  1
  O  O53  1  0.683534  0.685272  0.313893  1
  O  O54  1  0.993268  0.630686  0.255630  1
  O  O55  1  0.007643  0.366221  0.254925  1
  O  O56  1  0.491645  0.866649  0.242834  1
  O  O57  1  0.507420  0.127026  0.241263  1
  O  O58  1  0.185622  0.816423  0.186313  1
  O  O59  1  0.816423  0.186313  0.185622  1
  O  O60  1  0.756078  0.492673  0.129867  1
  O  O61  1  0.241263  0.507420  0.127026  1
  O  O62  1  0.883365  0.886161  0.104951  1
  O  O63  1  0.630686  0.255630  0.993268  1
  O  O64  1  0.368668  0.745498  0.994529  1
