# generated using pymatgen
data_Li5Mn4O8
_symmetry_space_group_name_H-M   'P 1'
_cell_length_a   6.31990557
_cell_length_b   6.31990557
_cell_length_c   5.86807901
_cell_angle_alpha   63.10073841
_cell_angle_beta   116.89926159
_cell_angle_gamma   125.49029355
_symmetry_Int_Tables_number   1
_chemical_formula_structural   Li5Mn4O8
_chemical_formula_sum   'Li5 Mn4 O8'
_cell_volume   164.27194729
_cell_formula_units_Z   1
loop_
 _symmetry_equiv_pos_site_id
 _symmetry_equiv_pos_as_xyz
  1  'x, y, z'
loop_
 _atom_site_type_symbol
 _atom_site_label
 _atom_site_symmetry_multiplicity
 _atom_site_fract_x
 _atom_site_fract_y
 _atom_site_fract_z
 _atom_site_occupancy
  Li  Li0  1  1.000000  1.000000  0.500000  1
  Li  Li1  1  0.917588  0.082412  0.812767  1
  Li  Li2  1  0.500000  1.000000  0.500000  1
  Li  Li3  1  0.000000  0.500000  0.500000  1
  Li  Li4  1  0.082412  0.917588  0.187233  1
  Mn  Mn5  1  0.500000  1.000000  0.000000  1
  Mn  Mn6  1  0.500000  0.500000  0.500000  1
  Mn  Mn7  1  0.000000  0.500000  0.000000  1
  Mn  Mn8  1  0.500000  0.500000  0.000000  1
  O  O9  1  0.259988  0.257463  0.766345  1
  O  O10  1  0.753386  0.246614  0.235225  1
  O  O11  1  0.739325  0.260675  0.753924  1
  O  O12  1  0.742537  0.740012  0.766345  1
  O  O13  1  0.257463  0.259988  0.233655  1
  O  O14  1  0.246614  0.753386  0.764775  1
  O  O15  1  0.260675  0.739325  0.246076  1
  O  O16  1  0.740012  0.742537  0.233655  1
