# generated using pymatgen
data_Li8Co(O2F)2
_symmetry_space_group_name_H-M   'P 1'
_cell_length_a   5.42755042
_cell_length_b   5.48041754
_cell_length_c   5.95858410
_cell_angle_alpha   91.15726874
_cell_angle_beta   115.10987561
_cell_angle_gamma   117.24027756
_symmetry_Int_Tables_number   1
_chemical_formula_structural   Li8Co(O2F)2
_chemical_formula_sum   'Li8 Co1 O4 F2'
_cell_volume   137.53583872
_cell_formula_units_Z   1
loop_
 _symmetry_equiv_pos_site_id
 _symmetry_equiv_pos_as_xyz
  1  'x, y, z'
loop_
 _atom_site_type_symbol
 _atom_site_label
 _atom_site_symmetry_multiplicity
 _atom_site_fract_x
 _atom_site_fract_y
 _atom_site_fract_z
 _atom_site_occupancy
  Li  Li0  1  0.227660  0.462553  0.342348  1
  Li  Li1  1  0.095469  0.210021  0.641486  1
  Li  Li2  1  0.416790  0.899469  0.641819  1
  Li  Li3  1  0.711791  0.310525  0.014909  1
  Li  Li4  1  0.288209  0.689475  0.985091  1
  Li  Li5  1  0.583210  0.100531  0.358181  1
  Li  Li6  1  0.904531  0.789979  0.358514  1
  Li  Li7  1  0.772340  0.537447  0.657652  1
  Co  Co8  1  0.000000  0.000000  0.000000  1
  O  O9  1  0.857895  0.093683  0.242063  1
  O  O10  1  0.168458  0.765234  0.239819  1
  O  O11  1  0.831542  0.234766  0.760181  1
  O  O12  1  0.142105  0.906317  0.757937  1
  F  F13  1  0.465567  0.569915  0.723120  1
  F  F14  1  0.534433  0.430085  0.276880  1
