# generated using pymatgen
data_Na2LaPCO7
_symmetry_space_group_name_H-M   'P 1'
_cell_length_a   5.29258998
_cell_length_b   7.18551795
_cell_length_c   9.46693809
_cell_angle_alpha   90.00000000
_cell_angle_beta   91.08998845
_cell_angle_gamma   90.00000000
_symmetry_Int_Tables_number   1
_chemical_formula_structural   Na2LaPCO7
_chemical_formula_sum   'Na4 La2 P2 C2 O14'
_cell_volume   359.96251187
_cell_formula_units_Z   2
loop_
 _symmetry_equiv_pos_site_id
 _symmetry_equiv_pos_as_xyz
  1  'x, y, z'
loop_
 _atom_site_type_symbol
 _atom_site_label
 _atom_site_symmetry_multiplicity
 _atom_site_fract_x
 _atom_site_fract_y
 _atom_site_fract_z
 _atom_site_occupancy
  Na  Na0  1  0.226791  0.495112  0.202505  1
  Na  Na1  1  0.226791  0.004888  0.202505  1
  Na  Na2  1  0.773209  0.504888  0.797495  1
  Na  Na3  1  0.773209  0.995112  0.797495  1
  La  La4  1  0.763989  0.750000  0.384994  1
  La  La5  1  0.236011  0.250000  0.615006  1
  P  P6  1  0.711810  0.250000  0.409306  1
  P  P7  1  0.288190  0.750000  0.590694  1
  C  C8  1  0.729621  0.750000  0.077155  1
  C  C9  1  0.270379  0.250000  0.922845  1
  O  O10  1  0.294045  0.250000  0.055589  1
  O  O11  1  0.950905  0.750000  0.142936  1
  O  O12  1  0.531478  0.750000  0.161038  1
  O  O13  1  0.843623  0.074460  0.351219  1
  O  O14  1  0.843623  0.425540  0.351219  1
  O  O15  1  0.261389  0.750000  0.423787  1
  O  O16  1  0.422732  0.250000  0.376670  1
  O  O17  1  0.577268  0.750000  0.623330  1
  O  O18  1  0.738611  0.250000  0.576213  1
  O  O19  1  0.156377  0.574460  0.648781  1
  O  O20  1  0.156377  0.925540  0.648781  1
  O  O21  1  0.468522  0.250000  0.838962  1
  O  O22  1  0.049095  0.250000  0.857064  1
  O  O23  1  0.705955  0.750000  0.944411  1
