# generated using pymatgen
data_Li3Fe8(BO3)8
_symmetry_space_group_name_H-M   'P 1'
_cell_length_a   5.23573568
_cell_length_b   9.10743621
_cell_length_c   10.18203339
_cell_angle_alpha   89.58783499
_cell_angle_beta   89.24255997
_cell_angle_gamma   89.58683398
_symmetry_Int_Tables_number   1
_chemical_formula_structural   Li3Fe8(BO3)8
_chemical_formula_sum   'Li3 Fe8 B8 O24'
_cell_volume   485.45411038
_cell_formula_units_Z   1
loop_
 _symmetry_equiv_pos_site_id
 _symmetry_equiv_pos_as_xyz
  1  'x, y, z'
loop_
 _atom_site_type_symbol
 _atom_site_label
 _atom_site_symmetry_multiplicity
 _atom_site_fract_x
 _atom_site_fract_y
 _atom_site_fract_z
 _atom_site_occupancy
  Li  Li0  1  0.148426  0.178956  0.663365  1
  Li  Li1  1  0.186978  0.169757  0.159674  1
  Li  Li2  1  0.330165  0.334691  0.398892  1
  Fe  Fe3  1  0.161658  0.830145  0.629224  1
  Fe  Fe4  1  0.182969  0.505540  0.125612  1
  Fe  Fe5  1  0.329934  0.992106  0.877995  1
  Fe  Fe6  1  0.332761  0.669369  0.374343  1
  Fe  Fe7  1  0.654305  0.349413  0.630433  1
  Fe  Fe8  1  0.669678  0.996329  0.130149  1
  Fe  Fe9  1  0.830411  0.153970  0.384599  1
  Fe  Fe10  1  0.830232  0.498062  0.883008  1
  B  B11  1  0.151572  0.498497  0.622506  1
  B  B12  1  0.162824  0.836834  0.131524  1
  B  B13  1  0.340964  0.998609  0.376923  1
  B  B14  1  0.335397  0.665318  0.876061  1
  B  B15  1  0.672125  0.004353  0.633652  1
  B  B16  1  0.678507  0.322655  0.125453  1
  B  B17  1  0.827558  0.496488  0.375213  1
  B  B18  1  0.819811  0.166494  0.876234  1
  O  O19  1  0.093225  0.499009  0.344722  1
  O  O20  1  0.078172  0.141017  0.857316  1
  O  O21  1  0.222113  0.797398  0.827364  1
  O  O22  1  0.240089  0.871374  0.434533  1
  O  O23  1  0.206449  0.127988  0.369846  1
  O  O24  1  0.175204  0.557995  0.923747  1
  O  O25  1  0.279840  0.367498  0.601991  1
  O  O26  1  0.305672  0.959497  0.081490  1
  O  O27  1  0.257527  0.630861  0.575504  1
  O  O28  1  0.292563  0.717621  0.182506  1
  O  O29  1  0.420521  0.326009  0.144003  1
  O  O30  1  0.405960  0.004738  0.670741  1
  O  O31  1  0.583375  0.992002  0.321809  1
  O  O32  1  0.590516  0.651548  0.876544  1
  O  O33  1  0.708510  0.297303  0.840808  1
  O  O34  1  0.717476  0.364553  0.416225  1
  O  O35  1  0.679941  0.619610  0.367746  1
  O  O36  1  0.667527  0.053261  0.928570  1
  O  O37  1  0.821098  0.438842  0.076792  1
  O  O38  1  0.813359  0.879146  0.638972  1
  O  O39  1  0.782137  0.135471  0.593936  1
  O  O40  1  0.816853  0.192430  0.160408  1
  O  O41  1  0.906743  0.845098  0.126220  1
  O  O42  1  0.917717  0.502254  0.684745  1
