# generated using pymatgen
data_Li2Mn2Si3O10
_symmetry_space_group_name_H-M   'P 1'
_cell_length_a   5.51338713
_cell_length_b   5.51338713
_cell_length_c   16.20171031
_cell_angle_alpha   85.70502802
_cell_angle_beta   94.29497198
_cell_angle_gamma   118.95388264
_symmetry_Int_Tables_number   1
_chemical_formula_structural   Li2Mn2Si3O10
_chemical_formula_sum   'Li4 Mn4 Si6 O20'
_cell_volume   429.30225575
_cell_formula_units_Z   2
loop_
 _symmetry_equiv_pos_site_id
 _symmetry_equiv_pos_as_xyz
  1  'x, y, z'
loop_
 _atom_site_type_symbol
 _atom_site_label
 _atom_site_symmetry_multiplicity
 _atom_site_fract_x
 _atom_site_fract_y
 _atom_site_fract_z
 _atom_site_occupancy
  Li  Li0  1  0.589339  0.206332  0.225720  1
  Li  Li1  1  0.793668  0.410661  0.725720  1
  Li  Li2  1  0.362795  0.846851  0.449318  1
  Li  Li3  1  0.153149  0.637205  0.949318  1
  Mn  Mn4  1  0.011624  0.193110  0.422839  1
  Mn  Mn5  1  0.806890  0.988376  0.922839  1
  Mn  Mn6  1  0.206607  0.028622  0.080322  1
  Mn  Mn7  1  0.971378  0.793393  0.580322  1
  Si  Si8  1  0.886389  0.884804  0.250194  1
  Si  Si9  1  0.667874  0.510832  0.400915  1
  Si  Si10  1  0.529873  0.694097  0.097932  1
  Si  Si11  1  0.489168  0.332126  0.900915  1
  Si  Si12  1  0.305903  0.470127  0.597932  1
  Si  Si13  1  0.115196  0.113611  0.750194  1
  O  O14  1  0.929607  0.127128  0.309334  1
  O  O15  1  0.872872  0.070393  0.809334  1
  O  O16  1  0.775936  0.582911  0.303489  1
  O  O17  1  0.507127  0.388413  0.110339  1
  O  O18  1  0.911033  0.773033  0.455467  1
  O  O19  1  0.798390  0.900261  0.040584  1
  O  O20  1  0.656626  0.217938  0.429406  1
  O  O21  1  0.782062  0.343374  0.929406  1
  O  O22  1  0.611587  0.492873  0.610339  1
  O  O23  1  0.626182  0.855528  0.186836  1
  O  O24  1  0.417089  0.224064  0.803489  1
  O  O25  1  0.376408  0.516610  0.405833  1
  O  O26  1  0.249342  0.696588  0.063718  1
  O  O27  1  0.303412  0.750658  0.563718  1
  O  O28  1  0.226967  0.088967  0.955467  1
  O  O29  1  0.099739  0.201610  0.540584  1
  O  O30  1  0.483390  0.623592  0.905833  1
  O  O31  1  0.144472  0.373818  0.686836  1
  O  O32  1  0.154768  0.954744  0.197760  1
  O  O33  1  0.045256  0.845232  0.697760  1
