# generated using pymatgen
data_Tb2WO6
_symmetry_space_group_name_H-M   'P 1'
_cell_length_a   9.93234617
_cell_length_b   9.93234617
_cell_length_c   5.43141153
_cell_angle_alpha   75.81337589
_cell_angle_beta   104.18662411
_cell_angle_gamma   111.54647305
_symmetry_Int_Tables_number   1
_chemical_formula_structural   Tb2WO6
_chemical_formula_sum   'Tb8 W4 O24'
_cell_volume   475.97673248
_cell_formula_units_Z   4
loop_
 _symmetry_equiv_pos_site_id
 _symmetry_equiv_pos_as_xyz
  1  'x, y, z'
loop_
 _atom_site_type_symbol
 _atom_site_label
 _atom_site_symmetry_multiplicity
 _atom_site_fract_x
 _atom_site_fract_y
 _atom_site_fract_z
 _atom_site_occupancy
  Tb  Tb0  1  0.105914  0.105914  0.250000  1
  Tb  Tb1  1  0.633570  0.633570  0.250000  1
  Tb  Tb2  1  0.943707  0.285638  0.616811  1
  Tb  Tb3  1  0.714362  0.056293  0.116811  1
  Tb  Tb4  1  0.285638  0.943707  0.883189  1
  Tb  Tb5  1  0.056293  0.714362  0.383189  1
  Tb  Tb6  1  0.366430  0.366430  0.750000  1
  Tb  Tb7  1  0.894086  0.894086  0.750000  1
  W  W8  1  0.505568  0.199690  0.433843  1
  W  W9  1  0.199690  0.505568  0.066157  1
  W  W10  1  0.800310  0.494432  0.933843  1
  W  W11  1  0.494432  0.800310  0.566157  1
  O  O12  1  0.892638  0.075832  0.921687  1
  O  O13  1  0.526736  0.061615  0.737272  1
  O  O14  1  0.312712  0.159960  0.579162  1
  O  O15  1  0.544293  0.388118  0.479239  1
  O  O16  1  0.388118  0.544293  0.020761  1
  O  O17  1  0.159960  0.312712  0.920838  1
  O  O18  1  0.924168  0.107362  0.421687  1
  O  O19  1  0.175660  0.380169  0.383469  1
  O  O20  1  0.619831  0.824340  0.883469  1
  O  O21  1  0.215978  0.682639  0.147142  1
  O  O22  1  0.317361  0.784022  0.647142  1
  O  O23  1  0.061615  0.526736  0.762728  1
  O  O24  1  0.938385  0.473264  0.237272  1
  O  O25  1  0.682639  0.215978  0.352858  1
  O  O26  1  0.784022  0.317361  0.852858  1
  O  O27  1  0.380169  0.175660  0.116531  1
  O  O28  1  0.824340  0.619831  0.616531  1
  O  O29  1  0.075832  0.892638  0.578313  1
  O  O30  1  0.840040  0.687288  0.079162  1
  O  O31  1  0.611882  0.455707  0.979239  1
  O  O32  1  0.455707  0.611882  0.520761  1
  O  O33  1  0.687288  0.840040  0.420838  1
  O  O34  1  0.473264  0.938385  0.262728  1
  O  O35  1  0.107362  0.924168  0.078313  1
