# generated using pymatgen
data_Mn6O5F7
_symmetry_space_group_name_H-M   'P 1'
_cell_length_a   4.75080950
_cell_length_b   5.66489454
_cell_length_c   7.91963340
_cell_angle_alpha   86.80633334
_cell_angle_beta   88.19775258
_cell_angle_gamma   88.34048473
_symmetry_Int_Tables_number   1
_chemical_formula_structural   Mn6O5F7
_chemical_formula_sum   'Mn6 O5 F7'
_cell_volume   212.62442665
_cell_formula_units_Z   1
loop_
 _symmetry_equiv_pos_site_id
 _symmetry_equiv_pos_as_xyz
  1  'x, y, z'
loop_
 _atom_site_type_symbol
 _atom_site_label
 _atom_site_symmetry_multiplicity
 _atom_site_fract_x
 _atom_site_fract_y
 _atom_site_fract_z
 _atom_site_occupancy
  Mn  Mn0  1  0.487531  0.487521  0.003703  1
  Mn  Mn1  1  0.492340  0.167187  0.335279  1
  Mn  Mn2  1  0.534216  0.836202  0.655867  1
  Mn  Mn3  1  0.003211  0.666986  0.329066  1
  Mn  Mn4  1  0.944585  0.334045  0.670269  1
  Mn  Mn5  1  0.026012  0.013283  0.007399  1
  O  O6  1  0.809357  0.639206  0.551035  1
  O  O7  1  0.803616  0.286218  0.907920  1
  O  O8  1  0.676145  0.120447  0.550339  1
  O  O9  1  0.309903  0.215960  0.117283  1
  O  O10  1  0.195345  0.710114  0.105481  1
  F  F11  1  0.791040  0.970350  0.232761  1
  F  F12  1  0.703201  0.786190  0.908426  1
  F  F13  1  0.707945  0.470861  0.241130  1
  F  F14  1  0.289119  0.859852  0.426559  1
  F  F15  1  0.322522  0.549500  0.754657  1
  F  F16  1  0.192447  0.356523  0.443330  1
  F  F17  1  0.211468  0.029556  0.759495  1
