# generated using pymatgen
data_Li2MnSiO4
_symmetry_space_group_name_H-M   'P 1'
_cell_length_a   5.13991968
_cell_length_b   6.36519713
_cell_length_c   11.02011793
_cell_angle_alpha   90.00000000
_cell_angle_beta   90.00000000
_cell_angle_gamma   90.00000000
_symmetry_Int_Tables_number   1
_chemical_formula_structural   Li2MnSiO4
_chemical_formula_sum   'Li8 Mn4 Si4 O16'
_cell_volume   360.54081248
_cell_formula_units_Z   4
loop_
 _symmetry_equiv_pos_site_id
 _symmetry_equiv_pos_as_xyz
  1  'x, y, z'
loop_
 _atom_site_type_symbol
 _atom_site_label
 _atom_site_symmetry_multiplicity
 _atom_site_fract_x
 _atom_site_fract_y
 _atom_site_fract_z
 _atom_site_occupancy
  Li  Li0  1  0.297044  0.869527  0.072982  1
  Li  Li1  1  0.689175  0.119360  0.158632  1
  Li  Li2  1  0.189175  0.619360  0.341368  1
  Li  Li3  1  0.797044  0.369527  0.427018  1
  Li  Li4  1  0.202956  0.869527  0.572982  1
  Li  Li5  1  0.810825  0.119360  0.658632  1
  Li  Li6  1  0.310825  0.619360  0.841368  1
  Li  Li7  1  0.702956  0.369527  0.927018  1
  Mn  Mn8  1  0.694617  0.615614  0.167426  1
  Mn  Mn9  1  0.194617  0.115614  0.332574  1
  Mn  Mn10  1  0.805383  0.615614  0.667426  1
  Mn  Mn11  1  0.305383  0.115614  0.832574  1
  Si  Si12  1  0.189776  0.368197  0.086012  1
  Si  Si13  1  0.689776  0.868197  0.413988  1
  Si  Si14  1  0.310224  0.368197  0.586012  1
  Si  Si15  1  0.810224  0.868197  0.913988  1
  O  O16  1  0.695928  0.873536  0.053541  1
  O  O17  1  0.867712  0.360973  0.085302  1
  O  O18  1  0.283387  0.580977  0.162073  1
  O  O19  1  0.299873  0.153861  0.154332  1
  O  O20  1  0.799873  0.653861  0.345668  1
  O  O21  1  0.783387  0.080977  0.337927  1
  O  O22  1  0.367712  0.860973  0.414698  1
  O  O23  1  0.195928  0.373536  0.446459  1
  O  O24  1  0.804072  0.873536  0.553541  1
  O  O25  1  0.632288  0.360973  0.585302  1
  O  O26  1  0.216613  0.580977  0.662073  1
  O  O27  1  0.200127  0.153861  0.654332  1
  O  O28  1  0.700127  0.653861  0.845668  1
  O  O29  1  0.716613  0.080977  0.837927  1
  O  O30  1  0.132288  0.860973  0.914698  1
  O  O31  1  0.304072  0.373536  0.946459  1
