# generated using pymatgen
data_VBO4
_symmetry_space_group_name_H-M   'P 1'
_cell_length_a   7.60245219
_cell_length_b   7.83329566
_cell_length_c   8.66625269
_cell_angle_alpha   107.52126245
_cell_angle_beta   96.18453003
_cell_angle_gamma   112.86450716
_symmetry_Int_Tables_number   1
_chemical_formula_structural   VBO4
_chemical_formula_sum   'V6 B6 O24'
_cell_volume   438.40104675
_cell_formula_units_Z   6
loop_
 _symmetry_equiv_pos_site_id
 _symmetry_equiv_pos_as_xyz
  1  'x, y, z'
loop_
 _atom_site_type_symbol
 _atom_site_label
 _atom_site_symmetry_multiplicity
 _atom_site_fract_x
 _atom_site_fract_y
 _atom_site_fract_z
 _atom_site_occupancy
  V  V0  1  0.951455  0.008492  0.255708  1
  V  V1  1  0.181562  0.636905  0.335072  1
  V  V2  1  0.494975  0.717889  0.847751  1
  V  V3  1  0.505025  0.282111  0.152249  1
  V  V4  1  0.818438  0.363095  0.664928  1
  V  V5  1  0.048545  0.991508  0.744292  1
  B  B6  1  0.922352  0.734710  0.936883  1
  B  B7  1  0.183640  0.365417  0.547221  1
  B  B8  1  0.513132  0.905092  0.219211  1
  B  B9  1  0.486868  0.094908  0.780789  1
  B  B10  1  0.816360  0.634583  0.452779  1
  B  B11  1  0.077648  0.265290  0.063117  1
  O  O12  1  0.066054  0.860361  0.867480  1
  O  O13  1  0.999618  0.704816  0.396005  1
  O  O14  1  0.088173  0.463810  0.131695  1
  O  O15  1  0.990260  0.815851  0.118928  1
  O  O16  1  0.283274  0.061334  0.709290  1
  O  O17  1  0.348188  0.473218  0.698121  1
  O  O18  1  0.482369  0.900450  0.778308  1
  O  O19  1  0.166621  0.177405  0.423341  1
  O  O20  1  0.203676  0.506761  0.460479  1
  O  O21  1  0.388756  0.832728  0.324924  1
  O  O22  1  0.271350  0.268032  0.115812  1
  O  O23  1  0.438377  0.760048  0.042172  1
  O  O24  1  0.561623  0.239952  0.957828  1
  O  O25  1  0.728650  0.731968  0.884188  1
  O  O26  1  0.611244  0.167272  0.675076  1
  O  O27  1  0.796324  0.493239  0.539521  1
  O  O28  1  0.833379  0.822595  0.576659  1
  O  O29  1  0.517631  0.099550  0.221692  1
  O  O30  1  0.651812  0.526782  0.301879  1
  O  O31  1  0.716726  0.938666  0.290710  1
  O  O32  1  0.009740  0.184149  0.881072  1
  O  O33  1  0.911827  0.536190  0.868305  1
  O  O34  1  0.000382  0.295184  0.603995  1
  O  O35  1  0.933946  0.139639  0.132520  1
