# generated using pymatgen
data_Li2W2O7
_symmetry_space_group_name_H-M   'P 1'
_cell_length_a   5.26180997
_cell_length_b   6.93329276
_cell_length_c   8.70574081
_cell_angle_alpha   70.15906248
_cell_angle_beta   76.32693830
_cell_angle_gamma   85.04621550
_symmetry_Int_Tables_number   1
_chemical_formula_structural   Li2W2O7
_chemical_formula_sum   'Li4 W4 O14'
_cell_volume   290.27385979
_cell_formula_units_Z   2
loop_
 _symmetry_equiv_pos_site_id
 _symmetry_equiv_pos_as_xyz
  1  'x, y, z'
loop_
 _atom_site_type_symbol
 _atom_site_label
 _atom_site_symmetry_multiplicity
 _atom_site_fract_x
 _atom_site_fract_y
 _atom_site_fract_z
 _atom_site_occupancy
  Li  Li0  1  0.865299  0.557605  0.751056  1
  Li  Li1  1  0.593031  0.227862  0.359433  1
  Li  Li2  1  0.134701  0.442395  0.248944  1
  Li  Li3  1  0.406969  0.772138  0.640567  1
  W  W4  1  0.302644  0.038400  0.164487  1
  W  W5  1  0.209442  0.243951  0.687213  1
  W  W6  1  0.790558  0.756049  0.312787  1
  W  W7  1  0.697356  0.961600  0.835513  1
  O  O8  1  0.852495  0.252201  0.796688  1
  O  O9  1  0.147505  0.747799  0.203312  1
  O  O10  1  0.726005  0.507568  0.309404  1
  O  O11  1  0.273995  0.492432  0.690596  1
  O  O12  1  0.051498  0.927164  0.748841  1
  O  O13  1  0.948502  0.072836  0.251159  1
  O  O14  1  0.805681  0.701386  0.527098  1
  O  O15  1  0.669905  0.909805  0.076527  1
  O  O16  1  0.443675  0.902032  0.363494  1
  O  O17  1  0.405088  0.286764  0.144541  1
  O  O18  1  0.556325  0.097968  0.636506  1
  O  O19  1  0.330095  0.090195  0.923473  1
  O  O20  1  0.194319  0.298614  0.472902  1
  O  O21  1  0.594912  0.713236  0.855459  1
