# generated using pymatgen
data_Li2TiV3O8
_symmetry_space_group_name_H-M   'P 1'
_cell_length_a   5.94526671
_cell_length_b   5.94526671
_cell_length_c   9.57359560
_cell_angle_alpha   89.95159187
_cell_angle_beta   90.04840813
_cell_angle_gamma   59.48196355
_symmetry_Int_Tables_number   1
_chemical_formula_structural   Li2TiV3O8
_chemical_formula_sum   'Li4 Ti2 V6 O16'
_cell_volume   291.51235230
_cell_formula_units_Z   2
loop_
 _symmetry_equiv_pos_site_id
 _symmetry_equiv_pos_as_xyz
  1  'x, y, z'
loop_
 _atom_site_type_symbol
 _atom_site_label
 _atom_site_symmetry_multiplicity
 _atom_site_fract_x
 _atom_site_fract_y
 _atom_site_fract_z
 _atom_site_occupancy
  Li  Li0  1  0.327902  0.336405  0.106973  1
  Li  Li1  1  0.003615  0.992732  0.004918  1
  Li  Li2  1  0.007268  0.996385  0.504918  1
  Li  Li3  1  0.663595  0.672098  0.606973  1
  Ti  Ti4  1  0.331991  0.328779  0.504458  1
  Ti  Ti5  1  0.671221  0.668009  0.004458  1
  V  V6  1  0.656459  0.173690  0.786126  1
  V  V7  1  0.170253  0.171304  0.786649  1
  V  V8  1  0.828696  0.829747  0.286649  1
  V  V9  1  0.351770  0.820625  0.280060  1
  V  V10  1  0.179375  0.648230  0.780060  1
  V  V11  1  0.826310  0.343541  0.286126  1
  O  O12  1  0.667421  0.166324  0.404487  1
  O  O13  1  0.475757  0.488247  0.655583  1
  O  O14  1  0.323372  0.354516  0.898704  1
  O  O15  1  0.006320  0.982754  0.693050  1
  O  O16  1  0.017246  0.993680  0.193050  1
  O  O17  1  0.170340  0.660436  0.403373  1
  O  O18  1  0.480407  0.043578  0.658441  1
  O  O19  1  0.038443  0.486735  0.656928  1
  O  O20  1  0.831599  0.829225  0.906330  1
  O  O21  1  0.170775  0.168401  0.406330  1
  O  O22  1  0.956422  0.519593  0.158441  1
  O  O23  1  0.513265  0.961557  0.156928  1
  O  O24  1  0.645484  0.676628  0.398704  1
  O  O25  1  0.833676  0.332579  0.904487  1
  O  O26  1  0.511753  0.524243  0.155583  1
  O  O27  1  0.339564  0.829660  0.903373  1
