# generated using pymatgen
data_Mn2Fe3Ni(PO4)6
_symmetry_space_group_name_H-M   'P 1'
_cell_length_a   8.58175537
_cell_length_b   8.58175537
_cell_length_c   8.58175537
_cell_angle_alpha   60.74852223
_cell_angle_beta   60.74852223
_cell_angle_gamma   60.74852223
_symmetry_Int_Tables_number   1
_chemical_formula_structural   Mn2Fe3Ni(PO4)6
_chemical_formula_sum   'Mn2 Fe3 Ni1 P6 O24'
_cell_volume   454.45080088
_cell_formula_units_Z   1
loop_
 _symmetry_equiv_pos_site_id
 _symmetry_equiv_pos_as_xyz
  1  'x, y, z'
loop_
 _atom_site_type_symbol
 _atom_site_label
 _atom_site_symmetry_multiplicity
 _atom_site_fract_x
 _atom_site_fract_y
 _atom_site_fract_z
 _atom_site_occupancy
  Mn  Mn0  1  0.000916  0.000916  0.000916  1
  Mn  Mn1  1  0.500341  0.500341  0.500341  1
  Fe  Fe2  1  0.854672  0.854672  0.854672  1
  Fe  Fe3  1  0.646194  0.646194  0.646194  1
  Fe  Fe4  1  0.354508  0.354508  0.354508  1
  Ni  Ni5  1  0.143435  0.143435  0.143435  1
  P  P6  1  0.954453  0.249913  0.545343  1
  P  P7  1  0.545343  0.954453  0.249913  1
  P  P8  1  0.249913  0.545343  0.954453  1
  P  P9  1  0.750372  0.454195  0.045981  1
  P  P10  1  0.454195  0.045981  0.750372  1
  P  P11  1  0.045981  0.750372  0.454195  1
  O  O12  1  0.891287  0.680775  0.496756  1
  O  O13  1  0.680775  0.496756  0.891287  1
  O  O14  1  0.940978  0.090297  0.743582  1
  O  O15  1  0.496756  0.891287  0.680775  1
  O  O16  1  0.987442  0.184951  0.392885  1
  O  O17  1  0.756414  0.409653  0.564029  1
  O  O18  1  0.743582  0.940978  0.090297  1
  O  O19  1  0.564029  0.756414  0.409653  1
  O  O20  1  0.819059  0.608874  0.004129  1
  O  O21  1  0.409653  0.564029  0.756414  1
  O  O22  1  0.908494  0.257239  0.058208  1
  O  O23  1  0.608874  0.004129  0.819059  1
  O  O24  1  0.392885  0.987442  0.184951  1
  O  O25  1  0.090297  0.743582  0.940978  1
  O  O26  1  0.590443  0.440788  0.242699  1
  O  O27  1  0.184951  0.392885  0.987442  1
  O  O28  1  0.440788  0.242699  0.590443  1
  O  O29  1  0.257239  0.058208  0.908494  1
  O  O30  1  0.242699  0.590443  0.440788  1
  O  O31  1  0.004129  0.819059  0.608874  1
  O  O32  1  0.504070  0.109831  0.316798  1
  O  O33  1  0.058208  0.908494  0.257239  1
  O  O34  1  0.316798  0.504070  0.109831  1
  O  O35  1  0.109831  0.316798  0.504070  1
