# generated using pymatgen
data_Li4Fe3(SiO4)3
_symmetry_space_group_name_H-M   'P 1'
_cell_length_a   4.35719967
_cell_length_b   5.49500096
_cell_length_c   11.95148926
_cell_angle_alpha   88.34435916
_cell_angle_beta   100.35167275
_cell_angle_gamma   113.27388761
_symmetry_Int_Tables_number   1
_chemical_formula_structural   Li4Fe3(SiO4)3
_chemical_formula_sum   'Li4 Fe3 Si3 O12'
_cell_volume   258.30764869
_cell_formula_units_Z   1
loop_
 _symmetry_equiv_pos_site_id
 _symmetry_equiv_pos_as_xyz
  1  'x, y, z'
loop_
 _atom_site_type_symbol
 _atom_site_label
 _atom_site_symmetry_multiplicity
 _atom_site_fract_x
 _atom_site_fract_y
 _atom_site_fract_z
 _atom_site_occupancy
  Li  Li0  1  0.240071  0.914416  0.575284  1
  Li  Li1  1  0.753201  0.745114  0.750882  1
  Li  Li2  1  0.752817  0.424876  0.082123  1
  Li  Li3  1  0.249034  0.246207  0.255439  1
  Fe  Fe4  1  0.502664  0.835441  0.166827  1
  Fe  Fe5  1  0.491053  0.488642  0.496085  1
  Fe  Fe6  1  0.503511  0.172074  0.836481  1
  Si  Si7  1  0.994292  0.664091  0.330912  1
  Si  Si8  1  0.009345  0.333528  0.669418  1
  Si  Si9  1  0.998404  0.003451  0.001227  1
  O  O10  1  0.111041  0.917204  0.889133  1
  O  O11  1  0.297441  0.761248  0.440423  1
  O  O12  1  0.890607  0.916744  0.281149  1
  O  O13  1  0.904088  0.586574  0.636251  1
  O  O14  1  0.688984  0.752072  0.045203  1
  O  O15  1  0.122782  0.565515  0.219011  1
  O  O16  1  0.656014  0.421568  0.355632  1
  O  O17  1  0.334233  0.107606  0.108590  1
  O  O18  1  0.342794  0.432600  0.778401  1
  O  O19  1  0.860136  0.241658  0.968420  1
  O  O20  1  0.118626  0.217473  0.566863  1
  O  O21  1  0.678858  0.085233  0.712914  1
