# generated using pymatgen
data_LiFeSiO4
_symmetry_space_group_name_H-M   'P 1'
_cell_length_a   5.05464341
_cell_length_b   5.66188079
_cell_length_c   7.87543519
_cell_angle_alpha   90.00000000
_cell_angle_beta   129.25087012
_cell_angle_gamma   90.00000000
_symmetry_Int_Tables_number   1
_chemical_formula_structural   LiFeSiO4
_chemical_formula_sum   'Li2 Fe2 Si2 O8'
_cell_volume   174.53464072
_cell_formula_units_Z   2
loop_
 _symmetry_equiv_pos_site_id
 _symmetry_equiv_pos_as_xyz
  1  'x, y, z'
loop_
 _atom_site_type_symbol
 _atom_site_label
 _atom_site_symmetry_multiplicity
 _atom_site_fract_x
 _atom_site_fract_y
 _atom_site_fract_z
 _atom_site_occupancy
  Li  Li0  1  0.760547  0.162607  0.749818  1
  Li  Li1  1  0.760547  0.837393  0.249818  1
  Fe  Fe2  1  0.008684  0.660743  0.998292  1
  Fe  Fe3  1  0.008684  0.339257  0.498292  1
  Si  Si4  1  0.507585  0.665085  0.501377  1
  Si  Si5  1  0.507585  0.334915  0.001377  1
  O  O6  1  0.661509  0.398876  0.522149  1
  O  O7  1  0.394735  0.790707  0.274258  1
  O  O8  1  0.795901  0.821091  0.723740  1
  O  O9  1  0.163231  0.363750  0.980992  1
  O  O10  1  0.661509  0.601124  0.022149  1
  O  O11  1  0.795901  0.178909  0.223740  1
  O  O12  1  0.394735  0.209293  0.774258  1
  O  O13  1  0.163231  0.636250  0.480992  1
