# generated using pymatgen
data_Na6Mn3(PO4)4
_symmetry_space_group_name_H-M   'P 1'
_cell_length_a   10.63407207
_cell_length_b   10.63407207
_cell_length_c   10.93660514
_cell_angle_alpha   89.63905159
_cell_angle_beta   90.36094841
_cell_angle_gamma   142.93794797
_symmetry_Int_Tables_number   1
_chemical_formula_structural   Na6Mn3(PO4)4
_chemical_formula_sum   'Na12 Mn6 P8 O32'
_cell_volume   745.34722265
_cell_formula_units_Z   2
loop_
 _symmetry_equiv_pos_site_id
 _symmetry_equiv_pos_as_xyz
  1  'x, y, z'
loop_
 _atom_site_type_symbol
 _atom_site_label
 _atom_site_symmetry_multiplicity
 _atom_site_fract_x
 _atom_site_fract_y
 _atom_site_fract_z
 _atom_site_occupancy
  Na  Na0  1  0.012594  0.188357  0.443172  1
  Na  Na1  1  0.179916  0.275974  0.685938  1
  Na  Na2  1  0.004770  0.512950  0.502382  1
  Na  Na3  1  0.056597  0.912092  0.651893  1
  Na  Na4  1  0.087908  0.943403  0.151893  1
  Na  Na5  1  0.249379  0.111894  0.926030  1
  Na  Na6  1  0.487050  0.995230  0.002382  1
  Na  Na7  1  0.724026  0.820084  0.185938  1
  Na  Na8  1  0.811643  0.987406  0.943172  1
  Na  Na9  1  0.399496  0.392390  0.262786  1
  Na  Na10  1  0.607610  0.600504  0.762786  1
  Na  Na11  1  0.888106  0.750621  0.426030  1
  Mn  Mn12  1  0.325966  0.641356  0.756948  1
  Mn  Mn13  1  0.358644  0.674034  0.256948  1
  Mn  Mn14  1  0.503893  0.000301  0.507808  1
  Mn  Mn15  1  0.624472  0.314655  0.753243  1
  Mn  Mn16  1  0.685345  0.375528  0.253243  1
  Mn  Mn17  1  0.999699  0.496107  0.007808  1
  P  P18  1  0.242083  0.397511  0.018146  1
  P  P19  1  0.172496  0.772767  0.753079  1
  P  P20  1  0.227233  0.827504  0.253079  1
  P  P21  1  0.602489  0.757917  0.518146  1
  P  P22  1  0.391548  0.233062  0.498074  1
  P  P23  1  0.779007  0.182618  0.763399  1
  P  P24  1  0.817382  0.220993  0.263399  1
  P  P25  1  0.766938  0.608452  0.998074  1
  O  O26  1  0.044786  0.322960  0.015565  1
  O  O27  1  0.002670  0.314845  0.734965  1
  O  O28  1  0.047600  0.363136  0.295143  1
  O  O29  1  0.007815  0.704107  0.281553  1
  O  O30  1  0.327609  0.451973  0.883541  1
  O  O31  1  0.203446  0.703949  0.863011  1
  O  O32  1  0.412617  0.596411  0.101091  1
  O  O33  1  0.259081  0.762794  0.643487  1
  O  O34  1  0.237206  0.740919  0.143487  1
  O  O35  1  0.403589  0.587383  0.601091  1
  O  O36  1  0.296051  0.796554  0.363011  1
  O  O37  1  0.548027  0.672391  0.383541  1
  O  O38  1  0.295893  0.992185  0.781553  1
  O  O39  1  0.309823  0.031949  0.506578  1
  O  O40  1  0.212112  0.173663  0.443311  1
  O  O41  1  0.185719  0.219164  0.072359  1
  O  O42  1  0.371611  0.054824  0.220270  1
  O  O43  1  0.636864  0.952400  0.795143  1
  O  O44  1  0.685155  0.997330  0.234965  1
  O  O45  1  0.677040  0.955214  0.515565  1
  O  O46  1  0.440236  0.317668  0.632861  1
  O  O47  1  0.701865  0.204954  0.653569  1
  O  O48  1  0.761722  0.263198  0.872900  1
  O  O49  1  0.600181  0.410993  0.913989  1
  O  O50  1  0.589007  0.399819  0.413989  1
  O  O51  1  0.736802  0.238278  0.372901  1
  O  O52  1  0.795046  0.298135  0.153569  1
  O  O53  1  0.682332  0.559764  0.132861  1
  O  O54  1  0.945176  0.628389  0.720270  1
  O  O55  1  0.780836  0.814281  0.572359  1
  O  O56  1  0.826337  0.787888  0.943311  1
  O  O57  1  0.968051  0.690177  0.006578  1
