# generated using pymatgen
data_LiCuPO4
_symmetry_space_group_name_H-M   'P 1'
_cell_length_a   4.94276216
_cell_length_b   9.82987850
_cell_length_c   14.00339838
_cell_angle_alpha   90.00000000
_cell_angle_beta   90.00000000
_cell_angle_gamma   90.00000000
_symmetry_Int_Tables_number   1
_chemical_formula_structural   LiCuPO4
_chemical_formula_sum   'Li8 Cu8 P8 O32'
_cell_volume   680.37963707
_cell_formula_units_Z   8
loop_
 _symmetry_equiv_pos_site_id
 _symmetry_equiv_pos_as_xyz
  1  'x, y, z'
loop_
 _atom_site_type_symbol
 _atom_site_label
 _atom_site_symmetry_multiplicity
 _atom_site_fract_x
 _atom_site_fract_y
 _atom_site_fract_z
 _atom_site_occupancy
  Li  Li0  1  0.052531  0.033226  0.248183  1
  Li  Li1  1  0.561387  0.220169  0.996810  1
  Li  Li2  1  0.561387  0.279831  0.496810  1
  Li  Li3  1  0.052531  0.466774  0.748183  1
  Li  Li4  1  0.947469  0.533226  0.248183  1
  Li  Li5  1  0.438613  0.720169  0.996810  1
  Li  Li6  1  0.438613  0.779831  0.496810  1
  Li  Li7  1  0.947469  0.966774  0.748183  1
  Cu  Cu8  1  0.945536  0.025591  0.500093  1
  Cu  Cu9  1  0.544553  0.227383  0.247309  1
  Cu  Cu10  1  0.544553  0.272617  0.747309  1
  Cu  Cu11  1  0.945536  0.474409  0.000093  1
  Cu  Cu12  1  0.054464  0.525591  0.500093  1
  Cu  Cu13  1  0.455447  0.727383  0.247309  1
  Cu  Cu14  1  0.455447  0.772617  0.747309  1
  Cu  Cu15  1  0.054464  0.974409  0.000093  1
  P  P16  1  0.441225  0.032435  0.623483  1
  P  P17  1  0.068692  0.214702  0.872787  1
  P  P18  1  0.068692  0.285298  0.372787  1
  P  P19  1  0.441225  0.467565  0.123483  1
  P  P20  1  0.558775  0.532435  0.623483  1
  P  P21  1  0.931308  0.714702  0.872787  1
  P  P22  1  0.931308  0.785298  0.372787  1
  P  P23  1  0.558775  0.967565  0.123483  1
  O  O24  1  0.871696  0.989587  0.123819  1
  O  O25  1  0.559414  0.966607  0.531848  1
  O  O26  1  0.442030  0.032276  0.215661  1
  O  O27  1  0.018103  0.057857  0.873890  1
  O  O28  1  0.512280  0.186347  0.622254  1
  O  O29  1  0.943497  0.225156  0.465263  1
  O  O30  1  0.942637  0.274116  0.780571  1
  O  O31  1  0.376706  0.246664  0.872429  1
  O  O32  1  0.376706  0.253336  0.372429  1
  O  O33  1  0.942637  0.225884  0.280571  1
  O  O34  1  0.943497  0.274844  0.965263  1
  O  O35  1  0.512280  0.313653  0.122254  1
  O  O36  1  0.018103  0.442143  0.373890  1
  O  O37  1  0.442030  0.467724  0.715661  1
  O  O38  1  0.559414  0.533393  0.031848  1
  O  O39  1  0.871696  0.510413  0.623819  1
  O  O40  1  0.128304  0.489587  0.123819  1
  O  O41  1  0.440586  0.466607  0.531848  1
  O  O42  1  0.557970  0.532276  0.215661  1
  O  O43  1  0.981897  0.557857  0.873890  1
  O  O44  1  0.487720  0.686347  0.622254  1
  O  O45  1  0.056503  0.725156  0.465263  1
  O  O46  1  0.057363  0.774116  0.780571  1
  O  O47  1  0.623294  0.746664  0.872429  1
  O  O48  1  0.623294  0.753336  0.372429  1
  O  O49  1  0.057363  0.725884  0.280571  1
  O  O50  1  0.056503  0.774844  0.965263  1
  O  O51  1  0.487720  0.813653  0.122254  1
  O  O52  1  0.981897  0.942143  0.373890  1
  O  O53  1  0.557970  0.967724  0.715661  1
  O  O54  1  0.440586  0.033393  0.031848  1
  O  O55  1  0.128304  0.010413  0.623819  1
