# generated using pymatgen
data_Li6Ni9(PO4)8
_symmetry_space_group_name_H-M   'P 1'
_cell_length_a   8.68493457
_cell_length_b   8.76445025
_cell_length_c   9.14528778
_cell_angle_alpha   112.10791580
_cell_angle_beta   99.80020215
_cell_angle_gamma   102.06335674
_symmetry_Int_Tables_number   1
_chemical_formula_structural   Li6Ni9(PO4)8
_chemical_formula_sum   'Li6 Ni9 P8 O32'
_cell_volume   606.44312893
_cell_formula_units_Z   1
loop_
 _symmetry_equiv_pos_site_id
 _symmetry_equiv_pos_as_xyz
  1  'x, y, z'
loop_
 _atom_site_type_symbol
 _atom_site_label
 _atom_site_symmetry_multiplicity
 _atom_site_fract_x
 _atom_site_fract_y
 _atom_site_fract_z
 _atom_site_occupancy
  Li  Li0  1  0.361518  0.099312  0.971693  1
  Li  Li1  1  0.980818  0.280721  0.744661  1
  Li  Li2  1  0.678205  0.684623  0.647055  1
  Li  Li3  1  0.321795  0.315377  0.352945  1
  Li  Li4  1  0.019182  0.719279  0.255339  1
  Li  Li5  1  0.638482  0.900688  0.028307  1
  Ni  Ni6  1  0.500000  0.500000  0.000000  1
  Ni  Ni7  1  0.195147  0.729427  0.929103  1
  Ni  Ni8  1  0.298129  0.145424  0.583351  1
  Ni  Ni9  1  0.000000  0.000000  0.000000  1
  Ni  Ni10  1  0.678472  0.293164  0.542370  1
  Ni  Ni11  1  0.000000  0.500000  0.500000  1
  Ni  Ni12  1  0.321528  0.706836  0.457630  1
  Ni  Ni13  1  0.701871  0.854576  0.416649  1
  Ni  Ni14  1  0.804853  0.270573  0.070897  1
  P  P15  1  0.608809  0.042519  0.716292  1
  P  P16  1  0.833200  0.620569  0.909958  1
  P  P17  1  0.339286  0.551845  0.721075  1
  P  P18  1  0.045880  0.880050  0.652544  1
  P  P19  1  0.954120  0.119950  0.347456  1
  P  P20  1  0.660714  0.448155  0.278925  1
  P  P21  1  0.166800  0.379431  0.090042  1
  P  P22  1  0.391191  0.957481  0.283708  1
  O  O23  1  0.700131  0.043681  0.876878  1
  O  O24  1  0.988850  0.323266  0.981139  1
  O  O25  1  0.721677  0.517849  0.976504  1
  O  O26  1  0.114186  0.063233  0.668180  1
  O  O27  1  0.456018  0.100742  0.741187  1
  O  O28  1  0.398067  0.406696  0.748979  1
  O  O29  1  0.417883  0.727130  0.876421  1
  O  O30  1  0.789507  0.788369  0.922902  1
  O  O31  1  0.149516  0.515722  0.704672  1
  O  O32  1  0.729243  0.149392  0.657179  1
  O  O33  1  0.098430  0.879193  0.825980  1
  O  O34  1  0.820299  0.517551  0.725333  1
  O  O35  1  0.142135  0.185608  0.412181  1
  O  O36  1  0.445907  0.147143  0.424754  1
  O  O37  1  0.380280  0.557442  0.566606  1
  O  O38  1  0.116900  0.744217  0.538442  1
  O  O39  1  0.883100  0.255783  0.461558  1
  O  O40  1  0.619720  0.442558  0.433394  1
  O  O41  1  0.554093  0.852857  0.575246  1
  O  O42  1  0.857865  0.814392  0.587819  1
  O  O43  1  0.179701  0.482449  0.274667  1
  O  O44  1  0.901570  0.120807  0.174020  1
  O  O45  1  0.270757  0.850608  0.342821  1
  O  O46  1  0.850484  0.484278  0.295328  1
  O  O47  1  0.210493  0.211631  0.077098  1
  O  O48  1  0.582117  0.272870  0.123579  1
  O  O49  1  0.601933  0.593304  0.251021  1
  O  O50  1  0.543982  0.899258  0.258813  1
  O  O51  1  0.885814  0.936767  0.331820  1
  O  O52  1  0.278323  0.482151  0.023496  1
  O  O53  1  0.011150  0.676734  0.018861  1
  O  O54  1  0.299869  0.956319  0.123122  1
