# generated using pymatgen
data_NaCaB5H8O13
_symmetry_space_group_name_H-M   'P 1'
_cell_length_a   6.55040223
_cell_length_b   13.41008214
_cell_length_c   11.64253655
_cell_angle_alpha   90.00000000
_cell_angle_beta   93.22400878
_cell_angle_gamma   90.00000000
_symmetry_Int_Tables_number   1
_chemical_formula_structural   NaCaB5H8O13
_chemical_formula_sum   'Na4 Ca4 B20 H32 O52'
_cell_volume   1021.07844479
_cell_formula_units_Z   4
loop_
 _symmetry_equiv_pos_site_id
 _symmetry_equiv_pos_as_xyz
  1  'x, y, z'
loop_
 _atom_site_type_symbol
 _atom_site_label
 _atom_site_symmetry_multiplicity
 _atom_site_fract_x
 _atom_site_fract_y
 _atom_site_fract_z
 _atom_site_occupancy
  Na  Na0  1  0.337975  0.482976  0.854865  1
  Na  Na1  1  0.662025  0.982976  0.645135  1
  Na  Na2  1  0.662025  0.517024  0.145135  1
  Na  Na3  1  0.337975  0.017024  0.354865  1
  Ca  Ca4  1  0.210852  0.395791  0.580830  1
  Ca  Ca5  1  0.789148  0.895791  0.919170  1
  Ca  Ca6  1  0.789148  0.604209  0.419170  1
  Ca  Ca7  1  0.210852  0.104209  0.080830  1
  B  B8  1  0.622441  0.541151  0.682525  1
  B  B9  1  0.377559  0.041151  0.817475  1
  B  B10  1  0.377559  0.458849  0.317475  1
  B  B11  1  0.622441  0.958849  0.182525  1
  B  B12  1  0.314392  0.627422  0.577139  1
  B  B13  1  0.685608  0.127422  0.922861  1
  B  B14  1  0.685608  0.372578  0.422861  1
  B  B15  1  0.314392  0.872578  0.077139  1
  B  B16  1  0.839678  0.243934  0.784555  1
  B  B17  1  0.160322  0.743934  0.715445  1
  B  B18  1  0.160322  0.756066  0.215445  1
  B  B19  1  0.839678  0.256066  0.284555  1
  B  B20  1  0.880151  0.432762  0.780633  1
  B  B21  1  0.119849  0.932762  0.719367  1
  B  B22  1  0.119849  0.567238  0.219367  1
  B  B23  1  0.880151  0.067238  0.280633  1
  B  B24  1  0.984487  0.582567  0.659154  1
  B  B25  1  0.015513  0.082567  0.840846  1
  B  B26  1  0.015513  0.417433  0.340846  1
  B  B27  1  0.984487  0.917433  0.159154  1
  H  H28  1  0.229476  0.267177  0.783931  1
  H  H29  1  0.770524  0.767177  0.716069  1
  H  H30  1  0.770524  0.732823  0.216069  1
  H  H31  1  0.229476  0.232823  0.283931  1
  H  H32  1  0.466343  0.288410  0.795678  1
  H  H33  1  0.533657  0.788410  0.704322  1
  H  H34  1  0.533657  0.711590  0.204322  1
  H  H35  1  0.466343  0.211590  0.295678  1
  H  H36  1  0.674879  0.349228  0.594607  1
  H  H37  1  0.325121  0.849228  0.905393  1
  H  H38  1  0.325121  0.650772  0.405393  1
  H  H39  1  0.674879  0.150772  0.094607  1
  H  H40  1  0.089600  0.190964  0.628139  1
  H  H41  1  0.910400  0.690964  0.871861  1
  H  H42  1  0.910400  0.809036  0.371861  1
  H  H43  1  0.089600  0.309036  0.128139  1
  H  H44  1  0.079052  0.181265  0.492371  1
  H  H45  1  0.920948  0.681265  0.007629  1
  H  H46  1  0.920948  0.818735  0.507629  1
  H  H47  1  0.079052  0.318735  0.992371  1
  H  H48  1  0.890534  0.461444  0.953512  1
  H  H49  1  0.109466  0.961444  0.546488  1
  H  H50  1  0.109466  0.538556  0.046488  1
  H  H51  1  0.890534  0.038556  0.453512  1
  H  H52  1  0.422411  0.348976  0.051213  1
  H  H53  1  0.577589  0.848976  0.448787  1
  H  H54  1  0.577589  0.651024  0.948787  1
  H  H55  1  0.422411  0.151024  0.551213  1
  H  H56  1  0.621649  0.327791  0.987771  1
  H  H57  1  0.378351  0.827791  0.512229  1
  H  H58  1  0.378351  0.672209  0.012229  1
  H  H59  1  0.621649  0.172209  0.487771  1
  O  O60  1  0.103383  0.592127  0.556164  1
  O  O61  1  0.896617  0.092127  0.943836  1
  O  O62  1  0.896617  0.407873  0.443836  1
  O  O63  1  0.103383  0.907873  0.056164  1
  O  O64  1  0.860782  0.332375  0.725683  1
  O  O65  1  0.139218  0.832375  0.774317  1
  O  O66  1  0.139218  0.667625  0.274317  1
  O  O67  1  0.860782  0.167625  0.225683  1
  O  O68  1  0.417217  0.552272  0.656100  1
  O  O69  1  0.582783  0.052272  0.843900  1
  O  O70  1  0.582783  0.447728  0.343900  1
  O  O71  1  0.417217  0.947728  0.156100  1
  O  O72  1  0.311195  0.727952  0.639331  1
  O  O73  1  0.688805  0.227952  0.860669  1
  O  O74  1  0.688805  0.272048  0.360669  1
  O  O75  1  0.311195  0.772048  0.139331  1
  O  O76  1  0.764863  0.588178  0.619026  1
  O  O77  1  0.235137  0.088178  0.880974  1
  O  O78  1  0.235137  0.411822  0.380974  1
  O  O79  1  0.764863  0.911822  0.119026  1
  O  O80  1  0.679171  0.482686  0.776418  1
  O  O81  1  0.320829  0.982686  0.723582  1
  O  O82  1  0.320829  0.517314  0.223582  1
  O  O83  1  0.679171  0.017314  0.276418  1
  O  O84  1  0.332791  0.317658  0.767633  1
  O  O85  1  0.667209  0.817658  0.732367  1
  O  O86  1  0.667209  0.682342  0.232367  1
  O  O87  1  0.332791  0.182342  0.267633  1
  O  O88  1  0.576931  0.362581  0.528605  1
  O  O89  1  0.423069  0.862581  0.971395  1
  O  O90  1  0.423069  0.637419  0.471395  1
  O  O91  1  0.576931  0.137419  0.028605  1
  O  O92  1  0.029552  0.488525  0.717622  1
  O  O93  1  0.970448  0.988525  0.782378  1
  O  O94  1  0.970448  0.511475  0.282378  1
  O  O95  1  0.029552  0.011475  0.217622  1
  O  O96  1  0.157540  0.213211  0.557975  1
  O  O97  1  0.842460  0.713211  0.942025  1
  O  O98  1  0.842460  0.786789  0.442025  1
  O  O99  1  0.157540  0.286789  0.057975  1
  O  O100  1  0.036667  0.581404  0.097245  1
  O  O101  1  0.963333  0.081404  0.402755  1
  O  O102  1  0.963333  0.418596  0.902755  1
  O  O103  1  0.036667  0.918596  0.597245  1
  O  O104  1  0.979652  0.329598  0.261920  1
  O  O105  1  0.020348  0.829598  0.238080  1
  O  O106  1  0.020348  0.670402  0.738080  1
  O  O107  1  0.979652  0.170402  0.761920  1
  O  O108  1  0.548620  0.381174  0.026788  1
  O  O109  1  0.451380  0.881174  0.473212  1
  O  O110  1  0.451380  0.618826  0.973212  1
  O  O111  1  0.548620  0.118826  0.526788  1
