# generated using pymatgen
data_Na3Mn2P2(CO7)2
_symmetry_space_group_name_H-M   'P 1'
_cell_length_a   8.97367748
_cell_length_b   6.58601474
_cell_length_c   10.38944181
_cell_angle_alpha   90.00000000
_cell_angle_beta   91.50744535
_cell_angle_gamma   90.00000000
_symmetry_Int_Tables_number   1
_chemical_formula_structural   Na3Mn2P2(CO7)2
_chemical_formula_sum   'Na6 Mn4 P4 C4 O28'
_cell_volume   613.81152878
_cell_formula_units_Z   2
loop_
 _symmetry_equiv_pos_site_id
 _symmetry_equiv_pos_as_xyz
  1  'x, y, z'
loop_
 _atom_site_type_symbol
 _atom_site_label
 _atom_site_symmetry_multiplicity
 _atom_site_fract_x
 _atom_site_fract_y
 _atom_site_fract_z
 _atom_site_occupancy
  Na  Na0  1  0.243655  0.724298  0.376848  1
  Na  Na1  1  0.243655  0.275702  0.876848  1
  Na  Na2  1  0.760814  0.759163  0.123401  1
  Na  Na3  1  0.760017  0.240440  0.120841  1
  Na  Na4  1  0.760017  0.759560  0.620841  1
  Na  Na5  1  0.760814  0.240837  0.623401  1
  Mn  Mn6  1  0.344005  0.997401  0.106156  1
  Mn  Mn7  1  0.344005  0.002599  0.606156  1
  Mn  Mn8  1  0.649798  0.497295  0.391065  1
  Mn  Mn9  1  0.649798  0.502705  0.891065  1
  P  P10  1  0.424003  0.499682  0.143731  1
  P  P11  1  0.424003  0.500318  0.643731  1
  P  P12  1  0.571907  0.997561  0.357283  1
  P  P13  1  0.571907  0.002439  0.857283  1
  C  C14  1  0.075796  0.001782  0.134618  1
  C  C15  1  0.075796  0.998218  0.634618  1
  C  C16  1  0.922744  0.497104  0.365728  1
  C  C17  1  0.922744  0.502896  0.865728  1
  O  O18  1  0.058422  0.498844  0.354725  1
  O  O19  1  0.058422  0.501156  0.854725  1
  O  O20  1  0.139819  0.011108  0.022786  1
  O  O21  1  0.139819  0.988892  0.522786  1
  O  O22  1  0.174305  0.992457  0.230157  1
  O  O23  1  0.174305  0.007543  0.730157  1
  O  O24  1  0.330825  0.312126  0.104669  1
  O  O25  1  0.327613  0.687780  0.114047  1
  O  O26  1  0.327613  0.312220  0.614047  1
  O  O27  1  0.330825  0.687874  0.604669  1
  O  O28  1  0.464880  0.499568  0.291344  1
  O  O29  1  0.424550  0.990944  0.429516  1
  O  O30  1  0.464880  0.500432  0.791344  1
  O  O31  1  0.424550  0.009056  0.929516  1
  O  O32  1  0.575093  0.502643  0.072188  1
  O  O33  1  0.537234  0.998675  0.208080  1
  O  O34  1  0.575093  0.497357  0.572188  1
  O  O35  1  0.537234  0.001325  0.708080  1
  O  O36  1  0.671988  0.811693  0.390785  1
  O  O37  1  0.668692  0.184522  0.393465  1
  O  O38  1  0.668692  0.815478  0.893465  1
  O  O39  1  0.671988  0.188307  0.890785  1
  O  O40  1  0.824036  0.495853  0.267830  1
  O  O41  1  0.824036  0.504147  0.767830  1
  O  O42  1  0.852696  0.497240  0.476728  1
  O  O43  1  0.852696  0.502760  0.976728  1
  O  O44  1  0.937967  0.000718  0.148302  1
  O  O45  1  0.937967  0.999282  0.648302  1
