# generated using pymatgen
data_Li2V3(OF)4
_symmetry_space_group_name_H-M   'P 1'
_cell_length_a   5.05844627
_cell_length_b   3.01739088
_cell_length_c   9.75163097
_cell_angle_alpha   90.00000000
_cell_angle_beta   91.21974454
_cell_angle_gamma   90.00000000
_symmetry_Int_Tables_number   1
_chemical_formula_structural   Li2V3(OF)4
_chemical_formula_sum   'Li2 V3 O4 F4'
_cell_volume   148.80843638
_cell_formula_units_Z   1
loop_
 _symmetry_equiv_pos_site_id
 _symmetry_equiv_pos_as_xyz
  1  'x, y, z'
loop_
 _atom_site_type_symbol
 _atom_site_label
 _atom_site_symmetry_multiplicity
 _atom_site_fract_x
 _atom_site_fract_y
 _atom_site_fract_z
 _atom_site_occupancy
  Li  Li0  1  0.936057  0.000000  0.455109  1
  Li  Li1  1  0.030328  0.500000  0.862012  1
  V  V2  1  0.974533  0.000000  0.141603  1
  V  V3  1  0.538404  0.000000  0.633873  1
  V  V4  1  0.468754  0.500000  0.354924  1
  O  O5  1  0.713065  0.500000  0.525608  1
  O  O6  1  0.681901  0.000000  0.281199  1
  O  O7  1  0.308142  0.000000  0.461108  1
  O  O8  1  0.170433  0.500000  0.231619  1
  F  F9  1  0.822806  0.000000  0.768059  1
  F  F10  1  0.780367  0.500000  0.043544  1
  F  F11  1  0.331488  0.500000  0.722037  1
  F  F12  1  0.180803  0.000000  0.977433  1
