# generated using pymatgen
data_ZnTe2O5
_symmetry_space_group_name_H-M   'P 1'
_cell_length_a   8.81033479
_cell_length_b   8.81033479
_cell_length_c   12.93115464
_cell_angle_alpha   90.00000000
_cell_angle_beta   90.00000000
_cell_angle_gamma   90.00000000
_symmetry_Int_Tables_number   1
_chemical_formula_structural   ZnTe2O5
_chemical_formula_sum   'Zn8 Te16 O40'
_cell_volume   1003.74207398
_cell_formula_units_Z   8
loop_
 _symmetry_equiv_pos_site_id
 _symmetry_equiv_pos_as_xyz
  1  'x, y, z'
loop_
 _atom_site_type_symbol
 _atom_site_label
 _atom_site_symmetry_multiplicity
 _atom_site_fract_x
 _atom_site_fract_y
 _atom_site_fract_z
 _atom_site_occupancy
  Zn  Zn0  1  0.500000  0.000000  0.000000  1
  Zn  Zn1  1  0.500000  0.000000  0.750000  1
  Zn  Zn2  1  0.500000  0.000000  0.250000  1
  Zn  Zn3  1  0.500000  0.000000  0.500000  1
  Zn  Zn4  1  0.000000  0.500000  0.750000  1
  Zn  Zn5  1  0.000000  0.500000  0.000000  1
  Zn  Zn6  1  0.000000  0.500000  0.250000  1
  Zn  Zn7  1  0.000000  0.500000  0.500000  1
  Te  Te8  1  0.286661  0.318669  0.133886  1
  Te  Te9  1  0.286661  0.681331  0.366114  1
  Te  Te10  1  0.318669  0.713339  0.866114  1
  Te  Te11  1  0.318669  0.286661  0.633886  1
  Te  Te12  1  0.681331  0.286661  0.866114  1
  Te  Te13  1  0.681331  0.713339  0.633886  1
  Te  Te14  1  0.713339  0.318669  0.366114  1
  Te  Te15  1  0.713339  0.681331  0.133886  1
  Te  Te16  1  0.786661  0.818669  0.366114  1
  Te  Te17  1  0.786661  0.181331  0.133886  1
  Te  Te18  1  0.818669  0.786661  0.866114  1
  Te  Te19  1  0.818669  0.213339  0.633886  1
  Te  Te20  1  0.181331  0.786661  0.633886  1
  Te  Te21  1  0.181331  0.213339  0.866114  1
  Te  Te22  1  0.213339  0.818669  0.133886  1
  Te  Te23  1  0.213339  0.181331  0.366114  1
  O  O24  1  0.269165  0.875163  0.298085  1
  O  O25  1  0.269165  0.124837  0.201915  1
  O  O26  1  0.301312  0.198688  0.000000  1
  O  O27  1  0.301312  0.801312  0.500000  1
  O  O28  1  0.358686  0.926055  0.883175  1
  O  O29  1  0.358686  0.073945  0.616825  1
  O  O30  1  0.375163  0.230835  0.798085  1
  O  O31  1  0.375163  0.769165  0.701915  1
  O  O32  1  0.426055  0.858686  0.116825  1
  O  O33  1  0.426055  0.141314  0.383175  1
  O  O34  1  0.573945  0.858686  0.383175  1
  O  O35  1  0.573945  0.141314  0.116825  1
  O  O36  1  0.624837  0.769165  0.798085  1
  O  O37  1  0.624837  0.230835  0.701915  1
  O  O38  1  0.641314  0.073945  0.883175  1
  O  O39  1  0.641314  0.926055  0.616825  1
  O  O40  1  0.698688  0.801312  0.000000  1
  O  O41  1  0.698688  0.198688  0.500000  1
  O  O42  1  0.730835  0.875163  0.201915  1
  O  O43  1  0.730835  0.124837  0.298085  1
  O  O44  1  0.769165  0.375163  0.201915  1
  O  O45  1  0.769165  0.624837  0.298085  1
  O  O46  1  0.801312  0.301312  0.000000  1
  O  O47  1  0.801312  0.698688  0.500000  1
  O  O48  1  0.858686  0.426055  0.616825  1
  O  O49  1  0.858686  0.573945  0.883175  1
  O  O50  1  0.875163  0.269165  0.798085  1
  O  O51  1  0.875163  0.730835  0.701915  1
  O  O52  1  0.926055  0.358686  0.383175  1
  O  O53  1  0.926055  0.641314  0.116825  1
  O  O54  1  0.073945  0.358686  0.116825  1
  O  O55  1  0.073945  0.641314  0.383175  1
  O  O56  1  0.124837  0.269165  0.701915  1
  O  O57  1  0.124837  0.730835  0.798085  1
  O  O58  1  0.141314  0.426055  0.883175  1
  O  O59  1  0.141314  0.573945  0.616825  1
  O  O60  1  0.198688  0.301312  0.500000  1
  O  O61  1  0.198688  0.698688  0.000000  1
  O  O62  1  0.230835  0.375163  0.298085  1
  O  O63  1  0.230835  0.624837  0.201915  1
