# generated using pymatgen
data_Na3Ni2P2(CO7)2
_symmetry_space_group_name_H-M   'P 1'
_cell_length_a   10.22929662
_cell_length_b   6.50215576
_cell_length_c   10.30303702
_cell_angle_alpha   90.00000000
_cell_angle_beta   118.47628102
_cell_angle_gamma   90.00000000
_symmetry_Int_Tables_number   1
_chemical_formula_structural   Na3Ni2P2(CO7)2
_chemical_formula_sum   'Na6 Ni4 P4 C4 O28'
_cell_volume   602.37158157
_cell_formula_units_Z   2
loop_
 _symmetry_equiv_pos_site_id
 _symmetry_equiv_pos_as_xyz
  1  'x, y, z'
loop_
 _atom_site_type_symbol
 _atom_site_label
 _atom_site_symmetry_multiplicity
 _atom_site_fract_x
 _atom_site_fract_y
 _atom_site_fract_z
 _atom_site_occupancy
  Na  Na0  1  0.751493  0.462658  0.757434  1
  Na  Na1  1  0.245505  0.987758  0.742211  1
  Na  Na2  1  0.248317  0.515300  0.748311  1
  Na  Na3  1  0.751683  0.015300  0.251689  1
  Na  Na4  1  0.754495  0.487758  0.257789  1
  Na  Na5  1  0.248507  0.962658  0.242566  1
  Ni  Ni6  1  0.654869  0.756044  0.932127  1
  Ni  Ni7  1  0.351048  0.255081  0.564935  1
  Ni  Ni8  1  0.648952  0.755081  0.435065  1
  Ni  Ni9  1  0.345131  0.256044  0.067873  1
  P  P10  1  0.574835  0.252214  0.932258  1
  P  P11  1  0.430518  0.753382  0.576308  1
  P  P12  1  0.569482  0.253382  0.423692  1
  P  P13  1  0.425165  0.752214  0.067742  1
  C  C14  1  0.078223  0.244946  0.895589  1
  C  C15  1  0.081448  0.250195  0.399208  1
  C  C16  1  0.918552  0.750195  0.600792  1
  C  C17  1  0.921777  0.744946  0.104411  1
  O  O18  1  0.867212  0.742828  0.962294  1
  O  O19  1  0.675260  0.064420  0.953498  1
  O  O20  1  0.672701  0.439026  0.941544  1
  O  O21  1  0.580687  0.745592  0.719295  1
  O  O22  1  0.537157  0.259847  0.556790  1
  O  O23  1  0.460809  0.759573  0.935422  1
  O  O24  1  0.426316  0.249631  0.786193  1
  O  O25  1  0.332704  0.940696  0.567317  1
  O  O26  1  0.331718  0.566908  0.567099  1
  O  O27  1  0.181261  0.248041  0.853601  1
  O  O28  1  0.179892  0.244483  0.353614  1
  O  O29  1  0.141757  0.255611  0.543327  1
  O  O30  1  0.056986  0.750144  0.684877  1
  O  O31  1  0.057650  0.745776  0.194764  1
  O  O32  1  0.942350  0.245776  0.805236  1
  O  O33  1  0.943014  0.250144  0.315123  1
  O  O34  1  0.858243  0.755611  0.456673  1
  O  O35  1  0.820108  0.744483  0.646386  1
  O  O36  1  0.818739  0.748041  0.146399  1
  O  O37  1  0.668282  0.066908  0.432901  1
  O  O38  1  0.667296  0.440696  0.432683  1
  O  O39  1  0.573684  0.749631  0.213807  1
  O  O40  1  0.539191  0.259573  0.064578  1
  O  O41  1  0.462843  0.759847  0.443210  1
  O  O42  1  0.419313  0.245592  0.280705  1
  O  O43  1  0.324740  0.564420  0.046502  1
  O  O44  1  0.327299  0.939026  0.058456  1
  O  O45  1  0.132788  0.242828  0.037706  1
