# generated using pymatgen
data_LiFePO4
_symmetry_space_group_name_H-M   'P 1'
_cell_length_a   7.65516100
_cell_length_b   7.65516100
_cell_length_c   9.85071934
_cell_angle_alpha   90.00000000
_cell_angle_beta   90.00000000
_cell_angle_gamma   120.00000000
_symmetry_Int_Tables_number   1
_chemical_formula_structural   LiFePO4
_chemical_formula_sum   'Li6 Fe6 P6 O24'
_cell_volume   499.92773950
_cell_formula_units_Z   6
loop_
 _symmetry_equiv_pos_site_id
 _symmetry_equiv_pos_as_xyz
  1  'x, y, z'
loop_
 _atom_site_type_symbol
 _atom_site_label
 _atom_site_symmetry_multiplicity
 _atom_site_fract_x
 _atom_site_fract_y
 _atom_site_fract_z
 _atom_site_occupancy
  Li  Li0  1  0.046392  0.593256  0.483605  1
  Li  Li1  1  0.546864  0.953608  0.483605  1
  Li  Li2  1  0.406744  0.453136  0.483605  1
  Li  Li3  1  0.453136  0.406744  0.983605  1
  Li  Li4  1  0.593256  0.046392  0.983605  1
  Li  Li5  1  0.953608  0.546864  0.983605  1
  Fe  Fe6  1  0.228006  0.944656  0.260006  1
  Fe  Fe7  1  0.055344  0.283351  0.260006  1
  Fe  Fe8  1  0.283351  0.055344  0.760006  1
  Fe  Fe9  1  0.716649  0.771994  0.260006  1
  Fe  Fe10  1  0.771994  0.716649  0.760006  1
  Fe  Fe11  1  0.944656  0.228006  0.760006  1
  P  P12  1  0.333333  0.666667  0.170428  1
  P  P13  1  0.000000  0.000000  0.995537  1
  P  P14  1  0.000000  0.000000  0.495537  1
  P  P15  1  0.333333  0.666667  0.764389  1
  P  P16  1  0.666667  0.333333  0.670428  1
  P  P17  1  0.666667  0.333333  0.264389  1
  O  O18  1  0.087655  0.868204  0.444537  1
  O  O19  1  0.187149  0.738457  0.117971  1
  O  O20  1  0.384444  0.877346  0.822303  1
  O  O21  1  0.122654  0.507098  0.822303  1
  O  O22  1  0.261543  0.448691  0.117971  1
  O  O23  1  0.333333  0.666667  0.327607  1
  O  O24  1  0.000000  0.000000  0.158165  1
  O  O25  1  0.000000  0.000000  0.658165  1
  O  O26  1  0.333333  0.666667  0.608171  1
  O  O27  1  0.131796  0.219451  0.444537  1
  O  O28  1  0.551309  0.812851  0.117971  1
  O  O29  1  0.219451  0.131796  0.944537  1
  O  O30  1  0.492902  0.615556  0.822303  1
  O  O31  1  0.780549  0.912345  0.444537  1
  O  O32  1  0.448691  0.261543  0.617971  1
  O  O33  1  0.507098  0.122654  0.322303  1
  O  O34  1  0.615556  0.492902  0.322303  1
  O  O35  1  0.812851  0.551309  0.617971  1
  O  O36  1  0.666667  0.333333  0.827607  1
  O  O37  1  0.666667  0.333333  0.108171  1
  O  O38  1  0.912345  0.780549  0.944537  1
  O  O39  1  0.738457  0.187149  0.617971  1
  O  O40  1  0.877346  0.384444  0.322303  1
  O  O41  1  0.868204  0.087655  0.944537  1
