# generated using pymatgen
data_Li3Mn3(PO4)4
_symmetry_space_group_name_H-M   'P 1'
_cell_length_a   6.14236213
_cell_length_b   11.57499888
_cell_length_c   8.41096294
_cell_angle_alpha   90.00000000
_cell_angle_beta   100.12467796
_cell_angle_gamma   90.00000000
_symmetry_Int_Tables_number   1
_chemical_formula_structural   Li3Mn3(PO4)4
_chemical_formula_sum   'Li6 Mn6 P8 O32'
_cell_volume   588.68891192
_cell_formula_units_Z   2
loop_
 _symmetry_equiv_pos_site_id
 _symmetry_equiv_pos_as_xyz
  1  'x, y, z'
loop_
 _atom_site_type_symbol
 _atom_site_label
 _atom_site_symmetry_multiplicity
 _atom_site_fract_x
 _atom_site_fract_y
 _atom_site_fract_z
 _atom_site_occupancy
  Li  Li0  1  0.135893  0.197428  0.647647  1
  Li  Li1  1  0.870880  0.397479  0.056409  1
  Li  Li2  1  0.864107  0.697428  0.352353  1
  Li  Li3  1  0.129120  0.897479  0.943591  1
  Li  Li4  1  0.369251  0.105198  0.047801  1
  Li  Li5  1  0.630749  0.605198  0.952199  1
  Mn  Mn6  1  0.364458  0.810311  0.341718  1
  Mn  Mn7  1  0.412978  0.411928  0.278243  1
  Mn  Mn8  1  0.587022  0.911928  0.721757  1
  Mn  Mn9  1  0.923641  0.084285  0.280765  1
  Mn  Mn10  1  0.635542  0.310311  0.658282  1
  Mn  Mn11  1  0.076359  0.584285  0.719235  1
  P  P12  1  0.625930  0.871118  0.088587  1
  P  P13  1  0.135558  0.629172  0.083072  1
  P  P14  1  0.448491  0.084602  0.398226  1
  P  P15  1  0.551509  0.584602  0.601774  1
  P  P16  1  0.864442  0.129172  0.916928  1
  P  P17  1  0.374070  0.371118  0.911413  1
  P  P18  1  0.067225  0.916309  0.594122  1
  P  P19  1  0.932775  0.416309  0.405878  1
  O  O20  1  0.624283  0.115626  0.296364  1
  O  O21  1  0.132831  0.735340  0.199450  1
  O  O22  1  0.392703  0.275286  0.780307  1
  O  O23  1  0.992563  0.536792  0.485338  1
  O  O24  1  0.080767  0.067107  0.912499  1
  O  O25  1  0.503957  0.458404  0.523305  1
  O  O26  1  0.767842  0.579886  0.728008  1
  O  O27  1  0.867169  0.235340  0.800550  1
  O  O28  1  0.842939  0.936276  0.146539  1
  O  O29  1  0.561915  0.676718  0.474869  1
  O  O30  1  0.724154  0.422786  0.271110  1
  O  O31  1  0.654352  0.058611  0.857262  1
  O  O32  1  0.275846  0.922786  0.728890  1
  O  O33  1  0.007437  0.036792  0.514662  1
  O  O34  1  0.607297  0.775286  0.219693  1
  O  O35  1  0.157061  0.436276  0.853461  1
  O  O36  1  0.106345  0.823619  0.468319  1
  O  O37  1  0.860714  0.183663  0.087246  1
  O  O38  1  0.496043  0.958404  0.476695  1
  O  O39  1  0.638104  0.811087  0.922525  1
  O  O40  1  0.345648  0.558611  0.142738  1
  O  O41  1  0.919233  0.567107  0.087501  1
  O  O42  1  0.893655  0.323619  0.531681  1
  O  O43  1  0.361896  0.311087  0.077475  1
  O  O44  1  0.882417  0.873303  0.683588  1
  O  O45  1  0.139286  0.683663  0.912754  1
  O  O46  1  0.410393  0.937665  0.082209  1
  O  O47  1  0.117583  0.373303  0.316412  1
  O  O48  1  0.438085  0.176718  0.525131  1
  O  O49  1  0.375717  0.615626  0.703636  1
  O  O50  1  0.589607  0.437665  0.917791  1
  O  O51  1  0.232158  0.079886  0.271992  1
