# generated using pymatgen
data_Ba2CaI6
_symmetry_space_group_name_H-M   'P 1'
_cell_length_a   7.69766014
_cell_length_b   8.53641301
_cell_length_c   28.20774486
_cell_angle_alpha   90.00000000
_cell_angle_beta   90.00000000
_cell_angle_gamma   90.00000000
_symmetry_Int_Tables_number   1
_chemical_formula_structural   Ba2CaI6
_chemical_formula_sum   'Ba8 Ca4 I24'
_cell_volume   1853.54237177
_cell_formula_units_Z   4
loop_
 _symmetry_equiv_pos_site_id
 _symmetry_equiv_pos_as_xyz
  1  'x, y, z'
loop_
 _atom_site_type_symbol
 _atom_site_label
 _atom_site_symmetry_multiplicity
 _atom_site_fract_x
 _atom_site_fract_y
 _atom_site_fract_z
 _atom_site_occupancy
  Ba  Ba0  1  0.000000  0.750000  0.049072  1
  Ba  Ba1  1  0.000000  0.250000  0.284041  1
  Ba  Ba2  1  0.000000  0.750000  0.715959  1
  Ba  Ba3  1  0.000000  0.250000  0.950928  1
  Ba  Ba4  1  0.500000  0.750000  0.215959  1
  Ba  Ba5  1  0.500000  0.750000  0.549072  1
  Ba  Ba6  1  0.500000  0.250000  0.784041  1
  Ba  Ba7  1  0.500000  0.250000  0.450928  1
  Ca  Ca8  1  0.000000  0.750000  0.382115  1
  Ca  Ca9  1  0.000000  0.250000  0.617885  1
  Ca  Ca10  1  0.500000  0.750000  0.882115  1
  Ca  Ca11  1  0.500000  0.250000  0.117885  1
  I  I12  1  0.748418  0.410612  0.041539  1
  I  I13  1  0.748418  0.910612  0.958461  1
  I  I14  1  0.730761  0.409093  0.198302  1
  I  I15  1  0.730761  0.909093  0.801698  1
  I  I16  1  0.770408  0.446139  0.372388  1
  I  I17  1  0.770408  0.946139  0.627612  1
  I  I18  1  0.729592  0.446139  0.872388  1
  I  I19  1  0.729592  0.946139  0.127612  1
  I  I20  1  0.769239  0.909093  0.301698  1
  I  I21  1  0.769239  0.409093  0.698302  1
  I  I22  1  0.751582  0.910612  0.458461  1
  I  I23  1  0.751582  0.410612  0.541539  1
  I  I24  1  0.248418  0.589388  0.458461  1
  I  I25  1  0.248418  0.089388  0.541539  1
  I  I26  1  0.230761  0.590907  0.301698  1
  I  I27  1  0.230761  0.090907  0.698302  1
  I  I28  1  0.270408  0.553861  0.127612  1
  I  I29  1  0.270408  0.053861  0.872388  1
  I  I30  1  0.229592  0.553861  0.627612  1
  I  I31  1  0.229592  0.053861  0.372388  1
  I  I32  1  0.269239  0.090907  0.198302  1
  I  I33  1  0.269239  0.590907  0.801698  1
  I  I34  1  0.251582  0.089388  0.041539  1
  I  I35  1  0.251582  0.589388  0.958461  1
