# generated using pymatgen
data_Na6Fe2B4SO16
_symmetry_space_group_name_H-M   'P 1'
_cell_length_a   10.00670913
_cell_length_b   10.00670913
_cell_length_c   10.00670913
_cell_angle_alpha   60.00000000
_cell_angle_beta   60.00000000
_cell_angle_gamma   60.00000000
_symmetry_Int_Tables_number   1
_chemical_formula_structural   Na6Fe2B4SO16
_chemical_formula_sum   'Na12 Fe4 B8 S2 O32'
_cell_volume   708.53095807
_cell_formula_units_Z   2
loop_
 _symmetry_equiv_pos_site_id
 _symmetry_equiv_pos_as_xyz
  1  'x, y, z'
loop_
 _atom_site_type_symbol
 _atom_site_label
 _atom_site_symmetry_multiplicity
 _atom_site_fract_x
 _atom_site_fract_y
 _atom_site_fract_z
 _atom_site_occupancy
  Na  Na0  1  0.467997  0.467997  0.032003  1
  Na  Na1  1  0.032003  0.467997  0.032003  1
  Na  Na2  1  0.467997  0.032003  0.032003  1
  Na  Na3  1  0.032003  0.467997  0.467997  1
  Na  Na4  1  0.217997  0.217997  0.782003  1
  Na  Na5  1  0.782003  0.217997  0.782003  1
  Na  Na6  1  0.467997  0.032003  0.467997  1
  Na  Na7  1  0.032003  0.032003  0.467997  1
  Na  Na8  1  0.217997  0.782003  0.782003  1
  Na  Na9  1  0.782003  0.217997  0.217997  1
  Na  Na10  1  0.782003  0.782003  0.217997  1
  Na  Na11  1  0.217997  0.782003  0.217997  1
  Fe  Fe12  1  0.625000  0.625000  0.125000  1
  Fe  Fe13  1  0.125000  0.625000  0.625000  1
  Fe  Fe14  1  0.625000  0.625000  0.625000  1
  Fe  Fe15  1  0.625000  0.125000  0.625000  1
  B  B16  1  0.837626  0.487122  0.837626  1
  B  B17  1  0.837626  0.837626  0.837626  1
  B  B18  1  0.487122  0.837626  0.837626  1
  B  B19  1  0.837626  0.837626  0.487122  1
  B  B20  1  0.412374  0.412374  0.762878  1
  B  B21  1  0.762878  0.412374  0.412374  1
  B  B22  1  0.412374  0.412374  0.412374  1
  B  B23  1  0.412374  0.762878  0.412374  1
  S  S24  1  1.000000  1.000000  1.000000  1
  S  S25  1  0.250000  0.250000  0.250000  1
  O  O26  1  0.061052  0.816844  0.061052  1
  O  O27  1  0.816844  0.061052  0.061052  1
  O  O28  1  0.061052  0.061052  0.061052  1
  O  O29  1  0.061052  0.061052  0.816844  1
  O  O30  1  0.718695  0.482458  0.989125  1
  O  O31  1  0.989125  0.482458  0.809722  1
  O  O32  1  0.809722  0.718695  0.989125  1
  O  O33  1  0.809722  0.482458  0.718695  1
  O  O34  1  0.482458  0.809722  0.989125  1
  O  O35  1  0.482458  0.718695  0.809722  1
  O  O36  1  0.989125  0.809722  0.718695  1
  O  O37  1  0.718695  0.989125  0.809722  1
  O  O38  1  0.989125  0.718695  0.482458  1
  O  O39  1  0.482458  0.989125  0.718695  1
  O  O40  1  0.718695  0.809722  0.482458  1
  O  O41  1  0.440278  0.260875  0.767542  1
  O  O42  1  0.809722  0.989125  0.482458  1
  O  O43  1  0.531305  0.440278  0.767542  1
  O  O44  1  0.767542  0.260875  0.531305  1
  O  O45  1  0.260875  0.531305  0.767542  1
  O  O46  1  0.531305  0.260875  0.440278  1
  O  O47  1  0.260875  0.440278  0.531305  1
  O  O48  1  0.767542  0.531305  0.440278  1
  O  O49  1  0.767542  0.440278  0.260875  1
  O  O50  1  0.440278  0.767542  0.531305  1
  O  O51  1  0.440278  0.531305  0.260875  1
  O  O52  1  0.260875  0.767542  0.440278  1
  O  O53  1  0.531305  0.767542  0.260875  1
  O  O54  1  0.188948  0.188948  0.433156  1
  O  O55  1  0.188948  0.188948  0.188948  1
  O  O56  1  0.433156  0.188948  0.188948  1
  O  O57  1  0.188948  0.433156  0.188948  1
