# generated using pymatgen
data_V2GaO5
_symmetry_space_group_name_H-M   'P 1'
_cell_length_a   6.12841663
_cell_length_b   9.14512882
_cell_length_c   9.95704628
_cell_angle_alpha   95.13727759
_cell_angle_beta   107.88233352
_cell_angle_gamma   99.55178811
_symmetry_Int_Tables_number   1
_chemical_formula_structural   V2GaO5
_chemical_formula_sum   'V12 Ga6 O30'
_cell_volume   517.81983225
_cell_formula_units_Z   6
loop_
 _symmetry_equiv_pos_site_id
 _symmetry_equiv_pos_as_xyz
  1  'x, y, z'
loop_
 _atom_site_type_symbol
 _atom_site_label
 _atom_site_symmetry_multiplicity
 _atom_site_fract_x
 _atom_site_fract_y
 _atom_site_fract_z
 _atom_site_occupancy
  V  V0  1  0.930175  0.025711  0.346921  1
  V  V1  1  0.430878  0.031235  0.346777  1
  V  V2  1  0.000000  0.000000  0.000000  1
  V  V3  1  0.500000  0.000000  0.000000  1
  V  V4  1  0.793631  0.380738  0.386508  1
  V  V5  1  0.865385  0.354671  0.051672  1
  V  V6  1  0.363535  0.354741  0.051442  1
  V  V7  1  0.134615  0.645328  0.948328  1
  V  V8  1  0.636465  0.645259  0.948558  1
  V  V9  1  0.206369  0.619262  0.613492  1
  V  V10  1  0.069825  0.974289  0.653079  1
  V  V11  1  0.569122  0.968765  0.653223  1
  Ga  Ga12  1  0.937475  0.311505  0.721745  1
  Ga  Ga13  1  0.439974  0.312011  0.722084  1
  Ga  Ga14  1  0.288266  0.377808  0.387649  1
  Ga  Ga15  1  0.711734  0.622192  0.612351  1
  Ga  Ga16  1  0.560026  0.687989  0.277916  1
  Ga  Ga17  1  0.062525  0.688495  0.278255  1
  O  O18  1  0.739004  0.000340  0.499482  1
  O  O19  1  0.260996  0.999660  0.500518  1
  O  O20  1  0.605996  0.021962  0.213214  1
  O  O21  1  0.117906  0.022605  0.213171  1
  O  O22  1  0.149078  0.202813  0.696448  1
  O  O23  1  0.648134  0.200296  0.696062  1
  O  O24  1  0.293479  0.155045  0.009464  1
  O  O25  1  0.793981  0.155168  0.010359  1
  O  O26  1  0.500087  0.237067  0.388583  1
  O  O27  1  0.009421  0.246607  0.391583  1
  O  O28  1  0.058835  0.401043  0.918024  1
  O  O29  1  0.559651  0.401230  0.918087  1
  O  O30  1  0.184379  0.374280  0.179980  1
  O  O31  1  0.682333  0.376359  0.179014  1
  O  O32  1  0.910692  0.457754  0.601997  1
  O  O33  1  0.419594  0.458680  0.601219  1
  O  O34  1  0.580406  0.541320  0.398781  1
  O  O35  1  0.089308  0.542246  0.398003  1
  O  O36  1  0.317667  0.623641  0.820986  1
  O  O37  1  0.815621  0.625720  0.820020  1
  O  O38  1  0.941165  0.598957  0.081976  1
  O  O39  1  0.440349  0.598770  0.081913  1
  O  O40  1  0.499913  0.762933  0.611417  1
  O  O41  1  0.990579  0.753393  0.608417  1
  O  O42  1  0.706521  0.844955  0.990536  1
  O  O43  1  0.206019  0.844832  0.989641  1
  O  O44  1  0.351866  0.799704  0.303938  1
  O  O45  1  0.850922  0.797187  0.303552  1
  O  O46  1  0.394004  0.978038  0.786786  1
  O  O47  1  0.882094  0.977395  0.786829  1
