# generated using pymatgen
data_Li4Mn3(OF3)3
_symmetry_space_group_name_H-M   'P 1'
_cell_length_a   5.66571022
_cell_length_b   5.85769697
_cell_length_c   6.27007346
_cell_angle_alpha   98.45195599
_cell_angle_beta   99.49098551
_cell_angle_gamma   96.97759302
_symmetry_Int_Tables_number   1
_chemical_formula_structural   Li4Mn3(OF3)3
_chemical_formula_sum   'Li4 Mn3 O3 F9'
_cell_volume   200.73651266
_cell_formula_units_Z   1
loop_
 _symmetry_equiv_pos_site_id
 _symmetry_equiv_pos_as_xyz
  1  'x, y, z'
loop_
 _atom_site_type_symbol
 _atom_site_label
 _atom_site_symmetry_multiplicity
 _atom_site_fract_x
 _atom_site_fract_y
 _atom_site_fract_z
 _atom_site_occupancy
  Li  Li0  1  0.884643  0.680225  0.439066  1
  Li  Li1  1  0.682981  0.391540  0.859950  1
  Li  Li2  1  0.397553  0.856987  0.676842  1
  Li  Li3  1  0.137917  0.340313  0.599811  1
  Mn  Mn4  1  0.592613  0.150257  0.329277  1
  Mn  Mn5  1  0.352019  0.618942  0.148394  1
  Mn  Mn6  1  0.996557  0.000626  0.006111  1
  O  O7  1  0.895619  0.098891  0.260515  1
  O  O8  1  0.567047  0.401381  0.190028  1
  O  O9  1  0.322252  0.950536  0.124728  1
  F  F10  1  0.904131  0.690225  0.029483  1
  F  F11  1  0.808123  0.381674  0.577062  1
  F  F12  1  0.612848  0.842381  0.433093  1
  F  F13  1  0.381842  0.178307  0.536673  1
  F  F14  1  0.690963  0.041196  0.860498  1
  F  F15  1  0.196628  0.591689  0.399602  1
  F  F16  1  0.410684  0.588428  0.846007  1
  F  F17  1  0.068192  0.893468  0.718986  1
  F  F18  1  0.097391  0.302933  0.963875  1
