# generated using pymatgen
data_LiV2(SO4)3
_symmetry_space_group_name_H-M   'P 1'
_cell_length_a   8.78555606
_cell_length_b   8.78555606
_cell_length_c   8.78555606
_cell_angle_alpha   59.48414016
_cell_angle_beta   59.48414016
_cell_angle_gamma   59.48414016
_symmetry_Int_Tables_number   1
_chemical_formula_structural   LiV2(SO4)3
_chemical_formula_sum   'Li2 V4 S6 O24'
_cell_volume   473.87847876
_cell_formula_units_Z   2
loop_
 _symmetry_equiv_pos_site_id
 _symmetry_equiv_pos_as_xyz
  1  'x, y, z'
loop_
 _atom_site_type_symbol
 _atom_site_label
 _atom_site_symmetry_multiplicity
 _atom_site_fract_x
 _atom_site_fract_y
 _atom_site_fract_z
 _atom_site_occupancy
  Li  Li0  1  0.000000  0.000000  0.000000  1
  Li  Li1  1  0.500000  0.500000  0.500000  1
  V  V2  1  0.642826  0.642826  0.642826  1
  V  V3  1  0.857174  0.857174  0.857174  1
  V  V4  1  0.357174  0.357174  0.357174  1
  V  V5  1  0.142826  0.142826  0.142826  1
  S  S6  1  0.250000  0.544025  0.955975  1
  S  S7  1  0.044025  0.750000  0.455975  1
  S  S8  1  0.455975  0.044025  0.750000  1
  S  S9  1  0.544025  0.955975  0.250000  1
  S  S10  1  0.955975  0.250000  0.544025  1
  S  S11  1  0.750000  0.455975  0.044025  1
  O  O12  1  0.092722  0.728139  0.940563  1
  O  O13  1  0.271861  0.059437  0.907278  1
  O  O14  1  0.105044  0.308087  0.506983  1
  O  O15  1  0.993017  0.191913  0.394956  1
  O  O16  1  0.407278  0.559437  0.771861  1
  O  O17  1  0.228139  0.592722  0.440563  1
  O  O18  1  0.059437  0.907278  0.271861  1
  O  O19  1  0.808087  0.605044  0.006983  1
  O  O20  1  0.493017  0.894956  0.691913  1
  O  O21  1  0.691913  0.493017  0.894956  1
  O  O22  1  0.605044  0.006983  0.808087  1
  O  O23  1  0.440563  0.228139  0.592722  1
  O  O24  1  0.559437  0.771861  0.407278  1
  O  O25  1  0.308087  0.506983  0.105044  1
  O  O26  1  0.394956  0.993017  0.191913  1
  O  O27  1  0.191913  0.394956  0.993017  1
  O  O28  1  0.506983  0.105044  0.308087  1
  O  O29  1  0.940563  0.092722  0.728139  1
  O  O30  1  0.771861  0.407278  0.559437  1
  O  O31  1  0.592722  0.440563  0.228139  1
  O  O32  1  0.894956  0.691913  0.493017  1
  O  O33  1  0.006983  0.808087  0.605044  1
  O  O34  1  0.728139  0.940563  0.092722  1
  O  O35  1  0.907278  0.271861  0.059437  1
