# generated using pymatgen
data_Mn6O5F7
_symmetry_space_group_name_H-M   'P 1'
_cell_length_a   4.72850430
_cell_length_b   5.70740063
_cell_length_c   7.90600411
_cell_angle_alpha   86.19956597
_cell_angle_beta   88.85619675
_cell_angle_gamma   88.68519012
_symmetry_Int_Tables_number   1
_chemical_formula_structural   Mn6O5F7
_chemical_formula_sum   'Mn6 O5 F7'
_cell_volume   212.80141972
_cell_formula_units_Z   1
loop_
 _symmetry_equiv_pos_site_id
 _symmetry_equiv_pos_as_xyz
  1  'x, y, z'
loop_
 _atom_site_type_symbol
 _atom_site_label
 _atom_site_symmetry_multiplicity
 _atom_site_fract_x
 _atom_site_fract_y
 _atom_site_fract_z
 _atom_site_occupancy
  Mn  Mn0  1  0.523259  0.507965  0.001430  1
  Mn  Mn1  1  0.521365  0.841547  0.670642  1
  Mn  Mn2  1  0.464093  0.183601  0.345817  1
  Mn  Mn3  1  0.994395  0.323367  0.674447  1
  Mn  Mn4  1  0.006149  0.654282  0.310833  1
  Mn  Mn5  1  0.976746  0.990750  0.993579  1
  O  O6  1  0.803934  0.042218  0.780654  1
  O  O7  1  0.810518  0.708301  0.093883  1
  O  O8  1  0.694387  0.538661  0.769522  1
  O  O9  1  0.301501  0.122963  0.574672  1
  O  O10  1  0.313198  0.476801  0.224927  1
  F  F11  1  0.808175  0.364149  0.433627  1
  F  F12  1  0.694243  0.198701  0.120071  1
  F  F13  1  0.705166  0.863967  0.421365  1
  F  F14  1  0.300272  0.795745  0.896261  1
  F  F15  1  0.191994  0.625318  0.557354  1
  F  F16  1  0.188984  0.975111  0.212980  1
  F  F17  1  0.201620  0.286552  0.917937  1
