# generated using pymatgen
data_Co11CuO16
_symmetry_space_group_name_H-M   'P 1'
_cell_length_a   5.88045273
_cell_length_b   5.91538516
_cell_length_c   8.32196977
_cell_angle_alpha   90.00000000
_cell_angle_beta   90.19814962
_cell_angle_gamma   90.00000000
_symmetry_Int_Tables_number   1
_chemical_formula_structural   Co11CuO16
_chemical_formula_sum   'Co11 Cu1 O16'
_cell_volume   289.47917585
_cell_formula_units_Z   1
loop_
 _symmetry_equiv_pos_site_id
 _symmetry_equiv_pos_as_xyz
  1  'x, y, z'
loop_
 _atom_site_type_symbol
 _atom_site_label
 _atom_site_symmetry_multiplicity
 _atom_site_fract_x
 _atom_site_fract_y
 _atom_site_fract_z
 _atom_site_occupancy
  Co  Co0  1  0.252137  0.000000  0.373501  1
  Co  Co1  1  0.747568  0.249749  0.248919  1
  Co  Co2  1  0.747568  0.750251  0.248919  1
  Co  Co3  1  0.250228  0.500000  0.120674  1
  Co  Co4  1  0.500000  0.000000  0.000000  1
  Co  Co5  1  0.749772  0.500000  0.879326  1
  Co  Co6  1  0.252432  0.249749  0.751081  1
  Co  Co7  1  0.252432  0.750251  0.751081  1
  Co  Co8  1  0.747863  0.000000  0.626499  1
  Co  Co9  1  0.500000  0.500000  0.500000  1
  Co  Co10  1  0.000000  0.500000  0.500000  1
  Cu  Cu11  1  0.000000  0.000000  0.000000  1
  O  O12  1  0.976713  0.500000  0.255737  1
  O  O13  1  0.516467  0.500000  0.255074  1
  O  O14  1  0.520481  0.000000  0.231582  1
  O  O15  1  0.981330  0.000000  0.242035  1
  O  O16  1  0.739846  0.224211  0.010735  1
  O  O17  1  0.739846  0.775789  0.010735  1
  O  O18  1  0.260154  0.224211  0.989265  1
  O  O19  1  0.260154  0.775789  0.989265  1
  O  O20  1  0.479519  0.000000  0.768418  1
  O  O21  1  0.018670  0.000000  0.757965  1
  O  O22  1  0.483533  0.500000  0.744926  1
  O  O23  1  0.023287  0.500000  0.744263  1
  O  O24  1  0.250593  0.267820  0.510971  1
  O  O25  1  0.250593  0.732180  0.510971  1
  O  O26  1  0.749407  0.732180  0.489029  1
  O  O27  1  0.749407  0.267820  0.489029  1
