# generated using pymatgen
data_Li5Mn3Nb2O10
_symmetry_space_group_name_H-M   'P 1'
_cell_length_a   5.33610017
_cell_length_b   5.36331517
_cell_length_c   8.12444664
_cell_angle_alpha   71.55774770
_cell_angle_beta   71.75536872
_cell_angle_gamma   79.60017209
_symmetry_Int_Tables_number   1
_chemical_formula_structural   Li5Mn3Nb2O10
_chemical_formula_sum   'Li5 Mn3 Nb2 O10'
_cell_volume   208.62684943
_cell_formula_units_Z   1
loop_
 _symmetry_equiv_pos_site_id
 _symmetry_equiv_pos_as_xyz
  1  'x, y, z'
loop_
 _atom_site_type_symbol
 _atom_site_label
 _atom_site_symmetry_multiplicity
 _atom_site_fract_x
 _atom_site_fract_y
 _atom_site_fract_z
 _atom_site_occupancy
  Li  Li0  1  0.511955  0.773340  0.401652  1
  Li  Li1  1  0.511489  0.608449  0.786129  1
  Li  Li2  1  0.000000  0.500000  0.500000  1
  Li  Li3  1  0.488511  0.391551  0.213871  1
  Li  Li4  1  0.488045  0.226660  0.598348  1
  Mn  Mn5  1  0.500000  0.000000  0.000000  1
  Mn  Mn6  1  0.994983  0.307694  0.896748  1
  Mn  Mn7  1  0.005017  0.692306  0.103252  1
  Nb  Nb8  1  0.013248  0.904036  0.685747  1
  Nb  Nb9  1  0.986752  0.095964  0.314253  1
  O  O10  1  0.238551  0.950356  0.840401  1
  O  O11  1  0.764736  0.670294  0.929246  1
  O  O12  1  0.763765  0.848646  0.544432  1
  O  O13  1  0.238643  0.777162  0.255926  1
  O  O14  1  0.236674  0.578240  0.651429  1
  O  O15  1  0.763326  0.421760  0.348571  1
  O  O16  1  0.761357  0.222838  0.744074  1
  O  O17  1  0.236235  0.151354  0.455568  1
  O  O18  1  0.235264  0.329706  0.070754  1
  O  O19  1  0.761449  0.049644  0.159599  1
