# generated using pymatgen
data_ZnH8(O2F)2
_symmetry_space_group_name_H-M   'P 1'
_cell_length_a   5.34734963
_cell_length_b   7.59004644
_cell_length_c   12.70037613
_cell_angle_alpha   90.00000000
_cell_angle_beta   90.00000000
_cell_angle_gamma   90.00000000
_symmetry_Int_Tables_number   1
_chemical_formula_structural   ZnH8(O2F)2
_chemical_formula_sum   'Zn4 H32 O16 F8'
_cell_volume   515.46549254
_cell_formula_units_Z   4
loop_
 _symmetry_equiv_pos_site_id
 _symmetry_equiv_pos_as_xyz
  1  'x, y, z'
loop_
 _atom_site_type_symbol
 _atom_site_label
 _atom_site_symmetry_multiplicity
 _atom_site_fract_x
 _atom_site_fract_y
 _atom_site_fract_z
 _atom_site_occupancy
  Zn  Zn0  1  0.794541  0.247309  0.624271  1
  Zn  Zn1  1  0.205459  0.747309  0.375729  1
  Zn  Zn2  1  0.794541  0.747309  0.875729  1
  Zn  Zn3  1  0.205459  0.247309  0.124271  1
  H  H4  1  0.065981  0.013794  0.733260  1
  H  H5  1  0.934019  0.513794  0.266740  1
  H  H6  1  0.065981  0.513794  0.766740  1
  H  H7  1  0.934019  0.013794  0.233260  1
  H  H8  1  0.353750  0.426475  0.617873  1
  H  H9  1  0.646250  0.926475  0.382127  1
  H  H10  1  0.353750  0.926475  0.882127  1
  H  H11  1  0.646250  0.426475  0.117873  1
  H  H12  1  0.052826  0.136656  0.923567  1
  H  H13  1  0.947174  0.636656  0.076433  1
  H  H14  1  0.052826  0.636656  0.576433  1
  H  H15  1  0.947174  0.136656  0.423567  1
  H  H16  1  0.068895  0.348119  0.922491  1
  H  H17  1  0.931105  0.848119  0.077509  1
  H  H18  1  0.068895  0.848119  0.577509  1
  H  H19  1  0.931105  0.348119  0.422491  1
  H  H20  1  0.630894  0.363518  0.825302  1
  H  H21  1  0.369106  0.863518  0.174698  1
  H  H22  1  0.630894  0.863518  0.674698  1
  H  H23  1  0.369106  0.363518  0.325302  1
  H  H24  1  0.614248  0.153265  0.825933  1
  H  H25  1  0.385752  0.653265  0.174067  1
  H  H26  1  0.614248  0.653265  0.674067  1
  H  H27  1  0.385752  0.153265  0.325933  1
  H  H28  1  0.506980  0.484484  0.517454  1
  H  H29  1  0.493020  0.984484  0.482546  1
  H  H30  1  0.506980  0.984484  0.982546  1
  H  H31  1  0.493020  0.484484  0.017454  1
  H  H32  1  0.248500  0.076630  0.639860  1
  H  H33  1  0.751500  0.576630  0.360140  1
  H  H34  1  0.248500  0.576630  0.860140  1
  H  H35  1  0.751500  0.076630  0.139860  1
  O  O36  1  0.069692  0.051366  0.657117  1
  O  O37  1  0.930308  0.551366  0.342883  1
  O  O38  1  0.069692  0.551366  0.842883  1
  O  O39  1  0.930308  0.051366  0.157117  1
  O  O40  1  0.663865  0.256069  0.783328  1
  O  O41  1  0.336135  0.756069  0.216672  1
  O  O42  1  0.663865  0.756069  0.716672  1
  O  O43  1  0.336135  0.256069  0.283328  1
  O  O44  1  0.083363  0.242243  0.967248  1
  O  O45  1  0.916637  0.742243  0.032752  1
  O  O46  1  0.083363  0.742243  0.532752  1
  O  O47  1  0.916637  0.242243  0.467248  1
  O  O48  1  0.527930  0.450393  0.593394  1
  O  O49  1  0.472070  0.950393  0.406606  1
  O  O50  1  0.527930  0.950393  0.906606  1
  O  O51  1  0.472070  0.450393  0.093394  1
  F  F52  1  0.541194  0.043258  0.602688  1
  F  F53  1  0.458806  0.543258  0.397312  1
  F  F54  1  0.541194  0.543258  0.897312  1
  F  F55  1  0.458806  0.043258  0.102688  1
  F  F56  1  0.056896  0.448421  0.650089  1
  F  F57  1  0.943104  0.948421  0.349911  1
  F  F58  1  0.056896  0.948421  0.849911  1
  F  F59  1  0.943104  0.448421  0.150089  1
