# generated using pymatgen
data_Li4Mn3Nb2Sn3O16
_symmetry_space_group_name_H-M   'P 1'
_cell_length_a   6.28107840
_cell_length_b   6.28107840
_cell_length_c   10.00688810
_cell_angle_alpha   89.56636809
_cell_angle_beta   90.43363191
_cell_angle_gamma   120.53614711
_symmetry_Int_Tables_number   1
_chemical_formula_structural   Li4Mn3Nb2Sn3O16
_chemical_formula_sum   'Li4 Mn3 Nb2 Sn3 O16'
_cell_volume   340.02422193
_cell_formula_units_Z   1
loop_
 _symmetry_equiv_pos_site_id
 _symmetry_equiv_pos_as_xyz
  1  'x, y, z'
loop_
 _atom_site_type_symbol
 _atom_site_label
 _atom_site_symmetry_multiplicity
 _atom_site_fract_x
 _atom_site_fract_y
 _atom_site_fract_z
 _atom_site_occupancy
  Li  Li0  1  0.669714  0.330286  0.902836  1
  Li  Li1  1  0.995218  0.004782  0.984021  1
  Li  Li2  1  0.999078  0.000922  0.494777  1
  Li  Li3  1  0.327135  0.672865  0.405327  1
  Mn  Mn4  1  0.829247  0.170753  0.213259  1
  Mn  Mn5  1  0.171926  0.337536  0.709980  1
  Mn  Mn6  1  0.662464  0.828074  0.709980  1
  Nb  Nb7  1  0.674680  0.325320  0.496465  1
  Nb  Nb8  1  0.349671  0.650329  0.980216  1
  Sn  Sn9  1  0.337712  0.168183  0.214542  1
  Sn  Sn10  1  0.831817  0.662288  0.214542  1
  Sn  Sn11  1  0.172884  0.827116  0.716793  1
  O  O12  1  0.346182  0.163055  0.588288  1
  O  O13  1  0.514519  0.485481  0.339124  1
  O  O14  1  0.659437  0.340563  0.102144  1
  O  O15  1  0.001568  0.998432  0.311295  1
  O  O16  1  0.006314  0.993686  0.800924  1
  O  O17  1  0.836945  0.653818  0.588288  1
  O  O18  1  0.509396  0.046482  0.348940  1
  O  O19  1  0.953518  0.490604  0.348940  1
  O  O20  1  0.159283  0.840717  0.098508  1
  O  O21  1  0.828937  0.171063  0.580322  1
  O  O22  1  0.041503  0.527346  0.855238  1
  O  O23  1  0.472654  0.958497  0.855238  1
  O  O24  1  0.327351  0.672649  0.605859  1
  O  O25  1  0.176227  0.338436  0.091009  1
  O  O26  1  0.481944  0.518056  0.859919  1
  O  O27  1  0.661564  0.823773  0.091009  1
