# generated using pymatgen
data_Li5VO3F2
_symmetry_space_group_name_H-M   'P 1'
_cell_length_a   5.35535585
_cell_length_b   5.35535585
_cell_length_c   6.03919753
_cell_angle_alpha   69.54634774
_cell_angle_beta   110.45365226
_cell_angle_gamma   137.00358431
_symmetry_Int_Tables_number   1
_chemical_formula_structural   Li5VO3F2
_chemical_formula_sum   'Li5 V1 O3 F2'
_cell_volume   109.46911864
_cell_formula_units_Z   1
loop_
 _symmetry_equiv_pos_site_id
 _symmetry_equiv_pos_as_xyz
  1  'x, y, z'
loop_
 _atom_site_type_symbol
 _atom_site_label
 _atom_site_symmetry_multiplicity
 _atom_site_fract_x
 _atom_site_fract_y
 _atom_site_fract_z
 _atom_site_occupancy
  Li  Li0  1  0.318355  0.681645  0.149730  1
  Li  Li1  1  0.310494  0.689506  0.653201  1
  Li  Li2  1  0.713046  0.286954  0.312444  1
  Li  Li3  1  0.687826  0.312174  0.872651  1
  Li  Li4  1  0.029076  0.970924  0.463284  1
  V  V5  1  0.004265  0.995735  0.010430  1
  O  O6  1  0.862362  0.137638  0.175810  1
  O  O7  1  0.504033  0.495967  0.938242  1
  O  O8  1  0.169268  0.830732  0.312493  1
  F  F9  1  0.818734  0.181266  0.668848  1
  F  F10  1  0.155757  0.844243  0.797966  1
