# generated using pymatgen
data_Li4Mn2C4SO16
_symmetry_space_group_name_H-M   'P 1'
_cell_length_a   9.68366705
_cell_length_b   9.49456427
_cell_length_c   9.36586849
_cell_angle_alpha   61.78178206
_cell_angle_beta   59.76256737
_cell_angle_gamma   58.45565056
_symmetry_Int_Tables_number   1
_chemical_formula_structural   Li4Mn2C4SO16
_chemical_formula_sum   'Li8 Mn4 C8 S2 O32'
_cell_volume   607.85313691
_cell_formula_units_Z   2
loop_
 _symmetry_equiv_pos_site_id
 _symmetry_equiv_pos_as_xyz
  1  'x, y, z'
loop_
 _atom_site_type_symbol
 _atom_site_label
 _atom_site_symmetry_multiplicity
 _atom_site_fract_x
 _atom_site_fract_y
 _atom_site_fract_z
 _atom_site_occupancy
  Li  Li0  1  0.545541  0.954459  0.954459  1
  Li  Li1  1  0.300705  0.699295  0.300705  1
  Li  Li2  1  0.295541  0.704459  0.704459  1
  Li  Li3  1  0.550705  0.949295  0.550705  1
  Li  Li4  1  0.699295  0.300705  0.699295  1
  Li  Li5  1  0.954459  0.545541  0.545541  1
  Li  Li6  1  0.949295  0.550705  0.949295  1
  Li  Li7  1  0.704459  0.295541  0.295541  1
  Mn  Mn8  1  0.125000  0.125000  0.125000  1
  Mn  Mn9  1  0.125000  0.625000  0.125000  1
  Mn  Mn10  1  0.625000  0.125000  0.125000  1
  Mn  Mn11  1  0.125000  0.125000  0.625000  1
  C  C12  1  0.361850  0.966474  0.337731  1
  C  C13  1  0.337731  0.333945  0.361850  1
  C  C14  1  0.333945  0.337731  0.966474  1
  C  C15  1  0.966474  0.361850  0.333945  1
  C  C16  1  0.283526  0.888150  0.916055  1
  C  C17  1  0.916055  0.912269  0.283526  1
  C  C18  1  0.912269  0.916055  0.888150  1
  C  C19  1  0.888150  0.283526  0.912269  1
  S  S20  1  0.500000  0.500000  0.500000  1
  S  S21  1  0.750000  0.750000  0.750000  1
  O  O22  1  0.351152  0.950901  0.215512  1
  O  O23  1  0.482435  0.215512  0.950901  1
  O  O24  1  0.235076  0.965295  0.485364  1
  O  O25  1  0.575987  0.307152  0.555206  1
  O  O26  1  0.485364  0.314265  0.235076  1
  O  O27  1  0.555206  0.561654  0.575987  1
  O  O28  1  0.561654  0.555206  0.307152  1
  O  O29  1  0.928758  0.047546  0.754570  1
  O  O30  1  0.202454  0.321242  0.980874  1
  O  O31  1  0.314265  0.485364  0.965295  1
  O  O32  1  0.307152  0.575987  0.561654  1
  O  O33  1  0.965295  0.235076  0.314265  1
  O  O34  1  0.215512  0.482435  0.351152  1
  O  O35  1  0.950901  0.351152  0.482435  1
  O  O36  1  0.269126  0.754570  0.047546  1
  O  O37  1  0.495430  0.980874  0.321242  1
  O  O38  1  0.754570  0.269126  0.928758  1
  O  O39  1  0.980874  0.495430  0.202454  1
  O  O40  1  0.299099  0.898848  0.767565  1
  O  O41  1  0.034488  0.767565  0.898848  1
  O  O42  1  0.284705  0.014924  0.935735  1
  O  O43  1  0.942848  0.674013  0.688346  1
  O  O44  1  0.935735  0.764636  0.284705  1
  O  O45  1  0.047546  0.928758  0.269126  1
  O  O46  1  0.321242  0.202454  0.495430  1
  O  O47  1  0.688346  0.694794  0.942848  1
  O  O48  1  0.694794  0.688346  0.674013  1
  O  O49  1  0.764636  0.935735  0.014924  1
  O  O50  1  0.674013  0.942848  0.694794  1
  O  O51  1  0.014924  0.284705  0.764636  1
  O  O52  1  0.767565  0.034488  0.299099  1
  O  O53  1  0.898848  0.299099  0.034488  1
