# generated using pymatgen
data_Na7Ti16O32
_symmetry_space_group_name_H-M   'P 1'
_cell_length_a   10.63288886
_cell_length_b   10.63288886
_cell_length_c   10.63288886
_cell_angle_alpha   131.83299291
_cell_angle_beta   131.83299291
_cell_angle_gamma   70.49292465
_symmetry_Int_Tables_number   1
_chemical_formula_structural   Na7Ti16O32
_chemical_formula_sum   'Na7 Ti16 O32'
_cell_volume   653.92586563
_cell_formula_units_Z   1
loop_
 _symmetry_equiv_pos_site_id
 _symmetry_equiv_pos_as_xyz
  1  'x, y, z'
loop_
 _atom_site_type_symbol
 _atom_site_label
 _atom_site_symmetry_multiplicity
 _atom_site_fract_x
 _atom_site_fract_y
 _atom_site_fract_z
 _atom_site_occupancy
  Na  Na0  1  0.000000  0.000000  0.000000  1
  Na  Na1  1  0.373909  0.373909  0.499528  1
  Na  Na2  1  0.874381  0.874381  0.500472  1
  Na  Na3  1  0.750000  0.250000  0.500000  1
  Na  Na4  1  0.250000  0.750000  0.500000  1
  Na  Na5  1  0.626091  0.125619  1.000000  1
  Na  Na6  1  0.125619  0.626091  0.000000  1
  Ti  Ti7  1  0.069170  0.315311  0.507642  1
  Ti  Ti8  1  0.561528  0.807669  0.492358  1
  Ti  Ti9  1  0.807669  0.561528  0.492358  1
  Ti  Ti10  1  0.315311  0.069170  0.507642  1
  Ti  Ti11  1  0.192331  0.684689  0.753859  1
  Ti  Ti12  1  0.930830  0.438472  0.246141  1
  Ti  Ti13  1  0.684689  0.192331  0.753859  1
  Ti  Ti14  1  0.438472  0.930830  0.246141  1
  Ti  Ti15  1  0.810253  0.562057  0.000000  1
  Ti  Ti16  1  0.062205  0.311273  0.000000  1
  Ti  Ti17  1  0.311273  0.062205  1.000000  1
  Ti  Ti18  1  0.562057  0.810253  0.000000  1
  Ti  Ti19  1  0.437943  0.437943  0.248196  1
  Ti  Ti20  1  0.937795  0.937795  0.249068  1
  Ti  Ti21  1  0.189747  0.189747  0.751804  1
  Ti  Ti22  1  0.688727  0.688727  0.750932  1
  O  O23  1  0.338275  0.840198  0.285313  1
  O  O24  1  0.840198  0.338275  0.285313  1
  O  O25  1  0.052962  0.554885  0.714687  1
  O  O26  1  0.554885  0.052962  0.714687  1
  O  O27  1  0.445115  0.159802  0.498077  1
  O  O28  1  0.947038  0.661725  0.501923  1
  O  O29  1  0.661725  0.947038  0.501923  1
  O  O30  1  0.159802  0.445115  0.498077  1
  O  O31  1  0.215533  0.926813  1.000000  1
  O  O32  1  0.428818  0.712644  0.000000  1
  O  O33  1  0.712644  0.428818  1.000000  1
  O  O34  1  0.926813  0.215533  1.000000  1
  O  O35  1  0.318916  0.818837  0.782969  1
  O  O36  1  0.535947  0.035868  0.217031  1
  O  O37  1  0.035868  0.535947  0.217031  1
  O  O38  1  0.818837  0.318916  0.782969  1
  O  O39  1  0.588896  0.588896  0.781342  1
  O  O40  1  0.807554  0.807554  0.218658  1
  O  O41  1  0.087769  0.087769  0.782329  1
  O  O42  1  0.305440  0.305440  0.217671  1
  O  O43  1  0.411104  0.192446  1.000000  1
  O  O44  1  0.912231  0.694560  0.000000  1
  O  O45  1  0.192446  0.411104  1.000000  1
  O  O46  1  0.694560  0.912231  0.000000  1
  O  O47  1  0.464053  0.681084  0.499921  1
  O  O48  1  0.181163  0.964132  0.500079  1
  O  O49  1  0.681084  0.464053  0.499921  1
  O  O50  1  0.964132  0.181163  0.500079  1
  O  O51  1  0.571182  0.571182  0.283826  1
  O  O52  1  0.287356  0.287356  0.716174  1
  O  O53  1  0.784467  0.784467  0.711280  1
  O  O54  1  0.073187  0.073187  0.288720  1
