# generated using pymatgen
data_Li2MnFe(BO3)2
_symmetry_space_group_name_H-M   'P 1'
_cell_length_a   5.26394720
_cell_length_b   6.04555019
_cell_length_c   8.97667311
_cell_angle_alpha   102.46488360
_cell_angle_beta   90.93429420
_cell_angle_gamma   113.81802099
_symmetry_Int_Tables_number   1
_chemical_formula_structural   Li2MnFe(BO3)2
_chemical_formula_sum   'Li4 Mn2 Fe2 B4 O12'
_cell_volume   253.46129874
_cell_formula_units_Z   2
loop_
 _symmetry_equiv_pos_site_id
 _symmetry_equiv_pos_as_xyz
  1  'x, y, z'
loop_
 _atom_site_type_symbol
 _atom_site_label
 _atom_site_symmetry_multiplicity
 _atom_site_fract_x
 _atom_site_fract_y
 _atom_site_fract_z
 _atom_site_occupancy
  Li  Li0  1  0.594644  0.324968  0.965907  1
  Li  Li1  1  0.098200  0.331022  0.467345  1
  Li  Li2  1  0.901800  0.668978  0.532655  1
  Li  Li3  1  0.405356  0.675032  0.034093  1
  Mn  Mn4  1  0.042389  0.230006  0.791348  1
  Mn  Mn5  1  0.957611  0.769994  0.208652  1
  Fe  Fe6  1  0.550431  0.236222  0.291265  1
  Fe  Fe7  1  0.449569  0.763778  0.708735  1
  B  B8  1  0.555150  0.259606  0.631272  1
  B  B9  1  0.939804  0.738063  0.865345  1
  B  B10  1  0.060196  0.261937  0.134655  1
  B  B11  1  0.444850  0.740394  0.368728  1
  O  O12  1  0.620038  0.171942  0.752976  1
  O  O13  1  0.723005  0.292521  0.513951  1
  O  O14  1  0.825542  0.314838  0.137351  1
  O  O15  1  0.329564  0.324241  0.634753  1
  O  O16  1  0.132297  0.178698  0.256277  1
  O  O17  1  0.774612  0.701043  0.983608  1
  O  O18  1  0.225388  0.298957  0.016392  1
  O  O19  1  0.867703  0.821302  0.743723  1
  O  O20  1  0.670436  0.675759  0.365247  1
  O  O21  1  0.174458  0.685162  0.862649  1
  O  O22  1  0.276995  0.707479  0.486049  1
  O  O23  1  0.379962  0.828058  0.247024  1
