# generated using pymatgen
data_Li4Cr2Ni5O12
_symmetry_space_group_name_H-M   'P 1'
_cell_length_a   4.98599753
_cell_length_b   8.87491637
_cell_length_c   9.74950904
_cell_angle_alpha   90.00000000
_cell_angle_beta   100.80113491
_cell_angle_gamma   90.00000000
_symmetry_Int_Tables_number   1
_chemical_formula_structural   Li4Cr2Ni5O12
_chemical_formula_sum   'Li8 Cr4 Ni10 O24'
_cell_volume   423.77559310
_cell_formula_units_Z   2
loop_
 _symmetry_equiv_pos_site_id
 _symmetry_equiv_pos_as_xyz
  1  'x, y, z'
loop_
 _atom_site_type_symbol
 _atom_site_label
 _atom_site_symmetry_multiplicity
 _atom_site_fract_x
 _atom_site_fract_y
 _atom_site_fract_z
 _atom_site_occupancy
  Li  Li0  1  0.002665  0.919623  0.256818  1
  Li  Li1  1  0.495412  0.926274  0.746386  1
  Li  Li2  1  0.759771  0.580625  0.498228  1
  Li  Li3  1  0.495390  0.577587  0.746194  1
  Li  Li4  1  0.997335  0.419623  0.743182  1
  Li  Li5  1  0.504588  0.426274  0.253614  1
  Li  Li6  1  0.240229  0.080625  0.501772  1
  Li  Li7  1  0.504610  0.077587  0.253806  1
  Cr  Cr8  1  0.256579  0.742417  0.499462  1
  Cr  Cr9  1  0.750997  0.750819  0.003597  1
  Cr  Cr10  1  0.249003  0.250819  0.996403  1
  Cr  Cr11  1  0.743421  0.242417  0.500538  1
  Ni  Ni12  1  0.248945  0.918456  0.996903  1
  Ni  Ni13  1  0.753105  0.918276  0.501286  1
  Ni  Ni14  1  0.992051  0.750450  0.746141  1
  Ni  Ni15  1  0.507100  0.745003  0.253909  1
  Ni  Ni16  1  0.245018  0.582900  0.000506  1
  Ni  Ni17  1  0.246895  0.418276  0.498714  1
  Ni  Ni18  1  0.751055  0.418456  0.003097  1
  Ni  Ni19  1  0.007949  0.250450  0.253859  1
  Ni  Ni20  1  0.492900  0.245003  0.746091  1
  Ni  Ni21  1  0.754982  0.082900  0.999494  1
  O  O22  1  0.110784  0.897675  0.611615  1
  O  O23  1  0.863648  0.903485  0.884513  1
  O  O24  1  0.882531  0.766507  0.390473  1
  O  O25  1  0.131262  0.754794  0.113808  1
  O  O26  1  0.631873  0.910063  0.119186  1
  O  O27  1  0.395622  0.902391  0.383246  1
  O  O28  1  0.128388  0.591856  0.619333  1
  O  O29  1  0.601027  0.759766  0.621118  1
  O  O30  1  0.372277  0.750807  0.882960  1
  O  O31  1  0.880287  0.589779  0.884133  1
  O  O32  1  0.605974  0.589819  0.113416  1
  O  O33  1  0.366169  0.590760  0.390708  1
  O  O34  1  0.136352  0.403485  0.115487  1
  O  O35  1  0.889216  0.397675  0.388385  1
  O  O36  1  0.117469  0.266507  0.609527  1
  O  O37  1  0.604378  0.402391  0.616754  1
  O  O38  1  0.868738  0.254794  0.886192  1
  O  O39  1  0.368127  0.410063  0.880814  1
  O  O40  1  0.398973  0.259766  0.378882  1
  O  O41  1  0.119713  0.089779  0.115867  1
  O  O42  1  0.871612  0.091856  0.380667  1
  O  O43  1  0.627723  0.250807  0.117040  1
  O  O44  1  0.633831  0.090760  0.609292  1
  O  O45  1  0.394026  0.089819  0.886584  1
