# generated using pymatgen
data_VO2F
_symmetry_space_group_name_H-M   'P 1'
_cell_length_a   5.16247460
_cell_length_b   5.24034919
_cell_length_c   9.09378095
_cell_angle_alpha   75.94821171
_cell_angle_beta   75.49500681
_cell_angle_gamma   61.36543666
_symmetry_Int_Tables_number   1
_chemical_formula_structural   VO2F
_chemical_formula_sum   'V4 O8 F4'
_cell_volume   206.85046954
_cell_formula_units_Z   4
loop_
 _symmetry_equiv_pos_site_id
 _symmetry_equiv_pos_as_xyz
  1  'x, y, z'
loop_
 _atom_site_type_symbol
 _atom_site_label
 _atom_site_symmetry_multiplicity
 _atom_site_fract_x
 _atom_site_fract_y
 _atom_site_fract_z
 _atom_site_occupancy
  V  V0  1  0.015611  0.040325  0.992242  1
  V  V1  1  0.747249  0.810052  0.739463  1
  V  V2  1  0.453444  0.554303  0.494636  1
  V  V3  1  0.220424  0.295929  0.243192  1
  O  O4  1  0.806441  0.935268  0.878143  1
  O  O5  1  0.960117  0.354422  0.882016  1
  O  O6  1  0.456187  0.852606  0.381785  1
  O  O7  1  0.554862  0.111767  0.627169  1
  O  O8  1  0.056270  0.601359  0.128568  1
  O  O9  1  0.123795  0.693490  0.624216  1
  O  O10  1  0.199495  0.038527  0.129180  1
  O  O11  1  0.312908  0.429651  0.373431  1
  F  F12  1  0.708251  0.529742  0.629286  1
  F  F13  1  0.629662  0.183102  0.127089  1
  F  F14  1  0.878701  0.285932  0.376730  1
  F  F15  1  0.376583  0.783525  0.872853  1
