# generated using pymatgen
data_V9Sb7O32
_symmetry_space_group_name_H-M   'P 1'
_cell_length_a   4.66774017
_cell_length_b   7.80794259
_cell_length_c   15.34063166
_cell_angle_alpha   102.43390918
_cell_angle_beta   90.12029257
_cell_angle_gamma   89.98519241
_symmetry_Int_Tables_number   1
_chemical_formula_structural   V9Sb7O32
_chemical_formula_sum   'V9 Sb7 O32'
_cell_volume   545.98137939
_cell_formula_units_Z   1
loop_
 _symmetry_equiv_pos_site_id
 _symmetry_equiv_pos_as_xyz
  1  'x, y, z'
loop_
 _atom_site_type_symbol
 _atom_site_label
 _atom_site_symmetry_multiplicity
 _atom_site_fract_x
 _atom_site_fract_y
 _atom_site_fract_z
 _atom_site_occupancy
  V  V0  1  0.505465  0.812933  0.438214  1
  V  V1  1  0.494535  0.187067  0.561786  1
  V  V2  1  0.496080  0.062333  0.188968  1
  V  V3  1  0.503920  0.937667  0.811032  1
  V  V4  1  0.000000  0.500000  0.500000  1
  V  V5  1  0.992042  0.374501  0.128919  1
  V  V6  1  0.995613  0.750727  0.253260  1
  V  V7  1  0.007958  0.625499  0.871081  1
  V  V8  1  0.004387  0.249273  0.746740  1
  Sb  Sb9  1  0.504591  0.558608  0.687388  1
  Sb  Sb10  1  0.495409  0.441392  0.312612  1
  Sb  Sb11  1  0.500013  0.313389  0.932795  1
  Sb  Sb12  1  0.499987  0.686611  0.067205  1
  Sb  Sb13  1  0.002723  0.878987  0.622653  1
  Sb  Sb14  1  0.997277  0.121013  0.377347  1
  Sb  Sb15  1  0.000000  0.000000  0.000000  1
  O  O16  1  0.196535  0.641456  0.613125  1
  O  O17  1  0.197276  0.885815  0.358451  1
  O  O18  1  0.189883  0.014916  0.736329  1
  O  O19  1  0.191461  0.261609  0.485479  1
  O  O20  1  0.188773  0.134778  0.110387  1
  O  O21  1  0.195215  0.521549  0.237072  1
  O  O22  1  0.191101  0.384772  0.859152  1
  O  O23  1  0.200661  0.765160  0.987800  1
  O  O24  1  0.300222  0.204434  0.300308  1
  O  O25  1  0.291261  0.327406  0.676878  1
  O  O26  1  0.312630  0.697540  0.797048  1
  O  O27  1  0.298517  0.821855  0.174869  1
  O  O28  1  0.304963  0.448701  0.047571  1
  O  O29  1  0.306398  0.079508  0.924214  1
  O  O30  1  0.309793  0.575297  0.423400  1
  O  O31  1  0.305603  0.953655  0.549140  1
  O  O32  1  0.690207  0.424703  0.576600  1
  O  O33  1  0.708739  0.672594  0.323122  1
  O  O34  1  0.701483  0.178145  0.825131  1
  O  O35  1  0.687370  0.302460  0.202952  1
  O  O36  1  0.695037  0.551299  0.952429  1
  O  O37  1  0.694397  0.046345  0.450860  1
  O  O38  1  0.693602  0.920492  0.075786  1
  O  O39  1  0.699778  0.795566  0.699692  1
  O  O40  1  0.802724  0.114185  0.641549  1
  O  O41  1  0.808899  0.615228  0.140848  1
  O  O42  1  0.803465  0.358544  0.386875  1
  O  O43  1  0.811227  0.865222  0.889613  1
  O  O44  1  0.808539  0.738391  0.514521  1
  O  O45  1  0.799339  0.234840  0.012200  1
  O  O46  1  0.804785  0.478451  0.762928  1
  O  O47  1  0.810117  0.985084  0.263671  1
