# generated using pymatgen
data_LaMg2H7
_symmetry_space_group_name_H-M   'P 1'
_cell_length_a   6.36099035
_cell_length_b   6.36099035
_cell_length_c   9.53736112
_cell_angle_alpha   90.00000000
_cell_angle_beta   90.00000000
_cell_angle_gamma   90.00000000
_symmetry_Int_Tables_number   1
_chemical_formula_structural   LaMg2H7
_chemical_formula_sum   'La4 Mg8 H28'
_cell_volume   385.90259626
_cell_formula_units_Z   4
loop_
 _symmetry_equiv_pos_site_id
 _symmetry_equiv_pos_as_xyz
  1  'x, y, z'
loop_
 _atom_site_type_symbol
 _atom_site_label
 _atom_site_symmetry_multiplicity
 _atom_site_fract_x
 _atom_site_fract_y
 _atom_site_fract_z
 _atom_site_occupancy
  La  La0  1  0.769577  0.230423  0.750000  1
  La  La1  1  0.230423  0.769577  0.250000  1
  La  La2  1  0.730423  0.730423  0.500000  1
  La  La3  1  0.269577  0.269577  0.000000  1
  Mg  Mg4  1  0.525391  0.238523  0.398123  1
  Mg  Mg5  1  0.474609  0.761477  0.898123  1
  Mg  Mg6  1  0.738523  0.974609  0.148123  1
  Mg  Mg7  1  0.261477  0.025391  0.648123  1
  Mg  Mg8  1  0.761477  0.474609  0.101877  1
  Mg  Mg9  1  0.238523  0.525391  0.601877  1
  Mg  Mg10  1  0.974609  0.738523  0.851877  1
  Mg  Mg11  1  0.025391  0.261477  0.351877  1
  H  H12  1  0.532789  0.467957  0.620644  1
  H  H13  1  0.467211  0.532043  0.120644  1
  H  H14  1  0.967957  0.967211  0.370644  1
  H  H15  1  0.032043  0.032789  0.870644  1
  H  H16  1  0.532043  0.467211  0.879356  1
  H  H17  1  0.467957  0.532789  0.379356  1
  H  H18  1  0.967211  0.967957  0.629356  1
  H  H19  1  0.032789  0.032043  0.129356  1
  H  H20  1  0.571110  0.066245  0.569580  1
  H  H21  1  0.428890  0.933755  0.069580  1
  H  H22  1  0.566245  0.928890  0.319580  1
  H  H23  1  0.433755  0.071110  0.819580  1
  H  H24  1  0.933755  0.428890  0.930420  1
  H  H25  1  0.066245  0.571110  0.430420  1
  H  H26  1  0.928890  0.566245  0.680420  1
  H  H27  1  0.071110  0.433755  0.180420  1
  H  H28  1  0.804925  0.339479  0.495972  1
  H  H29  1  0.195075  0.660521  0.995972  1
  H  H30  1  0.839479  0.695075  0.245972  1
  H  H31  1  0.160521  0.304925  0.745972  1
  H  H32  1  0.660521  0.195075  0.004028  1
  H  H33  1  0.339479  0.804925  0.504028  1
  H  H34  1  0.695075  0.839479  0.754028  1
  H  H35  1  0.304925  0.160521  0.254028  1
  H  H36  1  0.258173  0.741827  0.750000  1
  H  H37  1  0.741827  0.258173  0.250000  1
  H  H38  1  0.241827  0.241827  0.500000  1
  H  H39  1  0.758173  0.758173  0.000000  1
