# generated using pymatgen
data_NaMnBO3
_symmetry_space_group_name_H-M   'P 1'
_cell_length_a   5.21718182
_cell_length_b   5.21718182
_cell_length_c   5.91703316
_cell_angle_alpha   85.45881211
_cell_angle_beta   94.54118789
_cell_angle_gamma   59.41019706
_symmetry_Int_Tables_number   1
_chemical_formula_structural   NaMnBO3
_chemical_formula_sum   'Na2 Mn2 B2 O6'
_cell_volume   136.86081405
_cell_formula_units_Z   2
loop_
 _symmetry_equiv_pos_site_id
 _symmetry_equiv_pos_as_xyz
  1  'x, y, z'
loop_
 _atom_site_type_symbol
 _atom_site_label
 _atom_site_symmetry_multiplicity
 _atom_site_fract_x
 _atom_site_fract_y
 _atom_site_fract_z
 _atom_site_occupancy
  Na  Na0  1  0.337327  0.337327  0.750000  1
  Na  Na1  1  0.662673  0.662673  0.250000  1
  Mn  Mn2  1  0.000000  0.000000  0.500000  1
  Mn  Mn3  1  0.000000  0.000000  0.000000  1
  B  B4  1  0.670697  0.670697  0.750000  1
  B  B5  1  0.329303  0.329303  0.250000  1
  O  O6  1  0.823892  0.823892  0.750000  1
  O  O7  1  0.176108  0.176108  0.250000  1
  O  O8  1  0.802688  0.384783  0.701537  1
  O  O9  1  0.365961  0.824745  0.790930  1
  O  O10  1  0.615217  0.197312  0.201537  1
  O  O11  1  0.175255  0.634039  0.290930  1
