# generated using pymatgen
data_Li4V2Si3O10
_symmetry_space_group_name_H-M   'P 1'
_cell_length_a   5.37558910
_cell_length_b   5.37558910
_cell_length_c   17.07024400
_cell_angle_alpha   81.93669537
_cell_angle_beta   98.06330463
_cell_angle_gamma   117.21868689
_symmetry_Int_Tables_number   1
_chemical_formula_structural   Li4V2Si3O10
_chemical_formula_sum   'Li8 V4 Si6 O20'
_cell_volume   432.69366116
_cell_formula_units_Z   2
loop_
 _symmetry_equiv_pos_site_id
 _symmetry_equiv_pos_as_xyz
  1  'x, y, z'
loop_
 _atom_site_type_symbol
 _atom_site_label
 _atom_site_symmetry_multiplicity
 _atom_site_fract_x
 _atom_site_fract_y
 _atom_site_fract_z
 _atom_site_occupancy
  Li  Li0  1  0.829456  0.324489  0.052108  1
  Li  Li1  1  0.580132  0.207324  0.231152  1
  Li  Li2  1  0.675511  0.170544  0.552108  1
  Li  Li3  1  0.792676  0.419868  0.731152  1
  Li  Li4  1  0.207324  0.580132  0.268848  1
  Li  Li5  1  0.324489  0.829456  0.447892  1
  Li  Li6  1  0.419868  0.792676  0.768848  1
  Li  Li7  1  0.170544  0.675511  0.947892  1
  V  V8  1  0.202753  0.003816  0.083468  1
  V  V9  1  0.996184  0.797247  0.583468  1
  V  V10  1  0.003816  0.202753  0.416532  1
  V  V11  1  0.797247  0.996184  0.916532  1
  Si  Si12  1  0.660191  0.536100  0.400482  1
  Si  Si13  1  0.888788  0.888788  0.250000  1
  Si  Si14  1  0.536100  0.660191  0.099518  1
  Si  Si15  1  0.463900  0.339809  0.900482  1
  Si  Si16  1  0.111212  0.111212  0.750000  1
  Si  Si17  1  0.339809  0.463900  0.599518  1
  O  O18  1  0.923712  0.162678  0.288462  1
  O  O19  1  0.837322  0.076288  0.788462  1
  O  O20  1  0.610959  0.218114  0.433329  1
  O  O21  1  0.573162  0.370532  0.115022  1
  O  O22  1  0.795888  0.600024  0.312755  1
  O  O23  1  0.772073  0.903325  0.043842  1
  O  O24  1  0.903325  0.772073  0.456158  1
  O  O25  1  0.781886  0.389041  0.933329  1
  O  O26  1  0.629468  0.426838  0.615022  1
  O  O27  1  0.600024  0.795888  0.187245  1
  O  O28  1  0.399976  0.204112  0.812755  1
  O  O29  1  0.370532  0.573162  0.384978  1
  O  O30  1  0.218114  0.610959  0.066671  1
  O  O31  1  0.096675  0.227927  0.543842  1
  O  O32  1  0.227927  0.096675  0.956158  1
  O  O33  1  0.204112  0.399976  0.687245  1
  O  O34  1  0.426838  0.629468  0.884978  1
  O  O35  1  0.389041  0.781886  0.566671  1
  O  O36  1  0.162678  0.923712  0.211538  1
  O  O37  1  0.076288  0.837322  0.711538  1
