# generated using pymatgen
data_NaNi2P3O10
_symmetry_space_group_name_H-M   'P 1'
_cell_length_a   4.70003436
_cell_length_b   8.52737346
_cell_length_c   9.03820098
_cell_angle_alpha   90.00000000
_cell_angle_beta   98.02192074
_cell_angle_gamma   90.00000000
_symmetry_Int_Tables_number   1
_chemical_formula_structural   NaNi2P3O10
_chemical_formula_sum   'Na2 Ni4 P6 O20'
_cell_volume   358.69696487
_cell_formula_units_Z   2
loop_
 _symmetry_equiv_pos_site_id
 _symmetry_equiv_pos_as_xyz
  1  'x, y, z'
loop_
 _atom_site_type_symbol
 _atom_site_label
 _atom_site_symmetry_multiplicity
 _atom_site_fract_x
 _atom_site_fract_y
 _atom_site_fract_z
 _atom_site_occupancy
  Na  Na0  1  0.000000  0.000000  0.000000  1
  Na  Na1  1  0.000000  0.500000  0.000000  1
  Ni  Ni2  1  0.956977  0.928988  0.658047  1
  Ni  Ni3  1  0.956977  0.571012  0.658047  1
  Ni  Ni4  1  0.043023  0.428988  0.341953  1
  Ni  Ni5  1  0.043023  0.071012  0.341953  1
  P  P6  1  0.666214  0.750000  0.184913  1
  P  P7  1  0.607840  0.250000  0.536806  1
  P  P8  1  0.476729  0.250000  0.153528  1
  P  P9  1  0.523271  0.750000  0.846472  1
  P  P10  1  0.392160  0.750000  0.463194  1
  P  P11  1  0.333786  0.250000  0.815087  1
  O  O12  1  0.835407  0.900568  0.202412  1
  O  O13  1  0.835407  0.599432  0.202412  1
  O  O14  1  0.789767  0.250000  0.233464  1
  O  O15  1  0.773598  0.401282  0.511911  1
  O  O16  1  0.773598  0.098718  0.511911  1
  O  O17  1  0.698657  0.750000  0.548745  1
  O  O18  1  0.684826  0.900592  0.822780  1
  O  O19  1  0.684826  0.599408  0.822780  1
  O  O20  1  0.464899  0.750000  0.024079  1
  O  O21  1  0.582942  0.250000  0.713057  1
  O  O22  1  0.417058  0.750000  0.286943  1
  O  O23  1  0.535101  0.250000  0.975921  1
  O  O24  1  0.315174  0.099408  0.177220  1
  O  O25  1  0.315174  0.400592  0.177220  1
  O  O26  1  0.301343  0.250000  0.451255  1
  O  O27  1  0.226402  0.901282  0.488089  1
  O  O28  1  0.226402  0.598718  0.488089  1
  O  O29  1  0.210233  0.750000  0.766536  1
  O  O30  1  0.164593  0.400568  0.797588  1
  O  O31  1  0.164593  0.099432  0.797588  1
