# generated using pymatgen
data_Li2Cu2(SO4)3
_symmetry_space_group_name_H-M   'P 1'
_cell_length_a   8.58778549
_cell_length_b   8.59295738
_cell_length_c   12.77888208
_cell_angle_alpha   90.00000000
_cell_angle_beta   90.00000000
_cell_angle_gamma   90.00000000
_symmetry_Int_Tables_number   1
_chemical_formula_structural   Li2Cu2(SO4)3
_chemical_formula_sum   'Li8 Cu8 S12 O48'
_cell_volume   943.01089077
_cell_formula_units_Z   4
loop_
 _symmetry_equiv_pos_site_id
 _symmetry_equiv_pos_as_xyz
  1  'x, y, z'
loop_
 _atom_site_type_symbol
 _atom_site_label
 _atom_site_symmetry_multiplicity
 _atom_site_fract_x
 _atom_site_fract_y
 _atom_site_fract_z
 _atom_site_occupancy
  Li  Li0  1  0.222496  0.276268  0.185913  1
  Li  Li1  1  0.777504  0.776268  0.185913  1
  Li  Li2  1  0.277504  0.776268  0.314087  1
  Li  Li3  1  0.722496  0.276268  0.314087  1
  Li  Li4  1  0.277504  0.723732  0.685913  1
  Li  Li5  1  0.722496  0.223732  0.685913  1
  Li  Li6  1  0.222496  0.223732  0.814087  1
  Li  Li7  1  0.777504  0.723732  0.814087  1
  Cu  Cu8  1  0.250104  0.960826  0.107419  1
  Cu  Cu9  1  0.749896  0.460826  0.107419  1
  Cu  Cu10  1  0.750104  0.960826  0.392581  1
  Cu  Cu11  1  0.249896  0.460826  0.392581  1
  Cu  Cu12  1  0.249896  0.039174  0.607419  1
  Cu  Cu13  1  0.750104  0.539174  0.607419  1
  Cu  Cu14  1  0.250104  0.539174  0.892581  1
  Cu  Cu15  1  0.749896  0.039174  0.892581  1
  S  S16  1  0.456937  0.250000  0.000000  1
  S  S17  1  0.543063  0.750000  0.000000  1
  S  S18  1  0.100197  0.607954  0.143575  1
  S  S19  1  0.899803  0.107954  0.143575  1
  S  S20  1  0.399803  0.107954  0.356425  1
  S  S21  1  0.600197  0.607954  0.356425  1
  S  S22  1  0.043063  0.750000  0.500000  1
  S  S23  1  0.956937  0.250000  0.500000  1
  S  S24  1  0.399803  0.392046  0.643575  1
  S  S25  1  0.600197  0.892046  0.643575  1
  S  S26  1  0.100197  0.892046  0.856425  1
  S  S27  1  0.899803  0.392046  0.856425  1
  O  O28  1  0.133820  0.578780  0.033451  1
  O  O29  1  0.866180  0.078780  0.033451  1
  O  O30  1  0.547922  0.365188  0.058866  1
  O  O31  1  0.452078  0.865188  0.058866  1
  O  O32  1  0.354056  0.171981  0.079673  1
  O  O33  1  0.645944  0.671981  0.079673  1
  O  O34  1  0.072869  0.113558  0.160533  1
  O  O35  1  0.927131  0.613558  0.160533  1
  O  O36  1  0.164759  0.762562  0.179108  1
  O  O37  1  0.835241  0.262562  0.179108  1
  O  O38  1  0.832867  0.985756  0.212007  1
  O  O39  1  0.167133  0.485756  0.212007  1
  O  O40  1  0.332867  0.985756  0.287993  1
  O  O41  1  0.667133  0.485756  0.287993  1
  O  O42  1  0.664759  0.762562  0.320892  1
  O  O43  1  0.335241  0.262562  0.320892  1
  O  O44  1  0.427131  0.613558  0.339467  1
  O  O45  1  0.572869  0.113558  0.339467  1
  O  O46  1  0.145944  0.671981  0.420327  1
  O  O47  1  0.854056  0.171981  0.420327  1
  O  O48  1  0.047922  0.365188  0.441134  1
  O  O49  1  0.952078  0.865188  0.441134  1
  O  O50  1  0.633820  0.578780  0.466549  1
  O  O51  1  0.366180  0.078780  0.466549  1
  O  O52  1  0.366180  0.421220  0.533451  1
  O  O53  1  0.633820  0.921220  0.533451  1
  O  O54  1  0.047922  0.134812  0.558866  1
  O  O55  1  0.952078  0.634812  0.558866  1
  O  O56  1  0.145944  0.828019  0.579673  1
  O  O57  1  0.854056  0.328019  0.579673  1
  O  O58  1  0.427131  0.886442  0.660533  1
  O  O59  1  0.572869  0.386442  0.660533  1
  O  O60  1  0.335241  0.237438  0.679108  1
  O  O61  1  0.664759  0.737438  0.679108  1
  O  O62  1  0.332867  0.514244  0.712007  1
  O  O63  1  0.667133  0.014244  0.712007  1
  O  O64  1  0.167133  0.014244  0.787993  1
  O  O65  1  0.832867  0.514244  0.787993  1
  O  O66  1  0.164759  0.737438  0.820892  1
  O  O67  1  0.835241  0.237438  0.820892  1
  O  O68  1  0.072869  0.386442  0.839467  1
  O  O69  1  0.927131  0.886442  0.839467  1
  O  O70  1  0.354056  0.328019  0.920327  1
  O  O71  1  0.645944  0.828019  0.920327  1
  O  O72  1  0.452078  0.634812  0.941134  1
  O  O73  1  0.547922  0.134812  0.941134  1
  O  O74  1  0.133820  0.921220  0.966549  1
  O  O75  1  0.866180  0.421220  0.966549  1
