# generated using pymatgen
data_Ba3Y2F12
_symmetry_space_group_name_H-M   'P 1'
_cell_length_a   9.83221995
_cell_length_b   9.83221995
_cell_length_c   5.80475919
_cell_angle_alpha   90.00000000
_cell_angle_beta   90.00000000
_cell_angle_gamma   90.00000000
_symmetry_Int_Tables_number   1
_chemical_formula_structural   Ba3Y2F12
_chemical_formula_sum   'Ba6 Y4 F24'
_cell_volume   561.16086807
_cell_formula_units_Z   2
loop_
 _symmetry_equiv_pos_site_id
 _symmetry_equiv_pos_as_xyz
  1  'x, y, z'
loop_
 _atom_site_type_symbol
 _atom_site_label
 _atom_site_symmetry_multiplicity
 _atom_site_fract_x
 _atom_site_fract_y
 _atom_site_fract_z
 _atom_site_occupancy
  Ba  Ba0  1  0.000000  0.000000  0.000000  1
  Ba  Ba1  1  0.679276  0.179276  0.500000  1
  Ba  Ba2  1  0.179276  0.320724  0.500000  1
  Ba  Ba3  1  0.500000  0.500000  0.000000  1
  Ba  Ba4  1  0.820724  0.679276  0.500000  1
  Ba  Ba5  1  0.320724  0.820724  0.500000  1
  Y  Y6  1  0.366926  0.133074  0.000000  1
  Y  Y7  1  0.866926  0.366926  0.000000  1
  Y  Y8  1  0.133074  0.633074  0.000000  1
  Y  Y9  1  0.633074  0.866926  0.000000  1
  F  F10  1  0.500000  0.000000  0.233271  1
  F  F11  1  0.500000  0.000000  0.766729  1
  F  F12  1  0.220894  0.055442  0.260246  1
  F  F13  1  0.220894  0.055442  0.739754  1
  F  F14  1  0.703463  0.203463  0.000000  1
  F  F15  1  0.944558  0.220894  0.260246  1
  F  F16  1  0.944558  0.220894  0.739754  1
  F  F17  1  0.444558  0.279106  0.260246  1
  F  F18  1  0.444558  0.279106  0.739754  1
  F  F19  1  0.203463  0.296537  0.000000  1
  F  F20  1  0.720894  0.444558  0.260246  1
  F  F21  1  0.720894  0.444558  0.739754  1
  F  F22  1  0.000000  0.500000  0.233271  1
  F  F23  1  0.000000  0.500000  0.766729  1
  F  F24  1  0.279106  0.555442  0.260246  1
  F  F25  1  0.279106  0.555442  0.739754  1
  F  F26  1  0.796537  0.703463  0.000000  1
  F  F27  1  0.555442  0.720894  0.260246  1
  F  F28  1  0.555442  0.720894  0.739754  1
  F  F29  1  0.055442  0.779106  0.260246  1
  F  F30  1  0.055442  0.779106  0.739754  1
  F  F31  1  0.296537  0.796537  0.000000  1
  F  F32  1  0.779106  0.944558  0.260246  1
  F  F33  1  0.779106  0.944558  0.739754  1
