# generated using pymatgen
data_Na2NiO2
_symmetry_space_group_name_H-M   'P 1'
_cell_length_a   5.90749548
_cell_length_b   5.90749548
_cell_length_c   5.90749548
_cell_angle_alpha   136.62118126
_cell_angle_beta   136.62118126
_cell_angle_gamma   63.02142735
_symmetry_Int_Tables_number   1
_chemical_formula_structural   Na2NiO2
_chemical_formula_sum   'Na2 Ni1 O2'
_cell_volume   96.02656403
_cell_formula_units_Z   1
loop_
 _symmetry_equiv_pos_site_id
 _symmetry_equiv_pos_as_xyz
  1  'x, y, z'
loop_
 _atom_site_type_symbol
 _atom_site_label
 _atom_site_symmetry_multiplicity
 _atom_site_fract_x
 _atom_site_fract_y
 _atom_site_fract_z
 _atom_site_occupancy
  Na  Na0  1  0.750000  0.250000  0.500000  1
  Na  Na1  1  0.250000  0.750000  0.500000  1
  Ni  Ni2  1  0.500000  0.500000  0.000000  1
  O  O3  1  0.670803  0.670803  0.000000  1
  O  O4  1  0.329197  0.329197  0.000000  1
