# generated using pymatgen
data_VF5
_symmetry_space_group_name_H-M   'P 1'
_cell_length_a   5.97604505
_cell_length_b   5.97604505
_cell_length_c   11.22428112
_cell_angle_alpha   90.00000000
_cell_angle_beta   90.00000000
_cell_angle_gamma   97.76903857
_symmetry_Int_Tables_number   1
_chemical_formula_structural   VF5
_chemical_formula_sum   'V4 F20'
_cell_volume   397.17461009
_cell_formula_units_Z   4
loop_
 _symmetry_equiv_pos_site_id
 _symmetry_equiv_pos_as_xyz
  1  'x, y, z'
loop_
 _atom_site_type_symbol
 _atom_site_label
 _atom_site_symmetry_multiplicity
 _atom_site_fract_x
 _atom_site_fract_y
 _atom_site_fract_z
 _atom_site_occupancy
  V  V0  1  0.158524  0.158524  0.408097  1
  V  V1  1  0.341476  0.341476  0.908097  1
  V  V2  1  0.658524  0.658524  0.091903  1
  V  V3  1  0.841476  0.841476  0.591903  1
  F  F4  1  0.868051  0.131949  0.500000  1
  F  F5  1  0.999188  0.999188  0.296321  1
  F  F6  1  0.415043  0.107813  0.348149  1
  F  F7  1  0.392187  0.084957  0.848149  1
  F  F8  1  0.213776  0.213776  0.038482  1
  F  F9  1  0.631949  0.368051  0.000000  1
  F  F10  1  0.286224  0.286224  0.538482  1
  F  F11  1  0.107813  0.415043  0.348149  1
  F  F12  1  0.084957  0.392187  0.848149  1
  F  F13  1  0.500812  0.500812  0.796321  1
  F  F14  1  0.499188  0.499188  0.203679  1
  F  F15  1  0.915043  0.607813  0.151851  1
  F  F16  1  0.892187  0.584957  0.651851  1
  F  F17  1  0.713776  0.713776  0.461518  1
  F  F18  1  0.368051  0.631949  0.000000  1
  F  F19  1  0.786224  0.786224  0.961518  1
  F  F20  1  0.607813  0.915043  0.151851  1
  F  F21  1  0.584957  0.892187  0.651851  1
  F  F22  1  0.000812  0.000812  0.703679  1
  F  F23  1  0.131949  0.868051  0.500000  1
