# generated using pymatgen
data_Li2Ti3P9O28
_symmetry_space_group_name_H-M   'P 1'
_cell_length_a   7.26635697
_cell_length_b   9.26753271
_cell_length_c   9.59770079
_cell_angle_alpha   111.58059968
_cell_angle_beta   110.31443188
_cell_angle_gamma   99.03965601
_symmetry_Int_Tables_number   1
_chemical_formula_structural   Li2Ti3P9O28
_chemical_formula_sum   'Li2 Ti3 P9 O28'
_cell_volume   532.72503475
_cell_formula_units_Z   1
loop_
 _symmetry_equiv_pos_site_id
 _symmetry_equiv_pos_as_xyz
  1  'x, y, z'
loop_
 _atom_site_type_symbol
 _atom_site_label
 _atom_site_symmetry_multiplicity
 _atom_site_fract_x
 _atom_site_fract_y
 _atom_site_fract_z
 _atom_site_occupancy
  Li  Li0  1  0.200347  0.996256  0.735244  1
  Li  Li1  1  0.799653  0.003744  0.264756  1
  Ti  Ti2  1  0.000000  0.500000  0.500000  1
  Ti  Ti3  1  0.250605  0.995849  0.245022  1
  Ti  Ti4  1  0.749395  0.004151  0.754978  1
  P  P5  1  0.308394  0.763479  0.441275  1
  P  P6  1  0.796955  0.760531  0.938753  1
  P  P7  1  0.680878  0.706049  0.411227  1
  P  P8  1  0.163648  0.691205  0.904447  1
  P  P9  1  0.500000  0.500000  0.000000  1
  P  P10  1  0.319122  0.293951  0.588773  1
  P  P11  1  0.836352  0.308795  0.095553  1
  P  P12  1  0.691606  0.236521  0.558725  1
  P  P13  1  0.203045  0.239469  0.061247  1
  O  O14  1  0.430412  0.913449  0.615611  1
  O  O15  1  0.928453  0.906190  0.116192  1
  O  O16  1  0.285559  0.868917  0.042977  1
  O  O17  1  0.810044  0.877853  0.560755  1
  O  O18  1  0.740710  0.821455  0.805998  1
  O  O19  1  0.236150  0.813245  0.301764  1
  O  O20  1  0.654414  0.710518  0.248736  1
  O  O21  1  0.129247  0.685422  0.734225  1
  O  O22  1  0.603639  0.654580  0.924214  1
  O  O23  1  0.126838  0.650105  0.435401  1
  O  O24  1  0.454854  0.656472  0.408706  1
  O  O25  1  0.935990  0.647655  0.901253  1
  O  O26  1  0.244039  0.560519  0.938327  1
  O  O27  1  0.760559  0.571081  0.440610  1
  O  O28  1  0.755961  0.439481  0.061673  1
  O  O29  1  0.239441  0.428919  0.559390  1
  O  O30  1  0.545146  0.343528  0.591294  1
  O  O31  1  0.064010  0.352345  0.098747  1
  O  O32  1  0.396361  0.345420  0.075786  1
  O  O33  1  0.873162  0.349895  0.564599  1
  O  O34  1  0.345586  0.289482  0.751264  1
  O  O35  1  0.870753  0.314578  0.265775  1
  O  O36  1  0.259290  0.178545  0.194002  1
  O  O37  1  0.763850  0.186755  0.698236  1
  O  O38  1  0.714441  0.131083  0.957023  1
  O  O39  1  0.189956  0.122147  0.439245  1
  O  O40  1  0.569588  0.086551  0.384389  1
  O  O41  1  0.071547  0.093810  0.883808  1
