# generated using pymatgen
data_Li4Mn3Fe(PO4)4
_symmetry_space_group_name_H-M   'P 1'
_cell_length_a   12.18885423
_cell_length_b   12.18885423
_cell_length_c   4.78815896
_cell_angle_alpha   89.78761251
_cell_angle_beta   90.21238749
_cell_angle_gamma   119.35529189
_symmetry_Int_Tables_number   1
_chemical_formula_structural   Li4Mn3Fe(PO4)4
_chemical_formula_sum   'Li8 Mn6 Fe2 P8 O32'
_cell_volume   620.02021510
_cell_formula_units_Z   2
loop_
 _symmetry_equiv_pos_site_id
 _symmetry_equiv_pos_as_xyz
  1  'x, y, z'
loop_
 _atom_site_type_symbol
 _atom_site_label
 _atom_site_symmetry_multiplicity
 _atom_site_fract_x
 _atom_site_fract_y
 _atom_site_fract_z
 _atom_site_occupancy
  Li  Li0  1  0.999181  0.249467  0.499953  1
  Li  Li1  1  0.750533  0.000819  0.499953  1
  Li  Li2  1  0.249750  0.500329  0.499835  1
  Li  Li3  1  0.499671  0.750250  0.499835  1
  Li  Li4  1  0.500371  0.250383  0.000297  1
  Li  Li5  1  0.749617  0.499629  0.000297  1
  Li  Li6  1  0.249330  0.000171  0.999785  1
  Li  Li7  1  0.999829  0.750670  0.999785  1
  Mn  Mn8  1  0.233346  0.265464  0.973016  1
  Mn  Mn9  1  0.734536  0.766654  0.973016  1
  Mn  Mn10  1  0.484718  0.016557  0.526704  1
  Mn  Mn11  1  0.983443  0.515282  0.526704  1
  Mn  Mn12  1  0.515505  0.484495  0.473519  1
  Mn  Mn13  1  0.265304  0.734696  0.026639  1
  Fe  Fe14  1  0.015323  0.984677  0.471670  1
  Fe  Fe15  1  0.765728  0.234272  0.028711  1
  P  P16  1  0.420864  0.579136  0.911231  1
  P  P17  1  0.921446  0.078554  0.911054  1
  P  P18  1  0.671889  0.328111  0.589833  1
  P  P19  1  0.170460  0.829540  0.587400  1
  P  P20  1  0.829558  0.672720  0.413226  1
  P  P21  1  0.327280  0.170442  0.413226  1
  P  P22  1  0.077709  0.420851  0.087117  1
  P  P23  1  0.579149  0.922291  0.087117  1
  O  O24  1  0.352226  0.647774  0.788091  1
  O  O25  1  0.852296  0.147704  0.792200  1
  O  O26  1  0.056460  0.144661  0.774623  1
  O  O27  1  0.556519  0.645256  0.778548  1
  O  O28  1  0.354744  0.443481  0.778548  1
  O  O29  1  0.855339  0.943540  0.774623  1
  O  O30  1  0.077272  0.423761  0.766484  1
  O  O31  1  0.576239  0.922728  0.766484  1
  O  O32  1  0.327271  0.173276  0.733876  1
  O  O33  1  0.826724  0.672729  0.733876  1
  O  O34  1  0.807096  0.394143  0.724932  1
  O  O35  1  0.605857  0.192904  0.724932  1
  O  O36  1  0.305951  0.895425  0.721412  1
  O  O37  1  0.104575  0.694049  0.721412  1
  O  O38  1  0.101754  0.898246  0.707934  1
  O  O39  1  0.603080  0.396920  0.709580  1
  O  O40  1  0.897710  0.604292  0.289108  1
  O  O41  1  0.395708  0.102290  0.289108  1
  O  O42  1  0.393152  0.306179  0.278032  1
  O  O43  1  0.896172  0.809485  0.283861  1
  O  O44  1  0.190515  0.103828  0.283861  1
  O  O45  1  0.693821  0.606848  0.278032  1
  O  O46  1  0.172736  0.827264  0.266732  1
  O  O47  1  0.673496  0.326504  0.268545  1
  O  O48  1  0.422778  0.577222  0.232105  1
  O  O49  1  0.923898  0.076102  0.232208  1
  O  O50  1  0.646159  0.059220  0.215812  1
  O  O51  1  0.142932  0.555746  0.221094  1
  O  O52  1  0.940780  0.353841  0.215812  1
  O  O53  1  0.444254  0.857068  0.221094  1
  O  O54  1  0.146281  0.352470  0.211808  1
  O  O55  1  0.647530  0.853719  0.211808  1
