# generated using pymatgen
data_Dy3TaO7
_symmetry_space_group_name_H-M   'P 1'
_cell_length_a   6.48731335
_cell_length_b   6.48731335
_cell_length_c   7.51062544
_cell_angle_alpha   90.00000000
_cell_angle_beta   90.00000000
_cell_angle_gamma   109.16677867
_symmetry_Int_Tables_number   1
_chemical_formula_structural   Dy3TaO7
_chemical_formula_sum   'Dy6 Ta2 O14'
_cell_volume   298.56478059
_cell_formula_units_Z   2
loop_
 _symmetry_equiv_pos_site_id
 _symmetry_equiv_pos_as_xyz
  1  'x, y, z'
loop_
 _atom_site_type_symbol
 _atom_site_label
 _atom_site_symmetry_multiplicity
 _atom_site_fract_x
 _atom_site_fract_y
 _atom_site_fract_z
 _atom_site_occupancy
  Dy  Dy0  1  0.000334  0.534728  0.246198  1
  Dy  Dy1  1  0.465272  0.999666  0.253802  1
  Dy  Dy2  1  0.475431  0.475431  0.000000  1
  Dy  Dy3  1  0.524569  0.524569  0.500000  1
  Dy  Dy4  1  0.999666  0.465272  0.746198  1
  Dy  Dy5  1  0.534728  0.000334  0.753802  1
  Ta  Ta6  1  0.002434  0.002434  0.500000  1
  Ta  Ta7  1  0.997566  0.997566  0.000000  1
  O  O8  1  0.932443  0.067557  0.750000  1
  O  O9  1  0.638236  0.361764  0.750000  1
  O  O10  1  0.314958  0.060399  0.537731  1
  O  O11  1  0.939601  0.685042  0.962269  1
  O  O12  1  0.629238  0.370762  0.250000  1
  O  O13  1  0.919888  0.673878  0.528549  1
  O  O14  1  0.326122  0.080112  0.971451  1
  O  O15  1  0.080112  0.326122  0.028549  1
  O  O16  1  0.673878  0.919888  0.471451  1
  O  O17  1  0.370762  0.629238  0.750000  1
  O  O18  1  0.685042  0.939601  0.037731  1
  O  O19  1  0.060399  0.314958  0.462269  1
  O  O20  1  0.361764  0.638236  0.250000  1
  O  O21  1  0.067557  0.932443  0.250000  1
