# generated using pymatgen
data_LiCuCO3
_symmetry_space_group_name_H-M   'P 1'
_cell_length_a   3.21087127
_cell_length_b   14.15843687
_cell_length_c   14.23967756
_cell_angle_alpha   119.80893803
_cell_angle_beta   95.06568279
_cell_angle_gamma   90.00336514
_symmetry_Int_Tables_number   1
_chemical_formula_structural   LiCuCO3
_chemical_formula_sum   'Li9 Cu9 C9 O27'
_cell_volume   558.77891256
_cell_formula_units_Z   9
loop_
 _symmetry_equiv_pos_site_id
 _symmetry_equiv_pos_as_xyz
  1  'x, y, z'
loop_
 _atom_site_type_symbol
 _atom_site_label
 _atom_site_symmetry_multiplicity
 _atom_site_fract_x
 _atom_site_fract_y
 _atom_site_fract_z
 _atom_site_occupancy
  Li  Li0  1  0.998733  0.228338  0.122895  1
  Li  Li1  1  0.997131  0.523732  0.422846  1
  Li  Li2  1  0.977587  0.894029  0.769862  1
  Li  Li3  1  0.008705  0.577607  0.103242  1
  Li  Li4  1  0.005089  0.898837  0.476595  1
  Li  Li5  1  0.995254  0.184271  0.755438  1
  Li  Li6  1  0.028947  0.875369  0.105008  1
  Li  Li7  1  0.927186  0.247088  0.431867  1
  Li  Li8  1  0.062331  0.569956  0.817741  1
  Cu  Cu9  1  0.493246  0.454830  0.197836  1
  Cu  Cu10  1  0.506148  0.740869  0.544963  1
  Cu  Cu11  1  0.499938  0.120048  0.905127  1
  Cu  Cu12  1  0.488102  0.803119  0.255301  1
  Cu  Cu13  1  0.539496  0.118223  0.546263  1
  Cu  Cu14  1  0.511050  0.091989  0.214766  1
  Cu  Cu15  1  0.550484  0.423674  0.875853  1
  Cu  Cu16  1  0.431273  0.449910  0.567919  1
  Cu  Cu17  1  0.498687  0.786950  0.878814  1
  C  C18  1  0.472555  0.330134  0.317733  1
  C  C19  1  0.026016  0.999974  0.999355  1
  C  C20  1  0.970130  0.666791  0.333169  1
  C  C21  1  0.489453  0.986047  0.668533  1
  C  C22  1  0.537258  0.683747  0.014619  1
  C  C23  1  0.018773  0.008579  0.343938  1
  C  C24  1  0.969306  0.333549  0.990315  1
  C  C25  1  0.997664  0.334034  0.666993  1
  C  C26  1  0.007681  0.654074  0.664665  1
  O  O27  1  0.526171  0.249866  0.221510  1
  O  O28  1  0.477717  0.430062  0.336155  1
  O  O29  1  0.120738  0.337220  0.079548  1
  O  O30  1  0.877643  0.739489  0.661892  1
  O  O31  1  0.891712  0.579106  0.238543  1
  O  O32  1  0.076305  0.658142  0.418691  1
  O  O33  1  0.096264  0.087263  0.993234  1
  O  O34  1  0.946575  0.761911  0.340803  1
  O  O35  1  0.469145  0.968184  0.749393  1
  O  O36  1  0.527979  0.905147  0.571031  1
  O  O37  1  0.506589  0.664498  0.094451  1
  O  O38  1  0.471489  0.083968  0.684941  1
  O  O39  1  0.504640  0.782368  0.031151  1
  O  O40  1  0.105501  0.919284  0.258463  1
  O  O41  1  0.828663  0.241714  0.905944  1
  O  O42  1  0.091117  0.017873  0.440514  1
  O  O43  1  0.937519  0.237546  0.653398  1
  O  O44  1  0.852695  0.088082  0.335863  1
  O  O45  1  0.960199  0.422546  0.984228  1
  O  O46  1  0.053462  0.005629  0.093643  1
  O  O47  1  0.147114  0.414039  0.761621  1
  O  O48  1  0.912163  0.352875  0.587217  1
  O  O49  1  0.413567  0.311072  0.395611  1
  O  O50  1  0.601147  0.605275  0.919468  1
  O  O51  1  0.969388  0.558172  0.576530  1
  O  O52  1  0.176620  0.662224  0.754803  1
  O  O53  1  0.923367  0.907493  0.911278  1
