# generated using pymatgen
data_Li9Sb3P8O29
_symmetry_space_group_name_H-M   'P 1'
_cell_length_a   10.20409278
_cell_length_b   10.20409278
_cell_length_c   14.14358892
_cell_angle_alpha   90.00000000
_cell_angle_beta   90.00000000
_cell_angle_gamma   120.00000000
_symmetry_Int_Tables_number   1
_chemical_formula_structural   Li9Sb3P8O29
_chemical_formula_sum   'Li18 Sb6 P16 O58'
_cell_volume   1275.37838997
_cell_formula_units_Z   2
loop_
 _symmetry_equiv_pos_site_id
 _symmetry_equiv_pos_as_xyz
  1  'x, y, z'
loop_
 _atom_site_type_symbol
 _atom_site_label
 _atom_site_symmetry_multiplicity
 _atom_site_fract_x
 _atom_site_fract_y
 _atom_site_fract_z
 _atom_site_occupancy
  Li  Li0  1  0.000000  0.000000  0.500000  1
  Li  Li1  1  0.000000  0.000000  0.000000  1
  Li  Li2  1  0.329181  0.226535  0.561928  1
  Li  Li3  1  0.329181  0.102646  0.061928  1
  Li  Li4  1  0.773465  0.670819  0.061928  1
  Li  Li5  1  0.666667  0.333333  0.379882  1
  Li  Li6  1  0.666667  0.333333  0.879882  1
  Li  Li7  1  0.897354  0.670819  0.561928  1
  Li  Li8  1  0.773465  0.102646  0.561928  1
  Li  Li9  1  0.102646  0.773465  0.938072  1
  Li  Li10  1  0.897354  0.226535  0.061928  1
  Li  Li11  1  0.226535  0.897354  0.438072  1
  Li  Li12  1  0.102646  0.329181  0.438072  1
  Li  Li13  1  0.333333  0.666667  0.620118  1
  Li  Li14  1  0.333333  0.666667  0.120118  1
  Li  Li15  1  0.226535  0.329181  0.938072  1
  Li  Li16  1  0.670819  0.897354  0.938072  1
  Li  Li17  1  0.670819  0.773465  0.438072  1
  Sb  Sb18  1  0.431279  0.431279  0.750000  1
  Sb  Sb19  1  0.568721  0.568721  0.250000  1
  Sb  Sb20  1  0.431279  0.000000  0.250000  1
  Sb  Sb21  1  0.568721  0.000000  0.750000  1
  Sb  Sb22  1  0.000000  0.568721  0.750000  1
  Sb  Sb23  1  0.000000  0.431279  0.250000  1
  P  P24  1  0.307616  0.220373  0.346842  1
  P  P25  1  0.307616  0.087243  0.846842  1
  P  P26  1  0.779627  0.692384  0.846842  1
  P  P27  1  0.666667  0.333333  0.112933  1
  P  P28  1  0.666667  0.333333  0.612933  1
  P  P29  1  0.912757  0.692384  0.346842  1
  P  P30  1  0.087243  0.779627  0.153158  1
  P  P31  1  0.779627  0.087243  0.346842  1
  P  P32  1  0.220373  0.912757  0.653158  1
  P  P33  1  0.912757  0.220373  0.846842  1
  P  P34  1  0.087243  0.307616  0.653158  1
  P  P35  1  0.333333  0.666667  0.887067  1
  P  P36  1  0.333333  0.666667  0.387067  1
  P  P37  1  0.220373  0.307616  0.153158  1
  P  P38  1  0.692384  0.912757  0.153158  1
  P  P39  1  0.692384  0.779627  0.653158  1
  O  O40  1  0.222698  0.222698  0.250000  1
  O  O41  1  0.225269  0.217578  0.068497  1
  O  O42  1  0.301624  0.236000  0.846777  1
  O  O43  1  0.222698  0.000000  0.750000  1
  O  O44  1  0.225269  0.007691  0.568497  1
  O  O45  1  0.301624  0.065624  0.346777  1
  O  O46  1  0.473190  0.348358  0.344008  1
  O  O47  1  0.509730  0.305990  0.650791  1
  O  O48  1  0.651642  0.526810  0.844008  1
  O  O49  1  0.782422  0.774731  0.568497  1
  O  O50  1  0.777302  0.777302  0.750000  1
  O  O51  1  0.764000  0.698376  0.346777  1
  O  O52  1  0.509730  0.203740  0.150791  1
  O  O53  1  0.473190  0.124832  0.844008  1
  O  O54  1  0.694010  0.490270  0.150791  1
  O  O55  1  0.666667  0.333333  0.006380  1
  O  O56  1  0.666667  0.333333  0.506380  1
  O  O57  1  0.796260  0.490270  0.650791  1
  O  O58  1  0.651642  0.124832  0.344008  1
  O  O59  1  0.694010  0.203740  0.650791  1
  O  O60  1  0.934376  0.698376  0.846777  1
  O  O61  1  0.000000  0.777302  0.250000  1
  O  O62  1  0.992309  0.774731  0.068497  1
  O  O63  1  0.007691  0.782422  0.431503  1
  O  O64  1  0.875168  0.526810  0.344008  1
  O  O65  1  0.796260  0.305990  0.150791  1
  O  O66  1  0.065624  0.764000  0.653223  1
  O  O67  1  0.875168  0.348358  0.844008  1
  O  O68  1  0.764000  0.065624  0.846777  1
  O  O69  1  0.217578  0.992309  0.931503  1
  O  O70  1  0.782422  0.007691  0.068497  1
  O  O71  1  0.777302  0.000000  0.250000  1
  O  O72  1  0.236000  0.934376  0.153223  1
  O  O73  1  0.124832  0.651642  0.155992  1
  O  O74  1  0.934376  0.236000  0.346777  1
  O  O75  1  0.203740  0.694010  0.849209  1
  O  O76  1  0.124832  0.473190  0.655992  1
  O  O77  1  0.992309  0.217578  0.568497  1
  O  O78  1  0.007691  0.225269  0.931503  1
  O  O79  1  0.000000  0.222698  0.750000  1
  O  O80  1  0.065624  0.301624  0.153223  1
  O  O81  1  0.305990  0.796260  0.349209  1
  O  O82  1  0.348358  0.875168  0.655992  1
  O  O83  1  0.203740  0.509730  0.349209  1
  O  O84  1  0.333333  0.666667  0.993620  1
  O  O85  1  0.333333  0.666667  0.493620  1
  O  O86  1  0.305990  0.509730  0.849209  1
  O  O87  1  0.526810  0.875168  0.155992  1
  O  O88  1  0.490270  0.796260  0.849209  1
  O  O89  1  0.236000  0.301624  0.653223  1
  O  O90  1  0.217578  0.225269  0.431503  1
  O  O91  1  0.348358  0.473190  0.155992  1
  O  O92  1  0.490270  0.694010  0.349209  1
  O  O93  1  0.526810  0.651642  0.655992  1
  O  O94  1  0.698376  0.934376  0.653223  1
  O  O95  1  0.774731  0.992309  0.431503  1
  O  O96  1  0.698376  0.764000  0.153223  1
  O  O97  1  0.774731  0.782422  0.931503  1
