# generated using pymatgen
data_P4WO12
_symmetry_space_group_name_H-M   'P 1'
_cell_length_a   8.52557860
_cell_length_b   8.52557860
_cell_length_c   9.66972374
_cell_angle_alpha   61.84036784
_cell_angle_beta   118.15963216
_cell_angle_gamma   128.34508099
_symmetry_Int_Tables_number   1
_chemical_formula_structural   P4WO12
_chemical_formula_sum   'P8 W2 O24'
_cell_volume   469.39528963
_cell_formula_units_Z   2
loop_
 _symmetry_equiv_pos_site_id
 _symmetry_equiv_pos_as_xyz
  1  'x, y, z'
loop_
 _atom_site_type_symbol
 _atom_site_label
 _atom_site_symmetry_multiplicity
 _atom_site_fract_x
 _atom_site_fract_y
 _atom_site_fract_z
 _atom_site_occupancy
  P  P0  1  0.440028  0.696061  0.366438  1
  P  P1  1  0.688211  0.969092  0.827886  1
  P  P2  1  0.030908  0.311789  0.327886  1
  P  P3  1  0.696061  0.440028  0.133562  1
  P  P4  1  0.303939  0.559972  0.866438  1
  P  P5  1  0.969092  0.688211  0.672114  1
  P  P6  1  0.311789  0.030908  0.172114  1
  P  P7  1  0.559972  0.303939  0.633562  1
  W  W8  1  0.857360  0.857360  0.250000  1
  W  W9  1  0.142640  0.142640  0.750000  1
  O  O10  1  0.366516  0.860012  0.299832  1
  O  O11  1  0.004255  0.859573  0.712861  1
  O  O12  1  0.859573  0.004255  0.787139  1
  O  O13  1  0.234263  0.516638  0.279761  1
  O  O14  1  0.734947  0.968293  0.998989  1
  O  O15  1  0.790407  0.596270  0.226430  1
  O  O16  1  0.596270  0.790407  0.273570  1
  O  O17  1  0.031707  0.265053  0.498989  1
  O  O18  1  0.483362  0.765737  0.779761  1
  O  O19  1  0.860012  0.366516  0.200168  1
  O  O20  1  0.494930  0.639668  0.544219  1
  O  O21  1  0.639668  0.494930  0.955781  1
  O  O22  1  0.360332  0.505070  0.044219  1
  O  O23  1  0.505070  0.360332  0.455781  1
  O  O24  1  0.139988  0.633484  0.799832  1
  O  O25  1  0.516638  0.234263  0.220239  1
  O  O26  1  0.968293  0.734947  0.501011  1
  O  O27  1  0.403730  0.209593  0.726430  1
  O  O28  1  0.209593  0.403730  0.773570  1
  O  O29  1  0.265053  0.031707  0.001011  1
  O  O30  1  0.765737  0.483362  0.720239  1
  O  O31  1  0.140427  0.995745  0.212861  1
  O  O32  1  0.995745  0.140427  0.287139  1
  O  O33  1  0.633484  0.139988  0.700168  1
