# generated using pymatgen
data_KVPCO7
_symmetry_space_group_name_H-M   'P 1'
_cell_length_a   5.52715654
_cell_length_b   6.28902445
_cell_length_c   9.81642652
_cell_angle_alpha   90.00000000
_cell_angle_beta   91.34067282
_cell_angle_gamma   90.00000000
_symmetry_Int_Tables_number   1
_chemical_formula_structural   KVPCO7
_chemical_formula_sum   'K2 V2 P2 C2 O14'
_cell_volume   341.12972527
_cell_formula_units_Z   2
loop_
 _symmetry_equiv_pos_site_id
 _symmetry_equiv_pos_as_xyz
  1  'x, y, z'
loop_
 _atom_site_type_symbol
 _atom_site_label
 _atom_site_symmetry_multiplicity
 _atom_site_fract_x
 _atom_site_fract_y
 _atom_site_fract_z
 _atom_site_occupancy
  K  K0  1  0.750252  0.574195  0.239770  1
  K  K1  1  0.249748  0.074195  0.760230  1
  V  V2  1  0.226611  0.219220  0.339621  1
  V  V3  1  0.773389  0.719220  0.660379  1
  P  P4  1  0.272941  0.727033  0.448344  1
  P  P5  1  0.727059  0.227033  0.551656  1
  C  C6  1  0.279822  0.262829  0.099121  1
  C  C7  1  0.720178  0.762829  0.900879  1
  O  O8  1  0.692123  0.794122  0.022875  1
  O  O9  1  0.066565  0.252890  0.161945  1
  O  O10  1  0.458386  0.239442  0.193647  1
  O  O11  1  0.226427  0.926144  0.352999  1
  O  O12  1  0.231956  0.537266  0.350131  1
  O  O13  1  0.907269  0.233862  0.436092  1
  O  O14  1  0.537851  0.735147  0.498961  1
  O  O15  1  0.462149  0.235147  0.501039  1
  O  O16  1  0.092731  0.733862  0.563908  1
  O  O17  1  0.768044  0.037266  0.649869  1
  O  O18  1  0.773573  0.426144  0.647001  1
  O  O19  1  0.541614  0.739442  0.806353  1
  O  O20  1  0.933435  0.752890  0.838055  1
  O  O21  1  0.307877  0.294122  0.977125  1
