# generated using pymatgen
data_LiCoOF
_symmetry_space_group_name_H-M   'P 1'
_cell_length_a   3.02560295
_cell_length_b   3.02560295
_cell_length_c   16.52685665
_cell_angle_alpha   90.00000000
_cell_angle_beta   90.00000000
_cell_angle_gamma   90.00000000
_symmetry_Int_Tables_number   1
_chemical_formula_structural   LiCoOF
_chemical_formula_sum   'Li4 Co4 O4 F4'
_cell_volume   151.29136153
_cell_formula_units_Z   4
loop_
 _symmetry_equiv_pos_site_id
 _symmetry_equiv_pos_as_xyz
  1  'x, y, z'
loop_
 _atom_site_type_symbol
 _atom_site_label
 _atom_site_symmetry_multiplicity
 _atom_site_fract_x
 _atom_site_fract_y
 _atom_site_fract_z
 _atom_site_occupancy
  Li  Li0  1  0.000000  0.500000  0.317997  1
  Li  Li1  1  0.500000  0.000000  0.440599  1
  Li  Li2  1  0.000000  0.500000  0.559401  1
  Li  Li3  1  0.500000  0.000000  0.682003  1
  Co  Co4  1  0.000000  0.500000  0.811696  1
  Co  Co5  1  0.500000  0.000000  0.933538  1
  Co  Co6  1  0.000000  0.500000  0.066462  1
  Co  Co7  1  0.500000  0.000000  0.188304  1
  O  O8  1  0.500000  0.000000  0.806293  1
  O  O9  1  0.000000  0.500000  0.937244  1
  O  O10  1  0.500000  0.000000  0.062756  1
  O  O11  1  0.000000  0.500000  0.193707  1
  F  F12  1  0.500000  0.000000  0.320659  1
  F  F13  1  0.000000  0.500000  0.439755  1
  F  F14  1  0.500000  0.000000  0.560245  1
  F  F15  1  0.000000  0.500000  0.679341  1
