# generated using pymatgen
data_Na4H20RuS4(NO9)2
_symmetry_space_group_name_H-M   'P 1'
_cell_length_a   9.77226458
_cell_length_b   6.58852609
_cell_length_c   16.41672726
_cell_angle_alpha   90.00000000
_cell_angle_beta   102.91077773
_cell_angle_gamma   90.00000000
_symmetry_Int_Tables_number   1
_chemical_formula_structural   Na4H20RuS4(NO9)2
_chemical_formula_sum   'Na8 H40 Ru2 S8 N4 O36'
_cell_volume   1030.26650949
_cell_formula_units_Z   2
loop_
 _symmetry_equiv_pos_site_id
 _symmetry_equiv_pos_as_xyz
  1  'x, y, z'
loop_
 _atom_site_type_symbol
 _atom_site_label
 _atom_site_symmetry_multiplicity
 _atom_site_fract_x
 _atom_site_fract_y
 _atom_site_fract_z
 _atom_site_occupancy
  Na  Na0  1  0.033631  0.098753  0.230820  1
  Na  Na1  1  0.966369  0.598753  0.269180  1
  Na  Na2  1  0.966369  0.901247  0.769180  1
  Na  Na3  1  0.033631  0.401247  0.730820  1
  Na  Na4  1  0.604500  0.809906  0.301828  1
  Na  Na5  1  0.395500  0.309906  0.198172  1
  Na  Na6  1  0.395500  0.190094  0.698172  1
  Na  Na7  1  0.604500  0.690094  0.801828  1
  H  H8  1  0.917956  0.859908  0.045624  1
  H  H9  1  0.082044  0.359908  0.454376  1
  H  H10  1  0.082044  0.140092  0.954376  1
  H  H11  1  0.917956  0.640092  0.545624  1
  H  H12  1  0.790065  0.783408  0.968130  1
  H  H13  1  0.209935  0.283408  0.531870  1
  H  H14  1  0.209935  0.216592  0.031870  1
  H  H15  1  0.790065  0.716592  0.468130  1
  H  H16  1  0.941243  0.871548  0.948462  1
  H  H17  1  0.058757  0.371548  0.551538  1
  H  H18  1  0.058757  0.128452  0.051538  1
  H  H19  1  0.941243  0.628452  0.448462  1
  H  H20  1  0.305027  0.672554  0.047400  1
  H  H21  1  0.694973  0.172554  0.452600  1
  H  H22  1  0.694973  0.327446  0.952600  1
  H  H23  1  0.305027  0.827446  0.547400  1
  H  H24  1  0.337280  0.862378  0.205418  1
  H  H25  1  0.662720  0.362378  0.294582  1
  H  H26  1  0.662720  0.137622  0.794582  1
  H  H27  1  0.337280  0.637622  0.705418  1
  H  H28  1  0.323699  0.955246  0.292089  1
  H  H29  1  0.676301  0.455246  0.207911  1
  H  H30  1  0.676301  0.044754  0.707911  1
  H  H31  1  0.323699  0.544754  0.792089  1
  H  H32  1  0.710328  0.008179  0.090234  1
  H  H33  1  0.289672  0.508179  0.409766  1
  H  H34  1  0.289672  0.991821  0.909766  1
  H  H35  1  0.710328  0.491821  0.590234  1
  H  H36  1  0.649896  0.932047  0.161359  1
  H  H37  1  0.350104  0.432047  0.338641  1
  H  H38  1  0.350104  0.067953  0.838641  1
  H  H39  1  0.649896  0.567953  0.661359  1
  H  H40  1  0.601308  0.891792  0.476978  1
  H  H41  1  0.398692  0.391792  0.023022  1
  H  H42  1  0.398692  0.108208  0.523022  1
  H  H43  1  0.601308  0.608208  0.976978  1
  H  H44  1  0.521296  0.686025  0.449512  1
  H  H45  1  0.478704  0.186025  0.050488  1
  H  H46  1  0.478704  0.313975  0.550488  1
  H  H47  1  0.521296  0.813975  0.949512  1
  Ru  Ru48  1  0.000000  0.500000  0.000000  1
  Ru  Ru49  1  0.000000  0.000000  0.500000  1
  S  S50  1  0.135228  0.597259  0.133629  1
  S  S51  1  0.864772  0.097259  0.366371  1
  S  S52  1  0.864772  0.402741  0.866371  1
  S  S53  1  0.135228  0.902741  0.633629  1
  S  S54  1  0.159031  0.630405  0.925892  1
  S  S55  1  0.840969  0.130405  0.574108  1
  S  S56  1  0.840969  0.369595  0.074108  1
  S  S57  1  0.159031  0.869595  0.425892  1
  N  N58  1  0.897910  0.787757  0.988898  1
  N  N59  1  0.102090  0.287757  0.511102  1
  N  N60  1  0.102090  0.212243  0.011102  1
  N  N61  1  0.897910  0.712243  0.488898  1
  O  O62  1  0.069161  0.772754  0.169054  1
  O  O63  1  0.930839  0.272754  0.330946  1
  O  O64  1  0.930839  0.227246  0.830946  1
  O  O65  1  0.069161  0.727246  0.669054  1
  O  O66  1  0.155911  0.423360  0.196568  1
  O  O67  1  0.844089  0.923360  0.303432  1
  O  O68  1  0.844089  0.576640  0.803432  1
  O  O69  1  0.155911  0.076640  0.696568  1
  O  O70  1  0.287091  0.665637  0.132905  1
  O  O71  1  0.712909  0.165637  0.367095  1
  O  O72  1  0.712909  0.334363  0.867095  1
  O  O73  1  0.287091  0.834363  0.632905  1
  O  O74  1  0.314573  0.649212  0.985240  1
  O  O75  1  0.685427  0.149212  0.514760  1
  O  O76  1  0.685427  0.350788  0.014760  1
  O  O77  1  0.314573  0.850788  0.485240  1
  O  O78  1  0.188111  0.510241  0.854892  1
  O  O79  1  0.811889  0.010241  0.645108  1
  O  O80  1  0.811889  0.489759  0.145108  1
  O  O81  1  0.188111  0.989759  0.354892  1
  O  O82  1  0.121857  0.845374  0.898250  1
  O  O83  1  0.878143  0.345374  0.601750  1
  O  O84  1  0.878143  0.154626  0.101750  1
  O  O85  1  0.121857  0.654626  0.398250  1
  O  O86  1  0.380037  0.964130  0.248895  1
  O  O87  1  0.619963  0.464130  0.251105  1
  O  O88  1  0.619963  0.035870  0.751105  1
  O  O89  1  0.380037  0.535870  0.748895  1
  O  O90  1  0.624008  0.946254  0.100776  1
  O  O91  1  0.375992  0.446254  0.399224  1
  O  O92  1  0.375992  0.053746  0.899224  1
  O  O93  1  0.624008  0.553746  0.600776  1
  O  O94  1  0.593621  0.777409  0.437747  1
  O  O95  1  0.406379  0.277409  0.062253  1
  O  O96  1  0.406379  0.222591  0.562253  1
  O  O97  1  0.593621  0.722591  0.937747  1
