# generated using pymatgen
data_FeOF
_symmetry_space_group_name_H-M   'P 1'
_cell_length_a   9.48189610
_cell_length_b   3.08417351
_cell_length_c   14.09506321
_cell_angle_alpha   90.00000000
_cell_angle_beta   90.92380749
_cell_angle_gamma   90.00000000
_symmetry_Int_Tables_number   1
_chemical_formula_structural   FeOF
_chemical_formula_sum   'Fe12 O12 F12'
_cell_volume   412.13981231
_cell_formula_units_Z   12
loop_
 _symmetry_equiv_pos_site_id
 _symmetry_equiv_pos_as_xyz
  1  'x, y, z'
loop_
 _atom_site_type_symbol
 _atom_site_label
 _atom_site_symmetry_multiplicity
 _atom_site_fract_x
 _atom_site_fract_y
 _atom_site_fract_z
 _atom_site_occupancy
  Fe  Fe0  1  0.990137  0.000000  0.006338  1
  Fe  Fe1  1  0.503605  0.000000  0.004894  1
  Fe  Fe2  1  0.251671  0.500000  0.144056  1
  Fe  Fe3  1  0.746958  0.500000  0.149221  1
  Fe  Fe4  1  0.990575  0.000000  0.340790  1
  Fe  Fe5  1  0.498270  0.000000  0.338373  1
  Fe  Fe6  1  0.743162  0.500000  0.483392  1
  Fe  Fe7  1  0.286485  0.500000  0.498281  1
  Fe  Fe8  1  0.008343  0.000000  0.673174  1
  Fe  Fe9  1  0.484153  0.000000  0.676574  1
  Fe  Fe10  1  0.246271  0.500000  0.823729  1
  Fe  Fe11  1  0.746813  0.500000  0.860681  1
  O  O12  1  0.402586  0.500000  0.060650  1
  O  O13  1  0.905389  0.500000  0.067027  1
  O  O14  1  0.150558  0.000000  0.099251  1
  O  O15  1  0.650302  0.000000  0.106519  1
  O  O16  1  0.407061  0.500000  0.393420  1
  O  O17  1  0.904713  0.500000  0.401880  1
  O  O18  1  0.646844  0.000000  0.431736  1
  O  O19  1  0.351750  0.000000  0.567548  1
  O  O20  1  0.398313  0.500000  0.737594  1
  O  O21  1  0.152789  0.000000  0.764025  1
  O  O22  1  0.854663  0.000000  0.899913  1
  O  O23  1  0.591054  0.500000  0.936387  1
  F  F24  1  0.352756  0.000000  0.234155  1
  F  F25  1  0.849157  0.000000  0.235308  1
  F  F26  1  0.095341  0.500000  0.273676  1
  F  F27  1  0.595405  0.500000  0.272860  1
  F  F28  1  0.155660  0.000000  0.436041  1
  F  F29  1  0.848383  0.000000  0.567148  1
  F  F30  1  0.090146  0.500000  0.597546  1
  F  F31  1  0.602620  0.500000  0.606126  1
  F  F32  1  0.900662  0.500000  0.726664  1
  F  F33  1  0.655197  0.000000  0.767451  1
  F  F34  1  0.336524  0.000000  0.891062  1
  F  F35  1  0.105683  0.500000  0.926516  1
