# generated using pymatgen
data_Li2Mn(PO4)2
_symmetry_space_group_name_H-M   'P 1'
_cell_length_a   5.03031792
_cell_length_b   5.03031792
_cell_length_c   13.70943498
_cell_angle_alpha   83.63729311
_cell_angle_beta   96.36270689
_cell_angle_gamma   124.97221383
_symmetry_Int_Tables_number   1
_chemical_formula_structural   Li2Mn(PO4)2
_chemical_formula_sum   'Li4 Mn2 P4 O16'
_cell_volume   282.03638138
_cell_formula_units_Z   2
loop_
 _symmetry_equiv_pos_site_id
 _symmetry_equiv_pos_as_xyz
  1  'x, y, z'
loop_
 _atom_site_type_symbol
 _atom_site_label
 _atom_site_symmetry_multiplicity
 _atom_site_fract_x
 _atom_site_fract_y
 _atom_site_fract_z
 _atom_site_occupancy
  Li  Li0  1  0.694155  0.362296  0.660496  1
  Li  Li1  1  0.637704  0.305845  0.160496  1
  Li  Li2  1  0.951666  0.962342  0.256574  1
  Li  Li3  1  0.037658  0.048334  0.756574  1
  Mn  Mn4  1  0.996211  0.990978  0.997583  1
  Mn  Mn5  1  0.009022  0.003789  0.497583  1
  P  P6  1  0.675736  0.351848  0.888645  1
  P  P7  1  0.648152  0.324264  0.388645  1
  P  P8  1  0.348696  0.667310  0.610517  1
  P  P9  1  0.332690  0.651304  0.110517  1
  O  O10  1  0.852145  0.733748  0.881341  1
  O  O11  1  0.774614  0.487906  0.289003  1
  O  O12  1  0.792393  0.562570  0.471893  1
  O  O13  1  0.953648  0.301791  0.918663  1
  O  O14  1  0.698209  0.046352  0.418663  1
  O  O15  1  0.437430  0.207607  0.971893  1
  O  O16  1  0.512094  0.225386  0.789003  1
  O  O17  1  0.266252  0.147855  0.381341  1
  O  O18  1  0.724901  0.815434  0.627258  1
  O  O19  1  0.513763  0.850574  0.199278  1
  O  O20  1  0.559625  0.772387  0.025566  1
  O  O21  1  0.334035  0.970439  0.579905  1
  O  O22  1  0.029561  0.665965  0.079905  1
  O  O23  1  0.227613  0.440375  0.525566  1
  O  O24  1  0.149426  0.486237  0.699278  1
  O  O25  1  0.184566  0.275099  0.127258  1
