# generated using pymatgen
data_ZnCoH18N6Cl5
_symmetry_space_group_name_H-M   'P 1'
_cell_length_a   7.82769104
_cell_length_b   8.27724165
_cell_length_c   21.69926904
_cell_angle_alpha   90.00000000
_cell_angle_beta   90.00000000
_cell_angle_gamma   90.00000000
_symmetry_Int_Tables_number   1
_chemical_formula_structural   ZnCoH18N6Cl5
_chemical_formula_sum   'Zn4 Co4 H72 N24 Cl20'
_cell_volume   1405.93231937
_cell_formula_units_Z   4
loop_
 _symmetry_equiv_pos_site_id
 _symmetry_equiv_pos_as_xyz
  1  'x, y, z'
loop_
 _atom_site_type_symbol
 _atom_site_label
 _atom_site_symmetry_multiplicity
 _atom_site_fract_x
 _atom_site_fract_y
 _atom_site_fract_z
 _atom_site_occupancy
  Zn  Zn0  1  0.250000  0.866070  0.091526  1
  Zn  Zn1  1  0.250000  0.633930  0.591526  1
  Zn  Zn2  1  0.750000  0.133930  0.908474  1
  Zn  Zn3  1  0.750000  0.366070  0.408474  1
  Co  Co4  1  0.250000  0.884644  0.359274  1
  Co  Co5  1  0.250000  0.615356  0.859274  1
  Co  Co6  1  0.750000  0.115356  0.640726  1
  Co  Co7  1  0.750000  0.384644  0.140726  1
  H  H8  1  0.250000  0.739259  0.255884  1
  H  H9  1  0.250000  0.760741  0.755884  1
  H  H10  1  0.750000  0.260741  0.744116  1
  H  H11  1  0.750000  0.239259  0.244116  1
  H  H12  1  0.144876  0.627788  0.306995  1
  H  H13  1  0.355124  0.872212  0.806995  1
  H  H14  1  0.644876  0.372212  0.693005  1
  H  H15  1  0.855124  0.127788  0.193005  1
  H  H16  1  0.855124  0.372212  0.693005  1
  H  H17  1  0.644876  0.127788  0.193005  1
  H  H18  1  0.355124  0.627788  0.306995  1
  H  H19  1  0.144876  0.872212  0.806995  1
  H  H20  1  0.955066  0.772533  0.386190  1
  H  H21  1  0.544934  0.727467  0.886190  1
  H  H22  1  0.455066  0.227467  0.613810  1
  H  H23  1  0.044934  0.272533  0.113810  1
  H  H24  1  0.044934  0.227467  0.613810  1
  H  H25  1  0.455066  0.272533  0.113810  1
  H  H26  1  0.544934  0.772533  0.386190  1
  H  H27  1  0.955066  0.727467  0.886190  1
  H  H28  1  0.050509  0.832670  0.450502  1
  H  H29  1  0.449491  0.667330  0.950502  1
  H  H30  1  0.550509  0.167330  0.549498  1
  H  H31  1  0.949491  0.332670  0.049498  1
  H  H32  1  0.949491  0.167330  0.549498  1
  H  H33  1  0.550509  0.332670  0.049498  1
  H  H34  1  0.449491  0.832670  0.450502  1
  H  H35  1  0.050509  0.667330  0.950502  1
  H  H36  1  0.101131  0.658938  0.419518  1
  H  H37  1  0.398869  0.841062  0.919518  1
  H  H38  1  0.601131  0.341062  0.580482  1
  H  H39  1  0.898869  0.158938  0.080482  1
  H  H40  1  0.898869  0.341062  0.580482  1
  H  H41  1  0.601131  0.158938  0.080482  1
  H  H42  1  0.398869  0.658938  0.419518  1
  H  H43  1  0.101131  0.841062  0.919518  1
  H  H44  1  0.118792  0.029534  0.267620  1
  H  H45  1  0.381208  0.470466  0.767620  1
  H  H46  1  0.618792  0.970466  0.732380  1
  H  H47  1  0.881208  0.529534  0.232380  1
  H  H48  1  0.881208  0.970466  0.732380  1
  H  H49  1  0.618792  0.529534  0.232380  1
  H  H50  1  0.381208  0.029534  0.267620  1
  H  H51  1  0.118792  0.470466  0.767620  1
  H  H52  1  0.022624  0.088780  0.330908  1
  H  H53  1  0.477376  0.411220  0.830908  1
  H  H54  1  0.522624  0.911220  0.669092  1
  H  H55  1  0.977376  0.588780  0.169092  1
  H  H56  1  0.977376  0.911220  0.669092  1
  H  H57  1  0.522624  0.588780  0.169092  1
  H  H58  1  0.477376  0.088780  0.330908  1
  H  H59  1  0.022624  0.411220  0.830908  1
  H  H60  1  0.971221  0.910724  0.300304  1
  H  H61  1  0.528779  0.589276  0.800304  1
  H  H62  1  0.471221  0.089276  0.699696  1
  H  H63  1  0.028779  0.410724  0.199696  1
  H  H64  1  0.028779  0.089276  0.699696  1
  H  H65  1  0.471221  0.410724  0.199696  1
  H  H66  1  0.528779  0.910724  0.300304  1
  H  H67  1  0.971221  0.589276  0.800304  1
  H  H68  1  0.354215  0.145389  0.408884  1
  H  H69  1  0.145785  0.354611  0.908884  1
  H  H70  1  0.854215  0.854611  0.591116  1
  H  H71  1  0.645785  0.645389  0.091116  1
  H  H72  1  0.645785  0.854611  0.591116  1
  H  H73  1  0.854215  0.645389  0.091116  1
  H  H74  1  0.145785  0.145389  0.408884  1
  H  H75  1  0.354215  0.354611  0.908884  1
  H  H76  1  0.250000  0.037250  0.461325  1
  H  H77  1  0.250000  0.462750  0.961325  1
  H  H78  1  0.750000  0.962750  0.538675  1
  H  H79  1  0.750000  0.537250  0.038675  1
  N  N80  1  0.250000  0.700480  0.300996  1
  N  N81  1  0.250000  0.799520  0.800996  1
  N  N82  1  0.750000  0.299520  0.699004  1
  N  N83  1  0.750000  0.200480  0.199004  1
  N  N84  1  0.070860  0.776564  0.408919  1
  N  N85  1  0.429140  0.723436  0.908919  1
  N  N86  1  0.570860  0.223436  0.591081  1
  N  N87  1  0.929140  0.276564  0.091081  1
  N  N88  1  0.929140  0.223436  0.591081  1
  N  N89  1  0.570860  0.276564  0.091081  1
  N  N90  1  0.429140  0.776564  0.408919  1
  N  N91  1  0.070860  0.723436  0.908919  1
  N  N92  1  0.072253  0.988079  0.309144  1
  N  N93  1  0.427747  0.511921  0.809144  1
  N  N94  1  0.572253  0.011921  0.690856  1
  N  N95  1  0.927747  0.488079  0.190856  1
  N  N96  1  0.927747  0.011921  0.690856  1
  N  N97  1  0.572253  0.488079  0.190856  1
  N  N98  1  0.427747  0.988079  0.309144  1
  N  N99  1  0.072253  0.511921  0.809144  1
  N  N100  1  0.250000  0.071668  0.415571  1
  N  N101  1  0.250000  0.428332  0.915571  1
  N  N102  1  0.750000  0.928332  0.584429  1
  N  N103  1  0.750000  0.571668  0.084429  1
  Cl  Cl104  1  0.250000  0.590453  0.057464  1
  Cl  Cl105  1  0.250000  0.909547  0.557464  1
  Cl  Cl106  1  0.750000  0.409547  0.942536  1
  Cl  Cl107  1  0.750000  0.090453  0.442536  1
  Cl  Cl108  1  0.007267  0.873269  0.152333  1
  Cl  Cl109  1  0.492733  0.626731  0.652333  1
  Cl  Cl110  1  0.507267  0.126731  0.847667  1
  Cl  Cl111  1  0.992733  0.373269  0.347667  1
  Cl  Cl112  1  0.992733  0.126731  0.847667  1
  Cl  Cl113  1  0.507267  0.373269  0.347667  1
  Cl  Cl114  1  0.492733  0.873269  0.152333  1
  Cl  Cl115  1  0.007267  0.626731  0.652333  1
  Cl  Cl116  1  0.250000  0.035843  0.010157  1
  Cl  Cl117  1  0.250000  0.464157  0.510157  1
  Cl  Cl118  1  0.750000  0.964157  0.989843  1
  Cl  Cl119  1  0.750000  0.535843  0.489843  1
  Cl  Cl120  1  0.250000  0.238381  0.198734  1
  Cl  Cl121  1  0.250000  0.261619  0.698734  1
  Cl  Cl122  1  0.750000  0.761619  0.801266  1
  Cl  Cl123  1  0.750000  0.738381  0.301266  1
