# generated using pymatgen
data_Li2Mn2OF4
_symmetry_space_group_name_H-M   'P 1'
_cell_length_a   4.02027621
_cell_length_b   8.49156200
_cell_length_c   13.72188981
_cell_angle_alpha   98.39182608
_cell_angle_beta   90.04429770
_cell_angle_gamma   90.01779843
_symmetry_Int_Tables_number   1
_chemical_formula_structural   Li2Mn2OF4
_chemical_formula_sum   'Li8 Mn8 O4 F16'
_cell_volume   463.42797042
_cell_formula_units_Z   4
loop_
 _symmetry_equiv_pos_site_id
 _symmetry_equiv_pos_as_xyz
  1  'x, y, z'
loop_
 _atom_site_type_symbol
 _atom_site_label
 _atom_site_symmetry_multiplicity
 _atom_site_fract_x
 _atom_site_fract_y
 _atom_site_fract_z
 _atom_site_occupancy
  Li  Li0  1  0.736955  0.210635  0.989348  1
  Li  Li1  1  0.244186  0.405712  0.942610  1
  Li  Li2  1  0.746572  0.588117  0.554931  1
  Li  Li3  1  0.766156  0.215121  0.501353  1
  Li  Li4  1  0.240598  0.793691  0.511950  1
  Li  Li5  1  0.254784  0.414583  0.433316  1
  Li  Li6  1  0.752455  0.584399  0.047502  1
  Li  Li7  1  0.258902  0.785045  0.019442  1
  Mn  Mn8  1  0.745428  0.394784  0.760074  1
  Mn  Mn9  1  0.737970  0.962769  0.664508  1
  Mn  Mn10  1  0.235140  0.005656  0.842762  1
  Mn  Mn11  1  0.245555  0.668097  0.718580  1
  Mn  Mn12  1  0.754280  0.367872  0.269195  1
  Mn  Mn13  1  0.763672  0.965666  0.158524  1
  Mn  Mn14  1  0.265087  0.020374  0.334176  1
  Mn  Mn15  1  0.254572  0.648061  0.234456  1
  O  O16  1  0.238520  0.914075  0.691507  1
  O  O17  1  0.745583  0.603945  0.704182  1
  O  O18  1  0.262815  0.902663  0.188895  1
  O  O19  1  0.254368  0.424304  0.287329  1
  F  F20  1  0.238929  0.182310  0.967016  1
  F  F21  1  0.745217  0.412896  0.936454  1
  F  F22  1  0.245559  0.388095  0.798092  1
  F  F23  1  0.251482  0.780294  0.878774  1
  F  F24  1  0.752623  0.204173  0.640345  1
  F  F25  1  0.735836  0.080495  0.836167  1
  F  F26  1  0.247519  0.585997  0.546857  1
  F  F27  1  0.260356  0.175194  0.466505  1
  F  F28  1  0.742579  0.819447  0.527077  1
  F  F29  1  0.753925  0.407495  0.446604  1
  F  F30  1  0.245936  0.796710  0.375498  1
  F  F31  1  0.748061  0.200084  0.129177  1
  F  F32  1  0.754361  0.606915  0.193269  1
  F  F33  1  0.764482  0.101744  0.321620  1
  F  F34  1  0.252116  0.574257  0.054297  1
  F  F35  1  0.757423  0.808325  0.027610  1
