# generated using pymatgen
data_Li3Co(BO2)5
_symmetry_space_group_name_H-M   'P 1'
_cell_length_a   6.94702734
_cell_length_b   7.09736092
_cell_length_c   9.37695748
_cell_angle_alpha   80.17001158
_cell_angle_beta   68.94587702
_cell_angle_gamma   61.83010894
_symmetry_Int_Tables_number   1
_chemical_formula_structural   Li3Co(BO2)5
_chemical_formula_sum   'Li6 Co2 B10 O20'
_cell_volume   380.36385425
_cell_formula_units_Z   2
loop_
 _symmetry_equiv_pos_site_id
 _symmetry_equiv_pos_as_xyz
  1  'x, y, z'
loop_
 _atom_site_type_symbol
 _atom_site_label
 _atom_site_symmetry_multiplicity
 _atom_site_fract_x
 _atom_site_fract_y
 _atom_site_fract_z
 _atom_site_occupancy
  Li  Li0  1  0.241363  0.492801  0.248545  1
  Li  Li1  1  0.815701  0.991993  0.162514  1
  Li  Li2  1  0.019882  0.193431  0.464347  1
  Li  Li3  1  0.980118  0.806569  0.535653  1
  Li  Li4  1  0.184299  0.008007  0.837486  1
  Li  Li5  1  0.758637  0.507199  0.751455  1
  Co  Co6  1  0.214234  0.523478  0.884292  1
  Co  Co7  1  0.785766  0.476522  0.115708  1
  B  B8  1  0.304228  0.804356  0.073679  1
  B  B9  1  0.410369  0.859219  0.290113  1
  B  B10  1  0.363434  0.750214  0.568151  1
  B  B11  1  0.215628  0.168296  0.131595  1
  B  B12  1  0.744493  0.715973  0.396949  1
  B  B13  1  0.255507  0.284027  0.603051  1
  B  B14  1  0.784372  0.831704  0.868405  1
  B  B15  1  0.636566  0.249786  0.431849  1
  B  B16  1  0.589631  0.140781  0.709887  1
  B  B17  1  0.695772  0.195644  0.926321  1
  O  O18  1  0.269875  0.693668  0.994501  1
  O  O19  1  0.272016  0.842130  0.448165  1
  O  O20  1  0.408542  0.719848  0.187721  1
  O  O21  1  0.218767  0.739508  0.705924  1
  O  O22  1  0.129609  0.379595  0.099227  1
  O  O23  1  0.655959  0.783664  0.272819  1
  O  O24  1  0.047252  0.305851  0.622227  1
  O  O25  1  0.693661  0.911498  0.749838  1
  O  O26  1  0.599592  0.682336  0.539737  1
  O  O27  1  0.778915  0.974189  0.957990  1
  O  O28  1  0.221085  0.025811  0.042010  1
  O  O29  1  0.400408  0.317664  0.460263  1
  O  O30  1  0.306339  0.088502  0.250162  1
  O  O31  1  0.952748  0.694149  0.377773  1
  O  O32  1  0.344041  0.216336  0.727181  1
  O  O33  1  0.870391  0.620405  0.900773  1
  O  O34  1  0.781233  0.260492  0.294076  1
  O  O35  1  0.591458  0.280152  0.812279  1
  O  O36  1  0.727984  0.157870  0.551835  1
  O  O37  1  0.730125  0.306332  0.005499  1
