# generated using pymatgen
data_Li6FeS4
_symmetry_space_group_name_H-M   'P 1'
_cell_length_a   8.07588748
_cell_length_b   8.07588748
_cell_length_c   6.28647525
_cell_angle_alpha   90.00000000
_cell_angle_beta   90.00000000
_cell_angle_gamma   120.00000000
_symmetry_Int_Tables_number   1
_chemical_formula_structural   Li6FeS4
_chemical_formula_sum   'Li12 Fe2 S8'
_cell_volume   355.07358159
_cell_formula_units_Z   2
loop_
 _symmetry_equiv_pos_site_id
 _symmetry_equiv_pos_as_xyz
  1  'x, y, z'
loop_
 _atom_site_type_symbol
 _atom_site_label
 _atom_site_symmetry_multiplicity
 _atom_site_fract_x
 _atom_site_fract_y
 _atom_site_fract_z
 _atom_site_occupancy
  Li  Li0  1  0.152363  0.304725  0.526273  1
  Li  Li1  1  0.460298  0.539702  0.886692  1
  Li  Li2  1  0.079405  0.539702  0.886692  1
  Li  Li3  1  0.695275  0.847637  0.526273  1
  Li  Li4  1  0.460298  0.920595  0.886692  1
  Li  Li5  1  0.847637  0.152363  0.026273  1
  Li  Li6  1  0.152363  0.847637  0.526273  1
  Li  Li7  1  0.539702  0.079405  0.386692  1
  Li  Li8  1  0.304725  0.152363  0.026273  1
  Li  Li9  1  0.920595  0.460298  0.386692  1
  Li  Li10  1  0.539702  0.460298  0.386692  1
  Li  Li11  1  0.847637  0.695275  0.026273  1
  Fe  Fe12  1  0.333333  0.666667  0.253015  1
  Fe  Fe13  1  0.666667  0.333333  0.753015  1
  S  S14  1  0.178360  0.356720  0.133343  1
  S  S15  1  0.333333  0.666667  0.619348  1
  S  S16  1  0.643280  0.821640  0.133343  1
  S  S17  1  0.178360  0.821640  0.133343  1
  S  S18  1  0.821640  0.178360  0.633343  1
  S  S19  1  0.356720  0.178360  0.633343  1
  S  S20  1  0.666667  0.333333  0.119348  1
  S  S21  1  0.821640  0.643280  0.633343  1
