# generated using pymatgen
data_K3Ta8O21
_symmetry_space_group_name_H-M   'P 1'
_cell_length_a   9.24753885
_cell_length_b   9.24753885
_cell_length_c   12.21774044
_cell_angle_alpha   90.00000000
_cell_angle_beta   90.00000000
_cell_angle_gamma   120.00000000
_symmetry_Int_Tables_number   1
_chemical_formula_structural   K3Ta8O21
_chemical_formula_sum   'K6 Ta16 O42'
_cell_volume   904.84429999
_cell_formula_units_Z   2
loop_
 _symmetry_equiv_pos_site_id
 _symmetry_equiv_pos_as_xyz
  1  'x, y, z'
loop_
 _atom_site_type_symbol
 _atom_site_label
 _atom_site_symmetry_multiplicity
 _atom_site_fract_x
 _atom_site_fract_y
 _atom_site_fract_z
 _atom_site_occupancy
  K  K0  1  0.000000  0.589983  0.250000  1
  K  K1  1  0.000000  0.410017  0.750000  1
  K  K2  1  0.410017  0.410017  0.250000  1
  K  K3  1  0.589983  0.589983  0.750000  1
  K  K4  1  0.410017  0.000000  0.750000  1
  K  K5  1  0.589983  0.000000  0.250000  1
  Ta  Ta6  1  0.000000  0.752525  0.594507  1
  Ta  Ta7  1  0.000000  0.752525  0.905493  1
  Ta  Ta8  1  0.000000  0.247475  0.405493  1
  Ta  Ta9  1  0.000000  0.247475  0.094507  1
  Ta  Ta10  1  0.333333  0.666667  0.500000  1
  Ta  Ta11  1  0.333333  0.666667  0.000000  1
  Ta  Ta12  1  0.247475  0.247475  0.905493  1
  Ta  Ta13  1  0.247475  0.247475  0.594507  1
  Ta  Ta14  1  0.247475  0.000000  0.094507  1
  Ta  Ta15  1  0.247475  0.000000  0.405493  1
  Ta  Ta16  1  0.752525  0.752525  0.094507  1
  Ta  Ta17  1  0.752525  0.752525  0.405493  1
  Ta  Ta18  1  0.666667  0.333333  0.500000  1
  Ta  Ta19  1  0.666667  0.333333  0.000000  1
  Ta  Ta20  1  0.752525  0.000000  0.594507  1
  Ta  Ta21  1  0.752525  0.000000  0.905493  1
  O  O22  1  0.000000  0.801634  0.073912  1
  O  O23  1  0.000000  0.801634  0.426088  1
  O  O24  1  0.000000  0.790987  0.750000  1
  O  O25  1  0.167896  0.686839  0.905517  1
  O  O26  1  0.167896  0.686839  0.594483  1
  O  O27  1  0.000000  0.209013  0.250000  1
  O  O28  1  0.313161  0.832104  0.094483  1
  O  O29  1  0.313161  0.832104  0.405517  1
  O  O30  1  0.000000  0.198366  0.573912  1
  O  O31  1  0.000000  0.198366  0.926088  1
  O  O32  1  0.167896  0.481057  0.094483  1
  O  O33  1  0.167896  0.481057  0.405517  1
  O  O34  1  0.313161  0.481057  0.905517  1
  O  O35  1  0.313161  0.481057  0.594483  1
  O  O36  1  0.198366  0.198366  0.073912  1
  O  O37  1  0.198366  0.198366  0.426088  1
  O  O38  1  0.518943  0.832104  0.594483  1
  O  O39  1  0.518943  0.832104  0.905517  1
  O  O40  1  0.209013  0.209013  0.750000  1
  O  O41  1  0.518943  0.686839  0.405517  1
  O  O42  1  0.518943  0.686839  0.094483  1
  O  O43  1  0.198366  0.000000  0.926088  1
  O  O44  1  0.198366  0.000000  0.573912  1
  O  O45  1  0.209013  0.000000  0.250000  1
  O  O46  1  0.481057  0.313161  0.905517  1
  O  O47  1  0.481057  0.313161  0.594483  1
  O  O48  1  0.790987  0.790987  0.250000  1
  O  O49  1  0.481057  0.167896  0.094483  1
  O  O50  1  0.481057  0.167896  0.405517  1
  O  O51  1  0.801634  0.801634  0.573912  1
  O  O52  1  0.801634  0.801634  0.926088  1
  O  O53  1  0.686839  0.518943  0.094483  1
  O  O54  1  0.686839  0.518943  0.405517  1
  O  O55  1  0.832104  0.518943  0.594483  1
  O  O56  1  0.832104  0.518943  0.905517  1
  O  O57  1  0.686839  0.167896  0.594483  1
  O  O58  1  0.686839  0.167896  0.905517  1
  O  O59  1  0.832104  0.313161  0.405517  1
  O  O60  1  0.832104  0.313161  0.094483  1
  O  O61  1  0.790987  0.000000  0.750000  1
  O  O62  1  0.801634  0.000000  0.426088  1
  O  O63  1  0.801634  0.000000  0.073912  1
