# generated using pymatgen
data_Li3Co2(CO3)4
_symmetry_space_group_name_H-M   'P 1'
_cell_length_a   5.23385537
_cell_length_b   6.20053922
_cell_length_c   7.70725437
_cell_angle_alpha   89.14861079
_cell_angle_beta   89.07123985
_cell_angle_gamma   66.07383756
_symmetry_Int_Tables_number   1
_chemical_formula_structural   Li3Co2(CO3)4
_chemical_formula_sum   'Li3 Co2 C4 O12'
_cell_volume   228.58876351
_cell_formula_units_Z   1
loop_
 _symmetry_equiv_pos_site_id
 _symmetry_equiv_pos_as_xyz
  1  'x, y, z'
loop_
 _atom_site_type_symbol
 _atom_site_label
 _atom_site_symmetry_multiplicity
 _atom_site_fract_x
 _atom_site_fract_y
 _atom_site_fract_z
 _atom_site_occupancy
  Li  Li0  1  0.310131  0.297775  0.939925  1
  Li  Li1  1  0.688026  0.698218  0.068062  1
  Li  Li2  1  0.809277  0.807355  0.557213  1
  Co  Co3  1  0.994195  0.001357  0.996063  1
  Co  Co4  1  0.495024  0.486289  0.501320  1
  C  C5  1  0.744832  0.115411  0.256515  1
  C  C6  1  0.221481  0.636354  0.233012  1
  C  C7  1  0.768883  0.377254  0.771602  1
  C  C8  1  0.268594  0.878728  0.739815  1
  O  O9  1  0.630080  0.080426  0.113125  1
  O  O10  1  0.628069  0.147955  0.404171  1
  O  O11  1  0.522095  0.376102  0.763869  1
  O  O12  1  0.997418  0.099571  0.229371  1
  O  O13  1  0.908311  0.323493  0.919104  1
  O  O14  1  0.872843  0.437143  0.638386  1
  O  O15  1  0.102369  0.612540  0.374295  1
  O  O16  1  0.085912  0.680240  0.084030  1
  O  O17  1  0.011271  0.896310  0.754373  1
  O  O18  1  0.481539  0.602645  0.236385  1
  O  O19  1  0.409969  0.828718  0.601928  1
  O  O20  1  0.363393  0.922388  0.887593  1
