# generated using pymatgen
data_Ba5Bi3O11
_symmetry_space_group_name_H-M   'P 1'
_cell_length_a   6.28351478
_cell_length_b   6.28351478
_cell_length_c   9.23510435
_cell_angle_alpha   90.00000000
_cell_angle_beta   90.00000000
_cell_angle_gamma   90.03880325
_symmetry_Int_Tables_number   1
_chemical_formula_structural   Ba5Bi3O11
_chemical_formula_sum   'Ba5 Bi3 O11'
_cell_volume   364.62545968
_cell_formula_units_Z   1
loop_
 _symmetry_equiv_pos_site_id
 _symmetry_equiv_pos_as_xyz
  1  'x, y, z'
loop_
 _atom_site_type_symbol
 _atom_site_label
 _atom_site_symmetry_multiplicity
 _atom_site_fract_x
 _atom_site_fract_y
 _atom_site_fract_z
 _atom_site_occupancy
  Ba  Ba0  1  0.988538  0.543035  0.771890  1
  Ba  Ba1  1  0.988538  0.543035  0.228110  1
  Ba  Ba2  1  0.981490  0.018510  0.500000  1
  Ba  Ba3  1  0.456965  0.011462  0.771890  1
  Ba  Ba4  1  0.456965  0.011462  0.228110  1
  Bi  Bi5  1  0.982301  0.017699  0.000000  1
  Bi  Bi6  1  0.490095  0.509905  0.000000  1
  Bi  Bi7  1  0.495593  0.504407  0.500000  1
  O  O8  1  0.231415  0.768585  0.000000  1
  O  O9  1  0.243262  0.244261  0.000000  1
  O  O10  1  0.755739  0.756738  0.000000  1
  O  O11  1  0.989005  0.010995  0.767879  1
  O  O12  1  0.259391  0.740609  0.500000  1
  O  O13  1  0.491773  0.508227  0.749692  1
  O  O14  1  0.742886  0.257114  0.000000  1
  O  O15  1  0.829305  0.605738  0.500000  1
  O  O16  1  0.394262  0.170695  0.500000  1
  O  O17  1  0.491773  0.508227  0.250308  1
  O  O18  1  0.989005  0.010995  0.232121  1
