# generated using pymatgen
data_Ba(NaSi2)2
_symmetry_space_group_name_H-M   'P 1'
_cell_length_a   11.09020960
_cell_length_b   11.09020960
_cell_length_c   11.09020960
_cell_angle_alpha   134.42336101
_cell_angle_beta   128.85616433
_cell_angle_gamma   70.89368482
_symmetry_Int_Tables_number   1
_chemical_formula_structural   Ba(NaSi2)2
_chemical_formula_sum   'Ba4 Na8 Si16'
_cell_volume   743.11546035
_cell_formula_units_Z   4
loop_
 _symmetry_equiv_pos_site_id
 _symmetry_equiv_pos_as_xyz
  1  'x, y, z'
loop_
 _atom_site_type_symbol
 _atom_site_label
 _atom_site_symmetry_multiplicity
 _atom_site_fract_x
 _atom_site_fract_y
 _atom_site_fract_z
 _atom_site_occupancy
  Ba  Ba0  1  0.500000  0.499793  0.999793  1
  Ba  Ba1  1  0.416562  0.997094  0.080531  1
  Ba  Ba2  1  0.583438  0.663969  0.580531  1
  Ba  Ba3  1  0.000000  0.499793  0.499793  1
  Na  Na4  1  0.000000  0.003214  0.003214  1
  Na  Na5  1  0.500000  0.003214  0.503214  1
  Na  Na6  1  0.241215  0.275857  0.969504  1
  Na  Na7  1  0.193647  0.728289  0.469504  1
  Na  Na8  1  0.120760  0.044974  0.424214  1
  Na  Na9  1  0.879240  0.303454  0.924214  1
  Na  Na10  1  0.758785  0.728289  0.034642  1
  Na  Na11  1  0.806353  0.275857  0.534642  1
  Si  Si12  1  0.385182  0.573546  0.688364  1
  Si  Si13  1  0.280044  0.362081  0.324180  1
  Si  Si14  1  0.462099  0.044135  0.824180  1
  Si  Si15  1  0.719956  0.044135  0.082036  1
  Si  Si16  1  0.236714  0.669437  0.188488  1
  Si  Si17  1  0.295397  0.270045  0.474648  1
  Si  Si18  1  0.222825  0.750812  0.027988  1
  Si  Si19  1  0.130879  0.454683  0.823804  1
  Si  Si20  1  0.704603  0.179251  0.974648  1
  Si  Si21  1  0.777175  0.805163  0.527988  1
  Si  Si22  1  0.869121  0.692925  0.323804  1
  Si  Si23  1  0.980949  0.669437  0.932723  1
  Si  Si24  1  0.763286  0.951774  0.432723  1
  Si  Si25  1  0.537901  0.362081  0.582036  1
  Si  Si26  1  0.019051  0.951774  0.688488  1
  Si  Si27  1  0.614818  0.303183  0.188364  1
