# generated using pymatgen
data_Mn3Sn3(TeO8)2
_symmetry_space_group_name_H-M   'P 1'
_cell_length_a   6.33440589
_cell_length_b   6.33440589
_cell_length_c   9.32224837
_cell_angle_alpha   88.66555588
_cell_angle_beta   91.33444412
_cell_angle_gamma   120.89463000
_symmetry_Int_Tables_number   1
_chemical_formula_structural   Mn3Sn3(TeO8)2
_chemical_formula_sum   'Mn3 Sn3 Te2 O16'
_cell_volume   320.86419652
_cell_formula_units_Z   1
loop_
 _symmetry_equiv_pos_site_id
 _symmetry_equiv_pos_as_xyz
  1  'x, y, z'
loop_
 _atom_site_type_symbol
 _atom_site_label
 _atom_site_symmetry_multiplicity
 _atom_site_fract_x
 _atom_site_fract_y
 _atom_site_fract_z
 _atom_site_occupancy
  Mn  Mn0  1  0.831228  0.168772  0.203797  1
  Mn  Mn1  1  0.168268  0.337894  0.703142  1
  Mn  Mn2  1  0.662106  0.831732  0.703142  1
  Sn  Sn3  1  0.337806  0.167007  0.206264  1
  Sn  Sn4  1  0.832993  0.662194  0.206264  1
  Sn  Sn5  1  0.167820  0.832180  0.707738  1
  Te  Te6  1  0.670937  0.329063  0.489248  1
  Te  Te7  1  0.337760  0.662240  0.982114  1
  O  O8  1  0.364047  0.178226  0.599481  1
  O  O9  1  0.524609  0.475391  0.353001  1
  O  O10  1  0.660093  0.339907  0.096961  1
  O  O11  1  0.003602  0.996398  0.298560  1
  O  O12  1  0.996149  0.003851  0.788143  1
  O  O13  1  0.821774  0.635953  0.599481  1
  O  O14  1  0.517138  0.050625  0.356079  1
  O  O15  1  0.949375  0.482862  0.356079  1
  O  O16  1  0.181628  0.818372  0.100240  1
  O  O17  1  0.822452  0.177548  0.601252  1
  O  O18  1  0.045670  0.528851  0.855684  1
  O  O19  1  0.471149  0.954330  0.855684  1
  O  O20  1  0.336241  0.663759  0.609391  1
  O  O21  1  0.184672  0.361143  0.098429  1
  O  O22  1  0.472058  0.527942  0.846960  1
  O  O23  1  0.638857  0.815328  0.098429  1
