# generated using pymatgen
data_Li3Nb3P8O29
_symmetry_space_group_name_H-M   'P 1'
_cell_length_a   10.03788645
_cell_length_b   10.03788645
_cell_length_c   14.08451853
_cell_angle_alpha   89.79938924
_cell_angle_beta   90.20061076
_cell_angle_gamma   119.99602015
_symmetry_Int_Tables_number   1
_chemical_formula_structural   Li3Nb3P8O29
_chemical_formula_sum   'Li6 Nb6 P16 O58'
_cell_volume   1229.05427132
_cell_formula_units_Z   2
loop_
 _symmetry_equiv_pos_site_id
 _symmetry_equiv_pos_as_xyz
  1  'x, y, z'
loop_
 _atom_site_type_symbol
 _atom_site_label
 _atom_site_symmetry_multiplicity
 _atom_site_fract_x
 _atom_site_fract_y
 _atom_site_fract_z
 _atom_site_occupancy
  Li  Li0  1  0.000000  0.000000  0.500000  1
  Li  Li1  1  0.000000  0.000000  0.000000  1
  Li  Li2  1  0.674101  0.905056  0.944428  1
  Li  Li3  1  0.094944  0.325899  0.444428  1
  Li  Li4  1  0.905056  0.674101  0.555572  1
  Li  Li5  1  0.325899  0.094944  0.055572  1
  Nb  Nb6  1  0.432796  0.998188  0.258772  1
  Nb  Nb7  1  0.567204  0.001812  0.741228  1
  Nb  Nb8  1  0.001812  0.567204  0.758772  1
  Nb  Nb9  1  0.998188  0.432796  0.241228  1
  Nb  Nb10  1  0.567069  0.567069  0.250000  1
  Nb  Nb11  1  0.432931  0.432931  0.750000  1
  P  P12  1  0.217934  0.916806  0.655998  1
  P  P13  1  0.083194  0.782066  0.155998  1
  P  P14  1  0.689747  0.919525  0.156312  1
  P  P15  1  0.340993  0.671597  0.876083  1
  P  P16  1  0.328403  0.659007  0.376083  1
  P  P17  1  0.696528  0.773593  0.654474  1
  P  P18  1  0.773593  0.696528  0.845526  1
  P  P19  1  0.080475  0.310253  0.656312  1
  P  P20  1  0.919525  0.689747  0.343688  1
  P  P21  1  0.226407  0.303472  0.154474  1
  P  P22  1  0.303472  0.226407  0.345526  1
  P  P23  1  0.659007  0.328403  0.123917  1
  P  P24  1  0.671597  0.340993  0.623917  1
  P  P25  1  0.310253  0.080475  0.843688  1
  P  P26  1  0.916806  0.217934  0.844002  1
  P  P27  1  0.782066  0.083194  0.344002  1
  O  O28  1  0.200820  0.988372  0.755713  1
  O  O29  1  0.231816  0.010388  0.934783  1
  O  O30  1  0.254969  0.914945  0.162710  1
  O  O31  1  0.011628  0.799180  0.255713  1
  O  O32  1  0.989612  0.768184  0.434783  1
  O  O33  1  0.085055  0.745031  0.662710  1
  O  O34  1  0.373608  0.916314  0.667043  1
  O  O35  1  0.331923  0.806442  0.330296  1
  O  O36  1  0.536227  0.917552  0.172900  1
  O  O37  1  0.797370  0.000794  0.426262  1
  O  O38  1  0.799180  0.011628  0.244287  1
  O  O39  1  0.658857  0.906466  0.660720  1
  O  O40  1  0.193558  0.668077  0.830296  1
  O  O41  1  0.083686  0.626392  0.167043  1
  O  O42  1  0.484127  0.817125  0.830552  1
  O  O43  1  0.345107  0.675038  0.980847  1
  O  O44  1  0.324962  0.654893  0.480847  1
  O  O45  1  0.469635  0.659332  0.327704  1
  O  O46  1  0.082448  0.463773  0.672900  1
  O  O47  1  0.182875  0.515873  0.330552  1
  O  O48  1  0.656342  0.751325  0.168134  1
  O  O49  1  0.794035  0.794035  0.750000  1
  O  O50  1  0.784696  0.795106  0.926951  1
  O  O51  1  0.795106  0.784696  0.573049  1
  O  O52  1  0.542578  0.620938  0.665968  1
  O  O53  1  0.340668  0.530365  0.827704  1
  O  O54  1  0.751325  0.656342  0.331866  1
  O  O55  1  0.379062  0.457422  0.165968  1
  O  O56  1  0.093534  0.341143  0.160720  1
  O  O57  1  0.000794  0.797370  0.073738  1
  O  O58  1  0.999206  0.202630  0.926262  1
  O  O59  1  0.988372  0.200820  0.744287  1
  O  O60  1  0.906466  0.658857  0.839280  1
  O  O61  1  0.620938  0.542578  0.834032  1
  O  O62  1  0.248675  0.343658  0.668134  1
  O  O63  1  0.659332  0.469635  0.172296  1
  O  O64  1  0.457422  0.379062  0.334032  1
  O  O65  1  0.204894  0.215304  0.426951  1
  O  O66  1  0.215304  0.204894  0.073049  1
  O  O67  1  0.205965  0.205965  0.250000  1
  O  O68  1  0.343658  0.248675  0.831866  1
  O  O69  1  0.817125  0.484127  0.669448  1
  O  O70  1  0.917552  0.536227  0.327100  1
  O  O71  1  0.530365  0.340668  0.672296  1
  O  O72  1  0.654893  0.324962  0.019153  1
  O  O73  1  0.675038  0.345107  0.519153  1
  O  O74  1  0.515873  0.182875  0.169448  1
  O  O75  1  0.916314  0.373608  0.832957  1
  O  O76  1  0.806442  0.331923  0.169704  1
  O  O77  1  0.341143  0.093534  0.339280  1
  O  O78  1  0.202630  0.999206  0.573738  1
  O  O79  1  0.463773  0.082448  0.827100  1
  O  O80  1  0.668077  0.193558  0.669704  1
  O  O81  1  0.626392  0.083686  0.332957  1
  O  O82  1  0.914945  0.254969  0.337290  1
  O  O83  1  0.010388  0.231816  0.565217  1
  O  O84  1  0.745031  0.085055  0.837290  1
  O  O85  1  0.768184  0.989612  0.065217  1
