# generated using pymatgen
data_Ca5Ge3O11
_symmetry_space_group_name_H-M   'P 1'
_cell_length_a   7.02933231
_cell_length_b   7.05404617
_cell_length_c   11.14216163
_cell_angle_alpha   85.32196432
_cell_angle_beta   84.52656779
_cell_angle_gamma   77.49513226
_symmetry_Int_Tables_number   1
_chemical_formula_structural   Ca5Ge3O11
_chemical_formula_sum   'Ca10 Ge6 O22'
_cell_volume   535.86571269
_cell_formula_units_Z   2
loop_
 _symmetry_equiv_pos_site_id
 _symmetry_equiv_pos_as_xyz
  1  'x, y, z'
loop_
 _atom_site_type_symbol
 _atom_site_label
 _atom_site_symmetry_multiplicity
 _atom_site_fract_x
 _atom_site_fract_y
 _atom_site_fract_z
 _atom_site_occupancy
  Ca  Ca0  1  0.005130  0.031222  0.243067  1
  Ca  Ca1  1  0.074705  0.451850  0.754642  1
  Ca  Ca2  1  0.459283  0.092235  0.766718  1
  Ca  Ca3  1  0.290123  0.701241  0.004099  1
  Ca  Ca4  1  0.317221  0.674858  0.493534  1
  Ca  Ca5  1  0.682779  0.325142  0.506466  1
  Ca  Ca6  1  0.709877  0.298759  0.995901  1
  Ca  Ca7  1  0.540717  0.907765  0.233282  1
  Ca  Ca8  1  0.925295  0.548150  0.245358  1
  Ca  Ca9  1  0.994870  0.968778  0.756933  1
  Ge  Ge10  1  0.206773  0.213831  0.015643  1
  Ge  Ge11  1  0.194082  0.183910  0.463625  1
  Ge  Ge12  1  0.453749  0.428520  0.267306  1
  Ge  Ge13  1  0.546251  0.571480  0.732694  1
  Ge  Ge14  1  0.805918  0.816090  0.536375  1
  Ge  Ge15  1  0.793227  0.786169  0.984357  1
  O  O16  1  0.162669  0.158257  0.621253  1
  O  O17  1  0.133410  0.152497  0.876025  1
  O  O18  1  0.365221  0.343220  0.424502  1
  O  O19  1  0.600385  0.223039  0.204629  1
  O  O20  1  0.025418  0.712280  0.605973  1
  O  O21  1  0.246819  0.580161  0.211430  1
  O  O22  1  0.715288  0.033032  0.612164  1
  O  O23  1  0.010742  0.687897  0.894943  1
  O  O24  1  0.706311  0.006570  0.897357  1
  O  O25  1  0.372852  0.362193  0.962942  1
  O  O26  1  0.408532  0.426047  0.669760  1
  O  O27  1  0.591468  0.573953  0.330240  1
  O  O28  1  0.627148  0.637807  0.037058  1
  O  O29  1  0.293689  0.993430  0.102643  1
  O  O30  1  0.989258  0.312103  0.105057  1
  O  O31  1  0.284712  0.966968  0.387836  1
  O  O32  1  0.753181  0.419839  0.788570  1
  O  O33  1  0.974582  0.287720  0.394027  1
  O  O34  1  0.399615  0.776961  0.795371  1
  O  O35  1  0.634779  0.656780  0.575498  1
  O  O36  1  0.866590  0.847503  0.123975  1
  O  O37  1  0.837331  0.841743  0.378747  1
