# generated using pymatgen
data_Co25Cu11O48
_symmetry_space_group_name_H-M   'P 1'
_cell_length_a   9.95099708
_cell_length_b   9.95099708
_cell_length_c   9.92570129
_cell_angle_alpha   80.54132179
_cell_angle_beta   99.45867821
_cell_angle_gamma   59.82269368
_symmetry_Int_Tables_number   1
_chemical_formula_structural   Co25Cu11O48
_chemical_formula_sum   'Co25 Cu11 O48'
_cell_volume   802.19670672
_cell_formula_units_Z   1
loop_
 _symmetry_equiv_pos_site_id
 _symmetry_equiv_pos_as_xyz
  1  'x, y, z'
loop_
 _atom_site_type_symbol
 _atom_site_label
 _atom_site_symmetry_multiplicity
 _atom_site_fract_x
 _atom_site_fract_y
 _atom_site_fract_z
 _atom_site_occupancy
  Co  Co0  1  0.146177  0.853823  0.937682  1
  Co  Co1  1  0.251030  0.582180  0.751307  1
  Co  Co2  1  0.084752  0.415294  0.750175  1
  Co  Co3  1  0.417820  0.748970  0.751307  1
  Co  Co4  1  0.251653  0.082705  0.749675  1
  Co  Co5  1  0.000781  0.333169  0.499717  1
  Co  Co6  1  0.332057  0.667943  0.500676  1
  Co  Co7  1  0.081411  0.918589  0.249823  1
  Co  Co8  1  0.583738  0.416262  0.749314  1
  Co  Co9  1  0.917437  0.249421  0.748270  1
  Co  Co10  1  0.584706  0.915248  0.750175  1
  Co  Co11  1  0.082901  0.416601  0.250053  1
  Co  Co12  1  0.750579  0.082563  0.748270  1
  Co  Co13  1  0.416186  0.751094  0.251043  1
  Co  Co14  1  0.248906  0.583814  0.251043  1
  Co  Co15  1  0.166721  0.498518  0.000764  1
  Co  Co16  1  0.666831  0.999219  0.499717  1
  Co  Co17  1  0.415483  0.249927  0.250686  1
  Co  Co18  1  0.917295  0.748347  0.749675  1
  Co  Co19  1  0.914535  0.251843  0.248997  1
  Co  Co20  1  0.748157  0.085465  0.248997  1
  Co  Co21  1  0.583399  0.917099  0.250053  1
  Co  Co22  1  0.750073  0.584517  0.250686  1
  Co  Co23  1  0.501482  0.833279  0.000764  1
  Co  Co24  1  0.832003  0.167997  0.998301  1
  Cu  Cu25  1  0.020808  0.979192  0.560423  1
  Cu  Cu26  1  0.481279  0.186430  0.937704  1
  Cu  Cu27  1  0.355208  0.312723  0.562925  1
  Cu  Cu28  1  0.311697  0.021254  0.438272  1
  Cu  Cu29  1  0.813570  0.518721  0.937704  1
  Cu  Cu30  1  0.644679  0.355321  0.435867  1
  Cu  Cu31  1  0.687277  0.644792  0.562925  1
  Cu  Cu32  1  0.186990  0.145803  0.062244  1
  Cu  Cu33  1  0.519489  0.480511  0.065205  1
  Cu  Cu34  1  0.978746  0.688303  0.438272  1
  Cu  Cu35  1  0.854197  0.813010  0.062244  1
  O  O36  1  0.046645  0.140161  0.630126  1
  O  O37  1  0.309214  0.877693  0.869297  1
  O  O38  1  0.122307  0.690786  0.869297  1
  O  O39  1  0.050861  0.616062  0.646615  1
  O  O40  1  0.272012  0.394710  0.868691  1
  O  O41  1  0.118383  0.214833  0.853601  1
  O  O42  1  0.229119  0.770881  0.634545  1
  O  O43  1  0.452482  0.547518  0.855704  1
  O  O44  1  0.525031  0.622085  0.632319  1
  O  O45  1  0.193182  0.288114  0.631253  1
  O  O46  1  0.023091  0.124579  0.130538  1
  O  O47  1  0.377915  0.474969  0.632319  1
  O  O48  1  0.457190  0.024504  0.868486  1
  O  O49  1  0.789877  0.358141  0.866117  1
  O  O50  1  0.139434  0.713295  0.368229  1
  O  O51  1  0.286705  0.860566  0.368229  1
  O  O52  1  0.641859  0.210123  0.866117  1
  O  O53  1  0.937331  0.062669  0.866275  1
  O  O54  1  0.605290  0.727988  0.868691  1
  O  O55  1  0.102851  0.229389  0.366530  1
  O  O56  1  0.383938  0.949139  0.646615  1
  O  O57  1  0.436080  0.563920  0.367434  1
  O  O58  1  0.716898  0.283102  0.644293  1
  O  O59  1  0.215182  0.784818  0.146854  1
  O  O60  1  0.061901  0.603543  0.133019  1
  O  O61  1  0.282988  0.382703  0.354412  1
  O  O62  1  0.563325  0.102760  0.632183  1
  O  O63  1  0.785167  0.881617  0.853601  1
  O  O64  1  0.210760  0.307043  0.132312  1
  O  O65  1  0.711886  0.806818  0.631253  1
  O  O66  1  0.358128  0.455208  0.133132  1
  O  O67  1  0.859839  0.953355  0.630126  1
  O  O68  1  0.544792  0.641872  0.133132  1
  O  O69  1  0.620644  0.192599  0.368587  1
  O  O70  1  0.807401  0.379356  0.368587  1
  O  O71  1  0.474248  0.043967  0.368666  1
  O  O72  1  0.975496  0.542810  0.868486  1
  O  O73  1  0.770611  0.897149  0.366530  1
  O  O74  1  0.547835  0.118454  0.146077  1
  O  O75  1  0.897240  0.436675  0.632183  1
  O  O76  1  0.396457  0.938099  0.133019  1
  O  O77  1  0.617297  0.717012  0.354412  1
  O  O78  1  0.727252  0.272748  0.130922  1
  O  O79  1  0.947862  0.052138  0.352638  1
  O  O80  1  0.692957  0.789240  0.132312  1
  O  O81  1  0.875421  0.976909  0.130538  1
  O  O82  1  0.956033  0.525752  0.368666  1
  O  O83  1  0.881546  0.452165  0.146077  1
