# generated using pymatgen
data_LiMn(PO3)3
_symmetry_space_group_name_H-M   'P 1'
_cell_length_a   5.27263334
_cell_length_b   12.20590025
_cell_length_c   12.80900426
_cell_angle_alpha   90.00000000
_cell_angle_beta   90.00000000
_cell_angle_gamma   90.00000000
_symmetry_Int_Tables_number   1
_chemical_formula_structural   LiMn(PO3)3
_chemical_formula_sum   'Li4 Mn4 P12 O36'
_cell_volume   824.35211781
_cell_formula_units_Z   4
loop_
 _symmetry_equiv_pos_site_id
 _symmetry_equiv_pos_as_xyz
  1  'x, y, z'
loop_
 _atom_site_type_symbol
 _atom_site_label
 _atom_site_symmetry_multiplicity
 _atom_site_fract_x
 _atom_site_fract_y
 _atom_site_fract_z
 _atom_site_occupancy
  Li  Li0  1  0.056836  0.111442  0.250000  1
  Li  Li1  1  0.056836  0.388558  0.750000  1
  Li  Li2  1  0.943164  0.611442  0.250000  1
  Li  Li3  1  0.943164  0.888558  0.750000  1
  Mn  Mn4  1  0.000000  0.000000  0.000000  1
  Mn  Mn5  1  0.000000  0.500000  0.000000  1
  Mn  Mn6  1  0.000000  0.000000  0.500000  1
  Mn  Mn7  1  0.000000  0.500000  0.500000  1
  P  P8  1  0.239581  0.750000  0.000000  1
  P  P9  1  0.239581  0.750000  0.500000  1
  P  P10  1  0.495818  0.081775  0.636050  1
  P  P11  1  0.495818  0.418225  0.136050  1
  P  P12  1  0.495818  0.081775  0.863950  1
  P  P13  1  0.495818  0.418225  0.363950  1
  P  P14  1  0.504182  0.581775  0.636050  1
  P  P15  1  0.504182  0.918225  0.363950  1
  P  P16  1  0.504182  0.918225  0.136050  1
  P  P17  1  0.504182  0.581775  0.863950  1
  P  P18  1  0.760419  0.250000  0.000000  1
  P  P19  1  0.760419  0.250000  0.500000  1
  O  O20  1  0.096682  0.665956  0.063099  1
  O  O21  1  0.096682  0.665956  0.436901  1
  O  O22  1  0.096682  0.834044  0.563099  1
  O  O23  1  0.096682  0.834044  0.936901  1
  O  O24  1  0.216616  0.440018  0.130001  1
  O  O25  1  0.216616  0.059982  0.630001  1
  O  O26  1  0.216616  0.440018  0.369999  1
  O  O27  1  0.216616  0.059982  0.869999  1
  O  O28  1  0.320067  0.008989  0.109503  1
  O  O29  1  0.320067  0.008989  0.390497  1
  O  O30  1  0.320067  0.491011  0.890497  1
  O  O31  1  0.320067  0.491011  0.609503  1
  O  O32  1  0.435203  0.872085  0.250000  1
  O  O33  1  0.435203  0.627915  0.750000  1
  O  O34  1  0.445015  0.692357  0.574364  1
  O  O35  1  0.445015  0.807643  0.074364  1
  O  O36  1  0.445015  0.692357  0.925636  1
  O  O37  1  0.445015  0.807643  0.425636  1
  O  O38  1  0.554985  0.192357  0.574364  1
  O  O39  1  0.554985  0.307643  0.074364  1
  O  O40  1  0.554985  0.307643  0.425636  1
  O  O41  1  0.554985  0.192357  0.925636  1
  O  O42  1  0.564797  0.127915  0.750000  1
  O  O43  1  0.564797  0.372085  0.250000  1
  O  O44  1  0.679933  0.508989  0.390497  1
  O  O45  1  0.679933  0.991011  0.609503  1
  O  O46  1  0.679933  0.508989  0.109503  1
  O  O47  1  0.679933  0.991011  0.890497  1
  O  O48  1  0.783384  0.559982  0.869999  1
  O  O49  1  0.783384  0.559982  0.630001  1
  O  O50  1  0.783384  0.940018  0.369999  1
  O  O51  1  0.783384  0.940018  0.130001  1
  O  O52  1  0.903318  0.165956  0.436901  1
  O  O53  1  0.903318  0.334044  0.563099  1
  O  O54  1  0.903318  0.165956  0.063099  1
  O  O55  1  0.903318  0.334044  0.936901  1
