# generated using pymatgen
data_LiMnPCO7
_symmetry_space_group_name_H-M   'P 1'
_cell_length_a   5.11668129
_cell_length_b   6.23710413
_cell_length_c   16.67242962
_cell_angle_alpha   90.96011384
_cell_angle_beta   94.25898055
_cell_angle_gamma   90.27143187
_symmetry_Int_Tables_number   1
_chemical_formula_structural   LiMnPCO7
_chemical_formula_sum   'Li4 Mn4 P4 C4 O28'
_cell_volume   530.51848622
_cell_formula_units_Z   4
loop_
 _symmetry_equiv_pos_site_id
 _symmetry_equiv_pos_as_xyz
  1  'x, y, z'
loop_
 _atom_site_type_symbol
 _atom_site_label
 _atom_site_symmetry_multiplicity
 _atom_site_fract_x
 _atom_site_fract_y
 _atom_site_fract_z
 _atom_site_occupancy
  Li  Li0  1  0.755988  0.967068  0.130701  1
  Li  Li1  1  0.242380  0.472427  0.369018  1
  Li  Li2  1  0.753714  0.528008  0.630820  1
  Li  Li3  1  0.247795  0.468835  0.871393  1
  Mn  Mn4  1  0.206144  0.254075  0.164678  1
  Mn  Mn5  1  0.794385  0.761864  0.335364  1
  Mn  Mn6  1  0.206181  0.247693  0.664685  1
  Mn  Mn7  1  0.794136  0.747112  0.835090  1
  P  P8  1  0.276561  0.751465  0.212658  1
  P  P9  1  0.723546  0.253012  0.287448  1
  P  P10  1  0.276300  0.744244  0.713153  1
  P  P11  1  0.723849  0.251938  0.786829  1
  C  C12  1  0.289598  0.245365  0.024794  1
  C  C13  1  0.710635  0.736503  0.474740  1
  C  C14  1  0.290036  0.260813  0.524817  1
  C  C15  1  0.709112  0.751231  0.974916  1
  O  O16  1  0.054408  0.246783  0.052126  1
  O  O17  1  0.660452  0.763124  0.046092  1
  O  O18  1  0.471160  0.229243  0.085882  1
  O  O19  1  0.174850  0.942786  0.161311  1
  O  O20  1  0.207947  0.556752  0.156907  1
  O  O21  1  0.856645  0.233964  0.207594  1
  O  O22  1  0.578215  0.773520  0.232483  1
  O  O23  1  0.422103  0.273043  0.267648  1
  O  O24  1  0.143127  0.739661  0.292398  1
  O  O25  1  0.791744  0.064355  0.343593  1
  O  O26  1  0.826893  0.449580  0.338342  1
  O  O27  1  0.528485  0.735892  0.413459  1
  O  O28  1  0.336950  0.277031  0.453955  1
  O  O29  1  0.945190  0.754223  0.447911  1
  O  O30  1  0.055790  0.240956  0.552053  1
  O  O31  1  0.662404  0.722412  0.545929  1
  O  O32  1  0.472366  0.262345  0.586263  1
  O  O33  1  0.207257  0.944824  0.665050  1
  O  O34  1  0.175747  0.557822  0.655138  1
  O  O35  1  0.858079  0.264570  0.707090  1
  O  O36  1  0.577613  0.719683  0.732511  1
  O  O37  1  0.422862  0.277567  0.767346  1
  O  O38  1  0.142440  0.732262  0.792959  1
  O  O39  1  0.791313  0.050969  0.834796  1
  O  O40  1  0.825546  0.438123  0.844958  1
  O  O41  1  0.527853  0.731466  0.913599  1
  O  O42  1  0.338133  0.262399  0.953883  1
  O  O43  1  0.944068  0.760620  0.947624  1
