# generated using pymatgen
data_Ni17(AsO4)12
_symmetry_space_group_name_H-M   'P 1'
_cell_length_a   10.47168497
_cell_length_b   10.47168497
_cell_length_c   9.74996469
_cell_angle_alpha   89.78309487
_cell_angle_beta   90.21690513
_cell_angle_gamma   55.45604309
_symmetry_Int_Tables_number   1
_chemical_formula_structural   Ni17(AsO4)12
_chemical_formula_sum   'Ni17 As12 O48'
_cell_volume   880.61552405
_cell_formula_units_Z   1
loop_
 _symmetry_equiv_pos_site_id
 _symmetry_equiv_pos_as_xyz
  1  'x, y, z'
loop_
 _atom_site_type_symbol
 _atom_site_label
 _atom_site_symmetry_multiplicity
 _atom_site_fract_x
 _atom_site_fract_y
 _atom_site_fract_z
 _atom_site_occupancy
  Ni  Ni0  1  0.226099  0.728032  0.250939  1
  Ni  Ni1  1  0.871841  0.876645  0.252875  1
  Ni  Ni2  1  0.377551  0.872253  0.497371  1
  Ni  Ni3  1  0.726610  0.726610  0.000000  1
  Ni  Ni4  1  0.227171  0.227171  0.500000  1
  Ni  Ni5  1  0.772228  0.772228  0.500000  1
  Ni  Ni6  1  0.771087  0.277156  0.251329  1
  Ni  Ni7  1  0.277156  0.771087  0.748671  1
  Ni  Ni8  1  0.374855  0.876021  0.001750  1
  Ni  Ni9  1  0.872253  0.377551  0.502629  1
  Ni  Ni10  1  0.876645  0.871841  0.747125  1
  Ni  Ni11  1  0.988161  0.988161  0.000000  1
  Ni  Ni12  1  0.728032  0.226099  0.749061  1
  Ni  Ni13  1  0.374334  0.375996  0.746107  1
  Ni  Ni14  1  0.876021  0.374854  0.998250  1
  Ni  Ni15  1  0.273083  0.273083  0.000000  1
  Ni  Ni16  1  0.375996  0.374334  0.253893  1
  As  As17  1  0.576404  0.674355  0.297202  1
  As  As18  1  0.674355  0.576404  0.702798  1
  As  As19  1  0.171226  0.578095  0.547682  1
  As  As20  1  0.001406  0.001406  0.500000  1
  As  As21  1  0.999250  0.499987  0.251112  1
  As  As22  1  0.499987  0.999250  0.748888  1
  As  As23  1  0.076696  0.669621  0.951195  1
  As  As24  1  0.578095  0.171226  0.452318  1
  As  As25  1  0.081684  0.170753  0.799361  1
  As  As26  1  0.170753  0.081684  0.200639  1
  As  As27  1  0.669621  0.076696  0.048805  1
  As  As28  1  0.498548  0.498548  0.000000  1
  O  O29  1  0.802627  0.581697  0.593547  1
  O  O30  1  0.398232  0.719286  0.355113  1
  O  O31  1  0.581697  0.802627  0.406453  1
  O  O32  1  0.231970  0.562648  0.381380  1
  O  O33  1  0.909407  0.678187  0.327764  1
  O  O34  1  0.732372  0.560235  0.870385  1
  O  O35  1  0.229998  0.058846  0.367595  1
  O  O36  1  0.485322  0.721204  0.664075  1
  O  O37  1  0.032269  0.882168  0.364378  1
  O  O38  1  0.297231  0.585093  0.659635  1
  O  O39  1  0.880193  0.532901  0.114152  1
  O  O40  1  0.182387  0.907588  0.576331  1
  O  O41  1  0.375588  0.033034  0.615468  1
  O  O42  1  0.982657  0.723706  0.585044  1
  O  O43  1  0.723706  0.982657  0.414956  1
  O  O44  1  0.532901  0.880193  0.885848  1
  O  O45  1  0.407195  0.678902  0.924569  1
  O  O46  1  0.033034  0.375588  0.384532  1
  O  O47  1  0.907588  0.182387  0.423669  1
  O  O48  1  0.585093  0.297231  0.340365  1
  O  O49  1  0.083351  0.810841  0.854502  1
  O  O50  1  0.882168  0.032269  0.635622  1
  O  O51  1  0.377418  0.532817  0.136416  1
  O  O52  1  0.560235  0.732372  0.129615  1
  O  O53  1  0.721204  0.485322  0.335925  1
  O  O54  1  0.224119  0.980372  0.838182  1
  O  O55  1  0.058846  0.229998  0.632405  1
  O  O56  1  0.678187  0.909407  0.672236  1
  O  O57  1  0.903105  0.711342  0.889370  1
  O  O58  1  0.401426  0.213535  0.390507  1
  O  O59  1  0.054212  0.754303  0.111348  1
  O  O60  1  0.562648  0.231970  0.618620  1
  O  O61  1  0.187689  0.916446  0.128218  1
  O  O62  1  0.302338  0.083417  0.096013  1
  O  O63  1  0.719286  0.398232  0.644887  1
  O  O64  1  0.916446  0.187689  0.871782  1
  O  O65  1  0.083417  0.302338  0.903987  1
  O  O66  1  0.754303  0.054212  0.888652  1
  O  O67  1  0.213535  0.401426  0.609493  1
  O  O68  1  0.711342  0.903105  0.110630  1
  O  O69  1  0.415069  0.177795  0.827265  1
  O  O70  1  0.980372  0.224119  0.161818  1
  O  O71  1  0.532817  0.377418  0.863584  1
  O  O72  1  0.810841  0.083351  0.145498  1
  O  O73  1  0.678902  0.407195  0.075431  1
  O  O74  1  0.484733  0.225578  0.085009  1
  O  O75  1  0.225578  0.484733  0.914991  1
  O  O76  1  0.177795  0.415069  0.172735  1
