# generated using pymatgen
data_LiMnSbO4
_symmetry_space_group_name_H-M   'P 1'
_cell_length_a   6.33358796
_cell_length_b   6.33358796
_cell_length_c   6.33358796
_cell_angle_alpha   120.88107931
_cell_angle_beta   120.55099421
_cell_angle_gamma   88.76444148
_symmetry_Int_Tables_number   1
_chemical_formula_structural   LiMnSbO4
_chemical_formula_sum   'Li2 Mn2 Sb2 O8'
_cell_volume   177.66191010
_cell_formula_units_Z   2
loop_
 _symmetry_equiv_pos_site_id
 _symmetry_equiv_pos_as_xyz
  1  'x, y, z'
loop_
 _atom_site_type_symbol
 _atom_site_label
 _atom_site_symmetry_multiplicity
 _atom_site_fract_x
 _atom_site_fract_y
 _atom_site_fract_z
 _atom_site_occupancy
  Li  Li0  1  0.348199  0.098199  0.250000  1
  Li  Li1  1  0.651801  0.901801  0.750000  1
  Mn  Mn2  1  0.000000  0.500000  0.500000  1
  Mn  Mn3  1  0.500000  0.500000  0.000000  1
  Sb  Sb4  1  0.000000  0.500000  0.000000  1
  Sb  Sb5  1  0.000000  0.000000  0.500000  1
  O  O6  1  0.779054  0.248571  0.530483  1
  O  O7  1  0.217697  0.705191  0.987494  1
  O  O8  1  0.217697  0.230203  0.512506  1
  O  O9  1  0.218088  0.248571  0.969517  1
  O  O10  1  0.781912  0.751429  0.030483  1
  O  O11  1  0.782303  0.294809  0.012506  1
  O  O12  1  0.782303  0.769797  0.487494  1
  O  O13  1  0.220946  0.751429  0.469517  1
