# generated using pymatgen
data_Li2Fe(Si2O5)2
_symmetry_space_group_name_H-M   'P 1'
_cell_length_a   11.15924675
_cell_length_b   7.75540860
_cell_length_c   11.20958957
_cell_angle_alpha   90.00000000
_cell_angle_beta   111.52965805
_cell_angle_gamma   90.00000000
_symmetry_Int_Tables_number   1
_chemical_formula_structural   Li2Fe(Si2O5)2
_chemical_formula_sum   'Li8 Fe4 Si16 O40'
_cell_volume   902.44046007
_cell_formula_units_Z   4
loop_
 _symmetry_equiv_pos_site_id
 _symmetry_equiv_pos_as_xyz
  1  'x, y, z'
loop_
 _atom_site_type_symbol
 _atom_site_label
 _atom_site_symmetry_multiplicity
 _atom_site_fract_x
 _atom_site_fract_y
 _atom_site_fract_z
 _atom_site_occupancy
  Li  Li0  1  0.590087  0.750000  0.388469  1
  Li  Li1  1  0.527244  0.750000  0.104824  1
  Li  Li2  1  0.872210  0.750000  0.877401  1
  Li  Li3  1  0.874307  0.750000  0.457478  1
  Li  Li4  1  0.125693  0.250000  0.542522  1
  Li  Li5  1  0.127790  0.250000  0.122599  1
  Li  Li6  1  0.472756  0.250000  0.895176  1
  Li  Li7  1  0.409913  0.250000  0.611531  1
  Fe  Fe8  1  0.711469  0.988457  0.277754  1
  Fe  Fe9  1  0.711469  0.511543  0.277754  1
  Fe  Fe10  1  0.288531  0.488457  0.722246  1
  Fe  Fe11  1  0.288531  0.011543  0.722246  1
  Si  Si12  1  0.589182  0.950040  0.740078  1
  Si  Si13  1  0.589182  0.549960  0.740078  1
  Si  Si14  1  0.759197  0.046815  0.588378  1
  Si  Si15  1  0.759197  0.453185  0.588378  1
  Si  Si16  1  0.742467  0.448595  0.007877  1
  Si  Si17  1  0.742467  0.051405  0.007877  1
  Si  Si18  1  0.029808  0.446971  0.776161  1
  Si  Si19  1  0.029808  0.053029  0.776161  1
  Si  Si20  1  0.970192  0.946971  0.223839  1
  Si  Si21  1  0.970192  0.553029  0.223839  1
  Si  Si22  1  0.257533  0.948595  0.992123  1
  Si  Si23  1  0.257533  0.551405  0.992123  1
  Si  Si24  1  0.240803  0.953185  0.411622  1
  Si  Si25  1  0.240803  0.546815  0.411622  1
  Si  Si26  1  0.410818  0.450040  0.259922  1
  Si  Si27  1  0.410818  0.049960  0.259922  1
  O  O28  1  0.545295  0.750000  0.697518  1
  O  O29  1  0.720702  0.940070  0.874311  1
  O  O30  1  0.720702  0.559930  0.874311  1
  O  O31  1  0.692545  0.250000  0.961424  1
  O  O32  1  0.630900  0.463199  0.627331  1
  O  O33  1  0.630900  0.036801  0.627331  1
  O  O34  1  0.523804  0.936492  0.242952  1
  O  O35  1  0.523804  0.563508  0.242952  1
  O  O36  1  0.786067  0.250000  0.563927  1
  O  O37  1  0.741306  0.930676  0.464170  1
  O  O38  1  0.741306  0.569324  0.464170  1
  O  O39  1  0.664946  0.968909  0.089336  1
  O  O40  1  0.664946  0.531091  0.089336  1
  O  O41  1  0.881609  0.526680  0.715172  1
  O  O42  1  0.881609  0.973320  0.715172  1
  O  O43  1  0.021935  0.250000  0.827654  1
  O  O44  1  0.099656  0.942092  0.911005  1
  O  O45  1  0.099656  0.557908  0.911005  1
  O  O46  1  0.899535  0.959066  0.325456  1
  O  O47  1  0.899535  0.540934  0.325456  1
  O  O48  1  0.100465  0.459066  0.674544  1
  O  O49  1  0.100465  0.040934  0.674544  1
  O  O50  1  0.900344  0.442092  0.088995  1
  O  O51  1  0.900344  0.057908  0.088995  1
  O  O52  1  0.978065  0.750000  0.172346  1
  O  O53  1  0.118391  0.473320  0.284828  1
  O  O54  1  0.118391  0.026680  0.284828  1
  O  O55  1  0.335054  0.031091  0.910664  1
  O  O56  1  0.335054  0.468909  0.910664  1
  O  O57  1  0.258694  0.430676  0.535830  1
  O  O58  1  0.258694  0.069324  0.535830  1
  O  O59  1  0.213933  0.750000  0.436073  1
  O  O60  1  0.476196  0.436492  0.757048  1
  O  O61  1  0.476196  0.063508  0.757048  1
  O  O62  1  0.369100  0.963199  0.372669  1
  O  O63  1  0.369100  0.536801  0.372669  1
  O  O64  1  0.307455  0.750000  0.038576  1
  O  O65  1  0.279298  0.440070  0.125689  1
  O  O66  1  0.279298  0.059930  0.125689  1
  O  O67  1  0.454705  0.250000  0.302482  1
