# generated using pymatgen
data_Li4Mn3Cr2Sn3O16
_symmetry_space_group_name_H-M   'P 1'
_cell_length_a   6.07457502
_cell_length_b   6.07457502
_cell_length_c   9.65281110
_cell_angle_alpha   89.81355100
_cell_angle_beta   90.18644900
_cell_angle_gamma   118.89900704
_symmetry_Int_Tables_number   1
_chemical_formula_structural   Li4Mn3Cr2Sn3O16
_chemical_formula_sum   'Li4 Mn3 Cr2 Sn3 O16'
_cell_volume   311.83525616
_cell_formula_units_Z   1
loop_
 _symmetry_equiv_pos_site_id
 _symmetry_equiv_pos_as_xyz
  1  'x, y, z'
loop_
 _atom_site_type_symbol
 _atom_site_label
 _atom_site_symmetry_multiplicity
 _atom_site_fract_x
 _atom_site_fract_y
 _atom_site_fract_z
 _atom_site_occupancy
  Li  Li0  1  0.325186  0.674814  0.885833  1
  Li  Li1  1  0.010093  0.989907  0.991986  1
  Li  Li2  1  0.015064  0.984936  0.499956  1
  Li  Li3  1  0.666621  0.333379  0.397231  1
  Mn  Mn4  1  0.167699  0.832301  0.212737  1
  Mn  Mn5  1  0.826087  0.660246  0.714549  1
  Mn  Mn6  1  0.339754  0.173913  0.714549  1
  Cr  Cr7  1  0.332210  0.667790  0.489956  1
  Cr  Cr8  1  0.656303  0.343697  0.981672  1
  Sn  Sn9  1  0.660440  0.833434  0.214381  1
  Sn  Sn10  1  0.166566  0.339560  0.214381  1
  Sn  Sn11  1  0.830482  0.169518  0.710842  1
  O  O12  1  0.680707  0.830744  0.599313  1
  O  O13  1  0.482294  0.517706  0.345460  1
  O  O14  1  0.320730  0.679270  0.100385  1
  O  O15  1  0.009180  0.990820  0.312970  1
  O  O16  1  0.007642  0.992358  0.806647  1
  O  O17  1  0.169256  0.319293  0.599313  1
  O  O18  1  0.482027  0.960293  0.350528  1
  O  O19  1  0.039707  0.517973  0.350528  1
  O  O20  1  0.834298  0.165702  0.095533  1
  O  O21  1  0.170853  0.829147  0.605583  1
  O  O22  1  0.951393  0.489521  0.839905  1
  O  O23  1  0.510479  0.048607  0.839905  1
  O  O24  1  0.658354  0.341646  0.604428  1
  O  O25  1  0.828736  0.673059  0.094692  1
  O  O26  1  0.513902  0.486098  0.840065  1
  O  O27  1  0.326941  0.171264  0.094692  1
