# generated using pymatgen
data_Li4Mn5Cr3O16
_symmetry_space_group_name_H-M   'P 1'
_cell_length_a   5.87809193
_cell_length_b   5.87809193
_cell_length_c   9.50198992
_cell_angle_alpha   89.04898236
_cell_angle_beta   90.95101764
_cell_angle_gamma   120.29328134
_symmetry_Int_Tables_number   1
_chemical_formula_structural   Li4Mn5Cr3O16
_chemical_formula_sum   'Li4 Mn5 Cr3 O16'
_cell_volume   283.43099031
_cell_formula_units_Z   1
loop_
 _symmetry_equiv_pos_site_id
 _symmetry_equiv_pos_as_xyz
  1  'x, y, z'
loop_
 _atom_site_type_symbol
 _atom_site_label
 _atom_site_symmetry_multiplicity
 _atom_site_fract_x
 _atom_site_fract_y
 _atom_site_fract_z
 _atom_site_occupancy
  Li  Li0  1  0.670341  0.329659  0.101447  1
  Li  Li1  1  0.999336  0.000664  0.003495  1
  Li  Li2  1  0.999107  0.000893  0.505650  1
  Li  Li3  1  0.335056  0.664944  0.605730  1
  Mn  Mn4  1  0.663562  0.336438  0.514417  1
  Mn  Mn5  1  0.829129  0.170871  0.786233  1
  Mn  Mn6  1  0.331388  0.668612  0.010305  1
  Mn  Mn7  1  0.664662  0.828661  0.284946  1
  Mn  Mn8  1  0.171339  0.335338  0.284946  1
  Cr  Cr9  1  0.826928  0.661239  0.787445  1
  Cr  Cr10  1  0.338761  0.173072  0.787445  1
  Cr  Cr11  1  0.171060  0.828940  0.285590  1
  O  O12  1  0.835040  0.675113  0.400183  1
  O  O13  1  0.514304  0.485696  0.665186  1
  O  O14  1  0.673372  0.326628  0.894245  1
  O  O15  1  0.992062  0.007938  0.691599  1
  O  O16  1  0.996616  0.003384  0.190182  1
  O  O17  1  0.324887  0.164960  0.400183  1
  O  O18  1  0.958356  0.477582  0.660307  1
  O  O19  1  0.522418  0.041644  0.660307  1
  O  O20  1  0.162203  0.837797  0.906008  1
  O  O21  1  0.838944  0.161056  0.391704  1
  O  O22  1  0.485429  0.956641  0.159066  1
  O  O23  1  0.043359  0.514571  0.159066  1
  O  O24  1  0.340914  0.659086  0.390590  1
  O  O25  1  0.670049  0.840851  0.902428  1
  O  O26  1  0.482141  0.517859  0.160887  1
  O  O27  1  0.159149  0.329951  0.902428  1
