# generated using pymatgen
data_LiFe4(PO4)3
_symmetry_space_group_name_H-M   'P 1'
_cell_length_a   8.70705235
_cell_length_b   8.70705235
_cell_length_c   6.61124588
_cell_angle_alpha   72.03654846
_cell_angle_beta   107.96345154
_cell_angle_gamma   85.60535255
_symmetry_Int_Tables_number   1
_chemical_formula_structural   LiFe4(PO4)3
_chemical_formula_sum   'Li2 Fe8 P6 O24'
_cell_volume   445.29886339
_cell_formula_units_Z   2
loop_
 _symmetry_equiv_pos_site_id
 _symmetry_equiv_pos_as_xyz
  1  'x, y, z'
loop_
 _atom_site_type_symbol
 _atom_site_label
 _atom_site_symmetry_multiplicity
 _atom_site_fract_x
 _atom_site_fract_y
 _atom_site_fract_z
 _atom_site_occupancy
  Li  Li0  1  0.996920  0.986491  0.250340  1
  Li  Li1  1  0.013509  0.003080  0.750340  1
  Fe  Fe2  1  0.944070  0.375010  0.372775  1
  Fe  Fe3  1  0.624990  0.055930  0.872775  1
  Fe  Fe4  1  0.263087  0.272784  0.241788  1
  Fe  Fe5  1  0.513809  0.472708  0.463420  1
  Fe  Fe6  1  0.727216  0.736913  0.741788  1
  Fe  Fe7  1  0.527292  0.486191  0.963420  1
  Fe  Fe8  1  0.371087  0.940781  0.133439  1
  Fe  Fe9  1  0.059219  0.628913  0.633439  1
  P  P10  1  0.670075  0.119132  0.377924  1
  P  P11  1  0.880868  0.329925  0.877924  1
  P  P12  1  0.699216  0.699752  0.248422  1
  P  P13  1  0.300248  0.300784  0.748422  1
  P  P14  1  0.114575  0.663899  0.126973  1
  P  P15  1  0.336101  0.885425  0.626973  1
  O  O16  1  0.609356  0.045116  0.190425  1
  O  O17  1  0.848902  0.149679  0.414255  1
  O  O18  1  0.954884  0.390644  0.690425  1
  O  O19  1  0.850321  0.151098  0.914255  1
  O  O20  1  0.322270  0.013560  0.392179  1
  O  O21  1  0.541820  0.284979  0.305971  1
  O  O22  1  0.714330  0.519992  0.237311  1
  O  O23  1  0.986440  0.677730  0.892179  1
  O  O24  1  0.724396  0.809978  0.034987  1
  O  O25  1  0.811876  0.721269  0.464873  1
  O  O26  1  0.715021  0.458180  0.805971  1
  O  O27  1  0.480008  0.285670  0.737311  1
  O  O28  1  0.522940  0.716558  0.266878  1
  O  O29  1  0.273601  0.532410  0.188083  1
  O  O30  1  0.190022  0.275604  0.534987  1
  O  O31  1  0.278731  0.188124  0.964873  1
  O  O32  1  0.002941  0.328591  0.107576  1
  O  O33  1  0.283442  0.477060  0.766878  1
  O  O34  1  0.467590  0.726399  0.688083  1
  O  O35  1  0.671409  0.997059  0.607576  1
  O  O36  1  0.151102  0.840156  0.099040  1
  O  O37  1  0.039653  0.603242  0.314121  1
  O  O38  1  0.159844  0.848898  0.599040  1
  O  O39  1  0.396758  0.960347  0.814121  1
