# generated using pymatgen
data_Na2CoO3
_symmetry_space_group_name_H-M   'P 1'
_cell_length_a   4.95584629
_cell_length_b   10.00836463
_cell_length_c   6.42964085
_cell_angle_alpha   90.00000000
_cell_angle_beta   94.07100445
_cell_angle_gamma   90.00000000
_symmetry_Int_Tables_number   1
_chemical_formula_structural   Na2CoO3
_chemical_formula_sum   'Na8 Co4 O12'
_cell_volume   318.10498983
_cell_formula_units_Z   4
loop_
 _symmetry_equiv_pos_site_id
 _symmetry_equiv_pos_as_xyz
  1  'x, y, z'
loop_
 _atom_site_type_symbol
 _atom_site_label
 _atom_site_symmetry_multiplicity
 _atom_site_fract_x
 _atom_site_fract_y
 _atom_site_fract_z
 _atom_site_occupancy
  Na  Na0  1  0.257199  0.729908  0.142164  1
  Na  Na1  1  0.257199  0.770092  0.642164  1
  Na  Na2  1  0.273357  0.399989  0.114760  1
  Na  Na3  1  0.273357  0.100011  0.614760  1
  Na  Na4  1  0.726643  0.899989  0.385240  1
  Na  Na5  1  0.726643  0.600011  0.885240  1
  Na  Na6  1  0.742801  0.229908  0.357836  1
  Na  Na7  1  0.742801  0.270092  0.857836  1
  Co  Co8  1  0.166005  0.034684  0.158656  1
  Co  Co9  1  0.166005  0.465316  0.658656  1
  Co  Co10  1  0.833995  0.534684  0.341344  1
  Co  Co11  1  0.833995  0.965316  0.841344  1
  O  O12  1  0.216305  0.549921  0.407945  1
  O  O13  1  0.216305  0.950079  0.907945  1
  O  O14  1  0.235662  0.916699  0.357879  1
  O  O15  1  0.235662  0.583301  0.857879  1
  O  O16  1  0.258093  0.187908  0.263585  1
  O  O17  1  0.258093  0.312092  0.763585  1
  O  O18  1  0.741907  0.687908  0.236415  1
  O  O19  1  0.741907  0.812092  0.736415  1
  O  O20  1  0.764338  0.416699  0.142121  1
  O  O21  1  0.764338  0.083301  0.642121  1
  O  O22  1  0.783695  0.049921  0.092055  1
  O  O23  1  0.783695  0.450079  0.592055  1
