# generated using pymatgen
data_P8W3O29
_symmetry_space_group_name_H-M   'P 1'
_cell_length_a   9.93474218
_cell_length_b   9.93474218
_cell_length_c   13.81262655
_cell_angle_alpha   90.00000000
_cell_angle_beta   90.00000000
_cell_angle_gamma   120.00000000
_symmetry_Int_Tables_number   1
_chemical_formula_structural   P8W3O29
_chemical_formula_sum   'P16 W6 O58'
_cell_volume   1180.64709747
_cell_formula_units_Z   2
loop_
 _symmetry_equiv_pos_site_id
 _symmetry_equiv_pos_as_xyz
  1  'x, y, z'
loop_
 _atom_site_type_symbol
 _atom_site_label
 _atom_site_symmetry_multiplicity
 _atom_site_fract_x
 _atom_site_fract_y
 _atom_site_fract_z
 _atom_site_occupancy
  P  P0  1  0.307638  0.230081  0.847662  1
  P  P1  1  0.307638  0.077557  0.347662  1
  P  P2  1  0.769919  0.692362  0.347662  1
  P  P3  1  0.666667  0.333333  0.621167  1
  P  P4  1  0.666667  0.333333  0.121167  1
  P  P5  1  0.922443  0.692362  0.847662  1
  P  P6  1  0.077557  0.769919  0.652338  1
  P  P7  1  0.769919  0.077557  0.847662  1
  P  P8  1  0.230081  0.922443  0.152338  1
  P  P9  1  0.922443  0.230081  0.347662  1
  P  P10  1  0.077557  0.307638  0.152338  1
  P  P11  1  0.333333  0.666667  0.378833  1
  P  P12  1  0.333333  0.666667  0.878833  1
  P  P13  1  0.230081  0.307638  0.652338  1
  P  P14  1  0.692362  0.922443  0.652338  1
  P  P15  1  0.692362  0.769919  0.152338  1
  W  W16  1  0.430331  0.430331  0.250000  1
  W  W17  1  0.569669  0.569669  0.750000  1
  W  W18  1  0.430331  0.000000  0.750000  1
  W  W19  1  0.569669  0.000000  0.250000  1
  W  W20  1  0.000000  0.569669  0.250000  1
  W  W21  1  0.000000  0.430331  0.750000  1
  O  O22  1  0.208277  0.208277  0.750000  1
  O  O23  1  0.237702  0.233221  0.563882  1
  O  O24  1  0.343285  0.251371  0.334436  1
  O  O25  1  0.208277  0.000000  0.250000  1
  O  O26  1  0.237702  0.004481  0.063882  1
  O  O27  1  0.343285  0.091915  0.834436  1
  O  O28  1  0.471598  0.380119  0.825727  1
  O  O29  1  0.523731  0.337379  0.170606  1
  O  O30  1  0.619881  0.528402  0.325727  1
  O  O31  1  0.766779  0.762298  0.063882  1
  O  O32  1  0.791723  0.791723  0.250000  1
  O  O33  1  0.748629  0.656715  0.834436  1
  O  O34  1  0.523731  0.186353  0.670606  1
  O  O35  1  0.471598  0.091479  0.325727  1
  O  O36  1  0.662621  0.476269  0.670606  1
  O  O37  1  0.666667  0.333333  0.515403  1
  O  O38  1  0.666667  0.333333  0.015403  1
  O  O39  1  0.813647  0.476269  0.170606  1
  O  O40  1  0.619881  0.091479  0.825727  1
  O  O41  1  0.662621  0.186353  0.170606  1
  O  O42  1  0.908085  0.656715  0.334436  1
  O  O43  1  0.000000  0.791723  0.750000  1
  O  O44  1  0.995519  0.762298  0.563882  1
  O  O45  1  0.004481  0.766779  0.936118  1
  O  O46  1  0.908521  0.528402  0.825727  1
  O  O47  1  0.813647  0.337379  0.670606  1
  O  O48  1  0.091915  0.748629  0.165564  1
  O  O49  1  0.908521  0.380119  0.325727  1
  O  O50  1  0.748629  0.091915  0.334436  1
  O  O51  1  0.233221  0.995519  0.436118  1
  O  O52  1  0.766779  0.004481  0.563882  1
  O  O53  1  0.791723  0.000000  0.750000  1
  O  O54  1  0.251371  0.908085  0.665564  1
  O  O55  1  0.091479  0.619881  0.674273  1
  O  O56  1  0.908085  0.251371  0.834436  1
  O  O57  1  0.186353  0.662621  0.329394  1
  O  O58  1  0.091479  0.471598  0.174273  1
  O  O59  1  0.995519  0.233221  0.063882  1
  O  O60  1  0.004481  0.237702  0.436118  1
  O  O61  1  0.000000  0.208277  0.250000  1
  O  O62  1  0.091915  0.343285  0.665564  1
  O  O63  1  0.337379  0.813647  0.829394  1
  O  O64  1  0.380119  0.908521  0.174273  1
  O  O65  1  0.186353  0.523731  0.829394  1
  O  O66  1  0.333333  0.666667  0.484597  1
  O  O67  1  0.333333  0.666667  0.984597  1
  O  O68  1  0.337379  0.523731  0.329394  1
  O  O69  1  0.528402  0.908521  0.674273  1
  O  O70  1  0.476269  0.813647  0.329394  1
  O  O71  1  0.251371  0.343285  0.165564  1
  O  O72  1  0.233221  0.237702  0.936118  1
  O  O73  1  0.380119  0.471598  0.674273  1
  O  O74  1  0.476269  0.662621  0.829394  1
  O  O75  1  0.528402  0.619881  0.174273  1
  O  O76  1  0.656715  0.908085  0.165564  1
  O  O77  1  0.762298  0.995519  0.936118  1
  O  O78  1  0.656715  0.748629  0.665564  1
  O  O79  1  0.762298  0.766779  0.436118  1
