# generated using pymatgen
data_CaLaMnMoO6
_symmetry_space_group_name_H-M   'P 1'
_cell_length_a   5.62755497
_cell_length_b   5.74815049
_cell_length_c   9.81013653
_cell_angle_alpha   90.00000000
_cell_angle_beta   124.52622035
_cell_angle_gamma   90.00000000
_symmetry_Int_Tables_number   1
_chemical_formula_structural   CaLaMnMoO6
_chemical_formula_sum   'Ca2 La2 Mn2 Mo2 O12'
_cell_volume   261.44478338
_cell_formula_units_Z   2
loop_
 _symmetry_equiv_pos_site_id
 _symmetry_equiv_pos_as_xyz
  1  'x, y, z'
loop_
 _atom_site_type_symbol
 _atom_site_label
 _atom_site_symmetry_multiplicity
 _atom_site_fract_x
 _atom_site_fract_y
 _atom_site_fract_z
 _atom_site_occupancy
  Ca  Ca0  1  0.763764  0.693737  0.252910  1
  Ca  Ca1  1  0.763764  0.306263  0.752910  1
  La  La2  1  0.235125  0.196343  0.244950  1
  La  La3  1  0.235125  0.803657  0.744950  1
  Mn  Mn4  1  0.999637  0.747555  0.000092  1
  Mn  Mn5  1  0.999637  0.252445  0.500092  1
  Mo  Mo6  1  0.498157  0.251632  0.998671  1
  Mo  Mo7  1  0.498157  0.748368  0.498671  1
  O  O8  1  0.644250  0.714471  0.741835  1
  O  O9  1  0.264048  0.466701  0.446739  1
  O  O10  1  0.844457  0.440902  0.050188  1
  O  O11  1  0.152842  0.937704  0.449994  1
  O  O12  1  0.736754  0.969457  0.056398  1
  O  O13  1  0.360966  0.219108  0.758222  1
  O  O14  1  0.644250  0.285529  0.241835  1
  O  O15  1  0.264048  0.533299  0.946739  1
  O  O16  1  0.844457  0.559098  0.550188  1
  O  O17  1  0.152842  0.062296  0.949994  1
  O  O18  1  0.736754  0.030543  0.556398  1
  O  O19  1  0.360966  0.780892  0.258222  1
