# generated using pymatgen
data_LiMn2F5
_symmetry_space_group_name_H-M   'P 1'
_cell_length_a   6.50413118
_cell_length_b   8.00511099
_cell_length_c   8.95652252
_cell_angle_alpha   106.35033334
_cell_angle_beta   91.06066492
_cell_angle_gamma   101.27277998
_symmetry_Int_Tables_number   1
_chemical_formula_structural   LiMn2F5
_chemical_formula_sum   'Li4 Mn8 F20'
_cell_volume   437.49875748
_cell_formula_units_Z   4
loop_
 _symmetry_equiv_pos_site_id
 _symmetry_equiv_pos_as_xyz
  1  'x, y, z'
loop_
 _atom_site_type_symbol
 _atom_site_label
 _atom_site_symmetry_multiplicity
 _atom_site_fract_x
 _atom_site_fract_y
 _atom_site_fract_z
 _atom_site_occupancy
  Li  Li0  1  0.786104  0.211517  0.445963  1
  Li  Li1  1  0.318163  0.215220  0.159215  1
  Li  Li2  1  0.681837  0.784780  0.840785  1
  Li  Li3  1  0.213896  0.788483  0.554037  1
  Mn  Mn4  1  0.542073  0.186255  0.793716  1
  Mn  Mn5  1  0.033452  0.151911  0.786603  1
  Mn  Mn6  1  0.325231  0.379940  0.567226  1
  Mn  Mn7  1  0.860221  0.386673  0.119745  1
  Mn  Mn8  1  0.139779  0.613327  0.880255  1
  Mn  Mn9  1  0.674769  0.620060  0.432774  1
  Mn  Mn10  1  0.966548  0.848089  0.213397  1
  Mn  Mn11  1  0.457927  0.813745  0.206284  1
  F  F12  1  0.734326  0.994654  0.767838  1
  F  F13  1  0.256457  0.995181  0.732473  1
  F  F14  1  0.743543  0.004819  0.267527  1
  F  F15  1  0.265674  0.005346  0.232162  1
  F  F16  1  0.551919  0.218364  0.571597  1
  F  F17  1  0.866491  0.380316  0.869402  1
  F  F18  1  0.031147  0.206365  0.563583  1
  F  F19  1  0.308886  0.375809  0.816132  1
  F  F20  1  0.554641  0.231936  0.035602  1
  F  F21  1  0.833474  0.401265  0.351685  1
  F  F22  1  0.065774  0.213418  0.040589  1
  F  F23  1  0.391233  0.402333  0.348639  1
  F  F24  1  0.608767  0.597667  0.651361  1
  F  F25  1  0.934226  0.786582  0.959411  1
  F  F26  1  0.166526  0.598735  0.648315  1
  F  F27  1  0.445359  0.768064  0.964398  1
  F  F28  1  0.691114  0.624191  0.183868  1
  F  F29  1  0.968853  0.793635  0.436417  1
  F  F30  1  0.133509  0.619684  0.130598  1
  F  F31  1  0.448081  0.781636  0.428403  1
