# generated using pymatgen
data_Li2Mn2Si4O11
_symmetry_space_group_name_H-M   'P 1'
_cell_length_a   7.07635055
_cell_length_b   7.69949493
_cell_length_c   9.76717346
_cell_angle_alpha   97.82288058
_cell_angle_beta   101.82890263
_cell_angle_gamma   111.23231449
_symmetry_Int_Tables_number   1
_chemical_formula_structural   Li2Mn2Si4O11
_chemical_formula_sum   'Li4 Mn4 Si8 O22'
_cell_volume   472.42043079
_cell_formula_units_Z   2
loop_
 _symmetry_equiv_pos_site_id
 _symmetry_equiv_pos_as_xyz
  1  'x, y, z'
loop_
 _atom_site_type_symbol
 _atom_site_label
 _atom_site_symmetry_multiplicity
 _atom_site_fract_x
 _atom_site_fract_y
 _atom_site_fract_z
 _atom_site_occupancy
  Li  Li0  1  0.093911  0.409295  0.559004  1
  Li  Li1  1  0.615080  0.389753  0.554060  1
  Li  Li2  1  0.384920  0.610247  0.445940  1
  Li  Li3  1  0.906089  0.590705  0.440996  1
  Mn  Mn4  1  0.332022  0.212720  0.759312  1
  Mn  Mn5  1  0.890740  0.341372  0.786321  1
  Mn  Mn6  1  0.109260  0.658628  0.213679  1
  Mn  Mn7  1  0.667978  0.787280  0.240688  1
  Si  Si8  1  0.751691  0.629335  0.947364  1
  Si  Si9  1  0.045924  0.769196  0.760730  1
  Si  Si10  1  0.476443  0.779996  0.762934  1
  Si  Si11  1  0.216590  0.029228  0.400851  1
  Si  Si12  1  0.783410  0.970772  0.599149  1
  Si  Si13  1  0.523557  0.220004  0.237066  1
  Si  Si14  1  0.954076  0.230804  0.239270  1
  Si  Si15  1  0.248309  0.370665  0.052636  1
  O  O16  1  0.188858  0.351769  0.879432  1
  O  O17  1  0.598705  0.744923  0.913679  1
  O  O18  1  0.656956  0.408491  0.851283  1
  O  O19  1  0.978546  0.746754  0.911453  1
  O  O20  1  0.306222  0.867361  0.805148  1
  O  O21  1  0.642557  0.964682  0.718215  1
  O  O22  1  0.345439  0.187359  0.549647  1
  O  O23  1  0.380353  0.591629  0.637380  1
  O  O24  1  0.875729  0.191225  0.588990  1
  O  O25  1  0.991704  0.935007  0.690800  1
  O  O26  1  0.934314  0.562086  0.650132  1
  O  O27  1  0.065686  0.437914  0.349868  1
  O  O28  1  0.008296  0.064993  0.309200  1
  O  O29  1  0.124271  0.808775  0.411010  1
  O  O30  1  0.619647  0.408371  0.362620  1
  O  O31  1  0.654561  0.812641  0.450353  1
  O  O32  1  0.357443  0.035318  0.281785  1
  O  O33  1  0.693778  0.132639  0.194852  1
  O  O34  1  0.021454  0.253246  0.088547  1
  O  O35  1  0.343044  0.591509  0.148717  1
  O  O36  1  0.401295  0.255077  0.086321  1
  O  O37  1  0.811142  0.648231  0.120568  1
