# generated using pymatgen
data_Dy2SeO2
_symmetry_space_group_name_H-M   'P 1'
_cell_length_a   6.65907472
_cell_length_b   6.65907472
_cell_length_c   6.65907472
_cell_angle_alpha   146.50540818
_cell_angle_beta   146.50540818
_cell_angle_gamma   48.09666857
_symmetry_Int_Tables_number   1
_chemical_formula_structural   Dy2SeO2
_chemical_formula_sum   'Dy2 Se1 O2'
_cell_volume   89.55895230
_cell_formula_units_Z   1
loop_
 _symmetry_equiv_pos_site_id
 _symmetry_equiv_pos_as_xyz
  1  'x, y, z'
loop_
 _atom_site_type_symbol
 _atom_site_label
 _atom_site_symmetry_multiplicity
 _atom_site_fract_x
 _atom_site_fract_y
 _atom_site_fract_z
 _atom_site_occupancy
  Dy  Dy0  1  0.343388  0.343388  0.000000  1
  Dy  Dy1  1  0.656612  0.656612  0.000000  1
  Se  Se2  1  0.000000  0.000000  0.000000  1
  O  O3  1  0.250000  0.750000  0.500000  1
  O  O4  1  0.750000  0.250000  0.500000  1
