# generated using pymatgen
data_Sr18Ni13O42
_symmetry_space_group_name_H-M   'P 1'
_cell_length_a   13.24127037
_cell_length_b   13.24127037
_cell_length_c   13.24127037
_cell_angle_alpha   41.93527258
_cell_angle_beta   41.93527258
_cell_angle_gamma   41.93527258
_symmetry_Int_Tables_number   1
_chemical_formula_structural   Sr18Ni13O42
_chemical_formula_sum   'Sr18 Ni13 O42'
_cell_volume   937.79055912
_cell_formula_units_Z   1
loop_
 _symmetry_equiv_pos_site_id
 _symmetry_equiv_pos_as_xyz
  1  'x, y, z'
loop_
 _atom_site_type_symbol
 _atom_site_label
 _atom_site_symmetry_multiplicity
 _atom_site_fract_x
 _atom_site_fract_y
 _atom_site_fract_z
 _atom_site_occupancy
  Sr  Sr0  1  0.278732  0.637901  0.995751  1
  Sr  Sr1  1  0.995751  0.278732  0.637901  1
  Sr  Sr2  1  0.588351  0.241786  0.917404  1
  Sr  Sr3  1  0.637901  0.995751  0.278732  1
  Sr  Sr4  1  0.241786  0.917404  0.588351  1
  Sr  Sr5  1  0.205635  0.510310  0.865535  1
  Sr  Sr6  1  0.917404  0.588351  0.241786  1
  Sr  Sr7  1  0.865535  0.205635  0.510310  1
  Sr  Sr8  1  0.504035  0.126891  0.787779  1
  Sr  Sr9  1  0.510310  0.865535  0.205635  1
  Sr  Sr10  1  0.126891  0.787779  0.504035  1
  Sr  Sr11  1  0.079214  0.421764  0.751475  1
  Sr  Sr12  1  0.787779  0.504035  0.126891  1
  Sr  Sr13  1  0.751475  0.079214  0.421764  1
  Sr  Sr14  1  0.364450  0.002725  0.715849  1
  Sr  Sr15  1  0.421764  0.751475  0.079214  1
  Sr  Sr16  1  0.002725  0.715849  0.364450  1
  Sr  Sr17  1  0.715849  0.364450  0.002725  1
  Ni  Ni18  1  0.000663  0.000663  0.000663  1
  Ni  Ni19  1  0.931887  0.931887  0.931887  1
  Ni  Ni20  1  0.783915  0.783915  0.783915  1
  Ni  Ni21  1  0.714854  0.714854  0.714854  1
  Ni  Ni22  1  0.642285  0.642285  0.642285  1
  Ni  Ni23  1  0.568703  0.568703  0.568703  1
  Ni  Ni24  1  0.499984  0.499984  0.499984  1
  Ni  Ni25  1  0.431279  0.431279  0.431279  1
  Ni  Ni26  1  0.357971  0.357971  0.357971  1
  Ni  Ni27  1  0.284629  0.284629  0.284629  1
  Ni  Ni28  1  0.215403  0.215403  0.215403  1
  Ni  Ni29  1  0.141946  0.141946  0.141946  1
  Ni  Ni30  1  0.068969  0.068969  0.068969  1
  O  O31  1  0.633488  0.818573  0.977632  1
  O  O32  1  0.977632  0.633488  0.818573  1
  O  O33  1  0.818573  0.977632  0.633488  1
  O  O34  1  0.748835  0.596812  0.900466  1
  O  O35  1  0.596812  0.900466  0.748835  1
  O  O36  1  0.900466  0.748835  0.596812  1
  O  O37  1  0.529980  0.675196  0.845937  1
  O  O38  1  0.845937  0.529980  0.675196  1
  O  O39  1  0.675196  0.845937  0.529980  1
  O  O40  1  0.818785  0.128642  0.958703  1
  O  O41  1  0.128642  0.958703  0.818785  1
  O  O42  1  0.449269  0.599412  0.751470  1
  O  O43  1  0.751470  0.449269  0.599412  1
  O  O44  1  0.069380  0.739541  0.909486  1
  O  O45  1  0.599412  0.751470  0.449269  1
  O  O46  1  0.909486  0.069380  0.739541  1
  O  O47  1  0.958703  0.818785  0.128642  1
  O  O48  1  0.540960  0.375794  0.682256  1
  O  O49  1  0.375794  0.682256  0.540960  1
  O  O50  1  0.682256  0.540960  0.375794  1
  O  O51  1  0.739541  0.909486  0.069380  1
  O  O52  1  0.252677  0.100326  0.946808  1
  O  O53  1  0.320272  0.457775  0.623300  1
  O  O54  1  0.623300  0.320272  0.457775  1
  O  O55  1  0.457775  0.623300  0.320272  1
  O  O56  1  0.041918  0.182223  0.875822  1
  O  O57  1  0.100326  0.946808  0.252677  1
  O  O58  1  0.401663  0.247043  0.551240  1
  O  O59  1  0.946808  0.252677  0.100326  1
  O  O60  1  0.247043  0.551240  0.401663  1
  O  O61  1  0.551240  0.401663  0.247043  1
  O  O62  1  0.875822  0.041918  0.182223  1
  O  O63  1  0.182223  0.875822  0.041918  1
  O  O64  1  0.324346  0.154416  0.468909  1
  O  O65  1  0.154416  0.468909  0.324346  1
  O  O66  1  0.468909  0.324346  0.154416  1
  O  O67  1  0.099269  0.250645  0.399702  1
  O  O68  1  0.399702  0.099269  0.250645  1
  O  O69  1  0.250645  0.399702  0.099269  1
  O  O70  1  0.176720  0.030067  0.346169  1
  O  O71  1  0.030067  0.346169  0.176720  1
  O  O72  1  0.346169  0.176720  0.030067  1
