# generated using pymatgen
data_As2Ru
_symmetry_space_group_name_H-M   'P 1'
_cell_length_a   3.01521370
_cell_length_b   5.49213300
_cell_length_c   6.24986421
_cell_angle_alpha   90.00000000
_cell_angle_beta   90.00000000
_cell_angle_gamma   90.00000000
_symmetry_Int_Tables_number   1
_chemical_formula_structural   As2Ru
_chemical_formula_sum   'As4 Ru2'
_cell_volume   103.49746797
_cell_formula_units_Z   2
loop_
 _symmetry_equiv_pos_site_id
 _symmetry_equiv_pos_as_xyz
  1  'x, y, z'
loop_
 _atom_site_type_symbol
 _atom_site_label
 _atom_site_symmetry_multiplicity
 _atom_site_fract_x
 _atom_site_fract_y
 _atom_site_fract_z
 _atom_site_occupancy
  As  As0  1  0.500000  0.329079  0.865315  1
  As  As1  1  0.500000  0.670921  0.134685  1
  As  As2  1  0.000000  0.170921  0.365315  1
  As  As3  1  0.000000  0.829079  0.634685  1
  Ru  Ru4  1  0.500000  0.500000  0.500000  1
  Ru  Ru5  1  0.000000  0.000000  0.000000  1
