# generated using pymatgen
data_Li4Mn3F10
_symmetry_space_group_name_H-M   'P 1'
_cell_length_a   5.19631027
_cell_length_b   5.50635922
_cell_length_c   7.74129726
_cell_angle_alpha   71.24742920
_cell_angle_beta   74.31467447
_cell_angle_gamma   78.06474645
_symmetry_Int_Tables_number   1
_chemical_formula_structural   Li4Mn3F10
_chemical_formula_sum   'Li4 Mn3 F10'
_cell_volume   200.17725902
_cell_formula_units_Z   1
loop_
 _symmetry_equiv_pos_site_id
 _symmetry_equiv_pos_as_xyz
  1  'x, y, z'
loop_
 _atom_site_type_symbol
 _atom_site_label
 _atom_site_symmetry_multiplicity
 _atom_site_fract_x
 _atom_site_fract_y
 _atom_site_fract_z
 _atom_site_occupancy
  Li  Li0  1  0.991318  0.704037  0.347768  1
  Li  Li1  1  0.507701  0.638086  0.203912  1
  Li  Li2  1  0.492299  0.361914  0.796088  1
  Li  Li3  1  0.008682  0.295963  0.652232  1
  Mn  Mn4  1  0.177947  0.241440  0.144270  1
  Mn  Mn5  1  0.500000  0.000000  0.500000  1
  Mn  Mn6  1  0.822053  0.758560  0.855730  1
  F  F7  1  0.894077  0.596535  0.155826  1
  F  F8  1  0.500000  0.500000  0.000000  1
  F  F9  1  0.500000  0.000000  0.000000  1
  F  F10  1  0.828779  0.055871  0.267855  1
  F  F11  1  0.300982  0.850029  0.359387  1
  F  F12  1  0.246899  0.361874  0.389711  1
  F  F13  1  0.753101  0.638126  0.610289  1
  F  F14  1  0.699018  0.149971  0.640613  1
  F  F15  1  0.171221  0.944129  0.732145  1
  F  F16  1  0.105923  0.403465  0.844174  1
