# generated using pymatgen
data_LiTi2(PO4)3
_symmetry_space_group_name_H-M   'P 1'
_cell_length_a   8.61741981
_cell_length_b   8.68141403
_cell_length_c   11.99879606
_cell_angle_alpha   89.93975226
_cell_angle_beta   89.51055070
_cell_angle_gamma   89.90974318
_symmetry_Int_Tables_number   1
_chemical_formula_structural   LiTi2(PO4)3
_chemical_formula_sum   'Li4 Ti8 P12 O48'
_cell_volume   897.61225365
_cell_formula_units_Z   4
loop_
 _symmetry_equiv_pos_site_id
 _symmetry_equiv_pos_as_xyz
  1  'x, y, z'
loop_
 _atom_site_type_symbol
 _atom_site_label
 _atom_site_symmetry_multiplicity
 _atom_site_fract_x
 _atom_site_fract_y
 _atom_site_fract_z
 _atom_site_occupancy
  Li  Li0  1  0.299412  0.721785  0.680903  1
  Li  Li1  1  0.201436  0.222243  0.820169  1
  Li  Li2  1  0.079722  0.298468  0.237407  1
  Li  Li3  1  0.069755  0.917896  0.298014  1
  Ti  Ti4  1  0.752346  0.531112  0.620875  1
  Ti  Ti5  1  0.747886  0.032978  0.877587  1
  Ti  Ti6  1  0.746906  0.466647  0.118511  1
  Ti  Ti7  1  0.739985  0.967751  0.383038  1
  Ti  Ti8  1  0.246861  0.040770  0.611044  1
  Ti  Ti9  1  0.251423  0.540710  0.890227  1
  Ti  Ti10  1  0.263330  0.965799  0.111433  1
  Ti  Ti11  1  0.258401  0.475470  0.386141  1
  P  P12  1  0.964076  0.249352  0.492097  1
  P  P13  1  0.896219  0.384661  0.855363  1
  P  P14  1  0.892687  0.105359  0.143261  1
  P  P15  1  0.603147  0.883458  0.646253  1
  P  P16  1  0.610022  0.609592  0.356623  1
  P  P17  1  0.537271  0.747813  0.003179  1
  P  P18  1  0.470407  0.253363  0.994011  1
  P  P19  1  0.397099  0.391168  0.647438  1
  P  P20  1  0.392095  0.116269  0.351117  1
  P  P21  1  0.103490  0.892444  0.854510  1
  P  P22  1  0.100906  0.616301  0.149354  1
  P  P23  1  0.032240  0.751277  0.506724  1
  O  O24  1  0.951211  0.865193  0.428086  1
  O  O25  1  0.926390  0.891093  0.859693  1
  O  O26  1  0.923155  0.679672  0.593106  1
  O  O27  1  0.927536  0.583562  0.163262  1
  O  O28  1  0.893735  0.372284  0.569185  1
  O  O29  1  0.870147  0.211445  0.829966  1
  O  O30  1  0.847419  0.422870  0.975076  1
  O  O31  1  0.848007  0.991665  0.237884  1
  O  O32  1  0.850046  0.272825  0.176427  1
  O  O33  1  0.835378  0.155453  0.437363  1
  O  O34  1  0.822382  0.058274  0.032834  1
  O  O35  1  0.810040  0.490046  0.772945  1
  O  O36  1  0.690943  0.990719  0.726209  1
  O  O37  1  0.675463  0.559698  0.469313  1
  O  O38  1  0.664415  0.658504  0.063071  1
  O  O39  1  0.663032  0.773945  0.327647  1
  O  O40  1  0.651862  0.922317  0.525679  1
  O  O41  1  0.661327  0.495875  0.265017  1
  O  O42  1  0.630220  0.711047  0.671207  1
  O  O43  1  0.607596  0.871374  0.927218  1
  O  O44  1  0.574852  0.178120  0.905753  1
  O  O45  1  0.574180  0.389115  0.642063  1
  O  O46  1  0.565201  0.082734  0.331727  1
  O  O47  1  0.558714  0.363767  0.069409  1
  O  O48  1  0.438864  0.637623  0.930262  1
  O  O49  1  0.425847  0.910841  0.661243  1
  O  O50  1  0.428357  0.608022  0.360895  1
  O  O51  1  0.426246  0.821068  0.091436  1
  O  O52  1  0.391862  0.130132  0.070525  1
  O  O53  1  0.358623  0.287049  0.325046  1
  O  O54  1  0.338279  0.512223  0.732961  1
  O  O55  1  0.348606  0.081141  0.474671  1
  O  O56  1  0.332267  0.231113  0.682020  1
  O  O57  1  0.334256  0.335004  0.932596  1
  O  O58  1  0.326310  0.436485  0.533455  1
  O  O59  1  0.292589  0.008103  0.277515  1
  O  O60  1  0.187724  0.501029  0.225840  1
  O  O61  1  0.174529  0.938275  0.968296  1
  O  O62  1  0.166164  0.833948  0.570363  1
  O  O63  1  0.167573  0.732092  0.819685  1
  O  O64  1  0.161775  0.013197  0.768532  1
  O  O65  1  0.153476  0.585073  0.026979  1
  O  O66  1  0.134569  0.785937  0.177957  1
  O  O67  1  0.112554  0.628700  0.431369  1
  O  O68  1  0.074387  0.411059  0.840109  1
  O  O69  1  0.070533  0.318434  0.400394  1
  O  O70  1  0.075068  0.105024  0.143787  1
  O  O71  1  0.064172  0.140148  0.566749  1
