# generated using pymatgen
data_LiMnF4
_symmetry_space_group_name_H-M   'P 1'
_cell_length_a   4.70962420
_cell_length_b   9.83259762
_cell_length_c   7.77208926
_cell_angle_alpha   90.00000000
_cell_angle_beta   124.89650555
_cell_angle_gamma   90.00000000
_symmetry_Int_Tables_number   1
_chemical_formula_structural   LiMnF4
_chemical_formula_sum   'Li4 Mn4 F16'
_cell_volume   295.19232418
_cell_formula_units_Z   4
loop_
 _symmetry_equiv_pos_site_id
 _symmetry_equiv_pos_as_xyz
  1  'x, y, z'
loop_
 _atom_site_type_symbol
 _atom_site_label
 _atom_site_symmetry_multiplicity
 _atom_site_fract_x
 _atom_site_fract_y
 _atom_site_fract_z
 _atom_site_occupancy
  Li  Li0  1  0.194181  0.716255  0.231462  1
  Li  Li1  1  0.805819  0.216255  0.268538  1
  Li  Li2  1  0.194181  0.783745  0.731462  1
  Li  Li3  1  0.805819  0.283745  0.768538  1
  Mn  Mn4  1  0.500000  0.000000  0.500000  1
  Mn  Mn5  1  0.000000  0.500000  0.500000  1
  Mn  Mn6  1  0.000000  0.000000  0.000000  1
  Mn  Mn7  1  0.500000  0.500000  0.000000  1
  F  F8  1  0.277225  0.155977  0.497608  1
  F  F9  1  0.802538  0.343987  0.524199  1
  F  F10  1  0.027864  0.911932  0.228484  1
  F  F11  1  0.972136  0.411932  0.271516  1
  F  F12  1  0.486454  0.574467  0.225694  1
  F  F13  1  0.513546  0.074467  0.274306  1
  F  F14  1  0.722775  0.655977  0.002392  1
  F  F15  1  0.802538  0.156013  0.024199  1
  F  F16  1  0.197462  0.843987  0.975801  1
  F  F17  1  0.277225  0.344023  0.997608  1
  F  F18  1  0.486454  0.925533  0.725694  1
  F  F19  1  0.513546  0.425533  0.774306  1
  F  F20  1  0.027864  0.588068  0.728484  1
  F  F21  1  0.972136  0.088068  0.771516  1
  F  F22  1  0.197462  0.656013  0.475801  1
  F  F23  1  0.722775  0.844023  0.502392  1
