# generated using pymatgen
data_LiSi4NiO10
_symmetry_space_group_name_H-M   'P 1'
_cell_length_a   7.81520152
_cell_length_b   5.17931243
_cell_length_c   11.90438750
_cell_angle_alpha   90.00000000
_cell_angle_beta   112.82252135
_cell_angle_gamma   90.00000000
_symmetry_Int_Tables_number   1
_chemical_formula_structural   LiSi4NiO10
_chemical_formula_sum   'Li2 Si8 Ni2 O20'
_cell_volume   444.13398094
_cell_formula_units_Z   2
loop_
 _symmetry_equiv_pos_site_id
 _symmetry_equiv_pos_as_xyz
  1  'x, y, z'
loop_
 _atom_site_type_symbol
 _atom_site_label
 _atom_site_symmetry_multiplicity
 _atom_site_fract_x
 _atom_site_fract_y
 _atom_site_fract_z
 _atom_site_occupancy
  Li  Li0  1  0.000000  0.258777  0.750000  1
  Li  Li1  1  0.000000  0.741223  0.250000  1
  Si  Si2  1  0.293466  0.476385  0.000287  1
  Si  Si3  1  0.706389  0.021233  0.851327  1
  Si  Si4  1  0.293611  0.021233  0.648673  1
  Si  Si5  1  0.706534  0.476385  0.499713  1
  Si  Si6  1  0.293466  0.523615  0.500287  1
  Si  Si7  1  0.706389  0.978767  0.351327  1
  Si  Si8  1  0.293611  0.978767  0.148673  1
  Si  Si9  1  0.706534  0.523615  0.999713  1
  Ni  Ni10  1  0.000000  0.758323  0.750000  1
  Ni  Ni11  1  0.000000  0.241677  0.250000  1
  O  O12  1  0.500000  0.500000  0.000000  1
  O  O13  1  0.136956  0.520453  0.864335  1
  O  O14  1  0.859352  0.996954  0.790762  1
  O  O15  1  0.743715  0.816285  0.962563  1
  O  O16  1  0.724228  0.317387  0.901328  1
  O  O17  1  0.140648  0.996954  0.709238  1
  O  O18  1  0.863044  0.520453  0.635665  1
  O  O19  1  0.500000  0.965777  0.750000  1
  O  O20  1  0.275772  0.317387  0.598672  1
  O  O21  1  0.743715  0.183715  0.462563  1
  O  O22  1  0.256285  0.816285  0.537437  1
  O  O23  1  0.724228  0.682613  0.401328  1
  O  O24  1  0.500000  0.500000  0.500000  1
  O  O25  1  0.500000  0.034223  0.250000  1
  O  O26  1  0.136956  0.479547  0.364335  1
  O  O27  1  0.859352  0.003046  0.290762  1
  O  O28  1  0.275772  0.682613  0.098672  1
  O  O29  1  0.256285  0.183715  0.037437  1
  O  O30  1  0.140648  0.003046  0.209238  1
  O  O31  1  0.863044  0.479547  0.135665  1
