# generated using pymatgen
data_NaTi4O8
_symmetry_space_group_name_H-M   'P 1'
_cell_length_a   5.93846499
_cell_length_b   11.31069164
_cell_length_c   11.35222230
_cell_angle_alpha   90.00000000
_cell_angle_beta   121.31870853
_cell_angle_gamma   90.00000000
_symmetry_Int_Tables_number   1
_chemical_formula_structural   NaTi4O8
_chemical_formula_sum   'Na4 Ti16 O32'
_cell_volume   651.40207842
_cell_formula_units_Z   4
loop_
 _symmetry_equiv_pos_site_id
 _symmetry_equiv_pos_as_xyz
  1  'x, y, z'
loop_
 _atom_site_type_symbol
 _atom_site_label
 _atom_site_symmetry_multiplicity
 _atom_site_fract_x
 _atom_site_fract_y
 _atom_site_fract_z
 _atom_site_occupancy
  Na  Na0  1  0.750506  0.426404  0.098590  1
  Na  Na1  1  0.249494  0.926404  0.401410  1
  Na  Na2  1  0.750506  0.073596  0.598590  1
  Na  Na3  1  0.249494  0.573596  0.901410  1
  Ti  Ti4  1  0.893795  0.875282  0.016126  1
  Ti  Ti5  1  0.393462  0.876731  0.021159  1
  Ti  Ti6  1  0.868254  0.669751  0.243250  1
  Ti  Ti7  1  0.360869  0.654440  0.235413  1
  Ti  Ti8  1  0.131746  0.169751  0.256750  1
  Ti  Ti9  1  0.639131  0.154440  0.264587  1
  Ti  Ti10  1  0.606538  0.376731  0.478841  1
  Ti  Ti11  1  0.106205  0.375282  0.483874  1
  Ti  Ti12  1  0.393462  0.623269  0.521159  1
  Ti  Ti13  1  0.893795  0.624718  0.516126  1
  Ti  Ti14  1  0.868254  0.830249  0.743250  1
  Ti  Ti15  1  0.360869  0.845560  0.735413  1
  Ti  Ti16  1  0.639131  0.345560  0.764587  1
  Ti  Ti17  1  0.131746  0.330249  0.756750  1
  Ti  Ti18  1  0.606538  0.123269  0.978841  1
  Ti  Ti19  1  0.106205  0.124718  0.983874  1
  O  O20  1  0.972050  0.041727  0.097890  1
  O  O21  1  0.473447  0.041335  0.098956  1
  O  O22  1  0.755957  0.230593  0.132539  1
  O  O23  1  0.261682  0.229495  0.135595  1
  O  O24  1  0.757562  0.812495  0.130383  1
  O  O25  1  0.249312  0.805881  0.126780  1
  O  O26  1  0.024646  0.590531  0.154151  1
  O  O27  1  0.529756  0.591741  0.146504  1
  O  O28  1  0.975354  0.090531  0.345849  1
  O  O29  1  0.470244  0.091741  0.353496  1
  O  O30  1  0.242438  0.312495  0.369617  1
  O  O31  1  0.750688  0.305881  0.373220  1
  O  O32  1  0.244043  0.730593  0.367461  1
  O  O33  1  0.738318  0.729495  0.364405  1
  O  O34  1  0.027950  0.541727  0.402110  1
  O  O35  1  0.526553  0.541335  0.401044  1
  O  O36  1  0.473447  0.458665  0.598956  1
  O  O37  1  0.972050  0.458273  0.597890  1
  O  O38  1  0.261682  0.270505  0.635595  1
  O  O39  1  0.755957  0.269407  0.632539  1
  O  O40  1  0.249312  0.694119  0.626780  1
  O  O41  1  0.757562  0.687505  0.630383  1
  O  O42  1  0.529756  0.908259  0.646504  1
  O  O43  1  0.024646  0.909469  0.654151  1
  O  O44  1  0.470244  0.408259  0.853496  1
  O  O45  1  0.975354  0.409469  0.845849  1
  O  O46  1  0.750688  0.194119  0.873220  1
  O  O47  1  0.242438  0.187505  0.869617  1
  O  O48  1  0.738318  0.770505  0.864405  1
  O  O49  1  0.244043  0.769407  0.867461  1
  O  O50  1  0.526553  0.958665  0.901044  1
  O  O51  1  0.027950  0.958273  0.902110  1
