# generated using pymatgen
data_Li3TiMn3O8
_symmetry_space_group_name_H-M   'P 1'
_cell_length_a   5.88339672
_cell_length_b   5.98680104
_cell_length_c   6.01473111
_cell_angle_alpha   118.42887808
_cell_angle_beta   118.14175993
_cell_angle_gamma   91.88234381
_symmetry_Int_Tables_number   1
_chemical_formula_structural   Li3TiMn3O8
_chemical_formula_sum   'Li3 Ti1 Mn3 O8'
_cell_volume   154.96911442
_cell_formula_units_Z   1
loop_
 _symmetry_equiv_pos_site_id
 _symmetry_equiv_pos_as_xyz
  1  'x, y, z'
loop_
 _atom_site_type_symbol
 _atom_site_label
 _atom_site_symmetry_multiplicity
 _atom_site_fract_x
 _atom_site_fract_y
 _atom_site_fract_z
 _atom_site_occupancy
  Li  Li0  1  0.500000  0.000000  0.500000  1
  Li  Li1  1  0.000000  0.000000  0.500000  1
  Li  Li2  1  0.000000  0.500000  0.000000  1
  Ti  Ti3  1  0.000000  0.000000  0.000000  1
  Mn  Mn4  1  0.000000  0.500000  0.500000  1
  Mn  Mn5  1  0.500000  0.500000  0.500000  1
  Mn  Mn6  1  0.500000  0.000000  0.000000  1
  O  O7  1  0.753345  0.289047  0.514394  1
  O  O8  1  0.755448  0.794690  0.020849  1
  O  O9  1  0.222091  0.753194  0.955834  1
  O  O10  1  0.246655  0.710953  0.485606  1
  O  O11  1  0.250730  0.225537  0.446467  1
  O  O12  1  0.244552  0.205310  0.979151  1
  O  O13  1  0.777909  0.246806  0.044166  1
  O  O14  1  0.749270  0.774463  0.553533  1
