# generated using pymatgen
data_Sm2Cu2O5
_symmetry_space_group_name_H-M   'P 1'
_cell_length_a   3.76661391
_cell_length_b   5.78979821
_cell_length_c   9.89187108
_cell_angle_alpha   90.00000000
_cell_angle_beta   90.00000000
_cell_angle_gamma   90.00000000
_symmetry_Int_Tables_number   1
_chemical_formula_structural   Sm2Cu2O5
_chemical_formula_sum   'Sm4 Cu4 O10'
_cell_volume   215.72127634
_cell_formula_units_Z   2
loop_
 _symmetry_equiv_pos_site_id
 _symmetry_equiv_pos_as_xyz
  1  'x, y, z'
loop_
 _atom_site_type_symbol
 _atom_site_label
 _atom_site_symmetry_multiplicity
 _atom_site_fract_x
 _atom_site_fract_y
 _atom_site_fract_z
 _atom_site_occupancy
  Sm  Sm0  1  0.500000  0.144459  0.849603  1
  Sm  Sm1  1  0.500000  0.355541  0.349603  1
  Sm  Sm2  1  0.500000  0.644459  0.650397  1
  Sm  Sm3  1  0.500000  0.855541  0.150397  1
  Cu  Cu4  1  0.000000  0.189037  0.592962  1
  Cu  Cu5  1  0.000000  0.310963  0.092962  1
  Cu  Cu6  1  0.000000  0.689037  0.907038  1
  Cu  Cu7  1  0.000000  0.810963  0.407038  1
  O  O8  1  0.000000  0.000000  0.000000  1
  O  O9  1  0.000000  0.099202  0.300940  1
  O  O10  1  0.500000  0.234058  0.602466  1
  O  O11  1  0.500000  0.265942  0.102466  1
  O  O12  1  0.000000  0.400798  0.800940  1
  O  O13  1  0.000000  0.500000  0.500000  1
  O  O14  1  0.000000  0.599202  0.199060  1
  O  O15  1  0.500000  0.734058  0.897534  1
  O  O16  1  0.500000  0.765942  0.397534  1
  O  O17  1  0.000000  0.900798  0.699060  1
