# generated using pymatgen
data_V3Cr3(WO8)2
_symmetry_space_group_name_H-M   'P 1'
_cell_length_a   5.98010747
_cell_length_b   6.00752449
_cell_length_c   9.25542479
_cell_angle_alpha   90.03383584
_cell_angle_beta   91.04510177
_cell_angle_gamma   119.63844083
_symmetry_Int_Tables_number   1
_chemical_formula_structural   V3Cr3(WO8)2
_chemical_formula_sum   'V3 Cr3 W2 O16'
_cell_volume   288.93721587
_cell_formula_units_Z   1
loop_
 _symmetry_equiv_pos_site_id
 _symmetry_equiv_pos_as_xyz
  1  'x, y, z'
loop_
 _atom_site_type_symbol
 _atom_site_label
 _atom_site_symmetry_multiplicity
 _atom_site_fract_x
 _atom_site_fract_y
 _atom_site_fract_z
 _atom_site_occupancy
  V  V0  1  0.339901  0.170536  0.776250  1
  V  V1  1  0.171307  0.827259  0.282009  1
  V  V2  1  0.164994  0.335220  0.285175  1
  Cr  Cr3  1  0.829128  0.661385  0.791873  1
  Cr  Cr4  1  0.827973  0.167715  0.791635  1
  Cr  Cr5  1  0.660774  0.828560  0.293124  1
  W  W6  1  0.674924  0.337143  0.508352  1
  W  W7  1  0.340939  0.668462  0.006629  1
  O  O8  1  0.829607  0.650182  0.406096  1
  O  O9  1  0.948163  0.473456  0.662746  1
  O  O10  1  0.645036  0.323213  0.890800  1
  O  O11  1  0.010066  0.004646  0.699244  1
  O  O12  1  0.001708  0.986775  0.200522  1
  O  O13  1  0.825744  0.173320  0.405311  1
  O  O14  1  0.519394  0.473921  0.654735  1
  O  O15  1  0.520738  0.047466  0.654767  1
  O  O16  1  0.654728  0.829687  0.905033  1
  O  O17  1  0.356076  0.177438  0.402455  1
  O  O18  1  0.471912  0.951585  0.160227  1
  O  O19  1  0.478616  0.529494  0.156854  1
  O  O20  1  0.323925  0.672521  0.391658  1
  O  O21  1  0.179251  0.827011  0.903178  1
  O  O22  1  0.047285  0.529311  0.152644  1
  O  O23  1  0.177810  0.353892  0.902965  1
