# generated using pymatgen
data_LiNiPO4
_symmetry_space_group_name_H-M   'P 1'
_cell_length_a   8.37773246
_cell_length_b   8.37773246
_cell_length_c   7.48371106
_cell_angle_alpha   90.00000000
_cell_angle_beta   90.00000000
_cell_angle_gamma   120.00000000
_symmetry_Int_Tables_number   1
_chemical_formula_structural   LiNiPO4
_chemical_formula_sum   'Li6 Ni6 P6 O24'
_cell_volume   454.88395456
_cell_formula_units_Z   6
loop_
 _symmetry_equiv_pos_site_id
 _symmetry_equiv_pos_as_xyz
  1  'x, y, z'
loop_
 _atom_site_type_symbol
 _atom_site_label
 _atom_site_symmetry_multiplicity
 _atom_site_fract_x
 _atom_site_fract_y
 _atom_site_fract_z
 _atom_site_occupancy
  Li  Li0  1  0.014149  0.682387  0.401878  1
  Li  Li1  1  0.317613  0.331762  0.401878  1
  Li  Li2  1  0.668238  0.985851  0.401878  1
  Li  Li3  1  0.331762  0.014149  0.901878  1
  Li  Li4  1  0.682387  0.668238  0.901878  1
  Li  Li5  1  0.985851  0.317613  0.901878  1
  Ni  Ni6  1  0.333333  0.666667  0.301157  1
  Ni  Ni7  1  0.333333  0.666667  0.698347  1
  Ni  Ni8  1  0.000000  0.000000  0.133038  1
  Ni  Ni9  1  0.000000  0.000000  0.633038  1
  Ni  Ni10  1  0.666667  0.333333  0.801157  1
  Ni  Ni11  1  0.666667  0.333333  0.198347  1
  P  P12  1  0.038256  0.674713  0.005178  1
  P  P13  1  0.325287  0.363543  0.005178  1
  P  P14  1  0.636457  0.961744  0.005178  1
  P  P15  1  0.363543  0.038256  0.505178  1
  P  P16  1  0.674713  0.636457  0.505178  1
  P  P17  1  0.961744  0.325287  0.505178  1
  O  O18  1  0.148284  0.928671  0.501462  1
  O  O19  1  0.147116  0.722077  0.181579  1
  O  O20  1  0.173305  0.740699  0.846735  1
  O  O21  1  0.111796  0.533366  0.497361  1
  O  O22  1  0.421570  0.888204  0.497361  1
  O  O23  1  0.071329  0.219613  0.501462  1
  O  O24  1  0.259301  0.432606  0.846735  1
  O  O25  1  0.277923  0.425039  0.181579  1
  O  O26  1  0.219613  0.148284  0.001462  1
  O  O27  1  0.574961  0.852884  0.181579  1
  O  O28  1  0.567394  0.826695  0.846735  1
  O  O29  1  0.466634  0.578430  0.497361  1
  O  O30  1  0.533366  0.421570  0.997361  1
  O  O31  1  0.432606  0.173305  0.346735  1
  O  O32  1  0.425039  0.147116  0.681579  1
  O  O33  1  0.780387  0.851716  0.501462  1
  O  O34  1  0.722077  0.574961  0.681579  1
  O  O35  1  0.740699  0.567394  0.346735  1
  O  O36  1  0.928671  0.780387  0.001462  1
  O  O37  1  0.578430  0.111796  0.997361  1
  O  O38  1  0.888204  0.466634  0.997361  1
  O  O39  1  0.826695  0.259301  0.346735  1
  O  O40  1  0.852884  0.277923  0.681579  1
  O  O41  1  0.851716  0.071329  0.001462  1
