# generated using pymatgen
data_Li2CuSiO4
_symmetry_space_group_name_H-M   'P 1'
_cell_length_a   4.96732743
_cell_length_b   6.33111807
_cell_length_c   10.80651726
_cell_angle_alpha   90.00000000
_cell_angle_beta   90.00000000
_cell_angle_gamma   90.00000000
_symmetry_Int_Tables_number   1
_chemical_formula_structural   Li2CuSiO4
_chemical_formula_sum   'Li8 Cu4 Si4 O16'
_cell_volume   339.85131277
_cell_formula_units_Z   4
loop_
 _symmetry_equiv_pos_site_id
 _symmetry_equiv_pos_as_xyz
  1  'x, y, z'
loop_
 _atom_site_type_symbol
 _atom_site_label
 _atom_site_symmetry_multiplicity
 _atom_site_fract_x
 _atom_site_fract_y
 _atom_site_fract_z
 _atom_site_occupancy
  Li  Li0  1  0.705946  0.870143  0.090212  1
  Li  Li1  1  0.204045  0.118032  0.165356  1
  Li  Li2  1  0.704045  0.618032  0.334644  1
  Li  Li3  1  0.205946  0.370143  0.409788  1
  Li  Li4  1  0.794054  0.870143  0.590212  1
  Li  Li5  1  0.295955  0.118032  0.665356  1
  Li  Li6  1  0.795955  0.618032  0.834644  1
  Li  Li7  1  0.294054  0.370143  0.909788  1
  Cu  Cu8  1  0.714487  0.370530  0.084741  1
  Cu  Cu9  1  0.214487  0.870530  0.415259  1
  Cu  Cu10  1  0.785513  0.370530  0.584741  1
  Cu  Cu11  1  0.285513  0.870530  0.915259  1
  Si  Si12  1  0.196157  0.615706  0.166677  1
  Si  Si13  1  0.696157  0.115706  0.333323  1
  Si  Si14  1  0.303843  0.615706  0.666677  1
  Si  Si15  1  0.803843  0.115706  0.833323  1
  O  O16  1  0.302566  0.829969  0.094433  1
  O  O17  1  0.297778  0.401262  0.093533  1
  O  O18  1  0.863480  0.616937  0.168282  1
  O  O19  1  0.808333  0.119134  0.188731  1
  O  O20  1  0.308333  0.619134  0.311269  1
  O  O21  1  0.363480  0.116937  0.331718  1
  O  O22  1  0.797778  0.901262  0.406467  1
  O  O23  1  0.802566  0.329969  0.405567  1
  O  O24  1  0.197434  0.829969  0.594433  1
  O  O25  1  0.202222  0.401262  0.593533  1
  O  O26  1  0.636520  0.616937  0.668282  1
  O  O27  1  0.691667  0.119134  0.688731  1
  O  O28  1  0.191667  0.619134  0.811269  1
  O  O29  1  0.136520  0.116937  0.831718  1
  O  O30  1  0.702222  0.901262  0.906467  1
  O  O31  1  0.697434  0.329969  0.905567  1
