# generated using pymatgen
data_Li3FeBAsO7
_symmetry_space_group_name_H-M   'P 1'
_cell_length_a   5.09451204
_cell_length_b   6.59841847
_cell_length_c   8.57681369
_cell_angle_alpha   90.00000000
_cell_angle_beta   93.81828576
_cell_angle_gamma   90.00000000
_symmetry_Int_Tables_number   1
_chemical_formula_structural   Li3FeBAsO7
_chemical_formula_sum   'Li6 Fe2 B2 As2 O14'
_cell_volume   287.67580360
_cell_formula_units_Z   2
loop_
 _symmetry_equiv_pos_site_id
 _symmetry_equiv_pos_as_xyz
  1  'x, y, z'
loop_
 _atom_site_type_symbol
 _atom_site_label
 _atom_site_symmetry_multiplicity
 _atom_site_fract_x
 _atom_site_fract_y
 _atom_site_fract_z
 _atom_site_occupancy
  Li  Li0  1  0.262192  0.750000  0.084927  1
  Li  Li1  1  0.763324  0.013830  0.221404  1
  Li  Li2  1  0.763324  0.486170  0.221404  1
  Li  Li3  1  0.236676  0.513830  0.778596  1
  Li  Li4  1  0.236676  0.986170  0.778596  1
  Li  Li5  1  0.737808  0.250000  0.915073  1
  Fe  Fe6  1  0.219417  0.250000  0.319019  1
  Fe  Fe7  1  0.780583  0.750000  0.680981  1
  B  B8  1  0.276909  0.250000  0.035881  1
  B  B9  1  0.723091  0.750000  0.964119  1
  As  As10  1  0.277485  0.750000  0.421187  1
  As  As11  1  0.722515  0.250000  0.578813  1
  O  O12  1  0.660865  0.750000  0.115598  1
  O  O13  1  0.022126  0.250000  0.089948  1
  O  O14  1  0.479508  0.250000  0.157572  1
  O  O15  1  0.182208  0.946549  0.298568  1
  O  O16  1  0.182208  0.553451  0.298568  1
  O  O17  1  0.613413  0.750000  0.461785  1
  O  O18  1  0.851320  0.250000  0.399102  1
  O  O19  1  0.148680  0.750000  0.600898  1
  O  O20  1  0.386587  0.250000  0.538215  1
  O  O21  1  0.817792  0.446549  0.701432  1
  O  O22  1  0.817792  0.053451  0.701432  1
  O  O23  1  0.520492  0.750000  0.842428  1
  O  O24  1  0.977874  0.750000  0.910052  1
  O  O25  1  0.339135  0.250000  0.884402  1
