# generated using pymatgen
data_LiMn3O6
_symmetry_space_group_name_H-M   'P 1'
_cell_length_a   5.13680055
_cell_length_b   5.13680055
_cell_length_c   10.76615050
_cell_angle_alpha   73.34260792
_cell_angle_beta   106.65739208
_cell_angle_gamma   121.29624559
_symmetry_Int_Tables_number   1
_chemical_formula_structural   LiMn3O6
_chemical_formula_sum   'Li2 Mn6 O12'
_cell_volume   229.24480394
_cell_formula_units_Z   2
loop_
 _symmetry_equiv_pos_site_id
 _symmetry_equiv_pos_as_xyz
  1  'x, y, z'
loop_
 _atom_site_type_symbol
 _atom_site_label
 _atom_site_symmetry_multiplicity
 _atom_site_fract_x
 _atom_site_fract_y
 _atom_site_fract_z
 _atom_site_occupancy
  Li  Li0  1  0.099093  0.750014  0.243531  1
  Li  Li1  1  0.249986  0.900907  0.743531  1
  Mn  Mn2  1  0.321641  0.828036  0.007279  1
  Mn  Mn3  1  0.171964  0.678359  0.507279  1
  Mn  Mn4  1  0.657478  0.500711  0.997324  1
  Mn  Mn5  1  0.831082  0.014690  0.493118  1
  Mn  Mn6  1  0.499289  0.342522  0.497324  1
  Mn  Mn7  1  0.985310  0.168918  0.993118  1
  O  O8  1  0.022189  0.490749  0.107480  1
  O  O9  1  0.207385  0.295778  0.594957  1
  O  O10  1  0.446694  0.710184  0.403559  1
  O  O11  1  0.289816  0.553306  0.903559  1
  O  O12  1  0.353153  0.124185  0.095452  1
  O  O13  1  0.959521  0.836240  0.895379  1
  O  O14  1  0.509251  0.977811  0.607480  1
  O  O15  1  0.163760  0.040479  0.395379  1
  O  O16  1  0.802515  0.394373  0.404157  1
  O  O17  1  0.605627  0.197485  0.904157  1
  O  O18  1  0.704222  0.792615  0.094957  1
  O  O19  1  0.875815  0.646847  0.595452  1
