# generated using pymatgen
data_Li4Ti5O12
_symmetry_space_group_name_H-M   'P 1'
_cell_length_a   5.28815821
_cell_length_b   9.53193901
_cell_length_c   9.93178570
_cell_angle_alpha   73.12225335
_cell_angle_beta   78.04218421
_cell_angle_gamma   78.91340261
_symmetry_Int_Tables_number   1
_chemical_formula_structural   Li4Ti5O12
_chemical_formula_sum   'Li8 Ti10 O24'
_cell_volume   463.97426928
_cell_formula_units_Z   2
loop_
 _symmetry_equiv_pos_site_id
 _symmetry_equiv_pos_as_xyz
  1  'x, y, z'
loop_
 _atom_site_type_symbol
 _atom_site_label
 _atom_site_symmetry_multiplicity
 _atom_site_fract_x
 _atom_site_fract_y
 _atom_site_fract_z
 _atom_site_occupancy
  Li  Li0  1  0.132125  0.408060  0.404374  1
  Li  Li1  1  0.338455  0.576808  0.110930  1
  Li  Li2  1  0.273272  0.907074  0.022621  1
  Li  Li3  1  0.310334  0.769983  0.555790  1
  Li  Li4  1  0.689666  0.230017  0.444210  1
  Li  Li5  1  0.726728  0.092926  0.977379  1
  Li  Li6  1  0.661545  0.423192  0.889070  1
  Li  Li7  1  0.867875  0.591940  0.595626  1
  Ti  Ti8  1  0.273124  0.099414  0.275403  1
  Ti  Ti9  1  0.176821  0.099182  0.674995  1
  Ti  Ti10  1  0.188259  0.259028  0.932125  1
  Ti  Ti11  1  0.137048  0.594236  0.850612  1
  Ti  Ti12  1  0.433059  0.412336  0.646008  1
  Ti  Ti13  1  0.566941  0.587664  0.353992  1
  Ti  Ti14  1  0.862952  0.405764  0.149388  1
  Ti  Ti15  1  0.811741  0.740972  0.067875  1
  Ti  Ti16  1  0.823179  0.900818  0.325005  1
  Ti  Ti17  1  0.726876  0.900586  0.724597  1
  O  O18  1  0.046681  0.263045  0.303118  1
  O  O19  1  0.235921  0.422775  0.010869  1
  O  O20  1  0.343400  0.102405  0.087990  1
  O  O21  1  0.104177  0.101743  0.861548  1
  O  O22  1  0.058584  0.425700  0.778540  1
  O  O23  1  0.120165  0.930420  0.377743  1
  O  O24  1  0.322454  0.261832  0.567568  1
  O  O25  1  0.262461  0.566973  0.485938  1
  O  O26  1  0.584650  0.068924  0.342798  1
  O  O27  1  0.161116  0.727342  0.951914  1
  O  O28  1  0.542761  0.425260  0.270943  1
  O  O29  1  0.474011  0.728834  0.186139  1
  O  O30  1  0.525989  0.271166  0.813861  1
  O  O31  1  0.457239  0.574740  0.729057  1
  O  O32  1  0.838884  0.272658  0.048086  1
  O  O33  1  0.415350  0.931076  0.657202  1
  O  O34  1  0.737539  0.433027  0.514062  1
  O  O35  1  0.677546  0.738168  0.432432  1
  O  O36  1  0.879835  0.069580  0.622257  1
  O  O37  1  0.941416  0.574300  0.221460  1
  O  O38  1  0.895823  0.898257  0.138452  1
  O  O39  1  0.656600  0.897595  0.912010  1
  O  O40  1  0.764079  0.577225  0.989131  1
  O  O41  1  0.953319  0.736955  0.696882  1
