# generated using pymatgen
data_Li2NbO3
_symmetry_space_group_name_H-M   'P 1'
_cell_length_a   5.18395584
_cell_length_b   5.18395584
_cell_length_c   5.20499463
_cell_angle_alpha   78.78613833
_cell_angle_beta   101.21386167
_cell_angle_gamma   62.61331281
_symmetry_Int_Tables_number   1
_chemical_formula_structural   Li2NbO3
_chemical_formula_sum   'Li4 Nb2 O6'
_cell_volume   115.17268669
_cell_formula_units_Z   2
loop_
 _symmetry_equiv_pos_site_id
 _symmetry_equiv_pos_as_xyz
  1  'x, y, z'
loop_
 _atom_site_type_symbol
 _atom_site_label
 _atom_site_symmetry_multiplicity
 _atom_site_fract_x
 _atom_site_fract_y
 _atom_site_fract_z
 _atom_site_occupancy
  Li  Li0  1  0.737108  0.737108  0.250000  1
  Li  Li1  1  0.419924  0.419924  0.250000  1
  Li  Li2  1  0.580076  0.580076  0.750000  1
  Li  Li3  1  0.262892  0.262892  0.750000  1
  Nb  Nb4  1  0.084277  0.084277  0.250000  1
  Nb  Nb5  1  0.915723  0.915723  0.750000  1
  O  O6  1  0.840248  0.320933  0.496224  1
  O  O7  1  0.679067  0.159752  0.996224  1
  O  O8  1  0.000000  0.500000  0.000000  1
  O  O9  1  0.320933  0.840248  0.003776  1
  O  O10  1  0.500000  0.000000  0.500000  1
  O  O11  1  0.159752  0.679067  0.503776  1
