# generated using pymatgen
data_Li3CuF6
_symmetry_space_group_name_H-M   'P 1'
_cell_length_a   5.19393489
_cell_length_b   9.17056245
_cell_length_c   17.29713798
_cell_angle_alpha   90.00000000
_cell_angle_beta   90.00000000
_cell_angle_gamma   90.00000000
_symmetry_Int_Tables_number   1
_chemical_formula_structural   Li3CuF6
_chemical_formula_sum   'Li24 Cu8 F48'
_cell_volume   823.88524213
_cell_formula_units_Z   8
loop_
 _symmetry_equiv_pos_site_id
 _symmetry_equiv_pos_as_xyz
  1  'x, y, z'
loop_
 _atom_site_type_symbol
 _atom_site_label
 _atom_site_symmetry_multiplicity
 _atom_site_fract_x
 _atom_site_fract_y
 _atom_site_fract_z
 _atom_site_occupancy
  Li  Li0  1  0.197740  0.748121  0.170050  1
  Li  Li1  1  0.197740  0.748121  0.329950  1
  Li  Li2  1  0.197740  0.751879  0.670050  1
  Li  Li3  1  0.197740  0.751879  0.829950  1
  Li  Li4  1  0.212906  0.443385  0.072965  1
  Li  Li5  1  0.212906  0.056615  0.927035  1
  Li  Li6  1  0.212906  0.443385  0.427035  1
  Li  Li7  1  0.212906  0.056615  0.572965  1
  Li  Li8  1  0.292547  0.076880  0.371066  1
  Li  Li9  1  0.292547  0.076880  0.128934  1
  Li  Li10  1  0.292547  0.423120  0.628934  1
  Li  Li11  1  0.292547  0.423120  0.871066  1
  Li  Li12  1  0.707453  0.576880  0.128934  1
  Li  Li13  1  0.707453  0.576880  0.371066  1
  Li  Li14  1  0.707453  0.923120  0.871066  1
  Li  Li15  1  0.707453  0.923120  0.628934  1
  Li  Li16  1  0.787094  0.556615  0.927035  1
  Li  Li17  1  0.787094  0.556615  0.572965  1
  Li  Li18  1  0.787094  0.943385  0.072965  1
  Li  Li19  1  0.787094  0.943385  0.427035  1
  Li  Li20  1  0.802260  0.248121  0.170050  1
  Li  Li21  1  0.802260  0.248121  0.329950  1
  Li  Li22  1  0.802260  0.251879  0.829950  1
  Li  Li23  1  0.802260  0.251879  0.670050  1
  Cu  Cu24  1  0.193722  0.750000  0.000000  1
  Cu  Cu25  1  0.193722  0.750000  0.500000  1
  Cu  Cu26  1  0.261100  0.445164  0.250000  1
  Cu  Cu27  1  0.261100  0.054836  0.750000  1
  Cu  Cu28  1  0.738900  0.945164  0.250000  1
  Cu  Cu29  1  0.738900  0.554836  0.750000  1
  Cu  Cu30  1  0.806278  0.250000  0.000000  1
  Cu  Cu31  1  0.806278  0.250000  0.500000  1
  F  F32  1  0.029826  0.497450  0.167872  1
  F  F33  1  0.029826  0.497450  0.332128  1
  F  F34  1  0.029826  0.002550  0.667872  1
  F  F35  1  0.029826  0.002550  0.832128  1
  F  F36  1  0.073085  0.238363  0.077689  1
  F  F37  1  0.073085  0.238363  0.422311  1
  F  F38  1  0.073085  0.261637  0.577689  1
  F  F39  1  0.073085  0.261637  0.922311  1
  F  F40  1  0.089373  0.260001  0.250000  1
  F  F41  1  0.089373  0.239999  0.750000  1
  F  F42  1  0.215108  0.952035  0.030594  1
  F  F43  1  0.215108  0.547965  0.530594  1
  F  F44  1  0.215108  0.952035  0.469406  1
  F  F45  1  0.215108  0.547965  0.969406  1
  F  F46  1  0.391354  0.640018  0.250000  1
  F  F47  1  0.391354  0.859982  0.750000  1
  F  F48  1  0.408428  0.676625  0.082108  1
  F  F49  1  0.408428  0.676625  0.417892  1
  F  F50  1  0.408428  0.823375  0.582108  1
  F  F51  1  0.408428  0.823375  0.917892  1
  F  F52  1  0.497324  0.905165  0.168697  1
  F  F53  1  0.497324  0.905165  0.331303  1
  F  F54  1  0.497324  0.594835  0.831303  1
  F  F55  1  0.497324  0.594835  0.668697  1
  F  F56  1  0.502676  0.094835  0.831303  1
  F  F57  1  0.502676  0.405165  0.168697  1
  F  F58  1  0.502676  0.094835  0.668697  1
  F  F59  1  0.502676  0.405165  0.331303  1
  F  F60  1  0.591572  0.176625  0.082108  1
  F  F61  1  0.591572  0.176625  0.417892  1
  F  F62  1  0.591572  0.323375  0.582108  1
  F  F63  1  0.591572  0.323375  0.917892  1
  F  F64  1  0.608646  0.359982  0.750000  1
  F  F65  1  0.608646  0.140018  0.250000  1
  F  F66  1  0.784892  0.452035  0.030594  1
  F  F67  1  0.784892  0.047965  0.530594  1
  F  F68  1  0.784892  0.047965  0.969406  1
  F  F69  1  0.784892  0.452035  0.469406  1
  F  F70  1  0.910627  0.760001  0.250000  1
  F  F71  1  0.910627  0.739999  0.750000  1
  F  F72  1  0.926915  0.738363  0.077689  1
  F  F73  1  0.926915  0.761637  0.922311  1
  F  F74  1  0.926915  0.738363  0.422311  1
  F  F75  1  0.926915  0.761637  0.577689  1
  F  F76  1  0.970174  0.502550  0.667872  1
  F  F77  1  0.970174  0.502550  0.832128  1
  F  F78  1  0.970174  0.997450  0.167872  1
  F  F79  1  0.970174  0.997450  0.332128  1
