# generated using pymatgen
data_Sm3Al5O12
_symmetry_space_group_name_H-M   'P 1'
_cell_length_a   10.62242368
_cell_length_b   10.62242368
_cell_length_c   10.62242368
_cell_angle_alpha   109.47122063
_cell_angle_beta   109.47122063
_cell_angle_gamma   109.47122063
_symmetry_Int_Tables_number   1
_chemical_formula_structural   Sm3Al5O12
_chemical_formula_sum   'Sm12 Al20 O48'
_cell_volume   922.67545438
_cell_formula_units_Z   4
loop_
 _symmetry_equiv_pos_site_id
 _symmetry_equiv_pos_as_xyz
  1  'x, y, z'
loop_
 _atom_site_type_symbol
 _atom_site_label
 _atom_site_symmetry_multiplicity
 _atom_site_fract_x
 _atom_site_fract_y
 _atom_site_fract_z
 _atom_site_occupancy
  Sm  Sm0  1  0.750000  0.125000  0.375000  1
  Sm  Sm1  1  0.375000  0.125000  0.250000  1
  Sm  Sm2  1  0.875000  0.625000  0.250000  1
  Sm  Sm3  1  0.250000  0.375000  0.125000  1
  Sm  Sm4  1  0.375000  0.750000  0.125000  1
  Sm  Sm5  1  0.125000  0.250000  0.375000  1
  Sm  Sm6  1  0.875000  0.750000  0.625000  1
  Sm  Sm7  1  0.625000  0.250000  0.875000  1
  Sm  Sm8  1  0.750000  0.625000  0.875000  1
  Sm  Sm9  1  0.625000  0.875000  0.750000  1
  Sm  Sm10  1  0.125000  0.375000  0.750000  1
  Sm  Sm11  1  0.250000  0.875000  0.625000  1
  Al  Al12  1  0.875000  0.250000  0.125000  1
  Al  Al13  1  0.500000  0.000000  1.000000  1
  Al  Al14  1  0.000000  0.000000  0.000000  1
  Al  Al15  1  0.625000  0.375000  0.250000  1
  Al  Al16  1  0.500000  0.000000  0.500000  1
  Al  Al17  1  0.500000  0.500000  0.000000  1
  Al  Al18  1  0.875000  0.125000  0.750000  1
  Al  Al19  1  0.750000  0.875000  0.125000  1
  Al  Al20  1  0.750000  0.375000  0.625000  1
  Al  Al21  1  0.625000  0.750000  0.375000  1
  Al  Al22  1  0.500000  0.500000  0.500000  1
  Al  Al23  1  0.000000  0.500000  0.000000  1
  Al  Al24  1  0.000000  0.000000  0.500000  1
  Al  Al25  1  0.375000  0.250000  0.625000  1
  Al  Al26  1  0.250000  0.625000  0.375000  1
  Al  Al27  1  0.250000  0.125000  0.875000  1
  Al  Al28  1  0.375000  0.625000  0.750000  1
  Al  Al29  1  0.125000  0.875000  0.250000  1
  Al  Al30  1  0.000000  0.500000  0.500000  1
  Al  Al31  1  0.125000  0.750000  0.875000  1
  O  O32  1  0.900022  0.016374  0.319840  1
  O  O33  1  0.883648  0.400022  0.080182  1
  O  O34  1  0.919818  0.303466  0.319840  1
  O  O35  1  0.983626  0.680160  0.099978  1
  O  O36  1  0.919818  0.116352  0.599978  1
  O  O37  1  0.580182  0.180160  0.196534  1
  O  O38  1  0.616352  0.419818  0.099978  1
  O  O39  1  0.196534  0.116352  0.016374  1
  O  O40  1  0.696534  0.680160  0.080182  1
  O  O41  1  0.599978  0.180160  0.483626  1
  O  O42  1  0.900022  0.383648  0.580182  1
  O  O43  1  0.116352  0.016374  0.196534  1
  O  O44  1  0.819840  0.516374  0.400022  1
  O  O45  1  0.680160  0.080182  0.696534  1
  O  O46  1  0.483626  0.383648  0.303466  1
  O  O47  1  0.483626  0.599978  0.180160  1
  O  O48  1  0.419818  0.099978  0.616352  1
  O  O49  1  0.016374  0.196534  0.116352  1
  O  O50  1  0.819840  0.803466  0.419818  1
  O  O51  1  0.383648  0.303466  0.483626  1
  O  O52  1  0.680160  0.099978  0.983626  1
  O  O53  1  0.696534  0.516374  0.616352  1
  O  O54  1  0.803466  0.419818  0.819840  1
  O  O55  1  0.599978  0.919818  0.116352  1
  O  O56  1  0.303466  0.483626  0.383648  1
  O  O57  1  0.400022  0.080182  0.883648  1
  O  O58  1  0.196534  0.580182  0.180160  1
  O  O59  1  0.180160  0.196534  0.580182  1
  O  O60  1  0.616352  0.696534  0.516374  1
  O  O61  1  0.319840  0.900022  0.016374  1
  O  O62  1  0.580182  0.900022  0.383648  1
  O  O63  1  0.516374  0.400022  0.819840  1
  O  O64  1  0.983626  0.803466  0.883648  1
  O  O65  1  0.516374  0.616352  0.696534  1
  O  O66  1  0.319840  0.919818  0.303466  1
  O  O67  1  0.180160  0.483626  0.599978  1
  O  O68  1  0.883648  0.983626  0.803466  1
  O  O69  1  0.400022  0.819840  0.516374  1
  O  O70  1  0.303466  0.319840  0.919818  1
  O  O71  1  0.099978  0.616352  0.419818  1
  O  O72  1  0.803466  0.883648  0.983626  1
  O  O73  1  0.383648  0.580182  0.900022  1
  O  O74  1  0.419818  0.819840  0.803466  1
  O  O75  1  0.016374  0.319840  0.900022  1
  O  O76  1  0.080182  0.883648  0.400022  1
  O  O77  1  0.080182  0.696534  0.680160  1
  O  O78  1  0.116352  0.599978  0.919818  1
  O  O79  1  0.099978  0.983626  0.680160  1
