# generated using pymatgen
data_Li4Ni5Sb3O16
_symmetry_space_group_name_H-M   'P 1'
_cell_length_a   6.00281193
_cell_length_b   6.00281193
_cell_length_c   9.65975673
_cell_angle_alpha   89.15171808
_cell_angle_beta   90.84828192
_cell_angle_gamma   119.45950242
_symmetry_Int_Tables_number   1
_chemical_formula_structural   Li4Ni5Sb3O16
_chemical_formula_sum   'Li4 Ni5 Sb3 O16'
_cell_volume   303.02757621
_cell_formula_units_Z   1
loop_
 _symmetry_equiv_pos_site_id
 _symmetry_equiv_pos_as_xyz
  1  'x, y, z'
loop_
 _atom_site_type_symbol
 _atom_site_label
 _atom_site_symmetry_multiplicity
 _atom_site_fract_x
 _atom_site_fract_y
 _atom_site_fract_z
 _atom_site_occupancy
  Li  Li0  1  0.331079  0.668921  0.123023  1
  Li  Li1  1  0.021135  0.978865  0.007754  1
  Li  Li2  1  0.012917  0.987083  0.495987  1
  Li  Li3  1  0.670467  0.329533  0.602974  1
  Ni  Ni4  1  0.329696  0.670304  0.504118  1
  Ni  Ni5  1  0.167483  0.832517  0.783235  1
  Ni  Ni6  1  0.653854  0.346146  0.017925  1
  Ni  Ni7  1  0.338216  0.170362  0.285793  1
  Ni  Ni8  1  0.829638  0.661784  0.285793  1
  Sb  Sb9  1  0.166964  0.339578  0.784715  1
  Sb  Sb10  1  0.660422  0.833036  0.784715  1
  Sb  Sb11  1  0.829030  0.170970  0.285555  1
  O  O12  1  0.159162  0.317183  0.397015  1
  O  O13  1  0.484983  0.515017  0.662322  1
  O  O14  1  0.336445  0.663555  0.900674  1
  O  O15  1  0.994719  0.005281  0.680712  1
  O  O16  1  0.999136  0.000864  0.189778  1
  O  O17  1  0.682817  0.840838  0.397015  1
  O  O18  1  0.035021  0.510218  0.659829  1
  O  O19  1  0.489782  0.964979  0.659829  1
  O  O20  1  0.839829  0.160171  0.898924  1
  O  O21  1  0.161032  0.838968  0.388166  1
  O  O22  1  0.513988  0.040014  0.164408  1
  O  O23  1  0.959986  0.486012  0.164408  1
  O  O24  1  0.666741  0.333259  0.395669  1
  O  O25  1  0.317856  0.171994  0.898358  1
  O  O26  1  0.518094  0.481906  0.175235  1
  O  O27  1  0.828006  0.682144  0.898358  1
