# generated using pymatgen
data_La7Mn8O23
_symmetry_space_group_name_H-M   'P 1'
_cell_length_a   5.56140935
_cell_length_b   7.89487631
_cell_length_c   12.44028576
_cell_angle_alpha   90.00000000
_cell_angle_beta   116.63535750
_cell_angle_gamma   90.00000000
_symmetry_Int_Tables_number   1
_chemical_formula_structural   La7Mn8O23
_chemical_formula_sum   'La7 Mn8 O23'
_cell_volume   488.24598140
_cell_formula_units_Z   1
loop_
 _symmetry_equiv_pos_site_id
 _symmetry_equiv_pos_as_xyz
  1  'x, y, z'
loop_
 _atom_site_type_symbol
 _atom_site_label
 _atom_site_symmetry_multiplicity
 _atom_site_fract_x
 _atom_site_fract_y
 _atom_site_fract_z
 _atom_site_occupancy
  La  La0  1  0.464813  0.500000  0.495298  1
  La  La1  1  0.971326  0.500000  0.999564  1
  La  La2  1  0.276683  0.000000  0.745078  1
  La  La3  1  0.223655  0.500000  0.752839  1
  La  La4  1  0.720761  0.500000  0.252693  1
  La  La5  1  0.549577  0.000000  0.507141  1
  La  La6  1  0.040685  0.000000  0.007339  1
  Mn  Mn7  1  0.240199  0.252652  0.247054  1
  Mn  Mn8  1  0.240199  0.747348  0.247054  1
  Mn  Mn9  1  0.751361  0.250758  0.751197  1
  Mn  Mn10  1  0.751361  0.749242  0.751197  1
  Mn  Mn11  1  0.504450  0.244804  0.006261  1
  Mn  Mn12  1  0.997486  0.244546  0.494823  1
  Mn  Mn13  1  0.504450  0.755196  0.006261  1
  Mn  Mn14  1  0.997486  0.755454  0.494823  1
  O  O15  1  0.774242  0.000000  0.783505  1
  O  O16  1  0.898141  0.777407  0.103795  1
  O  O17  1  0.394312  0.785517  0.608674  1
  O  O18  1  0.898141  0.222593  0.103795  1
  O  O19  1  0.394312  0.214483  0.608674  1
  O  O20  1  0.091339  0.705990  0.362104  1
  O  O21  1  0.091339  0.294010  0.362104  1
  O  O22  1  0.573978  0.714044  0.858965  1
  O  O23  1  0.573978  0.285956  0.858965  1
  O  O24  1  0.547037  0.500000  0.037125  1
  O  O25  1  0.033097  0.500000  0.529968  1
  O  O26  1  0.447039  0.000000  0.961456  1
  O  O27  1  0.968665  0.000000  0.481159  1
  O  O28  1  0.921729  0.214513  0.639778  1
  O  O29  1  0.400166  0.216419  0.137988  1
  O  O30  1  0.921729  0.785487  0.639778  1
  O  O31  1  0.400166  0.783581  0.137988  1
  O  O32  1  0.596459  0.273648  0.391255  1
  O  O33  1  0.596459  0.726352  0.391255  1
  O  O34  1  0.112026  0.288100  0.889327  1
  O  O35  1  0.112026  0.711900  0.889327  1
  O  O36  1  0.234167  0.500000  0.216412  1
  O  O37  1  0.725421  0.500000  0.716565  1
