# generated using pymatgen
data_BaNb3NO7
_symmetry_space_group_name_H-M   'P 1'
_cell_length_a   10.79420561
_cell_length_b   10.79420561
_cell_length_c   9.12912228
_cell_angle_alpha   89.50859456
_cell_angle_beta   90.49140544
_cell_angle_gamma   159.24527368
_symmetry_Int_Tables_number   1
_chemical_formula_structural   BaNb3NO7
_chemical_formula_sum   'Ba2 Nb6 N2 O14'
_cell_volume   376.91949555
_cell_formula_units_Z   2
loop_
 _symmetry_equiv_pos_site_id
 _symmetry_equiv_pos_as_xyz
  1  'x, y, z'
loop_
 _atom_site_type_symbol
 _atom_site_label
 _atom_site_symmetry_multiplicity
 _atom_site_fract_x
 _atom_site_fract_y
 _atom_site_fract_z
 _atom_site_occupancy
  Ba  Ba0  1  0.008924  0.991076  0.750483  1
  Ba  Ba1  1  0.979186  0.020814  0.243707  1
  Nb  Nb2  1  0.367965  0.632035  0.948745  1
  Nb  Nb3  1  0.759057  0.240943  0.756502  1
  Nb  Nb4  1  0.365331  0.634669  0.556524  1
  Nb  Nb5  1  0.631739  0.368261  0.446278  1
  Nb  Nb6  1  0.241363  0.758637  0.244438  1
  Nb  Nb7  1  0.630612  0.369388  0.063102  1
  N  N8  1  0.296138  0.703862  0.096795  1
  N  N9  1  0.437077  0.562923  0.064732  1
  O  O10  1  0.566011  0.433989  0.931305  1
  O  O11  1  0.843940  0.156060  0.895435  1
  O  O12  1  0.701521  0.298479  0.907816  1
  O  O13  1  0.282149  0.717851  0.742399  1
  O  O14  1  0.417581  0.582419  0.741231  1
  O  O15  1  0.701848  0.298152  0.596252  1
  O  O16  1  0.844769  0.155231  0.592857  1
  O  O17  1  0.563752  0.436248  0.567625  1
  O  O18  1  0.432825  0.567175  0.432735  1
  O  O19  1  0.147169  0.852831  0.417662  1
  O  O20  1  0.294459  0.705541  0.413294  1
  O  O21  1  0.707827  0.292173  0.252750  1
  O  O22  1  0.580665  0.419335  0.249087  1
  O  O23  1  0.150722  0.849278  0.092613  1
