# generated using pymatgen
data_ErInO3
_symmetry_space_group_name_H-M   'P 1'
_cell_length_a   5.52122608
_cell_length_b   5.84036295
_cell_length_c   8.17680352
_cell_angle_alpha   90.00000000
_cell_angle_beta   90.00000000
_cell_angle_gamma   90.00000000
_symmetry_Int_Tables_number   1
_chemical_formula_structural   ErInO3
_chemical_formula_sum   'Er4 In4 O12'
_cell_volume   263.66891387
_cell_formula_units_Z   4
loop_
 _symmetry_equiv_pos_site_id
 _symmetry_equiv_pos_as_xyz
  1  'x, y, z'
loop_
 _atom_site_type_symbol
 _atom_site_label
 _atom_site_symmetry_multiplicity
 _atom_site_fract_x
 _atom_site_fract_y
 _atom_site_fract_z
 _atom_site_occupancy
  Er  Er0  1  0.017916  0.937320  0.750000  1
  Er  Er1  1  0.482084  0.437320  0.750000  1
  Er  Er2  1  0.517916  0.562680  0.250000  1
  Er  Er3  1  0.982084  0.062680  0.250000  1
  In  In4  1  0.000000  0.500000  0.000000  1
  In  In5  1  0.000000  0.500000  0.500000  1
  In  In6  1  0.500000  0.000000  0.000000  1
  In  In7  1  0.500000  0.000000  0.500000  1
  O  O8  1  0.148145  0.423315  0.250000  1
  O  O9  1  0.179787  0.183487  0.575158  1
  O  O10  1  0.179787  0.183487  0.924842  1
  O  O11  1  0.320213  0.683487  0.575158  1
  O  O12  1  0.320213  0.683487  0.924842  1
  O  O13  1  0.351855  0.923315  0.250000  1
  O  O14  1  0.648145  0.076685  0.750000  1
  O  O15  1  0.679787  0.316513  0.075158  1
  O  O16  1  0.679787  0.316513  0.424842  1
  O  O17  1  0.820213  0.816513  0.075158  1
  O  O18  1  0.820213  0.816513  0.424842  1
  O  O19  1  0.851855  0.576685  0.750000  1
