# generated using pymatgen
data_LiLa3MnO7
_symmetry_space_group_name_H-M   'P 1'
_cell_length_a   5.47317295
_cell_length_b   5.45762322
_cell_length_c   20.99160746
_cell_angle_alpha   90.00000000
_cell_angle_beta   105.00610887
_cell_angle_gamma   90.00000000
_symmetry_Int_Tables_number   1
_chemical_formula_structural   LiLa3MnO7
_chemical_formula_sum   'Li4 La12 Mn4 O28'
_cell_volume   605.64730126
_cell_formula_units_Z   4
loop_
 _symmetry_equiv_pos_site_id
 _symmetry_equiv_pos_as_xyz
  1  'x, y, z'
loop_
 _atom_site_type_symbol
 _atom_site_label
 _atom_site_symmetry_multiplicity
 _atom_site_fract_x
 _atom_site_fract_y
 _atom_site_fract_z
 _atom_site_occupancy
  Li  Li0  1  0.342660  0.248279  0.594923  1
  Li  Li1  1  0.342660  0.251721  0.094923  1
  Li  Li2  1  0.657340  0.748279  0.905077  1
  Li  Li3  1  0.657340  0.751721  0.405077  1
  La  La4  1  0.913080  0.245861  0.178466  1
  La  La5  1  0.568335  0.239545  0.820735  1
  La  La6  1  0.751631  0.251082  0.999944  1
  La  La7  1  0.751631  0.248918  0.499944  1
  La  La8  1  0.568335  0.260455  0.320735  1
  La  La9  1  0.913080  0.254139  0.678466  1
  La  La10  1  0.086920  0.745861  0.321534  1
  La  La11  1  0.431665  0.739545  0.679265  1
  La  La12  1  0.248369  0.751082  0.500056  1
  La  La13  1  0.248369  0.748918  0.000056  1
  La  La14  1  0.431665  0.760455  0.179265  1
  La  La15  1  0.086920  0.754139  0.821534  1
  Mn  Mn16  1  0.151321  0.247196  0.404201  1
  Mn  Mn17  1  0.151321  0.252804  0.904201  1
  Mn  Mn18  1  0.848679  0.747196  0.095799  1
  Mn  Mn19  1  0.848679  0.752804  0.595799  1
  O  O20  1  0.099458  0.996310  0.606816  1
  O  O21  1  0.910538  0.004392  0.902898  1
  O  O22  1  0.900542  0.003690  0.393184  1
  O  O23  1  0.395979  0.004673  0.403096  1
  O  O24  1  0.597207  0.993951  0.087741  1
  O  O25  1  0.089462  0.995608  0.097102  1
  O  O26  1  0.402793  0.006049  0.912259  1
  O  O27  1  0.604021  0.995327  0.596904  1
  O  O28  1  0.213993  0.219510  0.495375  1
  O  O29  1  0.070779  0.229136  0.800457  1
  O  O30  1  0.496460  0.219210  0.208111  1
  O  O31  1  0.070779  0.270864  0.300457  1
  O  O32  1  0.496460  0.280790  0.708111  1
  O  O33  1  0.213993  0.280490  0.995375  1
  O  O34  1  0.099458  0.503690  0.106816  1
  O  O35  1  0.402793  0.493951  0.412259  1
  O  O36  1  0.604021  0.504673  0.096904  1
  O  O37  1  0.910538  0.495608  0.402898  1
  O  O38  1  0.395979  0.495327  0.903096  1
  O  O39  1  0.900542  0.496310  0.893184  1
  O  O40  1  0.089462  0.504392  0.597102  1
  O  O41  1  0.597207  0.506049  0.587741  1
  O  O42  1  0.786007  0.719510  0.004625  1
  O  O43  1  0.929221  0.729136  0.699543  1
  O  O44  1  0.503540  0.719210  0.291889  1
  O  O45  1  0.929221  0.770864  0.199543  1
  O  O46  1  0.503540  0.780790  0.791889  1
  O  O47  1  0.786007  0.780490  0.504625  1
