# generated using pymatgen
data_V2OF5
_symmetry_space_group_name_H-M   'P 1'
_cell_length_a   5.25970760
_cell_length_b   5.43217459
_cell_length_c   17.38984076
_cell_angle_alpha   83.10309799
_cell_angle_beta   81.35410067
_cell_angle_gamma   61.10498261
_symmetry_Int_Tables_number   1
_chemical_formula_structural   V2OF5
_chemical_formula_sum   'V8 O4 F20'
_cell_volume   429.41129847
_cell_formula_units_Z   4
loop_
 _symmetry_equiv_pos_site_id
 _symmetry_equiv_pos_as_xyz
  1  'x, y, z'
loop_
 _atom_site_type_symbol
 _atom_site_label
 _atom_site_symmetry_multiplicity
 _atom_site_fract_x
 _atom_site_fract_y
 _atom_site_fract_z
 _atom_site_occupancy
  V  V0  1  0.599851  0.640976  0.119365  1
  V  V1  1  0.130855  0.132081  0.623190  1
  V  V2  1  0.231950  0.274713  0.254334  1
  V  V3  1  0.753510  0.758489  0.751167  1
  V  V4  1  0.870897  0.863625  0.373966  1
  V  V5  1  0.406529  0.347937  0.870398  1
  V  V6  1  0.012075  0.989204  0.000999  1
  V  V7  1  0.486226  0.483931  0.506200  1
  O  O8  1  0.342547  0.337641  0.578806  1
  O  O9  1  0.384056  0.786364  0.047013  1
  O  O10  1  0.138114  0.546813  0.309837  1
  O  O11  1  0.637731  0.075392  0.815547  1
  F  F12  1  0.836956  0.834742  0.088115  1
  F  F13  1  0.909514  0.315024  0.062294  1
  F  F14  1  0.418892  0.805865  0.562009  1
  F  F15  1  0.344049  0.937831  0.191950  1
  F  F16  1  0.628727  0.039910  0.287267  1
  F  F17  1  0.144317  0.547055  0.788257  1
  F  F18  1  0.415038  0.405255  0.163534  1
  F  F19  1  0.915158  0.918004  0.662196  1
  F  F20  1  0.109127  0.715481  0.461507  1
  F  F21  1  0.844168  0.442222  0.688247  1
  F  F22  1  0.086814  0.076739  0.335816  1
  F  F23  1  0.886146  0.285513  0.535819  1
  F  F24  1  0.599390  0.581304  0.839210  1
  F  F25  1  0.615730  0.208134  0.962379  1
  F  F26  1  0.649285  0.657985  0.417120  1
  F  F27  1  0.860104  0.455823  0.207288  1
  F  F28  1  0.364611  0.961931  0.712106  1
  F  F29  1  0.110673  0.675517  0.935704  1
  F  F30  1  0.586582  0.191445  0.434311  1
  F  F31  1  0.160081  0.169281  0.913435  1
