# generated using pymatgen
data_Li5Mn6(BO3)6
_symmetry_space_group_name_H-M   'P 1'
_cell_length_a   5.28214099
_cell_length_b   6.22034018
_cell_length_c   11.80934882
_cell_angle_alpha   85.67909587
_cell_angle_beta   78.91033278
_cell_angle_gamma   87.78508987
_symmetry_Int_Tables_number   1
_chemical_formula_structural   Li5Mn6(BO3)6
_chemical_formula_sum   'Li5 Mn6 B6 O18'
_cell_volume   379.57313823
_cell_formula_units_Z   1
loop_
 _symmetry_equiv_pos_site_id
 _symmetry_equiv_pos_as_xyz
  1  'x, y, z'
loop_
 _atom_site_type_symbol
 _atom_site_label
 _atom_site_symmetry_multiplicity
 _atom_site_fract_x
 _atom_site_fract_y
 _atom_site_fract_z
 _atom_site_occupancy
  Li  Li0  1  0.495983  0.190701  0.871890  1
  Li  Li1  1  0.838367  0.139252  0.459086  1
  Li  Li2  1  0.171013  0.473761  0.796504  1
  Li  Li3  1  0.156332  0.858560  0.537634  1
  Li  Li4  1  0.520044  0.790531  0.136883  1
  Mn  Mn5  1  0.033370  0.022353  0.783267  1
  Mn  Mn6  1  0.633864  0.639465  0.883896  1
  Mn  Mn7  1  0.300381  0.309583  0.549292  1
  Mn  Mn8  1  0.693293  0.690065  0.447121  1
  Mn  Mn9  1  0.359545  0.361250  0.122675  1
  Mn  Mn10  1  0.982242  0.962929  0.210172  1
  B  B11  1  0.741605  0.404447  0.663972  1
  B  B12  1  0.076929  0.740904  0.998007  1
  B  B13  1  0.405791  0.069574  0.331740  1
  B  B14  1  0.591767  0.928473  0.667541  1
  B  B15  1  0.924623  0.244094  0.003343  1
  B  B16  1  0.256282  0.616813  0.335724  1
  O  O17  1  0.677344  0.305087  0.987079  1
  O  O18  1  0.121360  0.209011  0.910331  1
  O  O19  1  0.989925  0.361540  0.684570  1
  O  O20  1  0.543794  0.457196  0.753394  1
  O  O21  1  0.691418  0.383403  0.552583  1
  O  O22  1  0.023466  0.712930  0.888382  1
  O  O23  1  0.658786  0.025471  0.344559  1
  O  O24  1  0.645152  0.950072  0.778190  1
  O  O25  1  0.213740  0.123716  0.422096  1
  O  O26  1  0.786211  0.874930  0.577546  1
  O  O27  1  0.344610  0.043414  0.222737  1
  O  O28  1  0.341775  0.971144  0.648489  1
  O  O29  1  0.986581  0.235018  0.114809  1
  O  O30  1  0.301760  0.618820  0.448808  1
  O  O31  1  0.438184  0.542615  0.249616  1
  O  O32  1  0.017111  0.705016  0.315983  1
  O  O33  1  0.881398  0.817223  0.081335  1
  O  O34  1  0.322024  0.689226  0.020819  1
