# generated using pymatgen
data_Ti3NbFe2(PO4)6
_symmetry_space_group_name_H-M   'P 1'
_cell_length_a   8.61995847
_cell_length_b   8.61995847
_cell_length_c   8.61995847
_cell_angle_alpha   61.27423706
_cell_angle_beta   61.27423706
_cell_angle_gamma   61.27423706
_symmetry_Int_Tables_number   1
_chemical_formula_structural   Ti3NbFe2(PO4)6
_chemical_formula_sum   'Ti3 Nb1 Fe2 P6 O24'
_cell_volume   465.87288291
_cell_formula_units_Z   1
loop_
 _symmetry_equiv_pos_site_id
 _symmetry_equiv_pos_as_xyz
  1  'x, y, z'
loop_
 _atom_site_type_symbol
 _atom_site_label
 _atom_site_symmetry_multiplicity
 _atom_site_fract_x
 _atom_site_fract_y
 _atom_site_fract_z
 _atom_site_occupancy
  Ti  Ti0  1  0.855924  0.855924  0.855924  1
  Ti  Ti1  1  0.643848  0.643848  0.643848  1
  Ti  Ti2  1  0.355975  0.355975  0.355975  1
  Nb  Nb3  1  0.142818  0.142818  0.142818  1
  Fe  Fe4  1  0.997425  0.997425  0.997425  1
  Fe  Fe5  1  0.500114  0.500114  0.500114  1
  P  P6  1  0.954152  0.251425  0.548164  1
  P  P7  1  0.548164  0.954152  0.251425  1
  P  P8  1  0.744946  0.461167  0.043380  1
  P  P9  1  0.461167  0.043380  0.744946  1
  P  P10  1  0.043380  0.744946  0.461167  1
  P  P11  1  0.251425  0.548164  0.954152  1
  O  O12  1  0.885206  0.681835  0.501263  1
  O  O13  1  0.681835  0.501263  0.885206  1
  O  O14  1  0.940293  0.091759  0.740230  1
  O  O15  1  0.501263  0.885206  0.681835  1
  O  O16  1  0.991757  0.185150  0.391595  1
  O  O17  1  0.761063  0.409529  0.561020  1
  O  O18  1  0.740230  0.940293  0.091759  1
  O  O19  1  0.561020  0.761063  0.409529  1
  O  O20  1  0.813109  0.616353  0.002685  1
  O  O21  1  0.409529  0.561020  0.761063  1
  O  O22  1  0.903856  0.265483  0.057302  1
  O  O23  1  0.616353  0.002685  0.813109  1
  O  O24  1  0.391595  0.991757  0.185150  1
  O  O25  1  0.091759  0.740230  0.940293  1
  O  O26  1  0.588159  0.444690  0.237499  1
  O  O27  1  0.185150  0.391595  0.991757  1
  O  O28  1  0.444690  0.237499  0.588159  1
  O  O29  1  0.265483  0.057302  0.903856  1
  O  O30  1  0.237499  0.588159  0.444690  1
  O  O31  1  0.002685  0.813109  0.616353  1
  O  O32  1  0.501745  0.115328  0.313755  1
  O  O33  1  0.057302  0.903856  0.265483  1
  O  O34  1  0.313755  0.501745  0.115328  1
  O  O35  1  0.115328  0.313755  0.501745  1
