# generated using pymatgen
data_Li3Fe8(BO3)8
_symmetry_space_group_name_H-M   'P 1'
_cell_length_a   5.21989885
_cell_length_b   9.11484648
_cell_length_c   10.19454836
_cell_angle_alpha   89.31347061
_cell_angle_beta   89.44860740
_cell_angle_gamma   89.42141171
_symmetry_Int_Tables_number   1
_chemical_formula_structural   Li3Fe8(BO3)8
_chemical_formula_sum   'Li3 Fe8 B8 O24'
_cell_volume   484.96065050
_cell_formula_units_Z   1
loop_
 _symmetry_equiv_pos_site_id
 _symmetry_equiv_pos_as_xyz
  1  'x, y, z'
loop_
 _atom_site_type_symbol
 _atom_site_label
 _atom_site_symmetry_multiplicity
 _atom_site_fract_x
 _atom_site_fract_y
 _atom_site_fract_z
 _atom_site_occupancy
  Li  Li0  1  0.149305  0.172998  0.658247  1
  Li  Li1  1  0.186785  0.169729  0.169749  1
  Li  Li2  1  0.334001  0.325933  0.905431  1
  Fe  Fe3  1  0.165860  0.826858  0.632144  1
  Fe  Fe4  1  0.188934  0.508280  0.131502  1
  Fe  Fe5  1  0.320424  0.988910  0.879267  1
  Fe  Fe6  1  0.337192  0.662870  0.376848  1
  Fe  Fe7  1  0.652803  0.352186  0.621274  1
  Fe  Fe8  1  0.671306  0.995246  0.123676  1
  Fe  Fe9  1  0.814623  0.162232  0.383967  1
  Fe  Fe10  1  0.833250  0.501726  0.878990  1
  B  B11  1  0.150074  0.497798  0.630003  1
  B  B12  1  0.166895  0.839386  0.135491  1
  B  B13  1  0.329300  0.993953  0.377523  1
  B  B14  1  0.339201  0.659418  0.872352  1
  B  B15  1  0.666552  0.002144  0.628885  1
  B  B16  1  0.676042  0.321870  0.118605  1
  B  B17  1  0.841688  0.500275  0.373996  1
  B  B18  1  0.824826  0.174572  0.879493  1
  O  O19  1  0.098003  0.506898  0.335874  1
  O  O20  1  0.087215  0.168467  0.861940  1
  O  O21  1  0.214104  0.783848  0.824283  1
  O  O22  1  0.247022  0.863742  0.434604  1
  O  O23  1  0.167657  0.111904  0.360261  1
  O  O24  1  0.196719  0.537828  0.915822  1
  O  O25  1  0.280245  0.367786  0.631342  1
  O  O26  1  0.304784  0.964996  0.093374  1
  O  O27  1  0.256219  0.626638  0.576967  1
  O  O28  1  0.300496  0.717875  0.180821  1
  O  O29  1  0.413422  0.322454  0.108451  1
  O  O30  1  0.402847  0.002590  0.660274  1
  O  O31  1  0.582017  0.005279  0.331734  1
  O  O32  1  0.597668  0.655074  0.880888  1
  O  O33  1  0.687989  0.301847  0.841990  1
  O  O34  1  0.746371  0.364603  0.415946  1
  O  O35  1  0.686607  0.620198  0.373194  1
  O  O36  1  0.686563  0.058988  0.933512  1
  O  O37  1  0.826864  0.435210  0.074058  1
  O  O38  1  0.818384  0.882147  0.640473  1
  O  O39  1  0.777469  0.134547  0.581867  1
  O  O40  1  0.805089  0.195997  0.172795  1
  O  O41  1  0.908180  0.843885  0.130227  1
  O  O42  1  0.904743  0.505298  0.683262  1
