# generated using pymatgen
data_Li3TiCo3O8
_symmetry_space_group_name_H-M   'P 1'
_cell_length_a   5.73178206
_cell_length_b   5.73178206
_cell_length_c   9.16050450
_cell_angle_alpha   90.00000000
_cell_angle_beta   90.00000000
_cell_angle_gamma   120.00000000
_symmetry_Int_Tables_number   1
_chemical_formula_structural   Li3TiCo3O8
_chemical_formula_sum   'Li6 Ti2 Co6 O16'
_cell_volume   260.63297479
_cell_formula_units_Z   2
loop_
 _symmetry_equiv_pos_site_id
 _symmetry_equiv_pos_as_xyz
  1  'x, y, z'
loop_
 _atom_site_type_symbol
 _atom_site_label
 _atom_site_symmetry_multiplicity
 _atom_site_fract_x
 _atom_site_fract_y
 _atom_site_fract_z
 _atom_site_occupancy
  Li  Li0  1  0.171711  0.828289  0.055955  1
  Li  Li1  1  0.656578  0.828289  0.055955  1
  Li  Li2  1  0.171711  0.343422  0.055955  1
  Li  Li3  1  0.828289  0.656578  0.555955  1
  Li  Li4  1  0.343422  0.171711  0.555955  1
  Li  Li5  1  0.828289  0.171711  0.555955  1
  Ti  Ti6  1  0.333333  0.666667  0.497754  1
  Ti  Ti7  1  0.666667  0.333333  0.997754  1
  Co  Co8  1  0.168910  0.831090  0.784021  1
  Co  Co9  1  0.662180  0.831090  0.784021  1
  Co  Co10  1  0.168910  0.337820  0.784021  1
  Co  Co11  1  0.831090  0.662180  0.284021  1
  Co  Co12  1  0.337820  0.168910  0.284021  1
  Co  Co13  1  0.831090  0.168910  0.284021  1
  O  O14  1  0.162539  0.837461  0.404982  1
  O  O15  1  0.481408  0.962816  0.661027  1
  O  O16  1  0.674922  0.837461  0.404982  1
  O  O17  1  0.037184  0.518592  0.661027  1
  O  O18  1  0.333333  0.666667  0.893665  1
  O  O19  1  0.481408  0.518592  0.661027  1
  O  O20  1  0.837461  0.674922  0.904982  1
  O  O21  1  0.162539  0.325078  0.404982  1
  O  O22  1  0.518592  0.481408  0.161027  1
  O  O23  1  0.962816  0.481408  0.161027  1
  O  O24  1  0.000000  0.000000  0.180536  1
  O  O25  1  0.666667  0.333333  0.393665  1
  O  O26  1  0.325078  0.162539  0.904982  1
  O  O27  1  0.518592  0.037184  0.161027  1
  O  O28  1  0.837461  0.162539  0.904982  1
  O  O29  1  0.000000  0.000000  0.680536  1
