# generated using pymatgen
data_LiSn4(PO4)3
_symmetry_space_group_name_H-M   'P 1'
_cell_length_a   7.31619860
_cell_length_b   10.69417147
_cell_length_c   15.90011550
_cell_angle_alpha   90.00000000
_cell_angle_beta   90.00000000
_cell_angle_gamma   90.00000000
_symmetry_Int_Tables_number   1
_chemical_formula_structural   LiSn4(PO4)3
_chemical_formula_sum   'Li4 Sn16 P12 O48'
_cell_volume   1244.03588596
_cell_formula_units_Z   4
loop_
 _symmetry_equiv_pos_site_id
 _symmetry_equiv_pos_as_xyz
  1  'x, y, z'
loop_
 _atom_site_type_symbol
 _atom_site_label
 _atom_site_symmetry_multiplicity
 _atom_site_fract_x
 _atom_site_fract_y
 _atom_site_fract_z
 _atom_site_occupancy
  Li  Li0  1  0.983672  0.264528  0.250000  1
  Li  Li1  1  0.516328  0.764528  0.750000  1
  Li  Li2  1  0.483672  0.235472  0.250000  1
  Li  Li3  1  0.016328  0.735472  0.750000  1
  Sn  Sn4  1  0.861999  0.568107  0.599548  1
  Sn  Sn5  1  0.861999  0.568107  0.900452  1
  Sn  Sn6  1  0.838862  0.154421  0.605460  1
  Sn  Sn7  1  0.838862  0.154421  0.894540  1
  Sn  Sn8  1  0.661138  0.654421  0.105460  1
  Sn  Sn9  1  0.661138  0.654421  0.394540  1
  Sn  Sn10  1  0.638001  0.068107  0.099548  1
  Sn  Sn11  1  0.638001  0.068107  0.400452  1
  Sn  Sn12  1  0.361999  0.931893  0.599548  1
  Sn  Sn13  1  0.361999  0.931893  0.900452  1
  Sn  Sn14  1  0.338862  0.345579  0.605460  1
  Sn  Sn15  1  0.338862  0.345579  0.894540  1
  Sn  Sn16  1  0.161138  0.845579  0.105460  1
  Sn  Sn17  1  0.161138  0.845579  0.394540  1
  Sn  Sn18  1  0.138001  0.431893  0.400452  1
  Sn  Sn19  1  0.138001  0.431893  0.099548  1
  P  P20  1  0.973525  0.597419  0.250000  1
  P  P21  1  0.854823  0.862791  0.588704  1
  P  P22  1  0.854823  0.862791  0.911296  1
  P  P23  1  0.645177  0.362791  0.088704  1
  P  P24  1  0.645177  0.362791  0.411296  1
  P  P25  1  0.526475  0.097419  0.750000  1
  P  P26  1  0.473525  0.902581  0.250000  1
  P  P27  1  0.354823  0.637209  0.588704  1
  P  P28  1  0.354823  0.637209  0.911296  1
  P  P29  1  0.145177  0.137209  0.411296  1
  P  P30  1  0.145177  0.137209  0.088704  1
  P  P31  1  0.026475  0.402581  0.750000  1
  O  O32  1  0.005174  0.035914  0.117520  1
  O  O33  1  0.005174  0.035914  0.382480  1
  O  O34  1  0.959349  0.543492  0.750000  1
  O  O35  1  0.952183  0.343113  0.667565  1
  O  O36  1  0.952183  0.343113  0.832435  1
  O  O37  1  0.912367  0.794568  0.992969  1
  O  O38  1  0.912367  0.794568  0.507031  1
  O  O39  1  0.831734  0.432335  0.078371  1
  O  O40  1  0.831734  0.432335  0.421629  1
  O  O41  1  0.838138  0.759672  0.659280  1
  O  O42  1  0.838138  0.759672  0.840720  1
  O  O43  1  0.760887  0.607728  0.250000  1
  O  O44  1  0.739113  0.107728  0.750000  1
  O  O45  1  0.661862  0.259672  0.340720  1
  O  O46  1  0.661862  0.259672  0.159280  1
  O  O47  1  0.668266  0.932335  0.578371  1
  O  O48  1  0.668266  0.932335  0.921629  1
  O  O49  1  0.587633  0.294568  0.492969  1
  O  O50  1  0.587633  0.294568  0.007031  1
  O  O51  1  0.547817  0.843113  0.167565  1
  O  O52  1  0.547817  0.843113  0.332435  1
  O  O53  1  0.540651  0.043492  0.250000  1
  O  O54  1  0.494826  0.535914  0.617520  1
  O  O55  1  0.494826  0.535914  0.882480  1
  O  O56  1  0.505174  0.464086  0.117520  1
  O  O57  1  0.505174  0.464086  0.382480  1
  O  O58  1  0.459349  0.956508  0.750000  1
  O  O59  1  0.452183  0.156887  0.667565  1
  O  O60  1  0.452183  0.156887  0.832435  1
  O  O61  1  0.412367  0.705432  0.992969  1
  O  O62  1  0.412367  0.705432  0.507031  1
  O  O63  1  0.331734  0.067665  0.078371  1
  O  O64  1  0.331734  0.067665  0.421629  1
  O  O65  1  0.338138  0.740328  0.659280  1
  O  O66  1  0.338138  0.740328  0.840720  1
  O  O67  1  0.260887  0.892272  0.250000  1
  O  O68  1  0.239113  0.392272  0.750000  1
  O  O69  1  0.161862  0.240328  0.159280  1
  O  O70  1  0.161862  0.240328  0.340720  1
  O  O71  1  0.168266  0.567665  0.578371  1
  O  O72  1  0.168266  0.567665  0.921629  1
  O  O73  1  0.087633  0.205432  0.492969  1
  O  O74  1  0.087633  0.205432  0.007031  1
  O  O75  1  0.047817  0.656887  0.167565  1
  O  O76  1  0.047817  0.656887  0.332435  1
  O  O77  1  0.040651  0.456508  0.250000  1
  O  O78  1  0.994826  0.964086  0.617520  1
  O  O79  1  0.994826  0.964086  0.882480  1
