# generated using pymatgen
data_LaB4
_symmetry_space_group_name_H-M   'P 1'
_cell_length_a   7.31065593
_cell_length_b   7.31065593
_cell_length_c   4.18269541
_cell_angle_alpha   90.00000000
_cell_angle_beta   90.00000000
_cell_angle_gamma   90.00000000
_symmetry_Int_Tables_number   1
_chemical_formula_structural   LaB4
_chemical_formula_sum   'La4 B16'
_cell_volume   223.54704278
_cell_formula_units_Z   4
loop_
 _symmetry_equiv_pos_site_id
 _symmetry_equiv_pos_as_xyz
  1  'x, y, z'
loop_
 _atom_site_type_symbol
 _atom_site_label
 _atom_site_symmetry_multiplicity
 _atom_site_fract_x
 _atom_site_fract_y
 _atom_site_fract_z
 _atom_site_occupancy
  La  La0  1  0.183955  0.683955  0.000000  1
  La  La1  1  0.683955  0.816045  0.000000  1
  La  La2  1  0.316045  0.183955  0.000000  1
  La  La3  1  0.816045  0.316045  0.000000  1
  B  B4  1  0.326478  0.460902  0.500000  1
  B  B5  1  0.673522  0.539098  0.500000  1
  B  B6  1  0.539098  0.326478  0.500000  1
  B  B7  1  0.460902  0.673522  0.500000  1
  B  B8  1  0.000000  0.000000  0.205832  1
  B  B9  1  0.500000  0.500000  0.794168  1
  B  B10  1  0.000000  0.000000  0.794168  1
  B  B11  1  0.500000  0.500000  0.205832  1
  B  B12  1  0.588866  0.088866  0.500000  1
  B  B13  1  0.088866  0.411134  0.500000  1
  B  B14  1  0.911134  0.588866  0.500000  1
  B  B15  1  0.411134  0.911134  0.500000  1
  B  B16  1  0.039098  0.173522  0.500000  1
  B  B17  1  0.173522  0.960902  0.500000  1
  B  B18  1  0.826478  0.039098  0.500000  1
  B  B19  1  0.960902  0.826478  0.500000  1
