# generated using pymatgen
data_Zr2N2O
_symmetry_space_group_name_H-M   'P 1'
_cell_length_a   5.50995683
_cell_length_b   7.07881631
_cell_length_c   9.88544638
_cell_angle_alpha   103.38254097
_cell_angle_beta   89.97325976
_cell_angle_gamma   90.16704954
_symmetry_Int_Tables_number   1
_chemical_formula_structural   Zr2N2O
_chemical_formula_sum   'Zr12 N12 O6'
_cell_volume   375.10043421
_cell_formula_units_Z   6
loop_
 _symmetry_equiv_pos_site_id
 _symmetry_equiv_pos_as_xyz
  1  'x, y, z'
loop_
 _atom_site_type_symbol
 _atom_site_label
 _atom_site_symmetry_multiplicity
 _atom_site_fract_x
 _atom_site_fract_y
 _atom_site_fract_z
 _atom_site_occupancy
  Zr  Zr0  1  0.709258  0.846972  0.913230  1
  Zr  Zr1  1  0.703370  0.845279  0.580334  1
  Zr  Zr2  1  0.696093  0.846920  0.246979  1
  Zr  Zr3  1  0.210286  0.658588  0.881579  1
  Zr  Zr4  1  0.195770  0.652381  0.214069  1
  Zr  Zr5  1  0.200522  0.653966  0.548850  1
  Zr  Zr6  1  0.768994  0.391908  0.671043  1
  Zr  Zr7  1  0.795710  0.383447  0.337297  1
  Zr  Zr8  1  0.761928  0.397683  0.006399  1
  Zr  Zr9  1  0.307274  0.127531  0.793586  1
  Zr  Zr10  1  0.283596  0.107713  0.456719  1
  Zr  Zr11  1  0.284565  0.110652  0.123676  1
  N  N12  1  0.423426  0.809372  0.074001  1
  N  N13  1  0.429149  0.819692  0.743223  1
  N  N14  1  0.422546  0.807233  0.406253  1
  N  N15  1  0.927431  0.688495  0.721487  1
  N  N16  1  0.923669  0.692069  0.052948  1
  N  N17  1  0.924790  0.688664  0.387997  1
  N  N18  1  0.526932  0.480839  0.850709  1
  N  N19  1  0.042792  0.361839  0.501044  1
  N  N20  1  0.038981  0.362488  0.163884  1
  N  N21  1  0.546358  0.134338  0.966137  1
  N  N22  1  0.544106  0.132953  0.622102  1
  N  N23  1  0.538179  0.137946  0.295350  1
  O  O24  1  0.555240  0.509470  0.525406  1
  O  O25  1  0.551102  0.506737  0.191513  1
  O  O26  1  0.026499  0.357355  0.833359  1
  O  O27  1  0.059877  0.996853  0.934923  1
  O  O28  1  0.047603  0.993969  0.270939  1
  O  O29  1  0.053952  0.996651  0.608735  1
