# generated using pymatgen
data_LiVCrO4
_symmetry_space_group_name_H-M   'P 1'
_cell_length_a   5.26708844
_cell_length_b   5.91647612
_cell_length_c   7.79079400
_cell_angle_alpha   98.84636152
_cell_angle_beta   108.76152626
_cell_angle_gamma   91.77774917
_symmetry_Int_Tables_number   1
_chemical_formula_structural   LiVCrO4
_chemical_formula_sum   'Li3 V3 Cr3 O12'
_cell_volume   226.30470462
_cell_formula_units_Z   3
loop_
 _symmetry_equiv_pos_site_id
 _symmetry_equiv_pos_as_xyz
  1  'x, y, z'
loop_
 _atom_site_type_symbol
 _atom_site_label
 _atom_site_symmetry_multiplicity
 _atom_site_fract_x
 _atom_site_fract_y
 _atom_site_fract_z
 _atom_site_occupancy
  Li  Li0  1  0.000775  0.997040  0.001667  1
  Li  Li1  1  0.670551  0.662862  0.667570  1
  Li  Li2  1  0.330895  0.339952  0.329168  1
  V  V3  1  0.517332  0.257936  0.991065  1
  V  V4  1  0.191682  0.919575  0.661257  1
  V  V5  1  0.808668  0.076552  0.340251  1
  Cr  Cr6  1  0.485246  0.752863  0.005910  1
  Cr  Cr7  1  0.148744  0.416768  0.671995  1
  Cr  Cr8  1  0.846157  0.581509  0.327577  1
  O  O9  1  0.561211  0.958962  0.838217  1
  O  O10  1  0.542661  0.467216  0.842896  1
  O  O11  1  0.230611  0.627501  0.512645  1
  O  O12  1  0.201784  0.133766  0.507669  1
  O  O13  1  0.864321  0.814228  0.169128  1
  O  O14  1  0.893405  0.278452  0.179250  1
  O  O15  1  0.100419  0.719157  0.816336  1
  O  O16  1  0.136286  0.184246  0.834054  1
  O  O17  1  0.792543  0.867285  0.492288  1
  O  O18  1  0.771689  0.373007  0.491429  1
  O  O19  1  0.464247  0.518853  0.162167  1
  O  O20  1  0.440776  0.052271  0.157465  1
