# generated using pymatgen
data_Li4Fe3Cu3(TeO8)2
_symmetry_space_group_name_H-M   'P 1'
_cell_length_a   6.01347132
_cell_length_b   6.01347132
_cell_length_c   9.86472545
_cell_angle_alpha   87.56045142
_cell_angle_beta   92.43954858
_cell_angle_gamma   121.05643991
_symmetry_Int_Tables_number   1
_chemical_formula_structural   Li4Fe3Cu3(TeO8)2
_chemical_formula_sum   'Li4 Fe3 Cu3 Te2 O16'
_cell_volume   305.22777474
_cell_formula_units_Z   1
loop_
 _symmetry_equiv_pos_site_id
 _symmetry_equiv_pos_as_xyz
  1  'x, y, z'
loop_
 _atom_site_type_symbol
 _atom_site_label
 _atom_site_symmetry_multiplicity
 _atom_site_fract_x
 _atom_site_fract_y
 _atom_site_fract_z
 _atom_site_occupancy
  Li  Li0  1  0.663371  0.336629  0.084550  1
  Li  Li1  1  0.998922  0.001078  0.016151  1
  Li  Li2  1  0.002747  0.997253  0.520741  1
  Li  Li3  1  0.341586  0.658414  0.586633  1
  Fe  Fe4  1  0.829495  0.170505  0.785560  1
  Fe  Fe5  1  0.657898  0.835016  0.287057  1
  Fe  Fe6  1  0.164984  0.342102  0.287057  1
  Cu  Cu7  1  0.832511  0.659896  0.790474  1
  Cu  Cu8  1  0.340104  0.167489  0.790474  1
  Cu  Cu9  1  0.169096  0.830904  0.291974  1
  Te  Te10  1  0.671109  0.328891  0.516996  1
  Te  Te11  1  0.327783  0.672217  0.016679  1
  O  O12  1  0.824148  0.660544  0.413394  1
  O  O13  1  0.529278  0.470722  0.649967  1
  O  O14  1  0.666379  0.333621  0.881427  1
  O  O15  1  0.002456  0.997544  0.710918  1
  O  O16  1  0.000660  0.999340  0.206206  1
  O  O17  1  0.339456  0.175852  0.413394  1
  O  O18  1  0.977035  0.461754  0.638456  1
  O  O19  1  0.538246  0.022965  0.638456  1
  O  O20  1  0.160134  0.839866  0.912487  1
  O  O21  1  0.825559  0.174441  0.399778  1
  O  O22  1  0.487908  0.966042  0.144147  1
  O  O23  1  0.033958  0.512092  0.144147  1
  O  O24  1  0.334436  0.665564  0.387046  1
  O  O25  1  0.646041  0.841521  0.912849  1
  O  O26  1  0.478350  0.521650  0.152244  1
  O  O27  1  0.158479  0.353959  0.912849  1
