# generated using pymatgen
data_Li3Mg3Ti6O16
_symmetry_space_group_name_H-M   'P 1'
_cell_length_a   8.47363026
_cell_length_b   8.47632363
_cell_length_c   8.47438542
_cell_angle_alpha   90.00000000
_cell_angle_beta   90.00069541
_cell_angle_gamma   90.00000000
_symmetry_Int_Tables_number   1
_chemical_formula_structural   Li3Mg3Ti6O16
_chemical_formula_sum   'Li6 Mg6 Ti12 O32'
_cell_volume   608.67470226
_cell_formula_units_Z   2
loop_
 _symmetry_equiv_pos_site_id
 _symmetry_equiv_pos_as_xyz
  1  'x, y, z'
loop_
 _atom_site_type_symbol
 _atom_site_label
 _atom_site_symmetry_multiplicity
 _atom_site_fract_x
 _atom_site_fract_y
 _atom_site_fract_z
 _atom_site_occupancy
  Li  Li0  1  0.125414  0.375185  0.124214  1
  Li  Li1  1  0.874586  0.875185  0.875786  1
  Li  Li2  1  0.748069  0.497996  0.998195  1
  Li  Li3  1  0.625140  0.624720  0.374697  1
  Li  Li4  1  0.374860  0.124720  0.625303  1
  Li  Li5  1  0.251931  0.997996  0.001805  1
  Mg  Mg6  1  0.248093  0.501678  0.501833  1
  Mg  Mg7  1  0.001553  0.752490  0.250102  1
  Mg  Mg8  1  0.998447  0.252490  0.749898  1
  Mg  Mg9  1  0.751907  0.001678  0.498167  1
  Mg  Mg10  1  0.502465  0.248589  0.246007  1
  Mg  Mg11  1  0.497535  0.748589  0.753993  1
  Ti  Ti12  1  0.131546  0.130320  0.370466  1
  Ti  Ti13  1  0.127397  0.882138  0.636140  1
  Ti  Ti14  1  0.116750  0.625947  0.883802  1
  Ti  Ti15  1  0.883250  0.125947  0.116198  1
  Ti  Ti16  1  0.872603  0.382138  0.363860  1
  Ti  Ti17  1  0.868454  0.630320  0.629534  1
  Ti  Ti18  1  0.628242  0.866343  0.121967  1
  Ti  Ti19  1  0.619930  0.122623  0.871334  1
  Ti  Ti20  1  0.619478  0.374749  0.623703  1
  Ti  Ti21  1  0.380522  0.874749  0.376297  1
  Ti  Ti22  1  0.380070  0.622623  0.128666  1
  Ti  Ti23  1  0.371758  0.366343  0.878033  1
  O  O24  1  0.142612  0.390432  0.871568  1
  O  O25  1  0.137045  0.887442  0.387416  1
  O  O26  1  0.138364  0.626851  0.107428  1
  O  O27  1  0.126305  0.858003  0.855659  1
  O  O28  1  0.121165  0.107235  0.610651  1
  O  O29  1  0.110684  0.357566  0.378197  1
  O  O30  1  0.113166  0.637625  0.636441  1
  O  O31  1  0.105873  0.123195  0.142411  1
  O  O32  1  0.894127  0.623195  0.857589  1
  O  O33  1  0.886834  0.137625  0.363559  1
  O  O34  1  0.889316  0.857566  0.621803  1
  O  O35  1  0.878835  0.607235  0.389349  1
  O  O36  1  0.873695  0.358003  0.144341  1
  O  O37  1  0.861636  0.126851  0.892572  1
  O  O38  1  0.862955  0.387442  0.612584  1
  O  O39  1  0.857388  0.890432  0.128432  1
  O  O40  1  0.641547  0.612364  0.626564  1
  O  O41  1  0.638389  0.112777  0.112381  1
  O  O42  1  0.639910  0.371914  0.392134  1
  O  O43  1  0.627689  0.138074  0.641694  1
  O  O44  1  0.623940  0.891726  0.888954  1
  O  O45  1  0.609472  0.642944  0.123920  1
  O  O46  1  0.610989  0.361800  0.860575  1
  O  O47  1  0.608030  0.877274  0.361944  1
  O  O48  1  0.391970  0.377274  0.638056  1
  O  O49  1  0.389011  0.861800  0.139425  1
  O  O50  1  0.390528  0.142944  0.876080  1
  O  O51  1  0.376060  0.391726  0.111046  1
  O  O52  1  0.372311  0.638074  0.358306  1
  O  O53  1  0.360090  0.871914  0.607866  1
  O  O54  1  0.361611  0.612777  0.887619  1
  O  O55  1  0.358453  0.112364  0.373436  1
