# generated using pymatgen
data_Mn3Co2Ni(PO4)6
_symmetry_space_group_name_H-M   'P 1'
_cell_length_a   8.43250060
_cell_length_b   8.43250060
_cell_length_c   8.43250060
_cell_angle_alpha   61.11086794
_cell_angle_beta   61.11086794
_cell_angle_gamma   61.11086794
_symmetry_Int_Tables_number   1
_chemical_formula_structural   Mn3Co2Ni(PO4)6
_chemical_formula_sum   'Mn3 Co2 Ni1 P6 O24'
_cell_volume   434.58968687
_cell_formula_units_Z   1
loop_
 _symmetry_equiv_pos_site_id
 _symmetry_equiv_pos_as_xyz
  1  'x, y, z'
loop_
 _atom_site_type_symbol
 _atom_site_label
 _atom_site_symmetry_multiplicity
 _atom_site_fract_x
 _atom_site_fract_y
 _atom_site_fract_z
 _atom_site_occupancy
  Mn  Mn0  1  0.641511  0.641511  0.641511  1
  Mn  Mn1  1  0.858596  0.858596  0.858596  1
  Mn  Mn2  1  0.357531  0.357531  0.357531  1
  Co  Co3  1  0.003541  0.003541  0.003541  1
  Co  Co4  1  0.499860  0.499860  0.499860  1
  Ni  Ni5  1  0.142106  0.142106  0.142106  1
  P  P6  1  0.957155  0.249342  0.543599  1
  P  P7  1  0.543599  0.957155  0.249342  1
  P  P8  1  0.249342  0.543599  0.957155  1
  P  P9  1  0.748549  0.458086  0.039583  1
  P  P10  1  0.458086  0.039583  0.748549  1
  P  P11  1  0.039583  0.748549  0.458086  1
  O  O12  1  0.511585  0.117780  0.310339  1
  O  O13  1  0.310339  0.511585  0.117780  1
  O  O14  1  0.117780  0.310339  0.511585  1
  O  O15  1  0.939942  0.091154  0.749067  1
  O  O16  1  0.984849  0.185927  0.391571  1
  O  O17  1  0.755861  0.413747  0.562195  1
  O  O18  1  0.749067  0.939942  0.091154  1
  O  O19  1  0.562195  0.755861  0.413747  1
  O  O20  1  0.812370  0.616336  0.007891  1
  O  O21  1  0.413747  0.562195  0.755861  1
  O  O22  1  0.904026  0.257381  0.055345  1
  O  O23  1  0.616336  0.007891  0.812370  1
  O  O24  1  0.391571  0.984849  0.185927  1
  O  O25  1  0.091154  0.749067  0.939942  1
  O  O26  1  0.585123  0.447437  0.239678  1
  O  O27  1  0.185927  0.391571  0.984849  1
  O  O28  1  0.447437  0.239678  0.585123  1
  O  O29  1  0.257381  0.055345  0.904026  1
  O  O30  1  0.239678  0.585123  0.447437  1
  O  O31  1  0.007891  0.812370  0.616336  1
  O  O32  1  0.055345  0.904026  0.257381  1
  O  O33  1  0.881135  0.680004  0.499783  1
  O  O34  1  0.680004  0.499783  0.881135  1
  O  O35  1  0.499783  0.881135  0.680004  1
