# generated using pymatgen
data_Rb2O
_symmetry_space_group_name_H-M   'P 1'
_cell_length_a   7.39063763
_cell_length_b   7.39063763
_cell_length_c   6.61218870
_cell_angle_alpha   90.00000000
_cell_angle_beta   90.00000000
_cell_angle_gamma   120.00000000
_symmetry_Int_Tables_number   1
_chemical_formula_structural   Rb2O
_chemical_formula_sum   'Rb6 O3'
_cell_volume   312.78051368
_cell_formula_units_Z   3
loop_
 _symmetry_equiv_pos_site_id
 _symmetry_equiv_pos_as_xyz
  1  'x, y, z'
loop_
 _atom_site_type_symbol
 _atom_site_label
 _atom_site_symmetry_multiplicity
 _atom_site_fract_x
 _atom_site_fract_y
 _atom_site_fract_z
 _atom_site_occupancy
  Rb  Rb0  1  0.006990  0.672974  0.855216  1
  Rb  Rb1  1  0.991167  0.331904  0.456610  1
  Rb  Rb2  1  0.668096  0.659263  0.456610  1
  Rb  Rb3  1  0.665984  0.993010  0.855216  1
  Rb  Rb4  1  0.340737  0.008833  0.456610  1
  Rb  Rb5  1  0.327026  0.334016  0.855216  1
  O  O6  1  0.000000  0.000000  0.648668  1
  O  O7  1  0.666667  0.333333  0.677485  1
  O  O8  1  0.333333  0.666667  0.639721  1
