# generated using pymatgen
data_Co3O5F
_symmetry_space_group_name_H-M   'P 1'
_cell_length_a   4.51436568
_cell_length_b   2.91112318
_cell_length_c   13.53853270
_cell_angle_alpha   90.00000000
_cell_angle_beta   93.00879668
_cell_angle_gamma   90.00000000
_symmetry_Int_Tables_number   1
_chemical_formula_structural   Co3O5F
_chemical_formula_sum   'Co6 O10 F2'
_cell_volume   177.67643125
_cell_formula_units_Z   2
loop_
 _symmetry_equiv_pos_site_id
 _symmetry_equiv_pos_as_xyz
  1  'x, y, z'
loop_
 _atom_site_type_symbol
 _atom_site_label
 _atom_site_symmetry_multiplicity
 _atom_site_fract_x
 _atom_site_fract_y
 _atom_site_fract_z
 _atom_site_occupancy
  Co  Co0  1  0.000000  0.000000  0.000000  1
  Co  Co1  1  0.022767  0.000000  0.656560  1
  Co  Co2  1  0.977233  0.000000  0.343440  1
  Co  Co3  1  0.476230  0.500000  0.842010  1
  Co  Co4  1  0.500000  0.500000  0.500000  1
  Co  Co5  1  0.523770  0.500000  0.157990  1
  O  O6  1  0.819994  0.500000  0.062218  1
  O  O7  1  0.782884  0.500000  0.404846  1
  O  O8  1  0.691876  0.000000  0.230286  1
  O  O9  1  0.686960  0.000000  0.900664  1
  O  O10  1  0.696894  0.000000  0.563452  1
  O  O11  1  0.303106  0.000000  0.436548  1
  O  O12  1  0.308124  0.000000  0.769714  1
  O  O13  1  0.313040  0.000000  0.099336  1
  O  O14  1  0.180006  0.500000  0.937782  1
  O  O15  1  0.217116  0.500000  0.595154  1
  F  F16  1  0.812452  0.500000  0.730110  1
  F  F17  1  0.187548  0.500000  0.269890  1
