# generated using pymatgen
data_Ni6OF11
_symmetry_space_group_name_H-M   'P 1'
_cell_length_a   4.69589851
_cell_length_b   4.69589851
_cell_length_c   9.33444787
_cell_angle_alpha   90.00000000
_cell_angle_beta   90.00000000
_cell_angle_gamma   90.43241415
_symmetry_Int_Tables_number   1
_chemical_formula_structural   Ni6OF11
_chemical_formula_sum   'Ni6 O1 F11'
_cell_volume   205.83236844
_cell_formula_units_Z   1
loop_
 _symmetry_equiv_pos_site_id
 _symmetry_equiv_pos_as_xyz
  1  'x, y, z'
loop_
 _atom_site_type_symbol
 _atom_site_label
 _atom_site_symmetry_multiplicity
 _atom_site_fract_x
 _atom_site_fract_y
 _atom_site_fract_z
 _atom_site_occupancy
  Ni  Ni0  1  0.000111  0.000111  0.000000  1
  Ni  Ni1  1  0.005347  0.005347  0.337292  1
  Ni  Ni2  1  0.005347  0.005347  0.662708  1
  Ni  Ni3  1  0.486669  0.486669  0.500000  1
  Ni  Ni4  1  0.502789  0.502789  0.833286  1
  Ni  Ni5  1  0.502789  0.502789  0.166714  1
  O  O6  1  0.192960  0.192960  0.500000  1
  F  F7  1  0.197897  0.197897  0.833030  1
  F  F8  1  0.197897  0.197897  0.166970  1
  F  F9  1  0.695302  0.302585  0.666571  1
  F  F10  1  0.695302  0.302585  0.333429  1
  F  F11  1  0.697554  0.304669  1.000000  1
  F  F12  1  0.302585  0.695302  0.666571  1
  F  F13  1  0.302585  0.695302  0.333429  1
  F  F14  1  0.304669  0.697554  0.000000  1
  F  F15  1  0.807841  0.807841  0.829972  1
  F  F16  1  0.794277  0.794277  0.500000  1
  F  F17  1  0.807841  0.807841  0.170028  1
