# generated using pymatgen
data_V2O3F
_symmetry_space_group_name_H-M   'P 1'
_cell_length_a   4.76531574
_cell_length_b   5.78467323
_cell_length_c   10.23254219
_cell_angle_alpha   90.00000000
_cell_angle_beta   90.00000000
_cell_angle_gamma   90.00000000
_symmetry_Int_Tables_number   1
_chemical_formula_structural   V2O3F
_chemical_formula_sum   'V8 O12 F4'
_cell_volume   282.06815400
_cell_formula_units_Z   4
loop_
 _symmetry_equiv_pos_site_id
 _symmetry_equiv_pos_as_xyz
  1  'x, y, z'
loop_
 _atom_site_type_symbol
 _atom_site_label
 _atom_site_symmetry_multiplicity
 _atom_site_fract_x
 _atom_site_fract_y
 _atom_site_fract_z
 _atom_site_occupancy
  V  V0  1  0.943856  0.005879  0.974561  1
  V  V1  1  0.460717  0.243527  0.767592  1
  V  V2  1  0.960717  0.743527  0.732408  1
  V  V3  1  0.443856  0.505879  0.525439  1
  V  V4  1  0.556144  0.005879  0.474561  1
  V  V5  1  0.039283  0.243527  0.267592  1
  V  V6  1  0.539283  0.743527  0.232408  1
  V  V7  1  0.056144  0.505879  0.025439  1
  O  O8  1  0.208143  0.251845  0.917445  1
  O  O9  1  0.158475  0.748204  0.906184  1
  O  O10  1  0.729749  0.000223  0.832709  1
  O  O11  1  0.229749  0.500223  0.667291  1
  O  O12  1  0.658475  0.248204  0.593816  1
  O  O13  1  0.708143  0.751845  0.582555  1
  O  O14  1  0.291857  0.251845  0.417445  1
  O  O15  1  0.341525  0.748204  0.406184  1
  O  O16  1  0.770251  0.000223  0.332709  1
  O  O17  1  0.270251  0.500223  0.167291  1
  O  O18  1  0.841525  0.248204  0.093816  1
  O  O19  1  0.791857  0.751845  0.082555  1
  F  F20  1  0.726686  0.494355  0.832699  1
  F  F21  1  0.226686  0.994355  0.667301  1
  F  F22  1  0.773314  0.494355  0.332699  1
  F  F23  1  0.273314  0.994355  0.167301  1
