# generated using pymatgen
data_Li4Mn3F10
_symmetry_space_group_name_H-M   'P 1'
_cell_length_a   9.99235114
_cell_length_b   9.99235114
_cell_length_c   5.21498214
_cell_angle_alpha   84.17869565
_cell_angle_beta   95.82130435
_cell_angle_gamma   68.63930010
_symmetry_Int_Tables_number   1
_chemical_formula_structural   Li4Mn3F10
_chemical_formula_sum   'Li8 Mn6 F20'
_cell_volume   477.02044036
_cell_formula_units_Z   2
loop_
 _symmetry_equiv_pos_site_id
 _symmetry_equiv_pos_as_xyz
  1  'x, y, z'
loop_
 _atom_site_type_symbol
 _atom_site_label
 _atom_site_symmetry_multiplicity
 _atom_site_fract_x
 _atom_site_fract_y
 _atom_site_fract_z
 _atom_site_occupancy
  Li  Li0  1  0.880277  0.601905  0.324427  1
  Li  Li1  1  0.398095  0.119723  0.824427  1
  Li  Li2  1  0.290393  0.290393  0.250000  1
  Li  Li3  1  0.577053  0.577053  0.250000  1
  Li  Li4  1  0.422947  0.422947  0.750000  1
  Li  Li5  1  0.709607  0.709607  0.750000  1
  Li  Li6  1  0.601905  0.880277  0.175573  1
  Li  Li7  1  0.119723  0.398095  0.675573  1
  Mn  Mn8  1  0.624038  0.220863  0.343703  1
  Mn  Mn9  1  0.779137  0.375962  0.843703  1
  Mn  Mn10  1  0.114987  0.114987  0.250000  1
  Mn  Mn11  1  0.885013  0.885013  0.750000  1
  Mn  Mn12  1  0.220863  0.624038  0.156297  1
  Mn  Mn13  1  0.375962  0.779137  0.656297  1
  F  F14  1  0.541500  0.088087  0.157007  1
  F  F15  1  0.911913  0.458500  0.657007  1
  F  F16  1  0.198269  0.901663  0.382810  1
  F  F17  1  0.098337  0.801731  0.882810  1
  F  F18  1  0.735147  0.560767  0.048100  1
  F  F19  1  0.439233  0.264853  0.548100  1
  F  F20  1  0.596188  0.350666  0.989175  1
  F  F21  1  0.649334  0.403812  0.489175  1
  F  F22  1  0.229145  0.184260  0.004661  1
  F  F23  1  0.815740  0.770855  0.504661  1
  F  F24  1  0.184260  0.229145  0.495339  1
  F  F25  1  0.770855  0.815740  0.995339  1
  F  F26  1  0.350666  0.596188  0.510825  1
  F  F27  1  0.403812  0.649334  0.010825  1
  F  F28  1  0.560767  0.735147  0.451900  1
  F  F29  1  0.264853  0.439233  0.951900  1
  F  F30  1  0.901663  0.198269  0.117190  1
  F  F31  1  0.801731  0.098337  0.617190  1
  F  F32  1  0.088087  0.541500  0.342993  1
  F  F33  1  0.458500  0.911913  0.842993  1
