# generated using pymatgen
data_YZr5O11
_symmetry_space_group_name_H-M   'P 1'
_cell_length_a   6.57055068
_cell_length_b   3.57782671
_cell_length_c   9.07689319
_cell_angle_alpha   90.00000000
_cell_angle_beta   90.26110015
_cell_angle_gamma   90.00000000
_symmetry_Int_Tables_number   1
_chemical_formula_structural   YZr5O11
_chemical_formula_sum   'Y1 Zr5 O11'
_cell_volume   213.38003742
_cell_formula_units_Z   1
loop_
 _symmetry_equiv_pos_site_id
 _symmetry_equiv_pos_as_xyz
  1  'x, y, z'
loop_
 _atom_site_type_symbol
 _atom_site_label
 _atom_site_symmetry_multiplicity
 _atom_site_fract_x
 _atom_site_fract_y
 _atom_site_fract_z
 _atom_site_occupancy
  Y  Y0  1  0.831870  0.500000  0.666327  1
  Zr  Zr1  1  0.183810  0.500000  0.332316  1
  Zr  Zr2  1  0.506469  0.500000  0.995080  1
  Zr  Zr3  1  0.665580  0.000000  0.329047  1
  Zr  Zr4  1  0.315993  0.000000  0.667014  1
  Zr  Zr5  1  0.990612  0.000000  0.001398  1
  O  O6  1  0.775236  0.500000  0.414522  1
  O  O7  1  0.464080  0.500000  0.226400  1
  O  O8  1  0.478792  0.500000  0.719050  1
  O  O9  1  0.795221  0.500000  0.911680  1
  O  O10  1  0.130741  0.500000  0.068483  1
  O  O11  1  0.144109  0.500000  0.559704  1
  O  O12  1  0.369579  0.000000  0.924293  1
  O  O13  1  0.702089  0.000000  0.101841  1
  O  O14  1  0.034333  0.000000  0.277281  1
  O  O15  1  0.026119  0.000000  0.768275  1
  O  O16  1  0.388098  0.000000  0.438656  1
