# generated using pymatgen
data_V2SiO7
_symmetry_space_group_name_H-M   'P 1'
_cell_length_a   8.32394792
_cell_length_b   8.32394792
_cell_length_c   8.32394792
_cell_angle_alpha   90.00000000
_cell_angle_beta   90.00000000
_cell_angle_gamma   90.00000000
_symmetry_Int_Tables_number   1
_chemical_formula_structural   V2SiO7
_chemical_formula_sum   'V8 Si4 O28'
_cell_volume   576.75061058
_cell_formula_units_Z   4
loop_
 _symmetry_equiv_pos_site_id
 _symmetry_equiv_pos_as_xyz
  1  'x, y, z'
loop_
 _atom_site_type_symbol
 _atom_site_label
 _atom_site_symmetry_multiplicity
 _atom_site_fract_x
 _atom_site_fract_y
 _atom_site_fract_z
 _atom_site_occupancy
  V  V0  1  0.123451  0.876549  0.376549  1
  V  V1  1  0.123451  0.623451  0.876549  1
  V  V2  1  0.376549  0.376549  0.376549  1
  V  V3  1  0.376549  0.123451  0.876549  1
  V  V4  1  0.623451  0.623451  0.623451  1
  V  V5  1  0.623451  0.876549  0.123451  1
  V  V6  1  0.876549  0.123451  0.623451  1
  V  V7  1  0.876549  0.376549  0.123451  1
  Si  Si8  1  0.000000  0.000000  0.000000  1
  Si  Si9  1  0.000000  0.500000  0.500000  1
  Si  Si10  1  0.500000  0.000000  0.500000  1
  Si  Si11  1  0.500000  0.500000  0.000000  1
  O  O12  1  0.000000  0.000000  0.500000  1
  O  O13  1  0.000000  0.500000  0.000000  1
  O  O14  1  0.061577  0.681477  0.404796  1
  O  O15  1  0.061577  0.818523  0.904796  1
  O  O16  1  0.095204  0.561577  0.681477  1
  O  O17  1  0.095204  0.938423  0.181477  1
  O  O18  1  0.181477  0.095204  0.938423  1
  O  O19  1  0.181477  0.404796  0.438423  1
  O  O20  1  0.318523  0.595204  0.938423  1
  O  O21  1  0.318523  0.904796  0.438423  1
  O  O22  1  0.404796  0.061577  0.681477  1
  O  O23  1  0.404796  0.438423  0.181477  1
  O  O24  1  0.438423  0.318523  0.904796  1
  O  O25  1  0.438423  0.181477  0.404796  1
  O  O26  1  0.500000  0.500000  0.500000  1
  O  O27  1  0.500000  0.000000  0.000000  1
  O  O28  1  0.561577  0.681477  0.095204  1
  O  O29  1  0.561577  0.818523  0.595204  1
  O  O30  1  0.595204  0.561577  0.818523  1
  O  O31  1  0.595204  0.938423  0.318523  1
  O  O32  1  0.681477  0.095204  0.561577  1
  O  O33  1  0.681477  0.404796  0.061577  1
  O  O34  1  0.818523  0.595204  0.561577  1
  O  O35  1  0.818523  0.904796  0.061577  1
  O  O36  1  0.904796  0.061577  0.818523  1
  O  O37  1  0.904796  0.438423  0.318523  1
  O  O38  1  0.938423  0.181477  0.095204  1
  O  O39  1  0.938423  0.318523  0.595204  1
