# generated using pymatgen
data_LiMn5O5F
_symmetry_space_group_name_H-M   'P 1'
_cell_length_a   3.48808854
_cell_length_b   3.48808854
_cell_length_c   15.96954294
_cell_angle_alpha   90.00000000
_cell_angle_beta   90.00000000
_cell_angle_gamma   120.00000000
_symmetry_Int_Tables_number   1
_chemical_formula_structural   LiMn5O5F
_chemical_formula_sum   'Li1 Mn5 O5 F1'
_cell_volume   168.26667751
_cell_formula_units_Z   1
loop_
 _symmetry_equiv_pos_site_id
 _symmetry_equiv_pos_as_xyz
  1  'x, y, z'
loop_
 _atom_site_type_symbol
 _atom_site_label
 _atom_site_symmetry_multiplicity
 _atom_site_fract_x
 _atom_site_fract_y
 _atom_site_fract_z
 _atom_site_occupancy
  Li  Li0  1  0.666667  0.333333  0.841039  1
  Mn  Mn1  1  0.333333  0.666667  0.329185  1
  Mn  Mn2  1  0.333333  0.666667  0.992887  1
  Mn  Mn3  1  0.333333  0.666667  0.664487  1
  Mn  Mn4  1  0.666667  0.333333  0.497263  1
  Mn  Mn5  1  0.666667  0.333333  0.160796  1
  O  O6  1  0.333333  0.666667  0.464309  1
  O  O7  1  0.333333  0.666667  0.127832  1
  O  O8  1  0.666667  0.333333  0.295793  1
  O  O9  1  0.666667  0.333333  0.959201  1
  O  O10  1  0.666667  0.333333  0.632725  1
  F  F11  1  0.333333  0.666667  0.797514  1
