# generated using pymatgen
data_InP2H9(NO4)2
_symmetry_space_group_name_H-M   'P 1'
_cell_length_a   10.00690951
_cell_length_b   10.00690951
_cell_length_c   6.75538026
_cell_angle_alpha   71.25334381
_cell_angle_beta   108.74665619
_cell_angle_gamma   55.60956122
_symmetry_Int_Tables_number   1
_chemical_formula_structural   InP2H9(NO4)2
_chemical_formula_sum   'In2 P4 H18 N4 O16'
_cell_volume   404.59142655
_cell_formula_units_Z   2
loop_
 _symmetry_equiv_pos_site_id
 _symmetry_equiv_pos_as_xyz
  1  'x, y, z'
loop_
 _atom_site_type_symbol
 _atom_site_label
 _atom_site_symmetry_multiplicity
 _atom_site_fract_x
 _atom_site_fract_y
 _atom_site_fract_z
 _atom_site_occupancy
  In  In0  1  0.647569  0.102890  0.292288  1
  In  In1  1  0.897110  0.352431  0.792288  1
  P  P2  1  0.454843  0.886568  0.246408  1
  P  P3  1  0.113432  0.545157  0.746408  1
  P  P4  1  0.632063  0.209817  0.743035  1
  P  P5  1  0.790183  0.367937  0.243035  1
  H  H6  1  0.128683  0.256083  0.361922  1
  H  H7  1  0.364327  0.098172  0.430163  1
  H  H8  1  0.730196  0.702592  0.979203  1
  H  H9  1  0.357169  0.067728  0.693177  1
  H  H10  1  0.932272  0.642831  0.193177  1
  H  H11  1  0.297408  0.269804  0.479203  1
  H  H12  1  0.901828  0.635673  0.930163  1
  H  H13  1  0.743917  0.871317  0.861922  1
  H  H14  1  0.270794  0.473137  0.553843  1
  H  H15  1  0.115638  0.768028  0.863471  1
  H  H16  1  0.032773  0.931902  0.938015  1
  H  H17  1  0.176031  0.755787  0.466239  1
  H  H18  1  0.265969  0.660422  0.196780  1
  H  H19  1  0.339578  0.734031  0.696780  1
  H  H20  1  0.244213  0.823969  0.966239  1
  H  H21  1  0.068098  0.967227  0.438015  1
  H  H22  1  0.231972  0.884362  0.363471  1
  H  H23  1  0.526863  0.729206  0.053843  1
  N  N24  1  0.286243  0.173201  0.490890  1
  N  N25  1  0.826799  0.713757  0.990890  1
  N  N26  1  0.165657  0.794026  0.993611  1
  N  N27  1  0.205974  0.834343  0.493611  1
  O  O28  1  0.580700  0.669529  0.497590  1
  O  O29  1  0.219209  0.029265  0.115724  1
  O  O30  1  0.483957  0.865245  0.036907  1
  O  O31  1  0.016654  0.479175  0.822364  1
  O  O32  1  0.520825  0.983346  0.322364  1
  O  O33  1  0.134755  0.516043  0.536907  1
  O  O34  1  0.330471  0.419300  0.997590  1
  O  O35  1  0.970735  0.780791  0.615724  1
  O  O36  1  0.666295  0.083525  0.995750  1
  O  O37  1  0.649140  0.099219  0.618121  1
  O  O38  1  0.404727  0.444755  0.534546  1
  O  O39  1  0.807274  0.189766  0.327478  1
  O  O40  1  0.810234  0.192726  0.827478  1
  O  O41  1  0.555245  0.595273  0.034546  1
  O  O42  1  0.916475  0.333705  0.495750  1
  O  O43  1  0.900781  0.350860  0.118121  1
