# generated using pymatgen
data_CoP2WO8
_symmetry_space_group_name_H-M   'P 1'
_cell_length_a   4.95818579
_cell_length_b   5.98916956
_cell_length_c   10.23980975
_cell_angle_alpha   90.00000000
_cell_angle_beta   91.82331659
_cell_angle_gamma   90.00000000
_symmetry_Int_Tables_number   1
_chemical_formula_structural   CoP2WO8
_chemical_formula_sum   'Co2 P4 W2 O16'
_cell_volume   303.92144944
_cell_formula_units_Z   2
loop_
 _symmetry_equiv_pos_site_id
 _symmetry_equiv_pos_as_xyz
  1  'x, y, z'
loop_
 _atom_site_type_symbol
 _atom_site_label
 _atom_site_symmetry_multiplicity
 _atom_site_fract_x
 _atom_site_fract_y
 _atom_site_fract_z
 _atom_site_occupancy
  Co  Co0  1  0.950981  0.250000  0.279335  1
  Co  Co1  1  0.049019  0.750000  0.720665  1
  P  P2  1  0.421050  0.250000  0.094670  1
  P  P3  1  0.907192  0.750000  0.405592  1
  P  P4  1  0.092808  0.250000  0.594408  1
  P  P5  1  0.578950  0.750000  0.905330  1
  W  W6  1  0.461238  0.750000  0.222026  1
  W  W7  1  0.538762  0.250000  0.777974  1
  O  O8  1  0.677684  0.750000  0.048332  1
  O  O9  1  0.724521  0.250000  0.111953  1
  O  O10  1  0.285270  0.046458  0.169032  1
  O  O11  1  0.285270  0.453542  0.169032  1
  O  O12  1  0.755276  0.553385  0.327245  1
  O  O13  1  0.755276  0.946615  0.327245  1
  O  O14  1  0.208879  0.750000  0.381246  1
  O  O15  1  0.151573  0.250000  0.450877  1
  O  O16  1  0.848427  0.750000  0.549123  1
  O  O17  1  0.791121  0.250000  0.618754  1
  O  O18  1  0.244724  0.053385  0.672755  1
  O  O19  1  0.244724  0.446615  0.672755  1
  O  O20  1  0.714730  0.546458  0.830968  1
  O  O21  1  0.714730  0.953542  0.830968  1
  O  O22  1  0.275479  0.750000  0.888047  1
  O  O23  1  0.322316  0.250000  0.951668  1
