# generated using pymatgen
data_Li4Ti3Mn3(CoO8)2
_symmetry_space_group_name_H-M   'P 1'
_cell_length_a   5.87055994
_cell_length_b   5.87929716
_cell_length_c   9.72805862
_cell_angle_alpha   89.88032820
_cell_angle_beta   90.40658475
_cell_angle_gamma   119.72189070
_symmetry_Int_Tables_number   1
_chemical_formula_structural   Li4Ti3Mn3(CoO8)2
_chemical_formula_sum   'Li4 Ti3 Mn3 Co2 O16'
_cell_volume   291.58185135
_cell_formula_units_Z   1
loop_
 _symmetry_equiv_pos_site_id
 _symmetry_equiv_pos_as_xyz
  1  'x, y, z'
loop_
 _atom_site_type_symbol
 _atom_site_label
 _atom_site_symmetry_multiplicity
 _atom_site_fract_x
 _atom_site_fract_y
 _atom_site_fract_z
 _atom_site_occupancy
  Li  Li0  1  0.327324  0.670765  0.109418  1
  Li  Li1  1  0.007441  0.001021  0.002706  1
  Li  Li2  1  0.007139  0.993626  0.501497  1
  Li  Li3  1  0.662488  0.333154  0.606969  1
  Ti  Ti4  1  0.659255  0.822933  0.782970  1
  Ti  Ti5  1  0.156018  0.335765  0.785445  1
  Ti  Ti6  1  0.827263  0.167694  0.286070  1
  Mn  Mn7  1  0.173146  0.835651  0.786427  1
  Mn  Mn8  1  0.829455  0.662107  0.284731  1
  Mn  Mn9  1  0.335477  0.168565  0.284951  1
  Co  Co10  1  0.335069  0.664994  0.507807  1
  Co  Co11  1  0.667459  0.337005  0.010612  1
  O  O12  1  0.684943  0.840453  0.394142  1
  O  O13  1  0.485351  0.519198  0.670734  1
  O  O14  1  0.334734  0.669304  0.895538  1
  O  O15  1  0.004925  0.996897  0.686557  1
  O  O16  1  0.001072  0.994932  0.187843  1
  O  O17  1  0.159279  0.314069  0.394049  1
  O  O18  1  0.480820  0.966558  0.669184  1
  O  O19  1  0.034978  0.520450  0.667825  1
  O  O20  1  0.845503  0.163737  0.893868  1
  O  O21  1  0.160482  0.838959  0.390449  1
  O  O22  1  0.960958  0.483542  0.169891  1
  O  O23  1  0.513777  0.035479  0.169755  1
  O  O24  1  0.662771  0.336916  0.393004  1
  O  O25  1  0.849326  0.686066  0.894306  1
  O  O26  1  0.513050  0.482955  0.171668  1
  O  O27  1  0.320799  0.157504  0.893743  1
