# generated using pymatgen
data_Li4MnV3(PO4)4
_symmetry_space_group_name_H-M   'P 1'
_cell_length_a   4.77927707
_cell_length_b   6.15041129
_cell_length_c   11.57569806
_cell_angle_alpha   90.00000000
_cell_angle_beta   114.40025765
_cell_angle_gamma   90.00000000
_symmetry_Int_Tables_number   1
_chemical_formula_structural   Li4MnV3(PO4)4
_chemical_formula_sum   'Li4 Mn1 V3 P4 O16'
_cell_volume   309.87048831
_cell_formula_units_Z   1
loop_
 _symmetry_equiv_pos_site_id
 _symmetry_equiv_pos_as_xyz
  1  'x, y, z'
loop_
 _atom_site_type_symbol
 _atom_site_label
 _atom_site_symmetry_multiplicity
 _atom_site_fract_x
 _atom_site_fract_y
 _atom_site_fract_z
 _atom_site_occupancy
  Li  Li0  1  0.000345  0.250755  0.000305  1
  Li  Li1  1  0.000345  0.749245  0.000305  1
  Li  Li2  1  0.001566  0.751073  0.500933  1
  Li  Li3  1  0.001566  0.248927  0.500933  1
  Mn  Mn4  1  0.302153  0.500000  0.279795  1
  V  V5  1  0.258383  0.500000  0.776239  1
  V  V6  1  0.740538  0.000000  0.222786  1
  V  V7  1  0.707617  0.000000  0.724606  1
  P  P8  1  0.492511  0.000000  0.407109  1
  P  P9  1  0.321427  0.000000  0.906712  1
  P  P10  1  0.676521  0.500000  0.091298  1
  P  P11  1  0.508120  0.500000  0.594222  1
  O  O12  1  0.749681  0.000000  0.543796  1
  O  O13  1  0.557675  0.200591  0.337120  1
  O  O14  1  0.557675  0.799409  0.337120  1
  O  O15  1  0.832749  0.500000  0.596685  1
  O  O16  1  0.358454  0.500000  0.095467  1
  O  O17  1  0.116354  0.200916  0.837041  1
  O  O18  1  0.116354  0.799084  0.837041  1
  O  O19  1  0.337024  0.000000  0.043453  1
  O  O20  1  0.662614  0.500000  0.954720  1
  O  O21  1  0.879733  0.700891  0.161067  1
  O  O22  1  0.879733  0.299109  0.161067  1
  O  O23  1  0.639579  0.000000  0.902909  1
  O  O24  1  0.166329  0.000000  0.403010  1
  O  O25  1  0.442724  0.701309  0.663415  1
  O  O26  1  0.442724  0.298691  0.663415  1
  O  O27  1  0.249509  0.500000  0.457433  1
