# generated using pymatgen
data_Li4TiMn3(PO4)4
_symmetry_space_group_name_H-M   'P 1'
_cell_length_a   4.77872976
_cell_length_b   6.15828836
_cell_length_c   10.59456894
_cell_angle_alpha   90.00000000
_cell_angle_beta   90.12554681
_cell_angle_gamma   90.00000000
_symmetry_Int_Tables_number   1
_chemical_formula_structural   Li4TiMn3(PO4)4
_chemical_formula_sum   'Li4 Ti1 Mn3 P4 O16'
_cell_volume   311.78465803
_cell_formula_units_Z   1
loop_
 _symmetry_equiv_pos_site_id
 _symmetry_equiv_pos_as_xyz
  1  'x, y, z'
loop_
 _atom_site_type_symbol
 _atom_site_label
 _atom_site_symmetry_multiplicity
 _atom_site_fract_x
 _atom_site_fract_y
 _atom_site_fract_z
 _atom_site_occupancy
  Li  Li0  1  0.000409  0.249710  0.999939  1
  Li  Li1  1  0.000409  0.750290  0.999939  1
  Li  Li2  1  0.500926  0.750639  0.499810  1
  Li  Li3  1  0.500926  0.249361  0.499810  1
  Ti  Ti4  1  0.026074  0.000000  0.279680  1
  Mn  Mn5  1  0.972248  0.500000  0.719042  1
  Mn  Mn6  1  0.527057  0.500000  0.218876  1
  Mn  Mn7  1  0.472640  0.000000  0.781259  1
  P  P8  1  0.909687  0.000000  0.592342  1
  P  P9  1  0.590043  0.000000  0.092038  1
  P  P10  1  0.409918  0.500000  0.908296  1
  P  P11  1  0.088432  0.500000  0.408385  1
  O  O12  1  0.787851  0.000000  0.455929  1
  O  O13  1  0.776395  0.201070  0.661564  1
  O  O14  1  0.776395  0.798930  0.661564  1
  O  O15  1  0.766942  0.500000  0.404188  1
  O  O16  1  0.731398  0.500000  0.904190  1
  O  O17  1  0.727474  0.200100  0.161599  1
  O  O18  1  0.727474  0.799900  0.161599  1
  O  O19  1  0.711930  0.000000  0.956054  1
  O  O20  1  0.288720  0.500000  0.044653  1
  O  O21  1  0.276024  0.701112  0.838963  1
  O  O22  1  0.276024  0.298888  0.838963  1
  O  O23  1  0.268523  0.000000  0.094219  1
  O  O24  1  0.231441  0.000000  0.596080  1
  O  O25  1  0.220757  0.701343  0.338349  1
  O  O26  1  0.220757  0.298657  0.338349  1
  O  O27  1  0.213124  0.500000  0.544322  1
