# generated using pymatgen
data_Ba3(BrO)2
_symmetry_space_group_name_H-M   'P 1'
_cell_length_a   6.37538311
_cell_length_b   11.02944939
_cell_length_c   13.24494291
_cell_angle_alpha   90.00000000
_cell_angle_beta   90.00000000
_cell_angle_gamma   90.00000000
_symmetry_Int_Tables_number   1
_chemical_formula_structural   Ba3(BrO)2
_chemical_formula_sum   'Ba12 Br8 O8'
_cell_volume   931.34419171
_cell_formula_units_Z   4
loop_
 _symmetry_equiv_pos_site_id
 _symmetry_equiv_pos_as_xyz
  1  'x, y, z'
loop_
 _atom_site_type_symbol
 _atom_site_label
 _atom_site_symmetry_multiplicity
 _atom_site_fract_x
 _atom_site_fract_y
 _atom_site_fract_z
 _atom_site_occupancy
  Ba  Ba0  1  0.250000  0.709945  0.050619  1
  Ba  Ba1  1  0.250000  0.060568  0.076145  1
  Ba  Ba2  1  0.750000  0.864221  0.208912  1
  Ba  Ba3  1  0.250000  0.364221  0.291088  1
  Ba  Ba4  1  0.750000  0.560568  0.423855  1
  Ba  Ba5  1  0.750000  0.209945  0.449381  1
  Ba  Ba6  1  0.250000  0.790055  0.550619  1
  Ba  Ba7  1  0.250000  0.439432  0.576145  1
  Ba  Ba8  1  0.750000  0.635779  0.708912  1
  Ba  Ba9  1  0.250000  0.135779  0.791088  1
  Ba  Ba10  1  0.750000  0.939432  0.923855  1
  Ba  Ba11  1  0.750000  0.290055  0.949381  1
  Br  Br12  1  0.750000  0.558231  0.131502  1
  Br  Br13  1  0.750000  0.185431  0.192349  1
  Br  Br14  1  0.250000  0.685431  0.307651  1
  Br  Br15  1  0.250000  0.058231  0.368498  1
  Br  Br16  1  0.750000  0.941769  0.631502  1
  Br  Br17  1  0.750000  0.314569  0.692349  1
  Br  Br18  1  0.250000  0.814569  0.807651  1
  Br  Br19  1  0.250000  0.441769  0.868498  1
  O  O20  1  0.000375  0.876987  0.073514  1
  O  O21  1  0.499625  0.876987  0.073514  1
  O  O22  1  0.999625  0.376987  0.426486  1
  O  O23  1  0.500375  0.376987  0.426486  1
  O  O24  1  0.000375  0.623013  0.573514  1
  O  O25  1  0.499625  0.623013  0.573514  1
  O  O26  1  0.500375  0.123013  0.926486  1
  O  O27  1  0.999625  0.123013  0.926486  1
