# generated using pymatgen
data_LiTiP2O7
_symmetry_space_group_name_H-M   'P 1'
_cell_length_a   7.07354825
_cell_length_b   10.36771473
_cell_length_c   8.06697969
_cell_angle_alpha   90.00000000
_cell_angle_beta   113.00280479
_cell_angle_gamma   90.00000000
_symmetry_Int_Tables_number   1
_chemical_formula_structural   LiTiP2O7
_chemical_formula_sum   'Li4 Ti4 P8 O28'
_cell_volume   544.56331408
_cell_formula_units_Z   4
loop_
 _symmetry_equiv_pos_site_id
 _symmetry_equiv_pos_as_xyz
  1  'x, y, z'
loop_
 _atom_site_type_symbol
 _atom_site_label
 _atom_site_symmetry_multiplicity
 _atom_site_fract_x
 _atom_site_fract_y
 _atom_site_fract_z
 _atom_site_occupancy
  Li  Li0  1  0.361555  0.834839  0.425031  1
  Li  Li1  1  0.361555  0.665161  0.925031  1
  Li  Li2  1  0.638445  0.334839  0.074969  1
  Li  Li3  1  0.638445  0.165161  0.574969  1
  Ti  Ti4  1  0.272215  0.391711  0.247962  1
  Ti  Ti5  1  0.272215  0.108289  0.747962  1
  Ti  Ti6  1  0.727785  0.891711  0.252038  1
  Ti  Ti7  1  0.727785  0.608289  0.752038  1
  P  P8  1  0.021744  0.151713  0.291560  1
  P  P9  1  0.021744  0.348287  0.791560  1
  P  P10  1  0.364395  0.092129  0.195597  1
  P  P11  1  0.364395  0.407871  0.695597  1
  P  P12  1  0.635605  0.592129  0.304403  1
  P  P13  1  0.635605  0.907871  0.804403  1
  P  P14  1  0.978256  0.651713  0.208440  1
  P  P15  1  0.978256  0.848287  0.708440  1
  O  O16  1  0.988497  0.293022  0.230594  1
  O  O17  1  0.173375  0.134118  0.487717  1
  O  O18  1  0.178147  0.580043  0.246989  1
  O  O19  1  0.127352  0.079269  0.169880  1
  O  O20  1  0.988497  0.206978  0.730594  1
  O  O21  1  0.173375  0.365882  0.987717  1
  O  O22  1  0.367300  0.395553  0.508946  1
  O  O23  1  0.178147  0.919957  0.746989  1
  O  O24  1  0.127352  0.420731  0.669880  1
  O  O25  1  0.453071  0.213170  0.309709  1
  O  O26  1  0.367300  0.104447  0.008946  1
  O  O27  1  0.533159  0.466885  0.210435  1
  O  O28  1  0.466841  0.966885  0.289565  1
  O  O29  1  0.453071  0.286830  0.809709  1
  O  O30  1  0.546929  0.713170  0.190291  1
  O  O31  1  0.533159  0.033115  0.710435  1
  O  O32  1  0.466841  0.533115  0.789565  1
  O  O33  1  0.632700  0.895553  0.991054  1
  O  O34  1  0.546929  0.786830  0.690291  1
  O  O35  1  0.872648  0.579269  0.330120  1
  O  O36  1  0.821853  0.080043  0.253011  1
  O  O37  1  0.632700  0.604447  0.491054  1
  O  O38  1  0.826625  0.634118  0.012283  1
  O  O39  1  0.011503  0.793022  0.269406  1
  O  O40  1  0.872648  0.920731  0.830120  1
  O  O41  1  0.821853  0.419957  0.753011  1
  O  O42  1  0.826625  0.865882  0.512283  1
  O  O43  1  0.011503  0.706978  0.769406  1
