# generated using pymatgen
data_Li3Fe4SbO8
_symmetry_space_group_name_H-M   'P 1'
_cell_length_a   6.07940357
_cell_length_b   6.07940357
_cell_length_c   6.28245667
_cell_angle_alpha   59.88876527
_cell_angle_beta   120.11123473
_cell_angle_gamma   117.60687529
_symmetry_Int_Tables_number   1
_chemical_formula_structural   Li3Fe4SbO8
_chemical_formula_sum   'Li3 Fe4 Sb1 O8'
_cell_volume   166.65547305
_cell_formula_units_Z   1
loop_
 _symmetry_equiv_pos_site_id
 _symmetry_equiv_pos_as_xyz
  1  'x, y, z'
loop_
 _atom_site_type_symbol
 _atom_site_label
 _atom_site_symmetry_multiplicity
 _atom_site_fract_x
 _atom_site_fract_y
 _atom_site_fract_z
 _atom_site_occupancy
  Li  Li0  1  0.000000  0.500000  0.500000  1
  Li  Li1  1  0.500000  0.000000  0.500000  1
  Li  Li2  1  0.000000  0.000000  0.000000  1
  Fe  Fe3  1  0.000000  0.000000  0.500000  1
  Fe  Fe4  1  0.500000  1.000000  0.000000  1
  Fe  Fe5  1  0.000000  0.500000  0.000000  1
  Fe  Fe6  1  0.500000  0.500000  0.000000  1
  Sb  Sb7  1  0.500000  0.500000  0.500000  1
  O  O8  1  0.739174  0.260826  0.745876  1
  O  O9  1  0.277502  0.264682  0.276243  1
  O  O10  1  0.735318  0.722498  0.276243  1
  O  O11  1  0.260826  0.739174  0.254124  1
  O  O12  1  0.249210  0.750790  0.771271  1
  O  O13  1  0.722498  0.735318  0.723757  1
  O  O14  1  0.264682  0.277502  0.723757  1
  O  O15  1  0.750790  0.249210  0.228729  1
