# generated using pymatgen
data_TiGeO3
_symmetry_space_group_name_H-M   'P 1'
_cell_length_a   7.08193463
_cell_length_b   7.08193463
_cell_length_c   7.08193463
_cell_angle_alpha   41.73268520
_cell_angle_beta   41.73268520
_cell_angle_gamma   41.73268520
_symmetry_Int_Tables_number   1
_chemical_formula_structural   TiGeO3
_chemical_formula_sum   'Ti2 Ge2 O6'
_cell_volume   142.28732011
_cell_formula_units_Z   2
loop_
 _symmetry_equiv_pos_site_id
 _symmetry_equiv_pos_as_xyz
  1  'x, y, z'
loop_
 _atom_site_type_symbol
 _atom_site_label
 _atom_site_symmetry_multiplicity
 _atom_site_fract_x
 _atom_site_fract_y
 _atom_site_fract_z
 _atom_site_occupancy
  Ti  Ti0  1  0.837470  0.837470  0.837470  1
  Ti  Ti1  1  0.162530  0.162530  0.162530  1
  Ge  Ge2  1  0.606416  0.606416  0.606416  1
  Ge  Ge3  1  0.393584  0.393584  0.393584  1
  O  O4  1  0.212709  0.556086  0.898310  1
  O  O5  1  0.898310  0.212709  0.556086  1
  O  O6  1  0.556086  0.898310  0.212709  1
  O  O7  1  0.443914  0.101690  0.787291  1
  O  O8  1  0.101690  0.787291  0.443914  1
  O  O9  1  0.787291  0.443914  0.101690  1
