# generated using pymatgen
data_Li3Fe3CoO8
_symmetry_space_group_name_H-M   'P 1'
_cell_length_a   5.91604594
_cell_length_b   5.91604594
_cell_length_c   5.04062000
_cell_angle_alpha   73.96329698
_cell_angle_beta   106.03670302
_cell_angle_gamma   120.68592976
_symmetry_Int_Tables_number   1
_chemical_formula_structural   Li3Fe3CoO8
_chemical_formula_sum   'Li3 Fe3 Co1 O8'
_cell_volume   143.84671656
_cell_formula_units_Z   1
loop_
 _symmetry_equiv_pos_site_id
 _symmetry_equiv_pos_as_xyz
  1  'x, y, z'
loop_
 _atom_site_type_symbol
 _atom_site_label
 _atom_site_symmetry_multiplicity
 _atom_site_fract_x
 _atom_site_fract_y
 _atom_site_fract_z
 _atom_site_occupancy
  Li  Li0  1  0.752337  0.247663  0.508023  1
  Li  Li1  1  0.010636  0.511428  0.003101  1
  Li  Li2  1  0.488572  0.989364  0.003101  1
  Fe  Fe3  1  0.756543  0.754705  0.499790  1
  Fe  Fe4  1  0.245295  0.243457  0.499790  1
  Fe  Fe5  1  0.498303  0.501697  0.994901  1
  Co  Co6  1  0.001265  0.998735  0.004292  1
  O  O7  1  0.847979  0.635235  0.221622  1
  O  O8  1  0.364765  0.152021  0.221622  1
  O  O9  1  0.610470  0.389530  0.749298  1
  O  O10  1  0.109916  0.890084  0.757758  1
  O  O11  1  0.886458  0.113542  0.255652  1
  O  O12  1  0.391872  0.608128  0.236563  1
  O  O13  1  0.652280  0.863964  0.778124  1
  O  O14  1  0.136036  0.347720  0.778124  1
