# generated using pymatgen
data_Li2Cr3SnO8
_symmetry_space_group_name_H-M   'P 1'
_cell_length_a   6.11797842
_cell_length_b   6.11797842
_cell_length_c   6.11797842
_cell_angle_alpha   58.51400928
_cell_angle_beta   58.51400928
_cell_angle_gamma   58.51400928
_symmetry_Int_Tables_number   1
_chemical_formula_structural   Li2Cr3SnO8
_chemical_formula_sum   'Li2 Cr3 Sn1 O8'
_cell_volume   156.41923586
_cell_formula_units_Z   1
loop_
 _symmetry_equiv_pos_site_id
 _symmetry_equiv_pos_as_xyz
  1  'x, y, z'
loop_
 _atom_site_type_symbol
 _atom_site_label
 _atom_site_symmetry_multiplicity
 _atom_site_fract_x
 _atom_site_fract_y
 _atom_site_fract_z
 _atom_site_occupancy
  Li  Li0  1  0.879915  0.879915  0.879915  1
  Li  Li1  1  0.120085  0.120085  0.120085  1
  Cr  Cr2  1  0.500000  0.500000  0.000000  1
  Cr  Cr3  1  0.000000  0.500000  0.500000  1
  Cr  Cr4  1  0.500000  0.000000  0.500000  1
  Sn  Sn5  1  0.500000  0.500000  0.500000  1
  O  O6  1  0.730966  0.730966  0.730966  1
  O  O7  1  0.743812  0.283700  0.743812  1
  O  O8  1  0.283700  0.743812  0.743812  1
  O  O9  1  0.743812  0.743812  0.283700  1
  O  O10  1  0.256188  0.256188  0.716300  1
  O  O11  1  0.716300  0.256188  0.256188  1
  O  O12  1  0.256188  0.716300  0.256188  1
  O  O13  1  0.269034  0.269034  0.269034  1
