# generated using pymatgen
data_SmY15O24
_symmetry_space_group_name_H-M   'P 1'
_cell_length_a   9.28561251
_cell_length_b   9.28561251
_cell_length_c   10.72652943
_cell_angle_alpha   54.79838781
_cell_angle_beta   125.20161219
_cell_angle_gamma   109.40569876
_symmetry_Int_Tables_number   1
_chemical_formula_structural   SmY15O24
_chemical_formula_sum   'Sm1 Y15 O24'
_cell_volume   617.53452992
_cell_formula_units_Z   1
loop_
 _symmetry_equiv_pos_site_id
 _symmetry_equiv_pos_as_xyz
  1  'x, y, z'
loop_
 _atom_site_type_symbol
 _atom_site_label
 _atom_site_symmetry_multiplicity
 _atom_site_fract_x
 _atom_site_fract_y
 _atom_site_fract_z
 _atom_site_occupancy
  Sm  Sm0  1  0.032214  0.032214  0.500000  1
  Y  Y1  1  0.967081  0.967081  0.000000  1
  Y  Y2  1  0.999963  0.501253  0.249312  1
  Y  Y3  1  0.716052  0.782389  0.216185  1
  Y  Y4  1  0.782389  0.716052  0.783815  1
  Y  Y5  1  0.250354  0.748866  0.968448  1
  Y  Y6  1  0.250493  0.749691  0.466839  1
  Y  Y7  1  0.501253  0.999963  0.750688  1
  Y  Y8  1  0.999946  0.498533  0.751224  1
  Y  Y9  1  0.498533  0.999946  0.248776  1
  Y  Y10  1  0.533077  0.533077  0.500000  1
  Y  Y11  1  0.466869  0.466869  0.000000  1
  Y  Y12  1  0.749691  0.250493  0.533161  1
  Y  Y13  1  0.748866  0.250354  0.031552  1
  Y  Y14  1  0.217357  0.283884  0.717267  1
  Y  Y15  1  0.283884  0.217357  0.282733  1
  O  O16  1  0.456761  0.759981  0.218549  1
  O  O17  1  0.042512  0.739251  0.022007  1
  O  O18  1  0.031269  0.274979  0.234978  1
  O  O19  1  0.728698  0.968213  0.739287  1
  O  O20  1  0.532182  0.771929  0.520580  1
  O  O21  1  0.229159  0.467663  0.021094  1
  O  O22  1  0.759981  0.456761  0.781451  1
  O  O23  1  0.739251  0.042512  0.977993  1
  O  O24  1  0.228881  0.010776  0.207067  1
  O  O25  1  0.989032  0.765927  0.711800  1
  O  O26  1  0.510745  0.729050  0.988704  1
  O  O27  1  0.270923  0.489171  0.488825  1
  O  O28  1  0.010776  0.228881  0.792933  1
  O  O29  1  0.489171  0.270923  0.511175  1
  O  O30  1  0.765927  0.989032  0.288200  1
  O  O31  1  0.729050  0.510745  0.011296  1
  O  O32  1  0.238645  0.543160  0.717766  1
  O  O33  1  0.265664  0.957397  0.522497  1
  O  O34  1  0.771929  0.532182  0.479420  1
  O  O35  1  0.467663  0.229159  0.978906  1
  O  O36  1  0.274979  0.031269  0.765022  1
  O  O37  1  0.968213  0.728698  0.260713  1
  O  O38  1  0.543160  0.238645  0.282234  1
  O  O39  1  0.957397  0.265664  0.477503  1
