# generated using pymatgen
data_LiVCrP2(O4F)2
_symmetry_space_group_name_H-M   'P 1'
_cell_length_a   6.87950588
_cell_length_b   7.32622708
_cell_length_c   7.93949467
_cell_angle_alpha   87.31985197
_cell_angle_beta   87.96919930
_cell_angle_gamma   62.23224883
_symmetry_Int_Tables_number   1
_chemical_formula_structural   LiVCrP2(O4F)2
_chemical_formula_sum   'Li2 V2 Cr2 P4 O16 F4'
_cell_volume   353.64680889
_cell_formula_units_Z   2
loop_
 _symmetry_equiv_pos_site_id
 _symmetry_equiv_pos_as_xyz
  1  'x, y, z'
loop_
 _atom_site_type_symbol
 _atom_site_label
 _atom_site_symmetry_multiplicity
 _atom_site_fract_x
 _atom_site_fract_y
 _atom_site_fract_z
 _atom_site_occupancy
  Li  Li0  1  0.248938  0.819263  0.320431  1
  Li  Li1  1  0.751062  0.180737  0.679569  1
  V  V2  1  0.000000  0.000000  0.000000  1
  V  V3  1  0.500000  0.000000  0.500000  1
  Cr  Cr4  1  0.500000  0.500000  0.000000  1
  Cr  Cr5  1  0.000000  0.500000  0.500000  1
  P  P6  1  0.275105  0.244389  0.839622  1
  P  P7  1  0.778197  0.241205  0.338006  1
  P  P8  1  0.221803  0.758795  0.661994  1
  P  P9  1  0.724895  0.755611  0.160378  1
  O  O10  1  0.413052  0.602525  0.765100  1
  O  O11  1  0.293068  0.911389  0.563086  1
  O  O12  1  0.203727  0.086433  0.929796  1
  O  O13  1  0.337806  0.338790  0.981030  1
  O  O14  1  0.080481  0.396346  0.734837  1
  O  O15  1  0.836154  0.334189  0.486573  1
  O  O16  1  0.014634  0.895987  0.768349  1
  O  O17  1  0.481375  0.118603  0.724355  1
  O  O18  1  0.518625  0.881397  0.275645  1
  O  O19  1  0.985366  0.104013  0.231651  1
  O  O20  1  0.163846  0.665811  0.513427  1
  O  O21  1  0.919519  0.603654  0.265163  1
  O  O22  1  0.662194  0.661210  0.018970  1
  O  O23  1  0.796273  0.913567  0.070204  1
  O  O24  1  0.706932  0.088611  0.436914  1
  O  O25  1  0.586948  0.397475  0.234900  1
  F  F26  1  0.765678  0.262918  0.905823  1
  F  F27  1  0.731126  0.738596  0.584198  1
  F  F28  1  0.268874  0.261404  0.415802  1
  F  F29  1  0.234322  0.737082  0.094177  1
