# generated using pymatgen
data_Li4Fe2Ni3Sn(PO4)6
_symmetry_space_group_name_H-M   'P 1'
_cell_length_a   8.46631422
_cell_length_b   8.60338437
_cell_length_c   8.60606834
_cell_angle_alpha   62.38204903
_cell_angle_beta   62.76491841
_cell_angle_gamma   62.84222532
_symmetry_Int_Tables_number   1
_chemical_formula_structural   Li4Fe2Ni3Sn(PO4)6
_chemical_formula_sum   'Li4 Fe2 Ni3 Sn1 P6 O24'
_cell_volume   469.51241677
_cell_formula_units_Z   1
loop_
 _symmetry_equiv_pos_site_id
 _symmetry_equiv_pos_as_xyz
  1  'x, y, z'
loop_
 _atom_site_type_symbol
 _atom_site_label
 _atom_site_symmetry_multiplicity
 _atom_site_fract_x
 _atom_site_fract_y
 _atom_site_fract_z
 _atom_site_occupancy
  Li  Li0  1  0.254927  0.647060  0.850508  1
  Li  Li1  1  0.701201  0.358794  0.158100  1
  Li  Li2  1  0.362595  0.152456  0.701074  1
  Li  Li3  1  0.151846  0.697006  0.362067  1
  Fe  Fe4  1  0.984989  0.999438  0.995999  1
  Fe  Fe5  1  0.512457  0.501932  0.497013  1
  Ni  Ni6  1  0.857458  0.853004  0.851543  1
  Ni  Ni7  1  0.644061  0.647915  0.645665  1
  Ni  Ni8  1  0.353760  0.349301  0.352300  1
  Sn  Sn9  1  0.146965  0.148361  0.152617  1
  P  P10  1  0.749753  0.045424  0.458666  1
  P  P11  1  0.447352  0.749385  0.043582  1
  P  P12  1  0.055728  0.458833  0.752416  1
  P  P13  1  0.943752  0.557185  0.255603  1
  P  P14  1  0.559770  0.252760  0.946506  1
  P  P15  1  0.254128  0.946341  0.557783  1
  O  O16  1  0.889300  0.503723  0.700080  1
  O  O17  1  0.689650  0.892354  0.485420  1
  O  O18  1  0.946499  0.737697  0.088400  1
  O  O19  1  0.451242  0.694601  0.896289  1
  O  O20  1  0.978762  0.394834  0.193817  1
  O  O21  1  0.750685  0.572471  0.404024  1
  O  O22  1  0.749264  0.099486  0.924360  1
  O  O23  1  0.550326  0.415676  0.764559  1
  O  O24  1  0.825886  0.011819  0.602763  1
  O  O25  1  0.401797  0.752067  0.573888  1
  O  O26  1  0.898561  0.082468  0.249224  1
  O  O27  1  0.606294  0.815978  0.991966  1
  O  O28  1  0.398888  0.180867  0.988466  1
  O  O29  1  0.101497  0.923186  0.750540  1
  O  O30  1  0.592668  0.241974  0.437940  1
  O  O31  1  0.189072  0.981484  0.397837  1
  O  O32  1  0.436257  0.590985  0.238193  1
  O  O33  1  0.241758  0.901908  0.085504  1
  O  O34  1  0.250257  0.433242  0.591924  1
  O  O35  1  0.046465  0.598803  0.820384  1
  O  O36  1  0.525274  0.311871  0.106172  1
  O  O37  1  0.081006  0.252929  0.902995  1
  O  O38  1  0.315922  0.104752  0.522559  1
  O  O39  1  0.101930  0.516630  0.324258  1
