# generated using pymatgen
data_TiVO3
_symmetry_space_group_name_H-M   'P 1'
_cell_length_a   5.15066739
_cell_length_b   5.55205464
_cell_length_c   7.62171048
_cell_angle_alpha   83.97212995
_cell_angle_beta   89.78396753
_cell_angle_gamma   89.88745469
_symmetry_Int_Tables_number   1
_chemical_formula_structural   TiVO3
_chemical_formula_sum   'Ti4 V4 O12'
_cell_volume   216.74952376
_cell_formula_units_Z   4
loop_
 _symmetry_equiv_pos_site_id
 _symmetry_equiv_pos_as_xyz
  1  'x, y, z'
loop_
 _atom_site_type_symbol
 _atom_site_label
 _atom_site_symmetry_multiplicity
 _atom_site_fract_x
 _atom_site_fract_y
 _atom_site_fract_z
 _atom_site_occupancy
  Ti  Ti0  1  0.501053  0.797424  0.145390  1
  Ti  Ti1  1  0.495913  0.188682  0.349474  1
  Ti  Ti2  1  0.999288  0.303850  0.646612  1
  Ti  Ti3  1  0.503292  0.204950  0.856516  1
  V  V4  1  0.000609  0.302699  0.155087  1
  V  V5  1  0.999708  0.694941  0.349589  1
  V  V6  1  0.498866  0.808142  0.647652  1
  V  V7  1  0.999844  0.698115  0.847833  1
  O  O8  1  0.321901  0.498766  0.248759  1
  O  O9  1  0.832563  0.660902  0.103523  1
  O  O10  1  0.656332  0.853178  0.394257  1
  O  O11  1  0.201713  0.992850  0.256196  1
  O  O12  1  0.636784  0.157859  0.092939  1
  O  O13  1  0.147124  0.641508  0.592202  1
  O  O14  1  0.837217  0.339370  0.413052  1
  O  O15  1  0.363161  0.849467  0.912395  1
  O  O16  1  0.335152  0.160420  0.591983  1
  O  O17  1  0.170440  0.339813  0.896674  1
  O  O18  1  0.691540  0.483727  0.752906  1
  O  O19  1  0.807499  0.023338  0.746961  1
