# generated using pymatgen
data_LiWF6
_symmetry_space_group_name_H-M   'P 1'
_cell_length_a   8.97323670
_cell_length_b   5.23018170
_cell_length_c   10.24825079
_cell_angle_alpha   90.00000000
_cell_angle_beta   92.00601482
_cell_angle_gamma   90.00000000
_symmetry_Int_Tables_number   1
_chemical_formula_structural   LiWF6
_chemical_formula_sum   'Li4 W4 F24'
_cell_volume   480.67264759
_cell_formula_units_Z   4
loop_
 _symmetry_equiv_pos_site_id
 _symmetry_equiv_pos_as_xyz
  1  'x, y, z'
loop_
 _atom_site_type_symbol
 _atom_site_label
 _atom_site_symmetry_multiplicity
 _atom_site_fract_x
 _atom_site_fract_y
 _atom_site_fract_z
 _atom_site_occupancy
  Li  Li0  1  0.605326  0.604655  0.918833  1
  Li  Li1  1  0.394674  0.104655  0.581167  1
  Li  Li2  1  0.605326  0.895345  0.418833  1
  Li  Li3  1  0.394674  0.395345  0.081167  1
  W  W4  1  0.239066  0.896405  0.869252  1
  W  W5  1  0.760934  0.396405  0.630748  1
  W  W6  1  0.239066  0.603595  0.369252  1
  W  W7  1  0.760934  0.103595  0.130748  1
  F  F8  1  0.258089  0.195344  0.984818  1
  F  F9  1  0.406738  0.714035  0.976012  1
  F  F10  1  0.103129  0.764829  0.988753  1
  F  F11  1  0.096390  0.071884  0.759639  1
  F  F12  1  0.394809  0.058848  0.762948  1
  F  F13  1  0.256456  0.617279  0.752739  1
  F  F14  1  0.743544  0.117279  0.747261  1
  F  F15  1  0.903610  0.571884  0.740361  1
  F  F16  1  0.605191  0.558848  0.737052  1
  F  F17  1  0.896871  0.264829  0.511247  1
  F  F18  1  0.593262  0.214035  0.523988  1
  F  F19  1  0.741911  0.695344  0.515182  1
  F  F20  1  0.258089  0.304656  0.484818  1
  F  F21  1  0.103129  0.735171  0.488753  1
  F  F22  1  0.406738  0.785965  0.476012  1
  F  F23  1  0.096390  0.428116  0.259639  1
  F  F24  1  0.394809  0.441152  0.262948  1
  F  F25  1  0.256456  0.882721  0.252739  1
  F  F26  1  0.743544  0.382721  0.247261  1
  F  F27  1  0.605191  0.941152  0.237052  1
  F  F28  1  0.903610  0.928116  0.240361  1
  F  F29  1  0.896871  0.235171  0.011247  1
  F  F30  1  0.593262  0.285965  0.023988  1
  F  F31  1  0.741911  0.804656  0.015182  1
