# generated using pymatgen
data_TbZr4O10
_symmetry_space_group_name_H-M   'P 1'
_cell_length_a   6.37894122
_cell_length_b   6.37894122
_cell_length_c   6.37894122
_cell_angle_alpha   99.54198690
_cell_angle_beta   99.54198690
_cell_angle_gamma   131.94826839
_symmetry_Int_Tables_number   1
_chemical_formula_structural   TbZr4O10
_chemical_formula_sum   'Tb1 Zr4 O10'
_cell_volume   176.32537762
_cell_formula_units_Z   1
loop_
 _symmetry_equiv_pos_site_id
 _symmetry_equiv_pos_as_xyz
  1  'x, y, z'
loop_
 _atom_site_type_symbol
 _atom_site_label
 _atom_site_symmetry_multiplicity
 _atom_site_fract_x
 _atom_site_fract_y
 _atom_site_fract_z
 _atom_site_occupancy
  Tb  Tb0  1  0.500000  0.500000  0.000000  1
  Zr  Zr1  1  0.700062  0.102293  0.802355  1
  Zr  Zr2  1  0.299938  0.897707  0.197645  1
  Zr  Zr3  1  0.102293  0.299938  0.402231  1
  Zr  Zr4  1  0.897707  0.700062  0.597769  1
  O  O5  1  0.140302  0.449618  0.106330  1
  O  O6  1  0.656711  0.966028  0.106330  1
  O  O7  1  0.750000  0.250000  0.500000  1
  O  O8  1  0.343289  0.033972  0.893670  1
  O  O9  1  0.250000  0.750000  0.500000  1
  O  O10  1  0.033972  0.140302  0.690684  1
  O  O11  1  0.550382  0.656711  0.690684  1
  O  O12  1  0.859698  0.550382  0.893670  1
  O  O13  1  0.449618  0.343289  0.309316  1
  O  O14  1  0.966028  0.859698  0.309316  1
