# generated using pymatgen
data_Ti11O14
_symmetry_space_group_name_H-M   'P 1'
_cell_length_a   5.07661824
_cell_length_b   5.10822353
_cell_length_c   10.69932597
_cell_angle_alpha   85.73210252
_cell_angle_beta   103.67013013
_cell_angle_gamma   109.12321089
_symmetry_Int_Tables_number   1
_chemical_formula_structural   Ti11O14
_chemical_formula_sum   'Ti11 O14'
_cell_volume   254.72158879
_cell_formula_units_Z   1
loop_
 _symmetry_equiv_pos_site_id
 _symmetry_equiv_pos_as_xyz
  1  'x, y, z'
loop_
 _atom_site_type_symbol
 _atom_site_label
 _atom_site_symmetry_multiplicity
 _atom_site_fract_x
 _atom_site_fract_y
 _atom_site_fract_z
 _atom_site_occupancy
  Ti  Ti0  1  0.848190  0.986061  0.718901  1
  Ti  Ti1  1  0.573551  0.005422  0.144779  1
  Ti  Ti2  1  0.713023  0.000424  0.425858  1
  Ti  Ti3  1  0.511767  0.494075  0.015838  1
  Ti  Ti4  1  0.930605  0.500876  0.866876  1
  Ti  Ti5  1  0.776161  0.500034  0.555702  1
  Ti  Ti6  1  0.143596  0.001885  0.285616  1
  Ti  Ti7  1  0.428241  0.994263  0.850367  1
  Ti  Ti8  1  0.214744  0.500578  0.431534  1
  Ti  Ti9  1  0.060266  0.497289  0.138371  1
  Ti  Ti10  1  0.367323  0.509042  0.705381  1
  O  O11  1  0.388739  0.745129  0.284582  1
  O  O12  1  0.258443  0.756975  0.002525  1
  O  O13  1  0.459229  0.248657  0.425095  1
  O  O14  1  0.317779  0.248756  0.145458  1
  O  O15  1  0.824530  0.753179  0.146617  1
  O  O16  1  0.964699  0.753392  0.425251  1
  O  O17  1  0.095863  0.733978  0.712122  1
  O  O18  1  0.892331  0.257664  0.286302  1
  O  O19  1  0.673379  0.737964  0.863943  1
  O  O20  1  0.747730  0.231697  0.998903  1
  O  O21  1  0.032946  0.241088  0.572099  1
  O  O22  1  0.534996  0.764351  0.566693  1
  O  O23  1  0.189195  0.260782  0.854941  1
  O  O24  1  0.617182  0.258276  0.711992  1
