# generated using pymatgen
data_Fe4O7F
_symmetry_space_group_name_H-M   'P 1'
_cell_length_a   7.08957585
_cell_length_b   7.08957585
_cell_length_c   6.63558380
_cell_angle_alpha   90.00000000
_cell_angle_beta   90.00000000
_cell_angle_gamma   129.67261235
_symmetry_Int_Tables_number   1
_chemical_formula_structural   Fe4O7F
_chemical_formula_sum   'Fe8 O14 F2'
_cell_volume   256.71062271
_cell_formula_units_Z   2
loop_
 _symmetry_equiv_pos_site_id
 _symmetry_equiv_pos_as_xyz
  1  'x, y, z'
loop_
 _atom_site_type_symbol
 _atom_site_label
 _atom_site_symmetry_multiplicity
 _atom_site_fract_x
 _atom_site_fract_y
 _atom_site_fract_z
 _atom_site_occupancy
  Fe  Fe0  1  0.124343  0.875657  0.979381  1
  Fe  Fe1  1  0.625611  0.374389  0.006699  1
  Fe  Fe2  1  0.384575  0.134416  0.507828  1
  Fe  Fe3  1  0.865584  0.615425  0.507828  1
  Fe  Fe4  1  0.615425  0.865584  0.007828  1
  Fe  Fe5  1  0.134416  0.384575  0.007828  1
  Fe  Fe6  1  0.875657  0.124343  0.479381  1
  Fe  Fe7  1  0.374389  0.625611  0.506699  1
  O  O8  1  0.775748  0.719328  0.000792  1
  O  O9  1  0.280672  0.224252  0.000792  1
  O  O10  1  0.124043  0.875957  0.682568  1
  O  O11  1  0.625943  0.374057  0.703058  1
  O  O12  1  0.373333  0.626667  0.812241  1
  O  O13  1  0.626667  0.373333  0.312241  1
  O  O14  1  0.473062  0.029644  0.000296  1
  O  O15  1  0.970356  0.526938  0.000296  1
  O  O16  1  0.719328  0.775748  0.500792  1
  O  O17  1  0.224252  0.280672  0.500792  1
  O  O18  1  0.029644  0.473062  0.500296  1
  O  O19  1  0.526938  0.970356  0.500296  1
  O  O20  1  0.875957  0.124043  0.182568  1
  O  O21  1  0.374057  0.625943  0.203058  1
  F  F22  1  0.123971  0.876029  0.298221  1
  F  F23  1  0.876029  0.123971  0.798221  1
