# generated using pymatgen
data_Mn5FeO12
_symmetry_space_group_name_H-M   'P 1'
_cell_length_a   5.09481864
_cell_length_b   5.09481864
_cell_length_c   9.82453233
_cell_angle_alpha   89.95261683
_cell_angle_beta   90.04738317
_cell_angle_gamma   59.92415173
_symmetry_Int_Tables_number   1
_chemical_formula_structural   Mn5FeO12
_chemical_formula_sum   'Mn5 Fe1 O12'
_cell_volume   220.68201561
_cell_formula_units_Z   1
loop_
 _symmetry_equiv_pos_site_id
 _symmetry_equiv_pos_as_xyz
  1  'x, y, z'
loop_
 _atom_site_type_symbol
 _atom_site_label
 _atom_site_symmetry_multiplicity
 _atom_site_fract_x
 _atom_site_fract_y
 _atom_site_fract_z
 _atom_site_occupancy
  Mn  Mn0  1  0.833324  0.833324  0.500000  1
  Mn  Mn1  1  0.333267  0.333267  0.000000  1
  Mn  Mn2  1  0.666733  0.666733  0.000000  1
  Mn  Mn3  1  0.166676  0.166676  0.500000  1
  Mn  Mn4  1  0.500000  0.500000  0.500000  1
  Fe  Fe5  1  0.000000  0.000000  0.000000  1
  O  O6  1  0.000144  0.660008  0.098343  1
  O  O7  1  0.660008  0.000144  0.901657  1
  O  O8  1  0.832919  0.500416  0.403161  1
  O  O9  1  0.499584  0.167081  0.403161  1
  O  O10  1  0.500416  0.832919  0.596839  1
  O  O11  1  0.833758  0.166242  0.596853  1
  O  O12  1  0.167081  0.499584  0.596839  1
  O  O13  1  0.339992  0.999856  0.098343  1
  O  O14  1  0.661279  0.338721  0.098052  1
  O  O15  1  0.999856  0.339992  0.901657  1
  O  O16  1  0.338721  0.661279  0.901948  1
  O  O17  1  0.166242  0.833758  0.403147  1
