# generated using pymatgen
data_LiBi6B3O14
_symmetry_space_group_name_H-M   'P 1'
_cell_length_a   8.74146980
_cell_length_b   16.15482239
_cell_length_c   12.65232392
_cell_angle_alpha   90.00000000
_cell_angle_beta   132.43578096
_cell_angle_gamma   90.00000000
_symmetry_Int_Tables_number   1
_chemical_formula_structural   LiBi6B3O14
_chemical_formula_sum   'Li4 Bi24 B12 O56'
_cell_volume   1318.66165708
_cell_formula_units_Z   4
loop_
 _symmetry_equiv_pos_site_id
 _symmetry_equiv_pos_as_xyz
  1  'x, y, z'
loop_
 _atom_site_type_symbol
 _atom_site_label
 _atom_site_symmetry_multiplicity
 _atom_site_fract_x
 _atom_site_fract_y
 _atom_site_fract_z
 _atom_site_occupancy
  Li  Li0  1  0.116941  0.391517  0.938461  1
  Li  Li1  1  0.883059  0.891517  0.561539  1
  Li  Li2  1  0.116941  0.108483  0.438461  1
  Li  Li3  1  0.883059  0.608483  0.061539  1
  Bi  Bi4  1  0.344708  0.011867  0.287423  1
  Bi  Bi5  1  0.987378  0.172750  0.941444  1
  Bi  Bi6  1  0.406988  0.665203  0.333127  1
  Bi  Bi7  1  0.444953  0.321605  0.301636  1
  Bi  Bi8  1  0.766758  0.496983  0.569181  1
  Bi  Bi9  1  0.153346  0.643923  0.932046  1
  Bi  Bi10  1  0.846654  0.143923  0.567954  1
  Bi  Bi11  1  0.233242  0.996983  0.930819  1
  Bi  Bi12  1  0.555047  0.821605  0.198364  1
  Bi  Bi13  1  0.593012  0.165203  0.166873  1
  Bi  Bi14  1  0.655292  0.511867  0.212577  1
  Bi  Bi15  1  0.012622  0.672750  0.558556  1
  Bi  Bi16  1  0.987378  0.327250  0.441444  1
  Bi  Bi17  1  0.344708  0.488133  0.787423  1
  Bi  Bi18  1  0.406988  0.834797  0.833127  1
  Bi  Bi19  1  0.444953  0.178395  0.801636  1
  Bi  Bi20  1  0.766758  0.003017  0.069181  1
  Bi  Bi21  1  0.153346  0.856077  0.432046  1
  Bi  Bi22  1  0.846654  0.356077  0.067954  1
  Bi  Bi23  1  0.233242  0.503017  0.430819  1
  Bi  Bi24  1  0.555047  0.678395  0.698364  1
  Bi  Bi25  1  0.593012  0.334797  0.666873  1
  Bi  Bi26  1  0.012622  0.827250  0.058556  1
  Bi  Bi27  1  0.655292  0.988133  0.712577  1
  B  B28  1  0.206409  0.497298  0.142814  1
  B  B29  1  0.536799  0.830038  0.467950  1
  B  B30  1  0.965591  0.808682  0.776848  1
  B  B31  1  0.034409  0.308682  0.723152  1
  B  B32  1  0.463201  0.330038  0.032050  1
  B  B33  1  0.793591  0.997298  0.357186  1
  B  B34  1  0.206409  0.002702  0.642814  1
  B  B35  1  0.536799  0.669962  0.967950  1
  B  B36  1  0.965591  0.691318  0.276848  1
  B  B37  1  0.034409  0.191318  0.223152  1
  B  B38  1  0.463201  0.169962  0.532050  1
  B  B39  1  0.793591  0.502702  0.857186  1
  O  O40  1  0.458554  0.410901  0.451456  1
  O  O41  1  0.145210  0.414502  0.111970  1
  O  O42  1  0.526985  0.913659  0.485417  1
  O  O43  1  0.559536  0.226101  0.508410  1
  O  O44  1  0.827373  0.452806  0.786015  1
  O  O45  1  0.907078  0.748143  0.823713  1
  O  O46  1  0.278839  0.728124  0.123365  1
  O  O47  1  0.291126  0.907476  0.133522  1
  O  O48  1  0.945689  0.891000  0.795009  1
  O  O49  1  0.938550  0.081362  0.785187  1
  O  O50  1  0.302271  0.091587  0.105148  1
  O  O51  1  0.948678  0.284643  0.779550  1
  O  O52  1  0.303101  0.529768  0.098259  1
  O  O53  1  0.631202  0.798181  0.422016  1
  O  O54  1  0.368798  0.298181  0.077984  1
  O  O55  1  0.696899  0.029768  0.401741  1
  O  O56  1  0.697729  0.591587  0.394852  1
  O  O57  1  0.708874  0.407476  0.366478  1
  O  O58  1  0.051322  0.784643  0.720450  1
  O  O59  1  0.721161  0.228124  0.376635  1
  O  O60  1  0.061450  0.581362  0.714813  1
  O  O61  1  0.054311  0.391000  0.704991  1
  O  O62  1  0.473015  0.413659  0.014583  1
  O  O63  1  0.092922  0.248143  0.676287  1
  O  O64  1  0.854790  0.914502  0.388030  1
  O  O65  1  0.172627  0.952806  0.713985  1
  O  O66  1  0.440464  0.726101  0.991590  1
  O  O67  1  0.541446  0.910901  0.048544  1
  O  O68  1  0.458554  0.089099  0.951456  1
  O  O69  1  0.559536  0.273899  0.008410  1
  O  O70  1  0.827373  0.047194  0.286015  1
  O  O71  1  0.145210  0.085498  0.611970  1
  O  O72  1  0.907078  0.751857  0.323713  1
  O  O73  1  0.526985  0.586341  0.985417  1
  O  O74  1  0.945689  0.609000  0.295009  1
  O  O75  1  0.938550  0.418638  0.285187  1
  O  O76  1  0.278839  0.771876  0.623365  1
  O  O77  1  0.948678  0.215357  0.279550  1
  O  O78  1  0.291126  0.592524  0.633522  1
  O  O79  1  0.302271  0.408413  0.605148  1
  O  O80  1  0.303101  0.970232  0.598259  1
  O  O81  1  0.631202  0.701819  0.922016  1
  O  O82  1  0.368798  0.201819  0.577984  1
  O  O83  1  0.696899  0.470232  0.901741  1
  O  O84  1  0.051322  0.715357  0.220450  1
  O  O85  1  0.697729  0.908413  0.894852  1
  O  O86  1  0.061450  0.918638  0.214813  1
  O  O87  1  0.054311  0.109000  0.204991  1
  O  O88  1  0.708874  0.092524  0.866478  1
  O  O89  1  0.721161  0.271876  0.876635  1
  O  O90  1  0.092922  0.251857  0.176287  1
  O  O91  1  0.172627  0.547194  0.213985  1
  O  O92  1  0.440464  0.773899  0.491590  1
  O  O93  1  0.473015  0.086341  0.514583  1
  O  O94  1  0.854790  0.585498  0.888030  1
  O  O95  1  0.541446  0.589099  0.548544  1
