# generated using pymatgen
data_VFe(PO4)2
_symmetry_space_group_name_H-M   'P 1'
_cell_length_a   4.91267515
_cell_length_b   5.91667045
_cell_length_c   10.04818270
_cell_angle_alpha   90.00000000
_cell_angle_beta   90.15216564
_cell_angle_gamma   90.00000000
_symmetry_Int_Tables_number   1
_chemical_formula_structural   VFe(PO4)2
_chemical_formula_sum   'V2 Fe2 P4 O16'
_cell_volume   292.06628022
_cell_formula_units_Z   2
loop_
 _symmetry_equiv_pos_site_id
 _symmetry_equiv_pos_as_xyz
  1  'x, y, z'
loop_
 _atom_site_type_symbol
 _atom_site_label
 _atom_site_symmetry_multiplicity
 _atom_site_fract_x
 _atom_site_fract_y
 _atom_site_fract_z
 _atom_site_occupancy
  V  V0  1  0.523013  0.250000  0.228380  1
  V  V1  1  0.476987  0.750000  0.771620  1
  Fe  Fe2  1  0.029445  0.750000  0.272604  1
  Fe  Fe3  1  0.970555  0.250000  0.727396  1
  P  P4  1  0.584886  0.750000  0.098813  1
  P  P5  1  0.085831  0.250000  0.403795  1
  P  P6  1  0.914169  0.750000  0.596205  1
  P  P7  1  0.415114  0.250000  0.901187  1
  O  O8  1  0.357717  0.250000  0.050327  1
  O  O9  1  0.278247  0.750000  0.123246  1
  O  O10  1  0.734001  0.951794  0.171799  1
  O  O11  1  0.734001  0.548206  0.171799  1
  O  O12  1  0.234164  0.047024  0.330060  1
  O  O13  1  0.234164  0.452976  0.330060  1
  O  O14  1  0.782559  0.250000  0.375776  1
  O  O15  1  0.855400  0.750000  0.447455  1
  O  O16  1  0.144600  0.250000  0.552545  1
  O  O17  1  0.217441  0.750000  0.624224  1
  O  O18  1  0.765836  0.952976  0.669940  1
  O  O19  1  0.765836  0.547024  0.669940  1
  O  O20  1  0.265999  0.451794  0.828201  1
  O  O21  1  0.265999  0.048206  0.828201  1
  O  O22  1  0.721753  0.250000  0.876754  1
  O  O23  1  0.642283  0.750000  0.949673  1
