# generated using pymatgen
data_Na6Ni2As(CO4)4
_symmetry_space_group_name_H-M   'P 1'
_cell_length_a   9.88804602
_cell_length_b   9.88804602
_cell_length_c   9.88804602
_cell_angle_alpha   60.00000000
_cell_angle_beta   60.00000000
_cell_angle_gamma   60.00000000
_symmetry_Int_Tables_number   1
_chemical_formula_structural   Na6Ni2As(CO4)4
_chemical_formula_sum   'Na12 Ni4 As2 C8 O32'
_cell_volume   683.62264222
_cell_formula_units_Z   2
loop_
 _symmetry_equiv_pos_site_id
 _symmetry_equiv_pos_as_xyz
  1  'x, y, z'
loop_
 _atom_site_type_symbol
 _atom_site_label
 _atom_site_symmetry_multiplicity
 _atom_site_fract_x
 _atom_site_fract_y
 _atom_site_fract_z
 _atom_site_occupancy
  Na  Na0  1  0.965171  0.534829  0.965171  1
  Na  Na1  1  0.534829  0.965171  0.965171  1
  Na  Na2  1  0.284829  0.715171  0.715171  1
  Na  Na3  1  0.534829  0.965171  0.534829  1
  Na  Na4  1  0.284829  0.284829  0.715171  1
  Na  Na5  1  0.715171  0.715171  0.284829  1
  Na  Na6  1  0.534829  0.534829  0.965171  1
  Na  Na7  1  0.965171  0.965171  0.534829  1
  Na  Na8  1  0.715171  0.284829  0.715171  1
  Na  Na9  1  0.284829  0.715171  0.284829  1
  Na  Na10  1  0.715171  0.284829  0.284829  1
  Na  Na11  1  0.965171  0.534829  0.534829  1
  Ni  Ni12  1  0.625000  0.125000  0.125000  1
  Ni  Ni13  1  0.125000  0.125000  0.625000  1
  Ni  Ni14  1  0.125000  0.125000  0.125000  1
  Ni  Ni15  1  0.125000  0.625000  0.125000  1
  As  As16  1  0.500000  0.500000  0.500000  1
  As  As17  1  0.750000  0.750000  0.750000  1
  C  C18  1  0.340814  0.340814  0.977558  1
  C  C19  1  0.909186  0.909186  0.909186  1
  C  C20  1  0.909186  0.272442  0.909186  1
  C  C21  1  0.340814  0.977558  0.340814  1
  C  C22  1  0.272442  0.909186  0.909186  1
  C  C23  1  0.977558  0.340814  0.340814  1
  C  C24  1  0.340814  0.340814  0.340814  1
  C  C25  1  0.909186  0.909186  0.272442  1
  O  O26  1  0.571007  0.571007  0.286980  1
  O  O27  1  0.571007  0.286980  0.571007  1
  O  O28  1  0.286980  0.571007  0.571007  1
  O  O29  1  0.483554  0.974584  0.316814  1
  O  O30  1  0.571007  0.571007  0.571007  1
  O  O31  1  0.225048  0.316814  0.974584  1
  O  O32  1  0.316814  0.225048  0.483554  1
  O  O33  1  0.483554  0.225048  0.974584  1
  O  O34  1  0.024952  0.766446  0.933186  1
  O  O35  1  0.275416  0.933186  0.766446  1
  O  O36  1  0.316814  0.974584  0.225048  1
  O  O37  1  0.316814  0.483554  0.974584  1
  O  O38  1  0.766446  0.933186  0.024952  1
  O  O39  1  0.024952  0.275416  0.766446  1
  O  O40  1  0.974584  0.225048  0.316814  1
  O  O41  1  0.974584  0.483554  0.225048  1
  O  O42  1  0.275416  0.766446  0.024952  1
  O  O43  1  0.225048  0.974584  0.483554  1
  O  O44  1  0.275416  0.024952  0.933186  1
  O  O45  1  0.483554  0.316814  0.225048  1
  O  O46  1  0.933186  0.766446  0.275416  1
  O  O47  1  0.933186  0.275416  0.024952  1
  O  O48  1  0.974584  0.316814  0.483554  1
  O  O49  1  0.225048  0.483554  0.316814  1
  O  O50  1  0.766446  0.024952  0.275416  1
  O  O51  1  0.933186  0.024952  0.766446  1
  O  O52  1  0.024952  0.933186  0.275416  1
  O  O53  1  0.678993  0.678993  0.678993  1
  O  O54  1  0.766446  0.275416  0.933186  1
  O  O55  1  0.963020  0.678993  0.678993  1
  O  O56  1  0.678993  0.963020  0.678993  1
  O  O57  1  0.678993  0.678993  0.963020  1
