# generated using pymatgen
data_Li3Bi3(PO4)4
_symmetry_space_group_name_H-M   'P 1'
_cell_length_a   9.18062153
_cell_length_b   5.42159224
_cell_length_c   17.12134163
_cell_angle_alpha   90.00000000
_cell_angle_beta   119.96671103
_cell_angle_gamma   90.00000000
_symmetry_Int_Tables_number   1
_chemical_formula_structural   Li3Bi3(PO4)4
_chemical_formula_sum   'Li6 Bi6 P8 O32'
_cell_volume   738.26612647
_cell_formula_units_Z   2
loop_
 _symmetry_equiv_pos_site_id
 _symmetry_equiv_pos_as_xyz
  1  'x, y, z'
loop_
 _atom_site_type_symbol
 _atom_site_label
 _atom_site_symmetry_multiplicity
 _atom_site_fract_x
 _atom_site_fract_y
 _atom_site_fract_z
 _atom_site_occupancy
  Li  Li0  1  0.500000  0.500000  0.000000  1
  Li  Li1  1  0.382809  0.424190  0.714016  1
  Li  Li2  1  0.617191  0.924190  0.785984  1
  Li  Li3  1  0.382809  0.075810  0.214016  1
  Li  Li4  1  0.500000  0.000000  0.500000  1
  Li  Li5  1  0.617191  0.575810  0.285984  1
  Bi  Bi6  1  0.096545  0.538858  0.866867  1
  Bi  Bi7  1  0.000000  0.000000  0.000000  1
  Bi  Bi8  1  0.903455  0.038858  0.633133  1
  Bi  Bi9  1  0.000000  0.500000  0.500000  1
  Bi  Bi10  1  0.096545  0.961142  0.366867  1
  Bi  Bi11  1  0.903455  0.461142  0.133133  1
  P  P12  1  0.234848  0.033491  0.864486  1
  P  P13  1  0.765152  0.533491  0.635514  1
  P  P14  1  0.729751  0.461149  0.890607  1
  P  P15  1  0.270249  0.961149  0.609393  1
  P  P16  1  0.729751  0.038851  0.390607  1
  P  P17  1  0.270249  0.538851  0.109393  1
  P  P18  1  0.234848  0.466509  0.364486  1
  P  P19  1  0.765152  0.966509  0.135514  1
  O  O20  1  0.107027  0.966920  0.900318  1
  O  O21  1  0.877641  0.673924  0.727365  1
  O  O22  1  0.369384  0.211424  0.925551  1
  O  O23  1  0.286828  0.770949  0.850524  1
  O  O24  1  0.708304  0.456189  0.974754  1
  O  O25  1  0.713172  0.270949  0.649476  1
  O  O26  1  0.630616  0.711424  0.574449  1
  O  O27  1  0.122359  0.173924  0.772635  1
  O  O28  1  0.772257  0.194364  0.871582  1
  O  O29  1  0.892973  0.466920  0.599682  1
  O  O30  1  0.891104  0.628423  0.914967  1
  O  O31  1  0.581514  0.573480  0.807513  1
  O  O32  1  0.708304  0.043811  0.474754  1
  O  O33  1  0.418486  0.073480  0.692487  1
  O  O34  1  0.108896  0.128423  0.585033  1
  O  O35  1  0.227743  0.694364  0.628418  1
  O  O36  1  0.772257  0.305636  0.371582  1
  O  O37  1  0.891104  0.871577  0.414967  1
  O  O38  1  0.581514  0.926520  0.307513  1
  O  O39  1  0.291696  0.956189  0.525246  1
  O  O40  1  0.418486  0.426520  0.192487  1
  O  O41  1  0.108896  0.371577  0.085033  1
  O  O42  1  0.107027  0.533080  0.400318  1
  O  O43  1  0.227743  0.805636  0.128418  1
  O  O44  1  0.877641  0.826076  0.227365  1
  O  O45  1  0.369384  0.288576  0.425551  1
  O  O46  1  0.286828  0.729051  0.350524  1
  O  O47  1  0.291696  0.543811  0.025246  1
  O  O48  1  0.713172  0.229051  0.149476  1
  O  O49  1  0.630616  0.788576  0.074449  1
  O  O50  1  0.122359  0.326076  0.272635  1
  O  O51  1  0.892973  0.033080  0.099682  1
