# generated using pymatgen
data_Li7Cr3Co(PO4)6
_symmetry_space_group_name_H-M   'P 1'
_cell_length_a   8.64206634
_cell_length_b   8.64206634
_cell_length_c   8.64206634
_cell_angle_alpha   61.18770954
_cell_angle_beta   61.18770954
_cell_angle_gamma   61.18770954
_symmetry_Int_Tables_number   1
_chemical_formula_structural   Li7Cr3Co(PO4)6
_chemical_formula_sum   'Li7 Cr3 Co1 P6 O24'
_cell_volume   468.58600211
_cell_formula_units_Z   1
loop_
 _symmetry_equiv_pos_site_id
 _symmetry_equiv_pos_as_xyz
  1  'x, y, z'
loop_
 _atom_site_type_symbol
 _atom_site_label
 _atom_site_symmetry_multiplicity
 _atom_site_fract_x
 _atom_site_fract_y
 _atom_site_fract_z
 _atom_site_occupancy
  Li  Li0  1  0.444897  0.254588  0.697432  1
  Li  Li1  1  0.697432  0.444897  0.254588  1
  Li  Li2  1  0.843940  0.208817  0.662782  1
  Li  Li3  1  0.994039  0.994039  0.994039  1
  Li  Li4  1  0.254588  0.697432  0.444897  1
  Li  Li5  1  0.208817  0.662782  0.843940  1
  Li  Li6  1  0.662782  0.843940  0.208817  1
  Cr  Cr7  1  0.141090  0.141090  0.141090  1
  Cr  Cr8  1  0.642896  0.642896  0.642896  1
  Cr  Cr9  1  0.357882  0.357882  0.357882  1
  Co  Co10  1  0.853049  0.853049  0.853049  1
  P  P11  1  0.748522  0.045728  0.456573  1
  P  P12  1  0.045728  0.456573  0.748522  1
  P  P13  1  0.456573  0.748522  0.045728  1
  P  P14  1  0.540814  0.252881  0.963001  1
  P  P15  1  0.963001  0.540814  0.252881  1
  P  P16  1  0.252881  0.963001  0.540814  1
  O  O17  1  0.883959  0.498178  0.688707  1
  O  O18  1  0.498178  0.688707  0.883959  1
  O  O19  1  0.688707  0.883959  0.498178  1
  O  O20  1  0.915481  0.057002  0.272921  1
  O  O21  1  0.589634  0.241731  0.428125  1
  O  O22  1  0.780765  0.032119  0.625610  1
  O  O23  1  0.057002  0.272921  0.915481  1
  O  O24  1  0.241731  0.428125  0.589634  1
  O  O25  1  0.428125  0.589634  0.241731  1
  O  O26  1  0.374468  0.218060  0.973353  1
  O  O27  1  0.719764  0.076996  0.965886  1
  O  O28  1  0.973353  0.374468  0.218060  1
  O  O29  1  0.032119  0.625610  0.780765  1
  O  O30  1  0.272921  0.915481  0.057002  1
  O  O31  1  0.625610  0.780765  0.032119  1
  O  O32  1  0.588314  0.397917  0.760716  1
  O  O33  1  0.760716  0.588314  0.397917  1
  O  O34  1  0.965886  0.719764  0.076996  1
  O  O35  1  0.218060  0.973353  0.374468  1
  O  O36  1  0.397917  0.760716  0.588314  1
  O  O37  1  0.076996  0.965886  0.719764  1
  O  O38  1  0.310598  0.122328  0.497855  1
  O  O39  1  0.497855  0.310598  0.122328  1
  O  O40  1  0.122328  0.497855  0.310598  1
