# generated using pymatgen
data_Cr3NiTe2(PO4)6
_symmetry_space_group_name_H-M   'P 1'
_cell_length_a   8.82402937
_cell_length_b   8.82402937
_cell_length_c   8.82402937
_cell_angle_alpha   58.53971527
_cell_angle_beta   58.53971527
_cell_angle_gamma   58.53971527
_symmetry_Int_Tables_number   1
_chemical_formula_structural   Cr3NiTe2(PO4)6
_chemical_formula_sum   'Cr3 Ni1 Te2 P6 O24'
_cell_volume   469.60597174
_cell_formula_units_Z   1
loop_
 _symmetry_equiv_pos_site_id
 _symmetry_equiv_pos_as_xyz
  1  'x, y, z'
loop_
 _atom_site_type_symbol
 _atom_site_label
 _atom_site_symmetry_multiplicity
 _atom_site_fract_x
 _atom_site_fract_y
 _atom_site_fract_z
 _atom_site_occupancy
  Cr  Cr0  1  0.856267  0.856267  0.856267  1
  Cr  Cr1  1  0.646308  0.646308  0.646308  1
  Cr  Cr2  1  0.352733  0.352733  0.352733  1
  Ni  Ni3  1  0.153143  0.153143  0.153143  1
  Te  Te4  1  0.012529  0.012529  0.012529  1
  Te  Te5  1  0.504069  0.504069  0.504069  1
  P  P6  1  0.248488  0.541479  0.959088  1
  P  P7  1  0.959088  0.248488  0.541479  1
  P  P8  1  0.541479  0.959088  0.248488  1
  P  P9  1  0.462674  0.036300  0.745650  1
  P  P10  1  0.036300  0.745650  0.462674  1
  P  P11  1  0.745650  0.462674  0.036300  1
  O  O12  1  0.701335  0.488193  0.879178  1
  O  O13  1  0.488193  0.879179  0.701335  1
  O  O14  1  0.085772  0.739661  0.934137  1
  O  O15  1  0.879179  0.701335  0.488193  1
  O  O16  1  0.420725  0.567972  0.763473  1
  O  O17  1  0.202105  0.389810  0.977634  1
  O  O18  1  0.934137  0.085772  0.739661  1
  O  O19  1  0.763473  0.420725  0.567972  1
  O  O20  1  0.567972  0.763473  0.420725  1
  O  O21  1  0.610747  0.006250  0.806369  1
  O  O22  1  0.258671  0.060813  0.915733  1
  O  O23  1  0.006250  0.806369  0.610747  1
  O  O24  1  0.977634  0.202105  0.389810  1
  O  O25  1  0.739661  0.934137  0.085772  1
  O  O26  1  0.389810  0.977634  0.202105  1
  O  O27  1  0.434683  0.230297  0.581737  1
  O  O28  1  0.230297  0.581737  0.434683  1
  O  O29  1  0.060813  0.915733  0.258671  1
  O  O30  1  0.806369  0.610747  0.006250  1
  O  O31  1  0.581737  0.434683  0.230297  1
  O  O32  1  0.115615  0.299712  0.510655  1
  O  O33  1  0.915733  0.258671  0.060813  1
  O  O34  1  0.510655  0.115615  0.299712  1
  O  O35  1  0.299712  0.510655  0.115615  1
