# generated using pymatgen
data_LiV6F13
_symmetry_space_group_name_H-M   'P 1'
_cell_length_a   8.06771011
_cell_length_b   8.11694101
_cell_length_c   10.23420166
_cell_angle_alpha   75.88533532
_cell_angle_beta   75.53344783
_cell_angle_gamma   62.43597282
_symmetry_Int_Tables_number   1
_chemical_formula_structural   LiV6F13
_chemical_formula_sum   'Li2 V12 F26'
_cell_volume   568.82191306
_cell_formula_units_Z   2
loop_
 _symmetry_equiv_pos_site_id
 _symmetry_equiv_pos_as_xyz
  1  'x, y, z'
loop_
 _atom_site_type_symbol
 _atom_site_label
 _atom_site_symmetry_multiplicity
 _atom_site_fract_x
 _atom_site_fract_y
 _atom_site_fract_z
 _atom_site_occupancy
  Li  Li0  1  0.219227  0.659472  0.055498  1
  Li  Li1  1  0.780773  0.340528  0.944502  1
  V  V2  1  0.061860  0.057319  0.239543  1
  V  V3  1  0.279235  0.131862  0.502272  1
  V  V4  1  0.421837  0.215159  0.021527  1
  V  V5  1  0.153787  0.582646  0.502018  1
  V  V6  1  0.507986  0.241204  0.726590  1
  V  V7  1  0.612522  0.332513  0.254816  1
  V  V8  1  0.387478  0.667487  0.745184  1
  V  V9  1  0.492014  0.758796  0.273410  1
  V  V10  1  0.846213  0.417354  0.497982  1
  V  V11  1  0.578163  0.784841  0.978473  1
  V  V12  1  0.720765  0.868138  0.497728  1
  V  V13  1  0.938140  0.942681  0.760457  1
  F  F14  1  0.011316  0.161361  0.621837  1
  F  F15  1  0.156660  0.249490  0.119801  1
  F  F16  1  0.118462  0.399878  0.399369  1
  F  F17  1  0.293547  0.313013  0.615184  1
  F  F18  1  0.409458  0.414135  0.126792  1
  F  F19  1  0.162315  0.741645  0.636534  1
  F  F20  1  0.544373  0.116437  0.384740  1
  F  F21  1  0.297743  0.824335  0.131955  1
  F  F22  1  0.427824  0.054505  0.878580  1
  F  F23  1  0.417401  0.540563  0.380457  1
  F  F24  1  0.323458  0.441648  0.860889  1
  F  F25  1  0.159502  0.828014  0.884318  1
  F  F26  1  0.266233  0.974956  0.370596  1
  F  F27  1  0.733767  0.025044  0.629404  1
  F  F28  1  0.840498  0.171986  0.115682  1
  F  F29  1  0.676542  0.558352  0.139111  1
  F  F30  1  0.582599  0.459437  0.619543  1
  F  F31  1  0.572176  0.945495  0.121420  1
  F  F32  1  0.702257  0.175665  0.868045  1
  F  F33  1  0.455627  0.883563  0.615260  1
  F  F34  1  0.837685  0.258355  0.363466  1
  F  F35  1  0.590542  0.585865  0.873208  1
  F  F36  1  0.706453  0.686987  0.384816  1
  F  F37  1  0.881538  0.600122  0.600631  1
  F  F38  1  0.843340  0.750510  0.880199  1
  F  F39  1  0.988684  0.838639  0.378163  1
