# generated using pymatgen
data_Na5Co2As(CO4)4
_symmetry_space_group_name_H-M   'P 1'
_cell_length_a   10.00958685
_cell_length_b   10.00958685
_cell_length_c   9.90830780
_cell_angle_alpha   60.37775706
_cell_angle_beta   119.62224294
_cell_angle_gamma   89.24037672
_symmetry_Int_Tables_number   1
_chemical_formula_structural   Na5Co2As(CO4)4
_chemical_formula_sum   'Na10 Co4 As2 C8 O32'
_cell_volume   705.27411339
_cell_formula_units_Z   2
loop_
 _symmetry_equiv_pos_site_id
 _symmetry_equiv_pos_as_xyz
  1  'x, y, z'
loop_
 _atom_site_type_symbol
 _atom_site_label
 _atom_site_symmetry_multiplicity
 _atom_site_fract_x
 _atom_site_fract_y
 _atom_site_fract_z
 _atom_site_occupancy
  Na  Na0  1  0.912742  0.912742  0.250000  1
  Na  Na1  1  0.905348  0.348080  0.820581  1
  Na  Na2  1  0.905518  0.347908  0.237656  1
  Na  Na3  1  0.651920  0.094652  0.320581  1
  Na  Na4  1  0.347908  0.905518  0.262344  1
  Na  Na5  1  0.652092  0.094482  0.737656  1
  Na  Na6  1  0.348080  0.905348  0.679419  1
  Na  Na7  1  0.094482  0.652092  0.762344  1
  Na  Na8  1  0.094652  0.651920  0.179419  1
  Na  Na9  1  0.087258  0.087258  0.750000  1
  Co  Co10  1  0.500000  0.000000  0.000000  1
  Co  Co11  1  0.500000  0.500000  0.500000  1
  Co  Co12  1  0.500000  0.500000  0.000000  1
  Co  Co13  1  0.000000  0.500000  0.500000  1
  As  As14  1  0.872123  0.872123  0.750000  1
  As  As15  1  0.127877  0.127877  0.250000  1
  C  C16  1  0.713273  0.713677  0.426073  1
  C  C17  1  0.642182  0.282983  0.930813  1
  C  C18  1  0.282983  0.642182  0.569187  1
  C  C19  1  0.286323  0.286727  0.926073  1
  C  C20  1  0.713677  0.713273  0.073927  1
  C  C21  1  0.717017  0.357818  0.430813  1
  C  C22  1  0.357818  0.717017  0.069187  1
  C  C23  1  0.286727  0.286323  0.573927  1
  O  O24  1  0.858616  0.686953  0.461410  1
  O  O25  1  0.646313  0.312504  0.790177  1
  O  O26  1  0.683310  0.598687  0.533660  1
  O  O27  1  0.647414  0.138491  0.045570  1
  O  O28  1  0.602818  0.858212  0.288339  1
  O  O29  1  0.942462  0.944133  0.607490  1
  O  O30  1  0.954327  0.662478  0.894773  1
  O  O31  1  0.643548  0.391510  0.966087  1
  O  O32  1  0.313047  0.141384  0.961410  1
  O  O33  1  0.391510  0.643548  0.533913  1
  O  O34  1  0.944133  0.942462  0.892510  1
  O  O35  1  0.662478  0.954327  0.605227  1
  O  O36  1  0.858212  0.602818  0.211661  1
  O  O37  1  0.687496  0.353687  0.290177  1
  O  O38  1  0.138491  0.647414  0.454430  1
  O  O39  1  0.401313  0.316690  0.033660  1
  O  O40  1  0.861509  0.352586  0.545570  1
  O  O41  1  0.598687  0.683310  0.966340  1
  O  O42  1  0.312504  0.646313  0.709823  1
  O  O43  1  0.141788  0.397182  0.788339  1
  O  O44  1  0.337522  0.045673  0.394773  1
  O  O45  1  0.055867  0.057538  0.107490  1
  O  O46  1  0.686953  0.858616  0.038590  1
  O  O47  1  0.608490  0.356452  0.466087  1
  O  O48  1  0.356452  0.608490  0.033913  1
  O  O49  1  0.057538  0.055867  0.392510  1
  O  O50  1  0.045673  0.337522  0.105227  1
  O  O51  1  0.397182  0.141788  0.711661  1
  O  O52  1  0.352586  0.861509  0.954430  1
  O  O53  1  0.316690  0.401313  0.466340  1
  O  O54  1  0.353687  0.687496  0.209823  1
  O  O55  1  0.141384  0.313047  0.538590  1
