# generated using pymatgen
data_Fe2OF3
_symmetry_space_group_name_H-M   'P 1'
_cell_length_a   7.41603941
_cell_length_b   7.41603941
_cell_length_c   6.95695471
_cell_angle_alpha   90.00000000
_cell_angle_beta   90.00000000
_cell_angle_gamma   130.12911210
_symmetry_Int_Tables_number   1
_chemical_formula_structural   Fe2OF3
_chemical_formula_sum   'Fe8 O4 F12'
_cell_volume   292.54597830
_cell_formula_units_Z   4
loop_
 _symmetry_equiv_pos_site_id
 _symmetry_equiv_pos_as_xyz
  1  'x, y, z'
loop_
 _atom_site_type_symbol
 _atom_site_label
 _atom_site_symmetry_multiplicity
 _atom_site_fract_x
 _atom_site_fract_y
 _atom_site_fract_z
 _atom_site_occupancy
  Fe  Fe0  1  0.226543  0.226543  0.000000  1
  Fe  Fe1  1  0.773457  0.773457  0.000000  1
  Fe  Fe2  1  0.500000  0.500000  0.500000  1
  Fe  Fe3  1  0.000000  0.000000  0.500000  1
  Fe  Fe4  1  0.753552  0.246448  0.000000  1
  Fe  Fe5  1  0.246448  0.753552  0.000000  1
  Fe  Fe6  1  0.000000  0.500000  0.500000  1
  Fe  Fe7  1  0.500000  0.000000  0.500000  1
  O  O8  1  0.903574  0.096426  0.000000  1
  O  O9  1  0.096426  0.903574  1.000000  1
  O  O10  1  0.339534  0.660466  0.500000  1
  O  O11  1  0.660466  0.339534  0.500000  1
  F  F12  1  0.405658  0.594342  0.000000  1
  F  F13  1  0.248540  0.248540  0.709057  1
  F  F14  1  0.751460  0.751460  0.709057  1
  F  F15  1  0.248540  0.248540  0.290943  1
  F  F16  1  0.000000  0.500000  0.791759  1
  F  F17  1  0.500000  0.000000  0.791759  1
  F  F18  1  0.751460  0.751460  0.290943  1
  F  F19  1  0.594342  0.405658  0.000000  1
  F  F20  1  0.851175  0.148825  0.500000  1
  F  F21  1  0.148825  0.851175  0.500000  1
  F  F22  1  0.000000  0.500000  0.208241  1
  F  F23  1  0.500000  0.000000  0.208241  1
