# generated using pymatgen
data_LiNiPO4
_symmetry_space_group_name_H-M   'P 1'
_cell_length_a   6.14461039
_cell_length_b   7.41324402
_cell_length_c   13.44958231
_cell_angle_alpha   90.00000000
_cell_angle_beta   90.00000000
_cell_angle_gamma   90.00000000
_symmetry_Int_Tables_number   1
_chemical_formula_structural   LiNiPO4
_chemical_formula_sum   'Li8 Ni8 P8 O32'
_cell_volume   612.64859802
_cell_formula_units_Z   8
loop_
 _symmetry_equiv_pos_site_id
 _symmetry_equiv_pos_as_xyz
  1  'x, y, z'
loop_
 _atom_site_type_symbol
 _atom_site_label
 _atom_site_symmetry_multiplicity
 _atom_site_fract_x
 _atom_site_fract_y
 _atom_site_fract_z
 _atom_site_occupancy
  Li  Li0  1  0.441260  0.173460  0.021227  1
  Li  Li1  1  0.941260  0.173460  0.478773  1
  Li  Li2  1  0.441260  0.326540  0.521227  1
  Li  Li3  1  0.941260  0.326540  0.978773  1
  Li  Li4  1  0.058740  0.673460  0.021227  1
  Li  Li5  1  0.558740  0.673460  0.478773  1
  Li  Li6  1  0.058740  0.826540  0.521227  1
  Li  Li7  1  0.558740  0.826540  0.978773  1
  Ni  Ni8  1  0.212133  0.186500  0.714671  1
  Ni  Ni9  1  0.712133  0.186500  0.785329  1
  Ni  Ni10  1  0.712133  0.313500  0.285329  1
  Ni  Ni11  1  0.212133  0.313500  0.214671  1
  Ni  Ni12  1  0.287867  0.686500  0.714671  1
  Ni  Ni13  1  0.787867  0.686500  0.785329  1
  Ni  Ni14  1  0.287867  0.813500  0.214671  1
  Ni  Ni15  1  0.787867  0.813500  0.285329  1
  P  P16  1  0.890041  0.039631  0.127829  1
  P  P17  1  0.390041  0.039631  0.372171  1
  P  P18  1  0.890041  0.460369  0.627829  1
  P  P19  1  0.390041  0.460369  0.872171  1
  P  P20  1  0.609959  0.539631  0.127829  1
  P  P21  1  0.109959  0.539631  0.372171  1
  P  P22  1  0.609959  0.960369  0.627829  1
  P  P23  1  0.109959  0.960369  0.872171  1
  O  O24  1  0.788800  0.970633  0.550532  1
  O  O25  1  0.288800  0.970633  0.949468  1
  O  O26  1  0.297229  0.068780  0.263606  1
  O  O27  1  0.797229  0.068780  0.236394  1
  O  O28  1  0.492618  0.147423  0.640180  1
  O  O29  1  0.992618  0.147423  0.859820  1
  O  O30  1  0.047040  0.197903  0.105496  1
  O  O31  1  0.547040  0.197903  0.394504  1
  O  O32  1  0.047040  0.302097  0.605496  1
  O  O33  1  0.547040  0.302097  0.894504  1
  O  O34  1  0.492618  0.352577  0.140180  1
  O  O35  1  0.992618  0.352577  0.359820  1
  O  O36  1  0.797229  0.431220  0.736394  1
  O  O37  1  0.297229  0.431220  0.763606  1
  O  O38  1  0.788800  0.529367  0.050532  1
  O  O39  1  0.288800  0.529367  0.449468  1
  O  O40  1  0.211200  0.470633  0.949468  1
  O  O41  1  0.711200  0.470633  0.550532  1
  O  O42  1  0.702771  0.568780  0.236394  1
  O  O43  1  0.202771  0.568780  0.263606  1
  O  O44  1  0.007382  0.647423  0.640180  1
  O  O45  1  0.507382  0.647423  0.859820  1
  O  O46  1  0.452960  0.697903  0.105496  1
  O  O47  1  0.952960  0.697903  0.394504  1
  O  O48  1  0.452960  0.802097  0.605496  1
  O  O49  1  0.952960  0.802097  0.894504  1
  O  O50  1  0.007382  0.852577  0.140180  1
  O  O51  1  0.507382  0.852577  0.359820  1
  O  O52  1  0.702771  0.931220  0.736394  1
  O  O53  1  0.202771  0.931220  0.763606  1
  O  O54  1  0.711200  0.029367  0.050532  1
  O  O55  1  0.211200  0.029367  0.449468  1
