# generated using pymatgen
data_Li2Mn2Ni(PO4)3
_symmetry_space_group_name_H-M   'P 1'
_cell_length_a   8.49854017
_cell_length_b   8.49854017
_cell_length_c   8.33383211
_cell_angle_alpha   64.52026814
_cell_angle_beta   115.47973186
_cell_angle_gamma   116.92181543
_symmetry_Int_Tables_number   1
_chemical_formula_structural   Li2Mn2Ni(PO4)3
_chemical_formula_sum   'Li4 Mn4 Ni2 P6 O24'
_cell_volume   463.29709329
_cell_formula_units_Z   2
loop_
 _symmetry_equiv_pos_site_id
 _symmetry_equiv_pos_as_xyz
  1  'x, y, z'
loop_
 _atom_site_type_symbol
 _atom_site_label
 _atom_site_symmetry_multiplicity
 _atom_site_fract_x
 _atom_site_fract_y
 _atom_site_fract_z
 _atom_site_occupancy
  Li  Li0  1  0.859443  0.859443  0.000000  1
  Li  Li1  1  0.158770  0.158770  0.500000  1
  Li  Li2  1  0.747863  0.349631  0.896256  1
  Li  Li3  1  0.349631  0.747863  0.103744  1
  Mn  Mn4  1  0.855356  0.646836  0.395266  1
  Mn  Mn5  1  0.646836  0.855356  0.604734  1
  Mn  Mn6  1  0.344378  0.151402  0.905368  1
  Mn  Mn7  1  0.151402  0.344378  0.094632  1
  Ni  Ni8  1  0.998326  0.494168  0.254554  1
  Ni  Ni9  1  0.494168  0.998326  0.745446  1
  P  P10  1  0.249323  0.938116  0.321034  1
  P  P11  1  0.938116  0.249323  0.678966  1
  P  P12  1  0.560697  0.560697  0.000000  1
  P  P13  1  0.459459  0.459459  0.500000  1
  P  P14  1  0.046639  0.750712  0.808606  1
  P  P15  1  0.750712  0.046639  0.191394  1
  O  O16  1  0.683288  0.986889  0.357661  1
  O  O17  1  0.504939  0.613125  0.578502  1
  O  O18  1  0.083452  0.747688  0.323431  1
  O  O19  1  0.903390  0.820010  0.797069  1
  O  O20  1  0.187434  0.095606  0.288740  1
  O  O21  1  0.397822  0.919211  0.511428  1
  O  O22  1  0.919211  0.397822  0.488572  1
  O  O23  1  0.747688  0.083452  0.676569  1
  O  O24  1  0.613125  0.504939  0.421498  1
  O  O25  1  0.583239  0.758090  0.852007  1
  O  O26  1  0.263874  0.441847  0.353453  1
  O  O27  1  0.986889  0.683288  0.642339  1
  O  O28  1  0.962252  0.309964  0.839487  1
  O  O29  1  0.758090  0.583239  0.147993  1
  O  O30  1  0.441847  0.263874  0.646547  1
  O  O31  1  0.405974  0.530384  0.067225  1
  O  O32  1  0.244288  0.900430  0.817071  1
  O  O33  1  0.071402  0.597277  0.001502  1
  O  O34  1  0.597277  0.071402  0.998498  1
  O  O35  1  0.820010  0.903390  0.202931  1
  O  O36  1  0.095606  0.187434  0.711260  1
  O  O37  1  0.900430  0.244288  0.182929  1
  O  O38  1  0.530384  0.405974  0.932775  1
  O  O39  1  0.309964  0.962252  0.160513  1
