# generated using pymatgen
data_Li2Co4OF8
_symmetry_space_group_name_H-M   'P 1'
_cell_length_a   5.26568889
_cell_length_b   5.26568889
_cell_length_c   14.15323342
_cell_angle_alpha   89.24878199
_cell_angle_beta   90.75121801
_cell_angle_gamma   121.22646898
_symmetry_Int_Tables_number   1
_chemical_formula_structural   Li2Co4OF8
_chemical_formula_sum   'Li4 Co8 O2 F16'
_cell_volume   335.54163858
_cell_formula_units_Z   2
loop_
 _symmetry_equiv_pos_site_id
 _symmetry_equiv_pos_as_xyz
  1  'x, y, z'
loop_
 _atom_site_type_symbol
 _atom_site_label
 _atom_site_symmetry_multiplicity
 _atom_site_fract_x
 _atom_site_fract_y
 _atom_site_fract_z
 _atom_site_occupancy
  Li  Li0  1  0.005011  0.003408  0.152044  1
  Li  Li1  1  0.990685  0.977550  0.357034  1
  Li  Li2  1  0.996592  0.994989  0.652044  1
  Li  Li3  1  0.022450  0.009315  0.857034  1
  Co  Co4  1  0.687416  0.345926  0.318867  1
  Co  Co5  1  0.651094  0.326570  0.014809  1
  Co  Co6  1  0.654074  0.312584  0.818867  1
  Co  Co7  1  0.673430  0.348906  0.514809  1
  Co  Co8  1  0.335621  0.670816  0.185567  1
  Co  Co9  1  0.329184  0.664379  0.685567  1
  Co  Co10  1  0.346646  0.697477  0.973187  1
  Co  Co11  1  0.302523  0.653354  0.473187  1
  O  O12  1  0.381493  0.048754  0.918485  1
  O  O13  1  0.951246  0.618507  0.418485  1
  F  F14  1  0.308167  0.305505  0.747453  1
  F  F15  1  0.339891  0.318619  0.417557  1
  F  F16  1  0.694495  0.691833  0.247453  1
  F  F17  1  0.681381  0.660109  0.917557  1
  F  F18  1  0.989600  0.674311  0.748110  1
  F  F19  1  0.021060  0.662090  0.083756  1
  F  F20  1  0.660618  0.010284  0.414490  1
  F  F21  1  0.325689  0.010400  0.248110  1
  F  F22  1  0.337910  0.978940  0.583756  1
  F  F23  1  0.989716  0.339382  0.914490  1
  F  F24  1  0.005441  0.306646  0.247288  1
  F  F25  1  0.021804  0.352061  0.588341  1
  F  F26  1  0.332394  0.376123  0.083007  1
  F  F27  1  0.647939  0.978196  0.088341  1
  F  F28  1  0.693354  0.994559  0.747288  1
  F  F29  1  0.623877  0.667606  0.583007  1
