# generated using pymatgen
data_NiH12(NO6)2
_symmetry_space_group_name_H-M   'P 1'
_cell_length_a   5.82074216
_cell_length_b   7.73850310
_cell_length_c   11.88792695
_cell_angle_alpha   103.11596865
_cell_angle_beta   99.09134808
_cell_angle_gamma   102.85482467
_symmetry_Int_Tables_number   1
_chemical_formula_structural   NiH12(NO6)2
_chemical_formula_sum   'Ni2 H24 N4 O24'
_cell_volume   496.02896478
_cell_formula_units_Z   2
loop_
 _symmetry_equiv_pos_site_id
 _symmetry_equiv_pos_as_xyz
  1  'x, y, z'
loop_
 _atom_site_type_symbol
 _atom_site_label
 _atom_site_symmetry_multiplicity
 _atom_site_fract_x
 _atom_site_fract_y
 _atom_site_fract_z
 _atom_site_occupancy
  Ni  Ni0  1  0.816257  0.858290  0.766828  1
  Ni  Ni1  1  0.183743  0.141710  0.233172  1
  H  H2  1  0.793064  0.526578  0.629074  1
  H  H3  1  0.206936  0.473422  0.370926  1
  H  H4  1  0.848039  0.673604  0.559914  1
  H  H5  1  0.151961  0.326396  0.440086  1
  H  H6  1  0.235703  0.840389  0.851137  1
  H  H7  1  0.764297  0.159611  0.148863  1
  H  H8  1  0.282044  0.051781  0.854281  1
  H  H9  1  0.717956  0.948219  0.145719  1
  H  H10  1  0.824592  0.182968  0.887466  1
  H  H11  1  0.175408  0.817032  0.112534  1
  H  H12  1  0.777974  0.046045  0.968108  1
  H  H13  1  0.222026  0.953955  0.031892  1
  H  H14  1  0.355696  0.653063  0.704760  1
  H  H15  1  0.644304  0.346937  0.295240  1
  H  H16  1  0.395979  0.756950  0.608345  1
  H  H17  1  0.604021  0.243050  0.391655  1
  H  H18  1  0.052600  0.058223  0.645535  1
  H  H19  1  0.947400  0.941777  0.354465  1
  H  H20  1  0.799203  0.111048  0.641211  1
  H  H21  1  0.200797  0.888952  0.358789  1
  H  H22  1  0.846178  0.583961  0.865617  1
  H  H23  1  0.153822  0.416039  0.134383  1
  H  H24  1  0.604427  0.648129  0.882131  1
  H  H25  1  0.395573  0.351871  0.117869  1
  N  N26  1  0.797165  0.547272  0.130534  1
  N  N27  1  0.202835  0.452728  0.869466  1
  N  N28  1  0.578527  0.763227  0.393467  1
  N  N29  1  0.421473  0.236773  0.606533  1
  O  O30  1  0.895067  0.651975  0.638089  1
  O  O31  1  0.104933  0.348025  0.361911  1
  O  O32  1  0.172125  0.948489  0.869961  1
  O  O33  1  0.827875  0.051511  0.130039  1
  O  O34  1  0.730856  0.059779  0.887789  1
  O  O35  1  0.269144  0.940221  0.112211  1
  O  O36  1  0.445189  0.767529  0.692374  1
  O  O37  1  0.554811  0.232471  0.307626  1
  O  O38  1  0.881878  0.016197  0.652840  1
  O  O39  1  0.118122  0.983803  0.347160  1
  O  O40  1  0.774042  0.689968  0.874621  1
  O  O41  1  0.225958  0.310032  0.125379  1
  O  O42  1  0.023505  0.594211  0.135431  1
  O  O43  1  0.976495  0.405789  0.864569  1
  O  O44  1  0.670878  0.656394  0.125408  1
  O  O45  1  0.329122  0.343606  0.874592  1
  O  O46  1  0.699025  0.381312  0.130967  1
  O  O47  1  0.300975  0.618688  0.869033  1
  O  O48  1  0.654148  0.911561  0.367855  1
  O  O49  1  0.345852  0.088439  0.632145  1
  O  O50  1  0.715804  0.661365  0.409807  1
  O  O51  1  0.284196  0.338635  0.590193  1
  O  O52  1  0.357905  0.716120  0.402703  1
  O  O53  1  0.642095  0.283880  0.597297  1
