# generated using pymatgen
data_CrFe3Sb2(PO4)6
_symmetry_space_group_name_H-M   'P 1'
_cell_length_a   8.84389737
_cell_length_b   8.84389737
_cell_length_c   8.84389737
_cell_angle_alpha   58.71554442
_cell_angle_beta   58.71554442
_cell_angle_gamma   58.71554442
_symmetry_Int_Tables_number   1
_chemical_formula_structural   CrFe3Sb2(PO4)6
_chemical_formula_sum   'Cr1 Fe3 Sb2 P6 O24'
_cell_volume   474.76642545
_cell_formula_units_Z   1
loop_
 _symmetry_equiv_pos_site_id
 _symmetry_equiv_pos_as_xyz
  1  'x, y, z'
loop_
 _atom_site_type_symbol
 _atom_site_label
 _atom_site_symmetry_multiplicity
 _atom_site_fract_x
 _atom_site_fract_y
 _atom_site_fract_z
 _atom_site_occupancy
  Cr  Cr0  1  0.145538  0.145538  0.145538  1
  Fe  Fe1  1  0.850620  0.850620  0.850620  1
  Fe  Fe2  1  0.649323  0.649323  0.649323  1
  Fe  Fe3  1  0.350991  0.350991  0.350991  1
  Sb  Sb4  1  0.997060  0.997060  0.997060  1
  Sb  Sb5  1  0.500436  0.500436  0.500436  1
  P  P6  1  0.250320  0.537952  0.960544  1
  P  P7  1  0.960544  0.250320  0.537952  1
  P  P8  1  0.537952  0.960544  0.250320  1
  P  P9  1  0.459389  0.041478  0.750678  1
  P  P10  1  0.041478  0.750678  0.459389  1
  P  P11  1  0.750678  0.459389  0.041478  1
  O  O12  1  0.699552  0.491243  0.883932  1
  O  O13  1  0.491243  0.883932  0.699552  1
  O  O14  1  0.082692  0.733158  0.940528  1
  O  O15  1  0.883932  0.699552  0.491243  1
  O  O16  1  0.199124  0.382319  0.991751  1
  O  O17  1  0.417028  0.560765  0.766776  1
  O  O18  1  0.940528  0.082692  0.733158  1
  O  O19  1  0.766776  0.417028  0.560765  1
  O  O20  1  0.617225  0.007765  0.802046  1
  O  O21  1  0.560765  0.766776  0.417028  1
  O  O22  1  0.267690  0.061043  0.918280  1
  O  O23  1  0.007765  0.802046  0.617225  1
  O  O24  1  0.991751  0.199124  0.382319  1
  O  O25  1  0.733158  0.940528  0.082692  1
  O  O26  1  0.439992  0.233527  0.582781  1
  O  O27  1  0.382319  0.991751  0.199124  1
  O  O28  1  0.233527  0.582781  0.439992  1
  O  O29  1  0.061043  0.918280  0.267690  1
  O  O30  1  0.582781  0.439992  0.233527  1
  O  O31  1  0.802046  0.617225  0.007765  1
  O  O32  1  0.116439  0.302503  0.507510  1
  O  O33  1  0.918280  0.267690  0.061043  1
  O  O34  1  0.507510  0.116439  0.302503  1
  O  O35  1  0.302503  0.507510  0.116439  1
