# generated using pymatgen
data_Li2V(OF)2
_symmetry_space_group_name_H-M   'P 1'
_cell_length_a   5.04606285
_cell_length_b   11.23899673
_cell_length_c   5.16359574
_cell_angle_alpha   90.00000000
_cell_angle_beta   91.23481051
_cell_angle_gamma   90.00000000
_symmetry_Int_Tables_number   1
_chemical_formula_structural   Li2V(OF)2
_chemical_formula_sum   'Li8 V4 O8 F8'
_cell_volume   292.77336792
_cell_formula_units_Z   4
loop_
 _symmetry_equiv_pos_site_id
 _symmetry_equiv_pos_as_xyz
  1  'x, y, z'
loop_
 _atom_site_type_symbol
 _atom_site_label
 _atom_site_symmetry_multiplicity
 _atom_site_fract_x
 _atom_site_fract_y
 _atom_site_fract_z
 _atom_site_occupancy
  Li  Li0  1  0.001723  0.360579  0.751522  1
  Li  Li1  1  0.001723  0.639421  0.251522  1
  Li  Li2  1  0.998485  0.215780  0.255084  1
  Li  Li3  1  0.998485  0.784220  0.755084  1
  Li  Li4  1  0.496564  0.859336  0.774301  1
  Li  Li5  1  0.509237  0.286515  0.751511  1
  Li  Li6  1  0.509237  0.713485  0.251511  1
  Li  Li7  1  0.496564  0.140664  0.274301  1
  V  V8  1  0.005702  0.073414  0.713679  1
  V  V9  1  0.005702  0.926586  0.213679  1
  V  V10  1  0.501366  0.551918  0.752035  1
  V  V11  1  0.501366  0.448082  0.252035  1
  O  O12  1  0.190449  0.052054  0.408232  1
  O  O13  1  0.190449  0.947946  0.908232  1
  O  O14  1  0.290590  0.552461  0.425264  1
  O  O15  1  0.290590  0.447539  0.925264  1
  O  O16  1  0.709851  0.446063  0.580858  1
  O  O17  1  0.709851  0.553937  0.080858  1
  O  O18  1  0.780653  0.181030  0.599472  1
  O  O19  1  0.780653  0.818970  0.099472  1
  F  F20  1  0.224681  0.193184  0.910320  1
  F  F21  1  0.224681  0.806816  0.410320  1
  F  F22  1  0.289175  0.306295  0.409820  1
  F  F23  1  0.289175  0.693705  0.909820  1
  F  F24  1  0.718006  0.309210  0.093497  1
  F  F25  1  0.718006  0.690790  0.593497  1
  F  F26  1  0.783519  0.065349  0.074406  1
  F  F27  1  0.783519  0.934651  0.574406  1
