# generated using pymatgen
data_V(CO3)2
_symmetry_space_group_name_H-M   'P 1'
_cell_length_a   6.04867259
_cell_length_b   6.04867259
_cell_length_c   6.04867259
_cell_angle_alpha   46.86435226
_cell_angle_beta   46.86435226
_cell_angle_gamma   46.86435226
_symmetry_Int_Tables_number   1
_chemical_formula_structural   V(CO3)2
_chemical_formula_sum   'V1 C2 O6'
_cell_volume   107.69164771
_cell_formula_units_Z   1
loop_
 _symmetry_equiv_pos_site_id
 _symmetry_equiv_pos_as_xyz
  1  'x, y, z'
loop_
 _atom_site_type_symbol
 _atom_site_label
 _atom_site_symmetry_multiplicity
 _atom_site_fract_x
 _atom_site_fract_y
 _atom_site_fract_z
 _atom_site_occupancy
  V  V0  1  0.000000  0.000000  0.000000  1
  C  C1  1  0.600041  0.600041  0.600041  1
  C  C2  1  0.399959  0.399959  0.399959  1
  O  O3  1  0.305724  0.656960  0.831655  1
  O  O4  1  0.343040  0.168345  0.694276  1
  O  O5  1  0.168345  0.694276  0.343040  1
  O  O6  1  0.831655  0.305724  0.656960  1
  O  O7  1  0.656960  0.831655  0.305724  1
  O  O8  1  0.694276  0.343040  0.168345  1
