# generated using pymatgen
data_ZrCuH8(O2F3)2
_symmetry_space_group_name_H-M   'P 1'
_cell_length_a   5.80205927
_cell_length_b   10.03206149
_cell_length_c   7.63414142
_cell_angle_alpha   90.00000000
_cell_angle_beta   102.10361521
_cell_angle_gamma   90.00000000
_symmetry_Int_Tables_number   1
_chemical_formula_structural   ZrCuH8(O2F3)2
_chemical_formula_sum   'Zr2 Cu2 H16 O8 F12'
_cell_volume   434.47946900
_cell_formula_units_Z   2
loop_
 _symmetry_equiv_pos_site_id
 _symmetry_equiv_pos_as_xyz
  1  'x, y, z'
loop_
 _atom_site_type_symbol
 _atom_site_label
 _atom_site_symmetry_multiplicity
 _atom_site_fract_x
 _atom_site_fract_y
 _atom_site_fract_z
 _atom_site_occupancy
  Zr  Zr0  1  0.500000  0.000000  0.500000  1
  Zr  Zr1  1  0.500000  0.500000  0.000000  1
  Cu  Cu2  1  0.000000  0.000000  0.000000  1
  Cu  Cu3  1  0.000000  0.500000  0.500000  1
  H  H4  1  0.216000  0.144150  0.793015  1
  H  H5  1  0.784000  0.644150  0.706985  1
  H  H6  1  0.784000  0.855850  0.206985  1
  H  H7  1  0.216000  0.355850  0.293015  1
  H  H8  1  0.214279  0.220900  0.973596  1
  H  H9  1  0.785721  0.720900  0.526404  1
  H  H10  1  0.785721  0.779100  0.026404  1
  H  H11  1  0.214279  0.279100  0.473596  1
  H  H12  1  0.242120  0.863520  0.814902  1
  H  H13  1  0.757880  0.363520  0.685098  1
  H  H14  1  0.757880  0.136480  0.185098  1
  H  H15  1  0.242120  0.636480  0.314902  1
  H  H16  1  0.241893  0.790096  0.000816  1
  H  H17  1  0.758107  0.290096  0.499184  1
  H  H18  1  0.758107  0.209904  0.999184  1
  H  H19  1  0.241893  0.709904  0.500816  1
  O  O20  1  0.242988  0.878748  0.942795  1
  O  O21  1  0.757012  0.378748  0.557205  1
  O  O22  1  0.757012  0.121252  0.057205  1
  O  O23  1  0.242988  0.621252  0.442795  1
  O  O24  1  0.124588  0.156654  0.887707  1
  O  O25  1  0.875412  0.656654  0.612293  1
  O  O26  1  0.875412  0.843346  0.112293  1
  O  O27  1  0.124588  0.343346  0.387707  1
  F  F28  1  0.249881  0.464902  0.779311  1
  F  F29  1  0.750119  0.964902  0.720689  1
  F  F30  1  0.750119  0.535098  0.220689  1
  F  F31  1  0.249881  0.035098  0.279311  1
  F  F32  1  0.288423  0.863842  0.592622  1
  F  F33  1  0.711577  0.363842  0.907378  1
  F  F34  1  0.711577  0.136158  0.407378  1
  F  F35  1  0.288423  0.636158  0.092622  1
  F  F36  1  0.353998  0.151012  0.622203  1
  F  F37  1  0.646002  0.651012  0.877797  1
  F  F38  1  0.646002  0.848988  0.377797  1
  F  F39  1  0.353998  0.348988  0.122203  1
