# generated using pymatgen
data_Sm2Se2O
_symmetry_space_group_name_H-M   'P 1'
_cell_length_a   4.02295503
_cell_length_b   7.17526766
_cell_length_c   16.45709059
_cell_angle_alpha   90.00000000
_cell_angle_beta   90.00000000
_cell_angle_gamma   90.00000000
_symmetry_Int_Tables_number   1
_chemical_formula_structural   Sm2Se2O
_chemical_formula_sum   'Sm8 Se8 O4'
_cell_volume   475.04674200
_cell_formula_units_Z   4
loop_
 _symmetry_equiv_pos_site_id
 _symmetry_equiv_pos_as_xyz
  1  'x, y, z'
loop_
 _atom_site_type_symbol
 _atom_site_label
 _atom_site_symmetry_multiplicity
 _atom_site_fract_x
 _atom_site_fract_y
 _atom_site_fract_z
 _atom_site_occupancy
  Sm  Sm0  1  0.250000  0.698192  0.038271  1
  Sm  Sm1  1  0.250000  0.258877  0.161489  1
  Sm  Sm2  1  0.750000  0.758877  0.338511  1
  Sm  Sm3  1  0.750000  0.198192  0.461729  1
  Sm  Sm4  1  0.250000  0.801808  0.538271  1
  Sm  Sm5  1  0.250000  0.241123  0.661489  1
  Sm  Sm6  1  0.750000  0.741123  0.838511  1
  Sm  Sm7  1  0.750000  0.301808  0.961729  1
  Se  Se8  1  0.750000  0.009982  0.099522  1
  Se  Se9  1  0.750000  0.551519  0.179478  1
  Se  Se10  1  0.250000  0.051519  0.320522  1
  Se  Se11  1  0.250000  0.509982  0.400478  1
  Se  Se12  1  0.750000  0.490018  0.599522  1
  Se  Se13  1  0.750000  0.948481  0.679478  1
  Se  Se14  1  0.250000  0.448481  0.820522  1
  Se  Se15  1  0.250000  0.990018  0.900478  1
  O  O16  1  0.250000  0.371749  0.030519  1
  O  O17  1  0.750000  0.871749  0.469481  1
  O  O18  1  0.250000  0.128251  0.530519  1
  O  O19  1  0.750000  0.628251  0.969481  1
