# generated using pymatgen
data_KP(HO2)2
_symmetry_space_group_name_H-M   'P 1'
_cell_length_a   7.73261945
_cell_length_b   7.73261945
_cell_length_c   14.51333812
_cell_angle_alpha   88.36061200
_cell_angle_beta   91.63938800
_cell_angle_gamma   107.81240900
_symmetry_Int_Tables_number   1
_chemical_formula_structural   KP(HO2)2
_chemical_formula_sum   'K8 P8 H16 O32'
_cell_volume   825.68422789
_cell_formula_units_Z   8
loop_
 _symmetry_equiv_pos_site_id
 _symmetry_equiv_pos_as_xyz
  1  'x, y, z'
loop_
 _atom_site_type_symbol
 _atom_site_label
 _atom_site_symmetry_multiplicity
 _atom_site_fract_x
 _atom_site_fract_y
 _atom_site_fract_z
 _atom_site_occupancy
  K  K0  1  0.859231  0.361393  0.289404  1
  K  K1  1  0.638607  0.140769  0.789404  1
  K  K2  1  0.392237  0.351058  0.039126  1
  K  K3  1  0.898335  0.859382  0.046430  1
  K  K4  1  0.648942  0.607763  0.539126  1
  K  K5  1  0.140618  0.101665  0.546430  1
  K  K6  1  0.361160  0.854757  0.272851  1
  K  K7  1  0.145243  0.638840  0.772851  1
  P  P8  1  0.874629  0.323576  0.039134  1
  P  P9  1  0.676424  0.125371  0.539134  1
  P  P10  1  0.361990  0.351255  0.287864  1
  P  P11  1  0.846646  0.839920  0.285290  1
  P  P12  1  0.648745  0.638010  0.787864  1
  P  P13  1  0.160080  0.153354  0.785290  1
  P  P14  1  0.375516  0.843470  0.035814  1
  P  P15  1  0.156530  0.624484  0.535814  1
  H  H16  1  0.634606  0.112513  0.103965  1
  H  H17  1  0.887487  0.365394  0.603965  1
  H  H18  1  0.488228  0.220527  0.402101  1
  H  H19  1  0.779473  0.511772  0.902101  1
  H  H20  1  0.116408  0.120966  0.234106  1
  H  H21  1  0.621847  0.611045  0.220385  1
  H  H22  1  0.879034  0.883592  0.734106  1
  H  H23  1  0.388955  0.378153  0.720385  1
  H  H24  1  0.761747  0.980733  0.403118  1
  H  H25  1  0.242897  0.479553  0.420479  1
  H  H26  1  0.019267  0.238253  0.903118  1
  H  H27  1  0.520447  0.757103  0.920479  1
  H  H28  1  0.101510  0.565650  0.091289  1
  H  H29  1  0.434350  0.898490  0.591289  1
  H  H30  1  0.025601  0.740917  0.418312  1
  H  H31  1  0.259083  0.974399  0.918312  1
  O  O32  1  0.772960  0.176656  0.113901  1
  O  O33  1  0.823344  0.227040  0.613901  1
  O  O34  1  0.960291  0.501185  0.097387  1
  O  O35  1  0.498815  0.039709  0.597387  1
  O  O36  1  0.433633  0.013062  0.094697  1
  O  O37  1  0.986938  0.566367  0.594697  1
  O  O38  1  0.644082  0.262574  0.467840  1
  O  O39  1  0.737426  0.355918  0.967840  1
  O  O40  1  0.375931  0.189966  0.356338  1
  O  O41  1  0.861083  0.698111  0.358588  1
  O  O42  1  0.810034  0.624069  0.856338  1
  O  O43  1  0.522840  0.409302  0.223252  1
  O  O44  1  0.301889  0.138917  0.858588  1
  O  O45  1  0.590698  0.477160  0.723252  1
  O  O46  1  0.690205  0.749191  0.212093  1
  O  O47  1  0.250809  0.309795  0.712093  1
  O  O48  1  0.178145  0.263338  0.232853  1
  O  O49  1  0.736662  0.821855  0.732853  1
  O  O50  1  0.344333  0.512291  0.342122  1
  O  O51  1  0.487709  0.655667  0.842122  1
  O  O52  1  0.782559  0.994412  0.330177  1
  O  O53  1  0.026326  0.261189  0.998717  1
  O  O54  1  0.005588  0.217441  0.830177  1
  O  O55  1  0.738811  0.973674  0.498717  1
  O  O56  1  0.162345  0.450913  0.481858  1
  O  O57  1  0.549087  0.837655  0.981858  1
  O  O58  1  0.292236  0.666157  0.089509  1
  O  O59  1  0.333843  0.707764  0.589509  1
  O  O60  1  0.143794  0.774822  0.459891  1
  O  O61  1  0.225178  0.856206  0.959891  1
  O  O62  1  0.020485  0.927576  0.231887  1
  O  O63  1  0.072424  0.979515  0.731887  1
