# generated using pymatgen
data_Ba3La2Cl12
_symmetry_space_group_name_H-M   'P 1'
_cell_length_a   8.99773307
_cell_length_b   8.99773307
_cell_length_c   15.93903942
_cell_angle_alpha   79.38763495
_cell_angle_beta   100.61236505
_cell_angle_gamma   70.07143699
_symmetry_Int_Tables_number   1
_chemical_formula_structural   Ba3La2Cl12
_chemical_formula_sum   'Ba6 La4 Cl24'
_cell_volume   1149.02432797
_cell_formula_units_Z   2
loop_
 _symmetry_equiv_pos_site_id
 _symmetry_equiv_pos_as_xyz
  1  'x, y, z'
loop_
 _atom_site_type_symbol
 _atom_site_label
 _atom_site_symmetry_multiplicity
 _atom_site_fract_x
 _atom_site_fract_y
 _atom_site_fract_z
 _atom_site_occupancy
  Ba  Ba0  1  0.869839  0.869839  0.750000  1
  Ba  Ba1  1  0.786079  0.460807  0.579930  1
  Ba  Ba2  1  0.539193  0.213921  0.079930  1
  Ba  Ba3  1  0.460807  0.786079  0.920070  1
  Ba  Ba4  1  0.213921  0.539193  0.420070  1
  Ba  Ba5  1  0.130161  0.130161  0.250000  1
  La  La6  1  0.950839  0.299220  0.910035  1
  La  La7  1  0.700780  0.049161  0.410035  1
  La  La8  1  0.299220  0.950839  0.589965  1
  La  La9  1  0.049161  0.700780  0.089965  1
  Cl  Cl10  1  0.387871  0.591479  0.082875  1
  Cl  Cl11  1  0.059551  0.904398  0.926640  1
  Cl  Cl12  1  0.591479  0.387871  0.417125  1
  Cl  Cl13  1  0.502245  0.006266  0.260215  1
  Cl  Cl14  1  0.794412  0.237127  0.757346  1
  Cl  Cl15  1  0.156941  0.356484  0.074706  1
  Cl  Cl16  1  0.904398  0.059551  0.573360  1
  Cl  Cl17  1  0.643516  0.843059  0.574706  1
  Cl  Cl18  1  0.993734  0.497755  0.760215  1
  Cl  Cl19  1  0.705317  0.854263  0.069933  1
  Cl  Cl20  1  0.237127  0.794412  0.742654  1
  Cl  Cl21  1  0.854263  0.705317  0.430067  1
  Cl  Cl22  1  0.145737  0.294683  0.569933  1
  Cl  Cl23  1  0.762873  0.205588  0.257346  1
  Cl  Cl24  1  0.294683  0.145737  0.930067  1
  Cl  Cl25  1  0.006266  0.502245  0.239785  1
  Cl  Cl26  1  0.356484  0.156941  0.425294  1
  Cl  Cl27  1  0.095602  0.940449  0.426640  1
  Cl  Cl28  1  0.843059  0.643516  0.925294  1
  Cl  Cl29  1  0.205588  0.762873  0.242654  1
  Cl  Cl30  1  0.497755  0.993734  0.739785  1
  Cl  Cl31  1  0.408521  0.612129  0.582875  1
  Cl  Cl32  1  0.940449  0.095602  0.073360  1
  Cl  Cl33  1  0.612129  0.408521  0.917125  1
