# generated using pymatgen
data_Li2FeF4
_symmetry_space_group_name_H-M   'P 1'
_cell_length_a   5.83722664
_cell_length_b   5.83722664
_cell_length_c   5.40932750
_cell_angle_alpha   87.08249005
_cell_angle_beta   92.91750995
_cell_angle_gamma   121.12531075
_symmetry_Int_Tables_number   1
_chemical_formula_structural   Li2FeF4
_chemical_formula_sum   'Li4 Fe2 F8'
_cell_volume   157.50954498
_cell_formula_units_Z   2
loop_
 _symmetry_equiv_pos_site_id
 _symmetry_equiv_pos_as_xyz
  1  'x, y, z'
loop_
 _atom_site_type_symbol
 _atom_site_label
 _atom_site_symmetry_multiplicity
 _atom_site_fract_x
 _atom_site_fract_y
 _atom_site_fract_z
 _atom_site_occupancy
  Li  Li0  1  0.061816  0.658455  0.784699  1
  Li  Li1  1  0.341545  0.938184  0.284699  1
  Li  Li2  1  0.658455  0.061816  0.715301  1
  Li  Li3  1  0.938184  0.341545  0.215301  1
  Fe  Fe4  1  0.354103  0.354103  0.750000  1
  Fe  Fe5  1  0.645897  0.645897  0.250000  1
  F  F6  1  0.996683  0.285785  0.882379  1
  F  F7  1  0.714215  0.003317  0.382379  1
  F  F8  1  0.496315  0.731932  0.909306  1
  F  F9  1  0.268068  0.503685  0.409306  1
  F  F10  1  0.731932  0.496315  0.590694  1
  F  F11  1  0.503685  0.268068  0.090694  1
  F  F12  1  0.285785  0.996683  0.617621  1
  F  F13  1  0.003317  0.714215  0.117621  1
