# generated using pymatgen
data_Li3Mn4NiO8
_symmetry_space_group_name_H-M   'P 1'
_cell_length_a   5.98152699
_cell_length_b   5.98152699
_cell_length_c   6.07686473
_cell_angle_alpha   59.69960300
_cell_angle_beta   120.30039700
_cell_angle_gamma   118.99479098
_symmetry_Int_Tables_number   1
_chemical_formula_structural   Li3Mn4NiO8
_chemical_formula_sum   'Li3 Mn4 Ni1 O8'
_cell_volume   154.15649674
_cell_formula_units_Z   1
loop_
 _symmetry_equiv_pos_site_id
 _symmetry_equiv_pos_as_xyz
  1  'x, y, z'
loop_
 _atom_site_type_symbol
 _atom_site_label
 _atom_site_symmetry_multiplicity
 _atom_site_fract_x
 _atom_site_fract_y
 _atom_site_fract_z
 _atom_site_occupancy
  Li  Li0  1  0.500000  0.000000  0.500000  1
  Li  Li1  1  1.000000  0.000000  0.500000  1
  Li  Li2  1  1.000000  0.500000  0.500000  1
  Mn  Mn3  1  0.500000  0.500000  0.500000  1
  Mn  Mn4  1  0.000000  0.000000  0.000000  1
  Mn  Mn5  1  0.500000  0.000000  0.000000  1
  Mn  Mn6  1  0.000000  0.500000  0.000000  1
  Ni  Ni7  1  0.500000  0.500000  0.000000  1
  O  O8  1  0.250571  0.749429  0.791216  1
  O  O9  1  0.760942  0.735541  0.766996  1
  O  O10  1  0.264459  0.239058  0.766996  1
  O  O11  1  0.746039  0.253961  0.724485  1
  O  O12  1  0.253961  0.746039  0.275515  1
  O  O13  1  0.735541  0.760942  0.233004  1
  O  O14  1  0.239058  0.264459  0.233004  1
  O  O15  1  0.749429  0.250571  0.208784  1
