# generated using pymatgen
data_Li8Sb7S19
_symmetry_space_group_name_H-M   'P 1'
_cell_length_a   8.25164872
_cell_length_b   8.25164872
_cell_length_c   22.40933034
_cell_angle_alpha   85.96615053
_cell_angle_beta   94.03384947
_cell_angle_gamma   102.60277129
_symmetry_Int_Tables_number   1
_chemical_formula_structural   Li8Sb7S19
_chemical_formula_sum   'Li16 Sb14 S38'
_cell_volume   1483.02006222
_cell_formula_units_Z   2
loop_
 _symmetry_equiv_pos_site_id
 _symmetry_equiv_pos_as_xyz
  1  'x, y, z'
loop_
 _atom_site_type_symbol
 _atom_site_label
 _atom_site_symmetry_multiplicity
 _atom_site_fract_x
 _atom_site_fract_y
 _atom_site_fract_z
 _atom_site_occupancy
  Li  Li0  1  0.766043  0.994130  0.994728  1
  Li  Li1  1  0.005870  0.233957  0.494728  1
  Li  Li2  1  0.553568  0.245664  0.097277  1
  Li  Li3  1  0.754336  0.446432  0.597277  1
  Li  Li4  1  0.614331  0.390039  0.437103  1
  Li  Li5  1  0.609961  0.385669  0.937103  1
  Li  Li6  1  0.860864  0.701893  0.361030  1
  Li  Li7  1  0.298107  0.139136  0.861030  1
  Li  Li8  1  0.701893  0.860864  0.138970  1
  Li  Li9  1  0.139136  0.298107  0.638970  1
  Li  Li10  1  0.390039  0.614331  0.062897  1
  Li  Li11  1  0.385669  0.609961  0.562897  1
  Li  Li12  1  0.245664  0.553568  0.402723  1
  Li  Li13  1  0.446432  0.754336  0.902723  1
  Li  Li14  1  0.994130  0.766043  0.505272  1
  Li  Li15  1  0.233957  0.005870  0.005272  1
  Sb  Sb16  1  0.877143  0.298707  0.337750  1
  Sb  Sb17  1  0.701293  0.122857  0.837750  1
  Sb  Sb18  1  0.892854  0.605492  0.067831  1
  Sb  Sb19  1  0.394508  0.107146  0.567831  1
  Sb  Sb20  1  0.239784  0.102581  0.387283  1
  Sb  Sb21  1  0.897419  0.760216  0.887283  1
  Sb  Sb22  1  0.542204  0.542204  0.250000  1
  Sb  Sb23  1  0.457796  0.457796  0.750000  1
  Sb  Sb24  1  0.102581  0.239784  0.112717  1
  Sb  Sb25  1  0.760216  0.897419  0.612717  1
  Sb  Sb26  1  0.605492  0.892854  0.432169  1
  Sb  Sb27  1  0.107146  0.394508  0.932169  1
  Sb  Sb28  1  0.298707  0.877143  0.162250  1
  Sb  Sb29  1  0.122857  0.701293  0.662250  1
  S  S30  1  0.938549  0.990795  0.416594  1
  S  S31  1  0.009205  0.061451  0.916594  1
  S  S32  1  0.912001  0.157479  0.211123  1
  S  S33  1  0.843698  0.310543  0.037650  1
  S  S34  1  0.842521  0.087999  0.711123  1
  S  S35  1  0.689457  0.156302  0.537650  1
  S  S36  1  0.926402  0.464132  0.427323  1
  S  S37  1  0.535868  0.073598  0.927323  1
  S  S38  1  0.535331  0.153822  0.357464  1
  S  S39  1  0.846178  0.464669  0.857464  1
  S  S40  1  0.844043  0.548197  0.267893  1
  S  S41  1  0.451803  0.155957  0.767893  1
  S  S42  1  0.349974  0.184064  0.178984  1
  S  S43  1  0.815936  0.650026  0.678984  1
  S  S44  1  0.634512  0.547554  0.127396  1
  S  S45  1  0.452446  0.365488  0.627396  1
  S  S46  1  0.313974  0.296912  0.474504  1
  S  S47  1  0.931647  0.931647  0.250000  1
  S  S48  1  0.296912  0.313974  0.025496  1
  S  S49  1  0.703088  0.686026  0.974504  1
  S  S50  1  0.068353  0.068353  0.750000  1
  S  S51  1  0.686026  0.703088  0.525496  1
  S  S52  1  0.547554  0.634512  0.372604  1
  S  S53  1  0.365488  0.452446  0.872604  1
  S  S54  1  0.184064  0.349974  0.321016  1
  S  S55  1  0.650026  0.815936  0.821016  1
  S  S56  1  0.548197  0.844043  0.232107  1
  S  S57  1  0.155957  0.451803  0.732107  1
  S  S58  1  0.153822  0.535331  0.142536  1
  S  S59  1  0.464669  0.846178  0.642536  1
  S  S60  1  0.464132  0.926402  0.072677  1
  S  S61  1  0.073598  0.535868  0.572677  1
  S  S62  1  0.310543  0.843698  0.462350  1
  S  S63  1  0.157479  0.912001  0.288877  1
  S  S64  1  0.156302  0.689457  0.962350  1
  S  S65  1  0.087999  0.842521  0.788877  1
  S  S66  1  0.990795  0.938549  0.083406  1
  S  S67  1  0.061451  0.009205  0.583406  1
