# generated using pymatgen
data_Li2Ti3CrO8
_symmetry_space_group_name_H-M   'P 1'
_cell_length_a   5.89554427
_cell_length_b   5.89554427
_cell_length_c   9.64688891
_cell_angle_alpha   90.00000000
_cell_angle_beta   90.00000000
_cell_angle_gamma   120.00000000
_symmetry_Int_Tables_number   1
_chemical_formula_structural   Li2Ti3CrO8
_chemical_formula_sum   'Li4 Ti6 Cr2 O16'
_cell_volume   290.37934391
_cell_formula_units_Z   2
loop_
 _symmetry_equiv_pos_site_id
 _symmetry_equiv_pos_as_xyz
  1  'x, y, z'
loop_
 _atom_site_type_symbol
 _atom_site_label
 _atom_site_symmetry_multiplicity
 _atom_site_fract_x
 _atom_site_fract_y
 _atom_site_fract_z
 _atom_site_occupancy
  Li  Li0  1  0.333333  0.666667  0.892185  1
  Li  Li1  1  0.000000  0.000000  0.996600  1
  Li  Li2  1  0.000000  0.000000  0.496600  1
  Li  Li3  1  0.666667  0.333333  0.392185  1
  Ti  Ti4  1  0.169056  0.830944  0.213481  1
  Ti  Ti5  1  0.169056  0.338111  0.213481  1
  Ti  Ti6  1  0.661889  0.830944  0.213481  1
  Ti  Ti7  1  0.338111  0.169056  0.713481  1
  Ti  Ti8  1  0.830944  0.661889  0.713481  1
  Ti  Ti9  1  0.830944  0.169056  0.713481  1
  Cr  Cr10  1  0.333333  0.666667  0.484039  1
  Cr  Cr11  1  0.666667  0.333333  0.984039  1
  O  O12  1  0.163538  0.836462  0.603512  1
  O  O13  1  0.039910  0.519955  0.338358  1
  O  O14  1  0.333333  0.666667  0.102901  1
  O  O15  1  0.000000  0.000000  0.312207  1
  O  O16  1  0.000000  0.000000  0.812207  1
  O  O17  1  0.163538  0.327075  0.603512  1
  O  O18  1  0.480045  0.960090  0.338358  1
  O  O19  1  0.480045  0.519955  0.338358  1
  O  O20  1  0.327075  0.163538  0.103512  1
  O  O21  1  0.672925  0.836462  0.603512  1
  O  O22  1  0.519955  0.480045  0.838358  1
  O  O23  1  0.519955  0.039910  0.838358  1
  O  O24  1  0.666667  0.333333  0.602901  1
  O  O25  1  0.836462  0.672925  0.103512  1
  O  O26  1  0.960090  0.480045  0.838358  1
  O  O27  1  0.836462  0.163538  0.103512  1
