# generated using pymatgen
data_Li3Cu(NiO2)4
_symmetry_space_group_name_H-M   'P 1'
_cell_length_a   5.83353138
_cell_length_b   5.83353138
_cell_length_c   5.87755279
_cell_angle_alpha   59.92465201
_cell_angle_beta   120.07534799
_cell_angle_gamma   119.80663285
_symmetry_Int_Tables_number   1
_chemical_formula_structural   Li3Cu(NiO2)4
_chemical_formula_sum   'Li3 Cu1 Ni4 O8'
_cell_volume   141.47452997
_cell_formula_units_Z   1
loop_
 _symmetry_equiv_pos_site_id
 _symmetry_equiv_pos_as_xyz
  1  'x, y, z'
loop_
 _atom_site_type_symbol
 _atom_site_label
 _atom_site_symmetry_multiplicity
 _atom_site_fract_x
 _atom_site_fract_y
 _atom_site_fract_z
 _atom_site_occupancy
  Li  Li0  1  0.500000  0.000000  0.500000  1
  Li  Li1  1  0.000000  0.000000  0.500000  1
  Li  Li2  1  0.000000  0.500000  0.500000  1
  Cu  Cu3  1  0.500000  0.500000  0.000000  1
  Ni  Ni4  1  0.500000  0.500000  0.500000  1
  Ni  Ni5  1  0.000000  0.000000  0.000000  1
  Ni  Ni6  1  0.500000  0.000000  0.000000  1
  Ni  Ni7  1  0.000000  0.500000  0.000000  1
  O  O8  1  0.254300  0.745700  0.787426  1
  O  O9  1  0.756917  0.729140  0.771461  1
  O  O10  1  0.270860  0.243083  0.771461  1
  O  O11  1  0.749536  0.250464  0.744910  1
  O  O12  1  0.250464  0.749536  0.255090  1
  O  O13  1  0.729140  0.756917  0.228539  1
  O  O14  1  0.243083  0.270860  0.228539  1
  O  O15  1  0.745700  0.254300  0.212574  1
