# generated using pymatgen
data_Li2Ni(PO3)4
_symmetry_space_group_name_H-M   'P 1'
_cell_length_a   4.63260221
_cell_length_b   9.30633171
_cell_length_c   9.32088682
_cell_angle_alpha   90.01091863
_cell_angle_beta   90.85707955
_cell_angle_gamma   90.68681321
_symmetry_Int_Tables_number   1
_chemical_formula_structural   Li2Ni(PO3)4
_chemical_formula_sum   'Li4 Ni2 P8 O24'
_cell_volume   401.77318486
_cell_formula_units_Z   2
loop_
 _symmetry_equiv_pos_site_id
 _symmetry_equiv_pos_as_xyz
  1  'x, y, z'
loop_
 _atom_site_type_symbol
 _atom_site_label
 _atom_site_symmetry_multiplicity
 _atom_site_fract_x
 _atom_site_fract_y
 _atom_site_fract_z
 _atom_site_occupancy
  Li  Li0  1  0.500540  0.003072  0.001816  1
  Li  Li1  1  0.500108  0.996705  0.496487  1
  Li  Li2  1  0.499715  0.501796  0.501012  1
  Li  Li3  1  0.499876  0.496093  0.997423  1
  Ni  Ni4  1  0.501013  0.220865  0.747504  1
  Ni  Ni5  1  0.501789  0.756011  0.221098  1
  P  P6  1  0.997626  0.026072  0.251985  1
  P  P7  1  0.003981  0.252277  0.474998  1
  P  P8  1  0.996403  0.252272  0.026310  1
  P  P9  1  0.003160  0.475339  0.252114  1
  P  P10  1  0.997639  0.525212  0.749342  1
  P  P11  1  0.001970  0.749087  0.973692  1
  P  P12  1  0.996801  0.748598  0.525725  1
  P  P13  1  0.001437  0.973740  0.749619  1
  O  O14  1  0.753614  0.050455  0.679159  1
  O  O15  1  0.246474  0.052982  0.823441  1
  O  O16  1  0.140283  0.134328  0.135098  1
  O  O17  1  0.852738  0.135099  0.365504  1
  O  O18  1  0.247726  0.179052  0.553264  1
  O  O19  1  0.750137  0.178758  0.947561  1
  O  O20  1  0.759374  0.322459  0.548707  1
  O  O21  1  0.243401  0.323123  0.952899  1
  O  O22  1  0.850747  0.364907  0.136095  1
  O  O23  1  0.156981  0.363938  0.364463  1
  O  O24  1  0.755304  0.450792  0.823619  1
  O  O25  1  0.243369  0.452818  0.679269  1
  O  O26  1  0.759100  0.548229  0.323236  1
  O  O27  1  0.246688  0.553493  0.179707  1
  O  O28  1  0.149317  0.637691  0.867195  1
  O  O29  1  0.845899  0.637243  0.637633  1
  O  O30  1  0.242979  0.678345  0.454533  1
  O  O31  1  0.754769  0.679315  0.050592  1
  O  O32  1  0.246909  0.823941  0.052244  1
  O  O33  1  0.754517  0.823193  0.450284  1
  O  O34  1  0.855780  0.866995  0.866967  1
  O  O35  1  0.147405  0.867327  0.637738  1
  O  O36  1  0.244293  0.950727  0.322654  1
  O  O37  1  0.750133  0.947709  0.178950  1
