# generated using pymatgen
data_Li4Fe3Co(PO4)4
_symmetry_space_group_name_H-M   'P 1'
_cell_length_a   4.74079445
_cell_length_b   6.05977473
_cell_length_c   10.40131953
_cell_angle_alpha   90.00000000
_cell_angle_beta   90.09964959
_cell_angle_gamma   90.00000000
_symmetry_Int_Tables_number   1
_chemical_formula_structural   Li4Fe3Co(PO4)4
_chemical_formula_sum   'Li4 Fe3 Co1 P4 O16'
_cell_volume   298.81017861
_cell_formula_units_Z   1
loop_
 _symmetry_equiv_pos_site_id
 _symmetry_equiv_pos_as_xyz
  1  'x, y, z'
loop_
 _atom_site_type_symbol
 _atom_site_label
 _atom_site_symmetry_multiplicity
 _atom_site_fract_x
 _atom_site_fract_y
 _atom_site_fract_z
 _atom_site_occupancy
  Li  Li0  1  0.000289  0.249653  0.999511  1
  Li  Li1  1  0.000289  0.750347  0.999511  1
  Li  Li2  1  0.500048  0.750153  0.500413  1
  Li  Li3  1  0.500048  0.249847  0.500413  1
  Fe  Fe4  1  0.474485  0.000000  0.218505  1
  Fe  Fe5  1  0.525195  0.500000  0.780546  1
  Fe  Fe6  1  0.974082  0.500000  0.281977  1
  Co  Co7  1  0.024448  0.000000  0.719672  1
  P  P8  1  0.082900  0.500000  0.595346  1
  P  P9  1  0.417563  0.500000  0.094492  1
  P  P10  1  0.582351  0.000000  0.904728  1
  P  P11  1  0.917736  0.000000  0.405897  1
  O  O12  1  0.206203  0.500000  0.456395  1
  O  O13  1  0.217003  0.295774  0.665851  1
  O  O14  1  0.217003  0.704226  0.665851  1
  O  O15  1  0.241994  0.000000  0.402508  1
  O  O16  1  0.257977  0.000000  0.902275  1
  O  O17  1  0.282984  0.296199  0.165484  1
  O  O18  1  0.282984  0.703801  0.165484  1
  O  O19  1  0.293645  0.500000  0.956201  1
  O  O20  1  0.706452  0.000000  0.043502  1
  O  O21  1  0.717194  0.796177  0.833965  1
  O  O22  1  0.717194  0.203823  0.833965  1
  O  O23  1  0.741954  0.500000  0.097383  1
  O  O24  1  0.758271  0.500000  0.597253  1
  O  O25  1  0.782928  0.796192  0.334444  1
  O  O26  1  0.782928  0.203808  0.334444  1
  O  O27  1  0.793854  0.000000  0.543985  1
