# generated using pymatgen
data_Li4AlCr3O8
_symmetry_space_group_name_H-M   'P 1'
_cell_length_a   5.10927620
_cell_length_b   5.86610650
_cell_length_c   10.57097273
_cell_angle_alpha   106.07405366
_cell_angle_beta   94.57648903
_cell_angle_gamma   106.66712637
_symmetry_Int_Tables_number   1
_chemical_formula_structural   Li4AlCr3O8
_chemical_formula_sum   'Li8 Al2 Cr6 O16'
_cell_volume   287.25677739
_cell_formula_units_Z   2
loop_
 _symmetry_equiv_pos_site_id
 _symmetry_equiv_pos_as_xyz
  1  'x, y, z'
loop_
 _atom_site_type_symbol
 _atom_site_label
 _atom_site_symmetry_multiplicity
 _atom_site_fract_x
 _atom_site_fract_y
 _atom_site_fract_z
 _atom_site_occupancy
  Li  Li0  1  0.499994  0.749798  0.000213  1
  Li  Li1  1  0.499696  0.126147  0.748937  1
  Li  Li2  1  0.500602  0.375295  0.251153  1
  Li  Li3  1  0.500000  0.000000  0.500000  1
  Li  Li4  1  0.500006  0.250202  0.999787  1
  Li  Li5  1  0.499398  0.624705  0.748847  1
  Li  Li6  1  0.500304  0.873853  0.251063  1
  Li  Li7  1  0.500000  0.500000  0.500000  1
  Al  Al8  1  0.000246  0.685487  0.376801  1
  Al  Al9  1  0.999754  0.314513  0.623199  1
  Cr  Cr10  1  0.999884  0.939789  0.872868  1
  Cr  Cr11  1  0.999819  0.562841  0.126406  1
  Cr  Cr12  1  0.999676  0.187945  0.376735  1
  Cr  Cr13  1  0.000181  0.437159  0.873594  1
  Cr  Cr14  1  0.000324  0.812055  0.623265  1
  Cr  Cr15  1  0.000116  0.060211  0.127132  1
  O  O16  1  0.783044  0.357755  0.443296  1
  O  O17  1  0.220252  0.532347  0.313861  1
  O  O18  1  0.772893  0.599108  0.938917  1
  O  O19  1  0.227365  0.776843  0.809502  1
  O  O20  1  0.220147  0.157649  0.563263  1
  O  O21  1  0.778096  0.985987  0.684814  1
  O  O22  1  0.772635  0.223157  0.190498  1
  O  O23  1  0.227107  0.400892  0.061083  1
  O  O24  1  0.779853  0.842351  0.436737  1
  O  O25  1  0.221904  0.014013  0.315186  1
  O  O26  1  0.772821  0.098020  0.939939  1
  O  O27  1  0.221535  0.279940  0.802291  1
  O  O28  1  0.779748  0.467653  0.686139  1
  O  O29  1  0.778465  0.720060  0.197709  1
  O  O30  1  0.216956  0.642245  0.556704  1
  O  O31  1  0.227179  0.901980  0.060061  1
