# generated using pymatgen
data_Tm2(WO4)3
_symmetry_space_group_name_H-M   'P 1'
_cell_length_a   10.04477609
_cell_length_b   10.16168157
_cell_length_c   17.16137368
_cell_angle_alpha   90.00000000
_cell_angle_beta   125.40876060
_cell_angle_gamma   90.00000000
_symmetry_Int_Tables_number   1
_chemical_formula_structural   Tm2(WO4)3
_chemical_formula_sum   'Tm8 W12 O48'
_cell_volume   1427.69814059
_cell_formula_units_Z   4
loop_
 _symmetry_equiv_pos_site_id
 _symmetry_equiv_pos_as_xyz
  1  'x, y, z'
loop_
 _atom_site_type_symbol
 _atom_site_label
 _atom_site_symmetry_multiplicity
 _atom_site_fract_x
 _atom_site_fract_y
 _atom_site_fract_z
 _atom_site_occupancy
  Tm  Tm0  1  0.133306  0.970418  0.881725  1
  Tm  Tm1  1  0.637079  0.034340  0.381757  1
  Tm  Tm2  1  0.362921  0.534340  0.118243  1
  Tm  Tm3  1  0.866694  0.470418  0.618275  1
  Tm  Tm4  1  0.133306  0.529582  0.381725  1
  Tm  Tm5  1  0.637079  0.465660  0.881757  1
  Tm  Tm6  1  0.362921  0.965660  0.618243  1
  Tm  Tm7  1  0.866694  0.029582  0.118275  1
  W  W8  1  0.973978  0.749208  0.499950  1
  W  W9  1  0.253102  0.619373  0.856631  1
  W  W10  1  0.535490  0.880326  0.142903  1
  W  W11  1  0.464510  0.380326  0.357097  1
  W  W12  1  0.746898  0.119373  0.643369  1
  W  W13  1  0.026022  0.249208  0.000050  1
  W  W14  1  0.973978  0.750792  0.999950  1
  W  W15  1  0.253102  0.880627  0.356631  1
  W  W16  1  0.535490  0.619674  0.642903  1
  W  W17  1  0.464510  0.119674  0.857097  1
  W  W18  1  0.746898  0.380627  0.143369  1
  W  W19  1  0.026022  0.250792  0.500050  1
  O  O20  1  0.295787  0.096757  0.866874  1
  O  O21  1  0.004634  0.343927  0.582412  1
  O  O22  1  0.832539  0.174117  0.410928  1
  O  O23  1  0.563099  0.411265  0.137249  1
  O  O24  1  0.819532  0.874981  0.434883  1
  O  O25  1  0.200205  0.792890  0.834489  1
  O  O26  1  0.525124  0.708810  0.167743  1
  O  O27  1  0.915954  0.640353  0.558887  1
  O  O28  1  0.565723  0.983118  0.238150  1
  O  O29  1  0.085063  0.521636  0.761686  1
  O  O30  1  0.288015  0.575580  0.969329  1
  O  O31  1  0.347400  0.926902  0.031208  1
  O  O32  1  0.652600  0.426902  0.468792  1
  O  O33  1  0.711985  0.075580  0.530671  1
  O  O34  1  0.914937  0.021636  0.738314  1
  O  O35  1  0.434277  0.483118  0.261850  1
  O  O36  1  0.084046  0.140353  0.941113  1
  O  O37  1  0.474876  0.208810  0.332257  1
  O  O38  1  0.799795  0.292890  0.665511  1
  O  O39  1  0.180468  0.374981  0.065117  1
  O  O40  1  0.995366  0.843927  0.917588  1
  O  O41  1  0.436901  0.911265  0.362751  1
  O  O42  1  0.167461  0.674117  0.089072  1
  O  O43  1  0.704213  0.596757  0.633126  1
  O  O44  1  0.295787  0.403243  0.366874  1
  O  O45  1  0.832539  0.325883  0.910928  1
  O  O46  1  0.563099  0.088735  0.637249  1
  O  O47  1  0.004634  0.156073  0.082412  1
  O  O48  1  0.819532  0.625019  0.934883  1
  O  O49  1  0.200205  0.707110  0.334489  1
  O  O50  1  0.525124  0.791190  0.667743  1
  O  O51  1  0.915954  0.859647  0.058887  1
  O  O52  1  0.565723  0.516882  0.738150  1
  O  O53  1  0.085063  0.978364  0.261686  1
  O  O54  1  0.288015  0.924420  0.469329  1
  O  O55  1  0.347400  0.573098  0.531208  1
  O  O56  1  0.652600  0.073098  0.968792  1
  O  O57  1  0.711985  0.424420  0.030671  1
  O  O58  1  0.914937  0.478364  0.238314  1
  O  O59  1  0.434277  0.016882  0.761850  1
  O  O60  1  0.084046  0.359647  0.441113  1
  O  O61  1  0.474876  0.291190  0.832257  1
  O  O62  1  0.799795  0.207110  0.165511  1
  O  O63  1  0.180468  0.125019  0.565117  1
  O  O64  1  0.436901  0.588735  0.862751  1
  O  O65  1  0.167461  0.825883  0.589072  1
  O  O66  1  0.995366  0.656073  0.417588  1
  O  O67  1  0.704213  0.903243  0.133126  1
