# generated using pymatgen
data_Li12MnFe3P4(CO7)4
_symmetry_space_group_name_H-M   'P 1'
_cell_length_a   8.53595582
_cell_length_b   6.51363464
_cell_length_c   10.04057305
_cell_angle_alpha   90.00000000
_cell_angle_beta   94.79485056
_cell_angle_gamma   90.00000000
_symmetry_Int_Tables_number   1
_chemical_formula_structural   Li12MnFe3P4(CO7)4
_chemical_formula_sum   'Li12 Mn1 Fe3 P4 C4 O28'
_cell_volume   556.30315203
_cell_formula_units_Z   1
loop_
 _symmetry_equiv_pos_site_id
 _symmetry_equiv_pos_as_xyz
  1  'x, y, z'
loop_
 _atom_site_type_symbol
 _atom_site_label
 _atom_site_symmetry_multiplicity
 _atom_site_fract_x
 _atom_site_fract_y
 _atom_site_fract_z
 _atom_site_occupancy
  Li  Li0  1  0.907969  0.000000  0.379642  1
  Li  Li1  1  0.909524  0.000000  0.879327  1
  Li  Li2  1  0.725567  0.225306  0.124311  1
  Li  Li3  1  0.725567  0.774694  0.124311  1
  Li  Li4  1  0.726367  0.226136  0.623450  1
  Li  Li5  1  0.726367  0.773864  0.623450  1
  Li  Li6  1  0.274566  0.724212  0.376444  1
  Li  Li7  1  0.274566  0.275788  0.376444  1
  Li  Li8  1  0.274012  0.724657  0.876942  1
  Li  Li9  1  0.274012  0.275343  0.876942  1
  Li  Li10  1  0.091746  0.500000  0.120270  1
  Li  Li11  1  0.092966  0.500000  0.619787  1
  Mn  Mn12  1  0.340593  0.000000  0.610981  1
  Fe  Fe13  1  0.665344  0.500000  0.394222  1
  Fe  Fe14  1  0.664681  0.500000  0.893658  1
  Fe  Fe15  1  0.333999  0.000000  0.105517  1
  P  P16  1  0.586998  0.000000  0.358350  1
  P  P17  1  0.589662  0.000000  0.860332  1
  P  P18  1  0.412208  0.500000  0.140734  1
  P  P19  1  0.411179  0.500000  0.639987  1
  C  C20  1  0.965659  0.500000  0.351166  1
  C  C21  1  0.965884  0.500000  0.851434  1
  C  C22  1  0.034732  0.000000  0.148673  1
  C  C23  1  0.032736  0.000000  0.648249  1
  O  O24  1  0.928738  0.500000  0.473758  1
  O  O25  1  0.888665  0.000000  0.178000  1
  O  O26  1  0.929111  0.500000  0.973997  1
  O  O27  1  0.852762  0.500000  0.254681  1
  O  O28  1  0.886586  0.000000  0.677820  1
  O  O29  1  0.852821  0.500000  0.754990  1
  O  O30  1  0.688546  0.186658  0.411983  1
  O  O31  1  0.688546  0.813342  0.411983  1
  O  O32  1  0.689853  0.187042  0.913965  1
  O  O33  1  0.689853  0.812958  0.913965  1
  O  O34  1  0.578264  0.500000  0.090389  1
  O  O35  1  0.571957  0.000000  0.202148  1
  O  O36  1  0.578226  0.500000  0.590609  1
  O  O37  1  0.576398  0.000000  0.704314  1
  O  O38  1  0.428213  0.500000  0.296840  1
  O  O39  1  0.420916  0.000000  0.407983  1
  O  O40  1  0.428096  0.500000  0.796522  1
  O  O41  1  0.421714  0.000000  0.907029  1
  O  O42  1  0.310830  0.313273  0.087450  1
  O  O43  1  0.310830  0.686727  0.087450  1
  O  O44  1  0.309399  0.684808  0.586506  1
  O  O45  1  0.309399  0.315192  0.586506  1
  O  O46  1  0.147059  0.000000  0.245119  1
  O  O47  1  0.111019  0.500000  0.321773  1
  O  O48  1  0.144203  0.000000  0.745390  1
  O  O49  1  0.071307  0.000000  0.026306  1
  O  O50  1  0.111223  0.500000  0.822055  1
  O  O51  1  0.068564  0.000000  0.525846  1
