# generated using pymatgen
data_Ca2B5H2ClO10
_symmetry_space_group_name_H-M   'P 1'
_cell_length_a   6.33500808
_cell_length_b   6.55040741
_cell_length_c   17.69572225
_cell_angle_alpha   86.14403444
_cell_angle_beta   100.28466045
_cell_angle_gamma   118.81660572
_symmetry_Int_Tables_number   1
_chemical_formula_structural   Ca2B5H2ClO10
_chemical_formula_sum   'Ca6 B15 H6 Cl3 O30'
_cell_volume   632.89660143
_cell_formula_units_Z   3
loop_
 _symmetry_equiv_pos_site_id
 _symmetry_equiv_pos_as_xyz
  1  'x, y, z'
loop_
 _atom_site_type_symbol
 _atom_site_label
 _atom_site_symmetry_multiplicity
 _atom_site_fract_x
 _atom_site_fract_y
 _atom_site_fract_z
 _atom_site_occupancy
  Ca  Ca0  1  0.996786  0.996636  0.001413  1
  Ca  Ca1  1  0.535262  0.566967  0.815414  1
  Ca  Ca2  1  0.338021  0.005825  0.667178  1
  Ca  Ca3  1  0.301644  0.429821  0.484310  1
  Ca  Ca4  1  0.655876  0.974895  0.334654  1
  Ca  Ca5  1  0.185699  0.530817  0.154258  1
  B  B6  1  0.523419  0.002522  0.959216  1
  B  B7  1  0.195925  0.895722  0.849432  1
  B  B8  1  0.620430  0.118311  0.825975  1
  B  B9  1  0.921719  0.045798  0.775403  1
  B  B10  1  0.020520  0.450792  0.818440  1
  B  B11  1  0.860951  0.010964  0.625777  1
  B  B12  1  0.633281  0.106140  0.516215  1
  B  B13  1  0.834635  0.881754  0.492926  1
  B  B14  1  0.203258  0.944941  0.442189  1
  B  B15  1  0.900970  0.546897  0.486343  1
  B  B16  1  0.169032  0.961499  0.292620  1
  B  B17  1  0.842688  0.856719  0.182167  1
  B  B18  1  0.268304  0.078850  0.160507  1
  B  B19  1  0.571120  0.011422  0.109223  1
  B  B20  1  0.668348  0.412046  0.154318  1
  H  H21  1  0.009632  0.467063  0.988834  1
  H  H22  1  0.282196  0.508854  0.996432  1
  H  H23  1  0.879816  0.560031  0.665137  1
  H  H24  1  0.062783  0.478809  0.646637  1
  H  H25  1  0.646043  0.425252  0.319575  1
  H  H26  1  0.922631  0.493752  0.319613  1
  Cl  Cl27  1  0.646710  0.530567  0.974109  1
  Cl  Cl28  1  0.466663  0.480858  0.649649  1
  Cl  Cl29  1  0.309931  0.496708  0.318518  1
  O  O30  1  0.679004  0.050693  0.906271  1
  O  O31  1  0.627749  0.993194  0.033016  1
  O  O32  1  0.282202  0.949307  0.935337  1
  O  O33  1  0.203276  0.673021  0.836080  1
  O  O34  1  0.957369  0.879650  0.829462  1
  O  O35  1  0.372647  0.077763  0.806570  1
  O  O36  1  0.777645  0.376661  0.819137  1
  O  O37  1  0.664826  0.991558  0.770032  1
  O  O38  1  0.094852  0.293820  0.802778  1
  O  O39  1  0.970832  0.013221  0.699580  1
  O  O40  1  0.969840  0.967811  0.571866  1
  O  O41  1  0.672135  0.063002  0.602500  1
  O  O42  1  0.624207  0.917429  0.473588  1
  O  O43  1  0.408669  0.118901  0.496516  1
  O  O44  1  0.861404  0.325617  0.502502  1
  O  O45  1  0.999786  0.998348  0.436301  1
  O  O46  1  0.733603  0.622210  0.488201  1
  O  O47  1  0.280165  0.967126  0.366535  1
  O  O48  1  0.130177  0.700474  0.469760  1
  O  O49  1  0.319140  0.997709  0.239099  1
  O  O50  1  0.927728  0.908797  0.268884  1
  O  O51  1  0.851105  0.636737  0.167790  1
  O  O52  1  0.603594  0.839736  0.161573  1
  O  O53  1  0.021356  0.041720  0.140866  1
  O  O54  1  0.427450  0.338115  0.157795  1
  O  O55  1  0.314485  0.959084  0.102862  1
  O  O56  1  0.744094  0.255509  0.139908  1
  O  O57  1  0.129147  0.422955  0.017633  1
  O  O58  1  0.051403  0.611582  0.663169  1
  O  O59  1  0.766188  0.368556  0.329041  1
