# generated using pymatgen
data_LiVFeP2(HO5)2
_symmetry_space_group_name_H-M   'P 1'
_cell_length_a   5.21020834
_cell_length_b   7.36368565
_cell_length_c   14.50610102
_cell_angle_alpha   91.92338798
_cell_angle_beta   94.14589236
_cell_angle_gamma   105.45383415
_symmetry_Int_Tables_number   1
_chemical_formula_structural   LiVFeP2(HO5)2
_chemical_formula_sum   'Li3 V3 Fe3 P6 H6 O30'
_cell_volume   534.21213517
_cell_formula_units_Z   3
loop_
 _symmetry_equiv_pos_site_id
 _symmetry_equiv_pos_as_xyz
  1  'x, y, z'
loop_
 _atom_site_type_symbol
 _atom_site_label
 _atom_site_symmetry_multiplicity
 _atom_site_fract_x
 _atom_site_fract_y
 _atom_site_fract_z
 _atom_site_occupancy
  Li  Li0  1  0.258686  0.036708  0.187416  1
  Li  Li1  1  0.407564  0.630465  0.478501  1
  Li  Li2  1  0.740625  0.964483  0.812878  1
  V  V3  1  0.661929  0.660003  0.166460  1
  V  V4  1  0.003526  0.006068  0.499193  1
  V  V5  1  0.337427  0.338418  0.833683  1
  Fe  Fe6  1  0.999167  0.999480  0.999827  1
  Fe  Fe7  1  0.333059  0.333163  0.333259  1
  Fe  Fe8  1  0.665934  0.662492  0.666414  1
  P  P9  1  0.593488  0.266024  0.042723  1
  P  P10  1  0.743684  0.066555  0.291750  1
  P  P11  1  0.922231  0.599947  0.374486  1
  P  P12  1  0.073499  0.398989  0.623907  1
  P  P13  1  0.257211  0.938518  0.708496  1
  P  P14  1  0.405307  0.732785  0.957357  1
  H  H15  1  0.097339  0.744668  0.096145  1
  H  H16  1  0.217070  0.564308  0.231413  1
  H  H17  1  0.448825  0.102397  0.435320  1
  H  H18  1  0.568041  0.920365  0.569610  1
  H  H19  1  0.781280  0.427095  0.770289  1
  H  H20  1  0.900886  0.255157  0.903835  1
  O  O21  1  0.767236  0.130959  0.058160  1
  O  O22  1  0.311841  0.181528  0.073261  1
  O  O23  1  0.412905  0.686084  0.062201  1
  O  O24  1  0.729010  0.453245  0.101556  1
  O  O25  1  0.033065  0.144542  0.265371  1
  O  O26  1  0.979467  0.825748  0.110522  1
  O  O27  1  0.368192  0.506960  0.230895  1
  O  O28  1  0.570452  0.204239  0.274862  1
  O  O29  1  0.741918  0.015303  0.395673  1
  O  O30  1  0.599482  0.888281  0.228401  1
  O  O31  1  0.923874  0.651253  0.270810  1
  O  O32  1  0.096378  0.462937  0.391832  1
  O  O33  1  0.297474  0.159495  0.435428  1
  O  O34  1  0.633297  0.521820  0.401286  1
  O  O35  1  0.066339  0.778436  0.438183  1
  O  O36  1  0.936366  0.212991  0.564632  1
  O  O37  1  0.354121  0.484750  0.592608  1
  O  O38  1  0.686322  0.839336  0.555555  1
  O  O39  1  0.902827  0.536475  0.609623  1
  O  O40  1  0.082802  0.350045  0.728012  1
  O  O41  1  0.406285  0.115810  0.771470  1
  O  O42  1  0.259653  0.984231  0.603716  1
  O  O43  1  0.428063  0.799109  0.725532  1
  O  O44  1  0.633940  0.487867  0.772571  1
  O  O45  1  0.017887  0.173444  0.889472  1
  O  O46  1  0.968946  0.864063  0.734644  1
  O  O47  1  0.269963  0.546429  0.898439  1
  O  O48  1  0.585598  0.312454  0.938212  1
  O  O49  1  0.687218  0.817576  0.926879  1
  O  O50  1  0.232792  0.868763  0.942037  1
