# generated using pymatgen
data_LiP2WO8
_symmetry_space_group_name_H-M   'P 1'
_cell_length_a   5.33192998
_cell_length_b   11.05963095
_cell_length_c   11.45147071
_cell_angle_alpha   90.00000000
_cell_angle_beta   90.00000000
_cell_angle_gamma   90.00000000
_symmetry_Int_Tables_number   1
_chemical_formula_structural   LiP2WO8
_chemical_formula_sum   'Li4 P8 W4 O32'
_cell_volume   675.28381271
_cell_formula_units_Z   4
loop_
 _symmetry_equiv_pos_site_id
 _symmetry_equiv_pos_as_xyz
  1  'x, y, z'
loop_
 _atom_site_type_symbol
 _atom_site_label
 _atom_site_symmetry_multiplicity
 _atom_site_fract_x
 _atom_site_fract_y
 _atom_site_fract_z
 _atom_site_occupancy
  Li  Li0  1  0.756355  0.748815  0.109768  1
  Li  Li1  1  0.243645  0.248815  0.390232  1
  Li  Li2  1  0.743645  0.251185  0.609768  1
  Li  Li3  1  0.256355  0.751185  0.890232  1
  P  P4  1  0.254448  0.095492  0.040246  1
  P  P5  1  0.249881  0.862231  0.160054  1
  P  P6  1  0.750119  0.362231  0.339946  1
  P  P7  1  0.745552  0.595492  0.459754  1
  P  P8  1  0.245552  0.904508  0.540246  1
  P  P9  1  0.250119  0.137769  0.660054  1
  P  P10  1  0.749881  0.637769  0.839946  1
  P  P11  1  0.754448  0.404508  0.959754  1
  W  W12  1  0.249407  0.403196  0.153137  1
  W  W13  1  0.750593  0.903196  0.346863  1
  W  W14  1  0.250593  0.596804  0.653137  1
  W  W15  1  0.749407  0.096804  0.846863  1
  O  O16  1  0.023095  0.064781  0.967672  1
  O  O17  1  0.995511  0.438628  0.024005  1
  O  O18  1  0.227734  0.804927  0.042433  1
  O  O19  1  0.255638  0.222780  0.088062  1
  O  O20  1  0.245124  0.008445  0.153112  1
  O  O21  1  0.242477  0.547541  0.214444  1
  O  O22  1  0.979569  0.328836  0.263790  1
  O  O23  1  0.503291  0.831281  0.220004  1
  O  O24  1  0.496709  0.331281  0.279996  1
  O  O25  1  0.020431  0.828836  0.236210  1
  O  O26  1  0.757523  0.047541  0.285556  1
  O  O27  1  0.754876  0.508445  0.346888  1
  O  O28  1  0.744362  0.722780  0.411938  1
  O  O29  1  0.772266  0.304927  0.457567  1
  O  O30  1  0.004489  0.938628  0.475995  1
  O  O31  1  0.976905  0.564781  0.532328  1
  O  O32  1  0.476905  0.935219  0.467672  1
  O  O33  1  0.504489  0.561372  0.524005  1
  O  O34  1  0.272266  0.195073  0.542433  1
  O  O35  1  0.244362  0.777220  0.588062  1
  O  O36  1  0.254876  0.991555  0.653112  1
  O  O37  1  0.257523  0.452459  0.714444  1
  O  O38  1  0.520431  0.671164  0.763790  1
  O  O39  1  0.996709  0.168719  0.720004  1
  O  O40  1  0.003291  0.668719  0.779996  1
  O  O41  1  0.479569  0.171164  0.736210  1
  O  O42  1  0.742477  0.952459  0.785556  1
  O  O43  1  0.745124  0.491555  0.846888  1
  O  O44  1  0.755638  0.277220  0.911938  1
  O  O45  1  0.727734  0.695073  0.957567  1
  O  O46  1  0.495511  0.061372  0.975995  1
  O  O47  1  0.523095  0.435219  0.032328  1
