# generated using pymatgen
data_Li4TiMn3O8
_symmetry_space_group_name_H-M   'P 1'
_cell_length_a   5.14571797
_cell_length_b   5.65154811
_cell_length_c   6.58007582
_cell_angle_alpha   88.36156259
_cell_angle_beta   88.93389118
_cell_angle_gamma   89.32714942
_symmetry_Int_Tables_number   1
_chemical_formula_structural   Li4TiMn3O8
_chemical_formula_sum   'Li4 Ti1 Mn3 O8'
_cell_volume   191.23359956
_cell_formula_units_Z   1
loop_
 _symmetry_equiv_pos_site_id
 _symmetry_equiv_pos_as_xyz
  1  'x, y, z'
loop_
 _atom_site_type_symbol
 _atom_site_label
 _atom_site_symmetry_multiplicity
 _atom_site_fract_x
 _atom_site_fract_y
 _atom_site_fract_z
 _atom_site_occupancy
  Li  Li0  1  0.993497  0.918377  0.375769  1
  Li  Li1  1  0.496171  0.582552  0.876443  1
  Li  Li2  1  0.999003  0.412922  0.125609  1
  Li  Li3  1  0.492729  0.087423  0.622369  1
  Ti  Ti4  1  0.501820  0.086051  0.124544  1
  Mn  Mn5  1  0.996418  0.915880  0.866276  1
  Mn  Mn6  1  0.494017  0.582845  0.375060  1
  Mn  Mn7  1  0.997388  0.411688  0.629605  1
  O  O8  1  0.396492  0.931927  0.896437  1
  O  O9  1  0.386609  0.931952  0.359111  1
  O  O10  1  0.898933  0.574450  0.860130  1
  O  O11  1  0.888786  0.560219  0.389166  1
  O  O12  1  0.353221  0.429109  0.636977  1
  O  O13  1  0.391245  0.394573  0.125598  1
  O  O14  1  0.881796  0.102023  0.613878  1
  O  O15  1  0.858274  0.078008  0.123027  1
