# generated using pymatgen
data_LiCo2(PO4)3
_symmetry_space_group_name_H-M   'P 1'
_cell_length_a   8.70159262
_cell_length_b   8.76691000
_cell_length_c   12.02927858
_cell_angle_alpha   90.00000000
_cell_angle_beta   90.29293774
_cell_angle_gamma   90.00000000
_symmetry_Int_Tables_number   1
_chemical_formula_structural   LiCo2(PO4)3
_chemical_formula_sum   'Li4 Co8 P12 O48'
_cell_volume   917.65450664
_cell_formula_units_Z   4
loop_
 _symmetry_equiv_pos_site_id
 _symmetry_equiv_pos_as_xyz
  1  'x, y, z'
loop_
 _atom_site_type_symbol
 _atom_site_label
 _atom_site_symmetry_multiplicity
 _atom_site_fract_x
 _atom_site_fract_y
 _atom_site_fract_z
 _atom_site_occupancy
  Li  Li0  1  0.834366  0.789326  0.503895  1
  Li  Li1  1  0.961851  0.727766  0.931398  1
  Li  Li2  1  0.038149  0.227766  0.068602  1
  Li  Li3  1  0.165634  0.289326  0.496105  1
  Co  Co4  1  0.498223  0.460960  0.369144  1
  Co  Co5  1  0.498426  0.037796  0.127192  1
  Co  Co6  1  0.501574  0.537796  0.872808  1
  Co  Co7  1  0.501777  0.960960  0.630856  1
  Co  Co8  1  0.000292  0.044897  0.860853  1
  Co  Co9  1  0.991110  0.464901  0.636596  1
  Co  Co10  1  0.008890  0.964901  0.363404  1
  Co  Co11  1  0.999708  0.544897  0.139147  1
  P  P12  1  0.286368  0.249787  0.745960  1
  P  P13  1  0.354051  0.387879  0.105094  1
  P  P14  1  0.360679  0.105613  0.394822  1
  P  P15  1  0.639321  0.605613  0.605178  1
  P  P16  1  0.645949  0.887879  0.894906  1
  P  P17  1  0.713632  0.749787  0.254040  1
  P  P18  1  0.784794  0.250184  0.248515  1
  P  P19  1  0.855693  0.112896  0.602354  1
  P  P20  1  0.853509  0.396082  0.898791  1
  P  P21  1  0.146491  0.896082  0.101209  1
  P  P22  1  0.144307  0.612896  0.397646  1
  P  P23  1  0.215206  0.750184  0.751485  1
  O  O24  1  0.308744  0.851491  0.674181  1
  O  O25  1  0.320125  0.662533  0.834397  1
  O  O26  1  0.323997  0.902318  0.097387  1
  O  O27  1  0.320061  0.597981  0.406784  1
  O  O28  1  0.377680  0.363803  0.817893  1
  O  O29  1  0.393020  0.220578  0.076264  1
  O  O30  1  0.401304  0.147421  0.684139  1
  O  O31  1  0.407484  0.426930  0.223205  1
  O  O32  1  0.414231  0.064173  0.278700  1
  O  O33  1  0.392880  0.274190  0.426805  1
  O  O34  1  0.429879  0.992916  0.480454  1
  O  O35  1  0.428713  0.500314  0.022358  1
  O  O36  1  0.571287  0.000314  0.977642  1
  O  O37  1  0.570121  0.492916  0.519546  1
  O  O38  1  0.607120  0.774190  0.573195  1
  O  O39  1  0.585769  0.564173  0.721300  1
  O  O40  1  0.592516  0.926930  0.776795  1
  O  O41  1  0.598696  0.647421  0.315861  1
  O  O42  1  0.606980  0.720578  0.923736  1
  O  O43  1  0.622320  0.863803  0.182107  1
  O  O44  1  0.679939  0.097981  0.593216  1
  O  O45  1  0.676003  0.402318  0.902613  1
  O  O46  1  0.679875  0.162533  0.165603  1
  O  O47  1  0.691256  0.351491  0.325819  1
  O  O48  1  0.807535  0.650747  0.173223  1
  O  O49  1  0.814220  0.829694  0.341940  1
  O  O50  1  0.818223  0.597092  0.591362  1
  O  O51  1  0.822498  0.904965  0.906971  1
  O  O52  1  0.876094  0.133162  0.319114  1
  O  O53  1  0.908087  0.274795  0.569476  1
  O  O54  1  0.904499  0.337854  0.177899  1
  O  O55  1  0.909534  0.078245  0.722946  1
  O  O56  1  0.909440  0.436197  0.780839  1
  O  O57  1  0.910813  0.236514  0.933064  1
  O  O58  1  0.919891  0.518513  0.979636  1
  O  O59  1  0.925311  0.990587  0.524110  1
  O  O60  1  0.074689  0.490587  0.475890  1
  O  O61  1  0.080109  0.018513  0.020364  1
  O  O62  1  0.089187  0.736514  0.066936  1
  O  O63  1  0.090560  0.936197  0.219161  1
  O  O64  1  0.090466  0.578245  0.277054  1
  O  O65  1  0.095501  0.837854  0.822101  1
  O  O66  1  0.091913  0.774795  0.430524  1
  O  O67  1  0.123906  0.633162  0.680886  1
  O  O68  1  0.177502  0.404965  0.093029  1
  O  O69  1  0.181777  0.097092  0.408638  1
  O  O70  1  0.185780  0.329694  0.658060  1
  O  O71  1  0.192465  0.150747  0.826777  1
