# generated using pymatgen
data_Li3Sb(PO4)2
_symmetry_space_group_name_H-M   'P 1'
_cell_length_a   8.37244472
_cell_length_b   8.37244472
_cell_length_c   8.37244472
_cell_angle_alpha   68.96868254
_cell_angle_beta   68.96868254
_cell_angle_gamma   68.96868254
_symmetry_Int_Tables_number   1
_chemical_formula_structural   Li3Sb(PO4)2
_chemical_formula_sum   'Li9 Sb3 P6 O24'
_cell_volume   493.14905480
_cell_formula_units_Z   3
loop_
 _symmetry_equiv_pos_site_id
 _symmetry_equiv_pos_as_xyz
  1  'x, y, z'
loop_
 _atom_site_type_symbol
 _atom_site_label
 _atom_site_symmetry_multiplicity
 _atom_site_fract_x
 _atom_site_fract_y
 _atom_site_fract_z
 _atom_site_occupancy
  Li  Li0  1  0.698977  0.161158  0.377084  1
  Li  Li1  1  0.647243  0.253384  0.860691  1
  Li  Li2  1  0.860691  0.647243  0.253384  1
  Li  Li3  1  0.002543  0.002543  0.002543  1
  Li  Li4  1  0.488176  0.488176  0.488176  1
  Li  Li5  1  0.346462  0.346462  0.346462  1
  Li  Li6  1  0.161158  0.377084  0.698977  1
  Li  Li7  1  0.377084  0.698977  0.161158  1
  Li  Li8  1  0.253384  0.860691  0.647243  1
  Sb  Sb9  1  0.845048  0.845048  0.845048  1
  Sb  Sb10  1  0.658498  0.658498  0.658498  1
  Sb  Sb11  1  0.155493  0.155493  0.155493  1
  P  P12  1  0.916404  0.247289  0.577550  1
  P  P13  1  0.417970  0.089996  0.754909  1
  P  P14  1  0.754909  0.417970  0.089996  1
  P  P15  1  0.247289  0.577550  0.916404  1
  P  P16  1  0.577550  0.916404  0.247289  1
  P  P17  1  0.089996  0.754909  0.417970  1
  O  O18  1  0.899382  0.101589  0.767436  1
  O  O19  1  0.904582  0.232198  0.105071  1
  O  O20  1  0.536339  0.083009  0.303900  1
  O  O21  1  0.436452  0.906225  0.178534  1
  O  O22  1  0.737261  0.402753  0.606489  1
  O  O23  1  0.829489  0.570442  0.068820  1
  O  O24  1  0.927904  0.695814  0.437177  1
  O  O25  1  0.406098  0.261049  0.603114  1
  O  O26  1  0.232198  0.105071  0.904582  1
  O  O27  1  0.068820  0.829489  0.570442  1
  O  O28  1  0.695814  0.437177  0.927904  1
  O  O29  1  0.603114  0.406098  0.261049  1
  O  O30  1  0.402753  0.606489  0.737261  1
  O  O31  1  0.303900  0.536339  0.083009  1
  O  O32  1  0.906225  0.178534  0.436452  1
  O  O33  1  0.606489  0.737261  0.402753  1
  O  O34  1  0.767436  0.899382  0.101589  1
  O  O35  1  0.178534  0.436452  0.906225  1
  O  O36  1  0.083009  0.303900  0.536339  1
  O  O37  1  0.261049  0.603114  0.406098  1
  O  O38  1  0.570442  0.068820  0.829489  1
  O  O39  1  0.437177  0.927904  0.695814  1
  O  O40  1  0.101589  0.767436  0.899382  1
  O  O41  1  0.105071  0.904582  0.232198  1
