# generated using pymatgen
data_Li4Cr3Ni3(SbO8)2
_symmetry_space_group_name_H-M   'P 1'
_cell_length_a   5.91227359
_cell_length_b   5.92674726
_cell_length_c   9.62448859
_cell_angle_alpha   90.77785768
_cell_angle_beta   90.30482052
_cell_angle_gamma   119.74082183
_symmetry_Int_Tables_number   1
_chemical_formula_structural   Li4Cr3Ni3(SbO8)2
_chemical_formula_sum   'Li4 Cr3 Ni3 Sb2 O16'
_cell_volume   292.76937433
_cell_formula_units_Z   1
loop_
 _symmetry_equiv_pos_site_id
 _symmetry_equiv_pos_as_xyz
  1  'x, y, z'
loop_
 _atom_site_type_symbol
 _atom_site_label
 _atom_site_symmetry_multiplicity
 _atom_site_fract_x
 _atom_site_fract_y
 _atom_site_fract_z
 _atom_site_occupancy
  Li  Li0  1  0.336043  0.676153  0.099996  1
  Li  Li1  1  0.003850  0.002617  0.011833  1
  Li  Li2  1  0.001602  0.998450  0.506881  1
  Li  Li3  1  0.661896  0.332800  0.598247  1
  Cr  Cr4  1  0.162381  0.817403  0.781483  1
  Cr  Cr5  1  0.660269  0.829928  0.786241  1
  Cr  Cr6  1  0.823164  0.653726  0.280591  1
  Ni  Ni7  1  0.171980  0.340291  0.788247  1
  Ni  Ni8  1  0.340910  0.169409  0.288313  1
  Ni  Ni9  1  0.831218  0.171699  0.288299  1
  Sb  Sb10  1  0.331072  0.659799  0.509741  1
  Sb  Sb11  1  0.667296  0.328530  0.011393  1
  O  O12  1  0.159077  0.823365  0.403961  1
  O  O13  1  0.477323  0.962173  0.657422  1
  O  O14  1  0.335453  0.690533  0.892047  1
  O  O15  1  0.001322  0.985210  0.696827  1
  O  O16  1  0.987779  0.984013  0.202299  1
  O  O17  1  0.664925  0.824013  0.405168  1
  O  O18  1  0.032540  0.527275  0.655040  1
  O  O19  1  0.482493  0.520396  0.654712  1
  O  O20  1  0.833674  0.665107  0.901322  1
  O  O21  1  0.157756  0.321057  0.406150  1
  O  O22  1  0.531549  0.499111  0.152459  1
  O  O23  1  0.967562  0.497152  0.152963  1
  O  O24  1  0.685549  0.358445  0.389430  1
  O  O25  1  0.328104  0.156639  0.906770  1
  O  O26  1  0.525948  0.042949  0.157379  1
  O  O27  1  0.836968  0.161755  0.906946  1
