# generated using pymatgen
data_ZrFe(PO4)3
_symmetry_space_group_name_H-M   'P 1'
_cell_length_a   8.83422608
_cell_length_b   8.85022401
_cell_length_c   12.37064699
_cell_angle_alpha   90.00000000
_cell_angle_beta   90.00000000
_cell_angle_gamma   90.00000000
_symmetry_Int_Tables_number   1
_chemical_formula_structural   ZrFe(PO4)3
_chemical_formula_sum   'Zr4 Fe4 P12 O48'
_cell_volume   967.19754772
_cell_formula_units_Z   4
loop_
 _symmetry_equiv_pos_site_id
 _symmetry_equiv_pos_as_xyz
  1  'x, y, z'
loop_
 _atom_site_type_symbol
 _atom_site_label
 _atom_site_symmetry_multiplicity
 _atom_site_fract_x
 _atom_site_fract_y
 _atom_site_fract_z
 _atom_site_occupancy
  Zr  Zr0  1  0.999969  0.025877  0.622772  1
  Zr  Zr1  1  0.000031  0.974123  0.122772  1
  Zr  Zr2  1  0.499969  0.474123  0.122772  1
  Zr  Zr3  1  0.500031  0.525877  0.622772  1
  Fe  Fe4  1  0.001246  0.467651  0.386191  1
  Fe  Fe5  1  0.998754  0.532349  0.886191  1
  Fe  Fe6  1  0.501246  0.032349  0.886191  1
  Fe  Fe7  1  0.498754  0.967651  0.386191  1
  P  P8  1  0.779537  0.741081  0.484844  1
  P  P9  1  0.833490  0.865564  0.865109  1
  P  P10  1  0.885732  0.590361  0.151358  1
  P  P11  1  0.166510  0.134436  0.365109  1
  P  P12  1  0.114268  0.409639  0.651358  1
  P  P13  1  0.220463  0.258919  0.984844  1
  P  P14  1  0.279537  0.758919  0.984844  1
  P  P15  1  0.333490  0.634436  0.365109  1
  P  P16  1  0.385732  0.909639  0.651358  1
  P  P17  1  0.614268  0.090361  0.151358  1
  P  P18  1  0.666510  0.365564  0.865109  1
  P  P19  1  0.720463  0.241081  0.484844  1
  O  O20  1  0.807535  0.147162  0.569943  1
  O  O21  1  0.828734  0.330983  0.411286  1
  O  O22  1  0.839576  0.380819  0.862380  1
  O  O23  1  0.788900  0.075107  0.154403  1
  O  O24  1  0.858056  0.635916  0.403408  1
  O  O25  1  0.895366  0.842650  0.543394  1
  O  O26  1  0.951224  0.539081  0.041538  1
  O  O27  1  0.899613  0.922258  0.972914  1
  O  O28  1  0.854669  0.693639  0.854521  1
  O  O29  1  0.929951  0.755807  0.175851  1
  O  O30  1  0.909121  0.951001  0.769747  1
  O  O31  1  0.957006  0.475259  0.230034  1
  O  O32  1  0.042994  0.524741  0.730034  1
  O  O33  1  0.090879  0.048999  0.269747  1
  O  O34  1  0.145331  0.306361  0.354521  1
  O  O35  1  0.070049  0.244193  0.675851  1
  O  O36  1  0.100387  0.077742  0.472914  1
  O  O37  1  0.048776  0.460919  0.541538  1
  O  O38  1  0.141944  0.364084  0.903408  1
  O  O39  1  0.104634  0.157350  0.043394  1
  O  O40  1  0.160424  0.619181  0.362380  1
  O  O41  1  0.211100  0.924893  0.654403  1
  O  O42  1  0.171266  0.669017  0.911286  1
  O  O43  1  0.192465  0.852838  0.069943  1
  O  O44  1  0.328734  0.169017  0.911286  1
  O  O45  1  0.307535  0.352838  0.069943  1
  O  O46  1  0.339576  0.119181  0.362380  1
  O  O47  1  0.288900  0.424893  0.654403  1
  O  O48  1  0.358056  0.864084  0.903408  1
  O  O49  1  0.395366  0.657350  0.043394  1
  O  O50  1  0.399613  0.577742  0.472914  1
  O  O51  1  0.451224  0.960919  0.541538  1
  O  O52  1  0.429951  0.744193  0.675851  1
  O  O53  1  0.354669  0.806361  0.354521  1
  O  O54  1  0.457006  0.024741  0.730034  1
  O  O55  1  0.409121  0.548999  0.269747  1
  O  O56  1  0.590879  0.451001  0.769747  1
  O  O57  1  0.542994  0.975259  0.230034  1
  O  O58  1  0.645331  0.193639  0.854521  1
  O  O59  1  0.570049  0.255807  0.175851  1
  O  O60  1  0.548776  0.039081  0.041538  1
  O  O61  1  0.600387  0.422258  0.972914  1
  O  O62  1  0.641944  0.135916  0.403408  1
  O  O63  1  0.604634  0.342650  0.543394  1
  O  O64  1  0.711100  0.575107  0.154403  1
  O  O65  1  0.660424  0.880819  0.862380  1
  O  O66  1  0.692465  0.647162  0.569943  1
  O  O67  1  0.671266  0.830983  0.411286  1
