# generated using pymatgen
data_Li2Co2SiO6
_symmetry_space_group_name_H-M   'P 1'
_cell_length_a   4.97074571
_cell_length_b   4.97074571
_cell_length_c   9.96889976
_cell_angle_alpha   90.00000000
_cell_angle_beta   90.00000000
_cell_angle_gamma   118.61064996
_symmetry_Int_Tables_number   1
_chemical_formula_structural   Li2Co2SiO6
_chemical_formula_sum   'Li4 Co4 Si2 O12'
_cell_volume   216.23818838
_cell_formula_units_Z   2
loop_
 _symmetry_equiv_pos_site_id
 _symmetry_equiv_pos_as_xyz
  1  'x, y, z'
loop_
 _atom_site_type_symbol
 _atom_site_label
 _atom_site_symmetry_multiplicity
 _atom_site_fract_x
 _atom_site_fract_y
 _atom_site_fract_z
 _atom_site_occupancy
  Li  Li0  1  0.622036  0.122036  0.750000  1
  Li  Li1  1  0.877964  0.377964  0.250000  1
  Li  Li2  1  0.122036  0.622036  0.750000  1
  Li  Li3  1  0.377964  0.877964  0.250000  1
  Co  Co4  1  0.336009  0.663991  0.000000  1
  Co  Co5  1  0.836009  0.163991  0.500000  1
  Co  Co6  1  0.663991  0.336009  0.000000  1
  Co  Co7  1  0.163991  0.836009  0.500000  1
  Si  Si8  1  0.500000  0.500000  0.500000  1
  Si  Si9  1  0.000000  0.000000  0.000000  1
  O  O10  1  0.205475  0.518872  0.393899  1
  O  O11  1  0.981128  0.294525  0.893899  1
  O  O12  1  0.481128  0.794525  0.606101  1
  O  O13  1  0.705475  0.018872  0.106101  1
  O  O14  1  0.018872  0.705475  0.106101  1
  O  O15  1  0.794525  0.481128  0.606101  1
  O  O16  1  0.294525  0.981128  0.893899  1
  O  O17  1  0.518872  0.205475  0.393899  1
  O  O18  1  0.300573  0.300573  0.091993  1
  O  O19  1  0.199427  0.199427  0.591993  1
  O  O20  1  0.699427  0.699427  0.908007  1
  O  O21  1  0.800573  0.800573  0.408007  1
