# generated using pymatgen
data_LiCo3Sb(PO4)6
_symmetry_space_group_name_H-M   'P 1'
_cell_length_a   8.75727564
_cell_length_b   8.75727564
_cell_length_c   8.75727564
_cell_angle_alpha   58.53827103
_cell_angle_beta   58.53827103
_cell_angle_gamma   58.53827103
_symmetry_Int_Tables_number   1
_chemical_formula_structural   LiCo3Sb(PO4)6
_chemical_formula_sum   'Li1 Co3 Sb1 P6 O24'
_cell_volume   459.01287997
_cell_formula_units_Z   1
loop_
 _symmetry_equiv_pos_site_id
 _symmetry_equiv_pos_as_xyz
  1  'x, y, z'
loop_
 _atom_site_type_symbol
 _atom_site_label
 _atom_site_symmetry_multiplicity
 _atom_site_fract_x
 _atom_site_fract_y
 _atom_site_fract_z
 _atom_site_occupancy
  Li  Li0  1  0.989884  0.989884  0.989884  1
  Co  Co1  1  0.852196  0.852196  0.852196  1
  Co  Co2  1  0.643730  0.643730  0.643730  1
  Co  Co3  1  0.355988  0.355988  0.355988  1
  Sb  Sb4  1  0.143748  0.143748  0.143748  1
  P  P5  1  0.250719  0.540982  0.967833  1
  P  P6  1  0.967833  0.250719  0.540982  1
  P  P7  1  0.540982  0.967833  0.250719  1
  P  P8  1  0.461460  0.040505  0.743730  1
  P  P9  1  0.040505  0.743730  0.461460  1
  P  P10  1  0.743730  0.461460  0.040505  1
  O  O11  1  0.721233  0.490467  0.863763  1
  O  O12  1  0.490467  0.863763  0.721233  1
  O  O13  1  0.080406  0.728099  0.942577  1
  O  O14  1  0.863763  0.721233  0.490467  1
  O  O15  1  0.424768  0.562443  0.785353  1
  O  O16  1  0.219038  0.372057  0.983541  1
  O  O17  1  0.942577  0.080406  0.728099  1
  O  O18  1  0.785353  0.424768  0.562443  1
  O  O19  1  0.562443  0.785353  0.424768  1
  O  O20  1  0.622649  0.012591  0.789478  1
  O  O21  1  0.268878  0.059871  0.920484  1
  O  O22  1  0.012592  0.789478  0.622649  1
  O  O23  1  0.983541  0.219038  0.372057  1
  O  O24  1  0.728099  0.942577  0.080406  1
  O  O25  1  0.372057  0.983541  0.219038  1
  O  O26  1  0.437690  0.223554  0.571533  1
  O  O27  1  0.223554  0.571533  0.437690  1
  O  O28  1  0.059871  0.920484  0.268878  1
  O  O29  1  0.789478  0.622649  0.012592  1
  O  O30  1  0.571533  0.437690  0.223554  1
  O  O31  1  0.143935  0.275833  0.508984  1
  O  O32  1  0.920484  0.268878  0.059871  1
  O  O33  1  0.508984  0.143935  0.275833  1
  O  O34  1  0.275833  0.508984  0.143935  1
