# generated using pymatgen
data_LiCo8O9
_symmetry_space_group_name_H-M   'P 1'
_cell_length_a   5.21450714
_cell_length_b   5.21617448
_cell_length_c   6.71394377
_cell_angle_alpha   75.15178937
_cell_angle_beta   83.06063044
_cell_angle_gamma   80.76111152
_symmetry_Int_Tables_number   1
_chemical_formula_structural   LiCo8O9
_chemical_formula_sum   'Li1 Co8 O9'
_cell_volume   173.62130765
_cell_formula_units_Z   1
loop_
 _symmetry_equiv_pos_site_id
 _symmetry_equiv_pos_as_xyz
  1  'x, y, z'
loop_
 _atom_site_type_symbol
 _atom_site_label
 _atom_site_symmetry_multiplicity
 _atom_site_fract_x
 _atom_site_fract_y
 _atom_site_fract_z
 _atom_site_occupancy
  Li  Li0  1  0.000000  0.000000  0.000000  1
  Co  Co1  1  0.221749  0.109846  0.556799  1
  Co  Co2  1  0.109243  0.555448  0.781194  1
  Co  Co3  1  0.440460  0.221226  0.108256  1
  Co  Co4  1  0.333661  0.673456  0.327874  1
  Co  Co5  1  0.559540  0.778774  0.891744  1
  Co  Co6  1  0.666339  0.326544  0.672126  1
  Co  Co7  1  0.778251  0.890154  0.443201  1
  Co  Co8  1  0.890757  0.444552  0.218806  1
  O  O9  1  0.112005  0.059429  0.283555  1
  O  O10  1  0.338572  0.167307  0.829663  1
  O  O11  1  0.443852  0.720288  0.611886  1
  O  O12  1  0.226126  0.602728  0.055954  1
  O  O13  1  0.556148  0.279712  0.388114  1
  O  O14  1  0.773874  0.397272  0.944046  1
  O  O15  1  0.661428  0.832693  0.170337  1
  O  O16  1  0.000000  0.500000  0.500000  1
  O  O17  1  0.887995  0.940571  0.716445  1
