# generated using pymatgen
data_Li2Co(Si2O5)2
_symmetry_space_group_name_H-M   'P 1'
_cell_length_a   6.90727370
_cell_length_b   7.59024011
_cell_length_c   9.64708753
_cell_angle_alpha   99.69732158
_cell_angle_beta   103.19760747
_cell_angle_gamma   116.62278107
_symmetry_Int_Tables_number   1
_chemical_formula_structural   Li2Co(Si2O5)2
_chemical_formula_sum   'Li4 Co2 Si8 O20'
_cell_volume   418.36836411
_cell_formula_units_Z   2
loop_
 _symmetry_equiv_pos_site_id
 _symmetry_equiv_pos_as_xyz
  1  'x, y, z'
loop_
 _atom_site_type_symbol
 _atom_site_label
 _atom_site_symmetry_multiplicity
 _atom_site_fract_x
 _atom_site_fract_y
 _atom_site_fract_z
 _atom_site_occupancy
  Li  Li0  1  0.378415  0.235111  0.021436  1
  Li  Li1  1  0.213328  0.685835  0.571867  1
  Li  Li2  1  0.786672  0.314165  0.428133  1
  Li  Li3  1  0.621585  0.764889  0.978564  1
  Co  Co4  1  0.244536  0.308050  0.428198  1
  Co  Co5  1  0.755464  0.691950  0.571802  1
  Si  Si6  1  0.243230  0.949832  0.189992  1
  Si  Si7  1  0.384089  0.634947  0.255131  1
  Si  Si8  1  0.803286  0.610369  0.235020  1
  Si  Si9  1  0.889503  0.271723  0.140950  1
  Si  Si10  1  0.110497  0.728277  0.859050  1
  Si  Si11  1  0.196714  0.389631  0.764980  1
  Si  Si12  1  0.615911  0.365053  0.744869  1
  Si  Si13  1  0.756770  0.050168  0.810008  1
  O  O14  1  0.232227  0.930915  0.011583  1
  O  O15  1  0.133360  0.448003  0.134233  1
  O  O16  1  0.405485  0.860059  0.261245  1
  O  O17  1  0.567354  0.622842  0.174713  1
  O  O18  1  0.979056  0.794353  0.182267  1
  O  O19  1  0.722223  0.377396  0.122312  1
  O  O20  1  0.431992  0.612559  0.420454  1
  O  O21  1  0.346927  0.189238  0.271319  1
  O  O22  1  0.081733  0.788441  0.708222  1
  O  O23  1  0.109674  0.378302  0.592963  1
  O  O24  1  0.890326  0.621698  0.407037  1
  O  O25  1  0.918267  0.211559  0.291778  1
  O  O26  1  0.653073  0.810762  0.728681  1
  O  O27  1  0.568008  0.387441  0.579546  1
  O  O28  1  0.277777  0.622604  0.877688  1
  O  O29  1  0.020944  0.205647  0.817733  1
  O  O30  1  0.432646  0.377158  0.825287  1
  O  O31  1  0.594515  0.139941  0.738755  1
  O  O32  1  0.866640  0.551997  0.865767  1
  O  O33  1  0.767773  0.069085  0.988417  1
