# generated using pymatgen
data_Li3MnPCO7
_symmetry_space_group_name_H-M   'P 1'
_cell_length_a   6.58420233
_cell_length_b   8.59484061
_cell_length_c   9.95353370
_cell_angle_alpha   94.54164724
_cell_angle_beta   90.31335600
_cell_angle_gamma   90.42636393
_symmetry_Int_Tables_number   1
_chemical_formula_structural   Li3MnPCO7
_chemical_formula_sum   'Li12 Mn4 P4 C4 O28'
_cell_volume   561.47759106
_cell_formula_units_Z   4
loop_
 _symmetry_equiv_pos_site_id
 _symmetry_equiv_pos_as_xyz
  1  'x, y, z'
loop_
 _atom_site_type_symbol
 _atom_site_label
 _atom_site_symmetry_multiplicity
 _atom_site_fract_x
 _atom_site_fract_y
 _atom_site_fract_z
 _atom_site_occupancy
  Li  Li0  1  0.743452  0.901303  0.387869  1
  Li  Li1  1  0.746288  0.909173  0.877016  1
  Li  Li2  1  0.516329  0.724288  0.130205  1
  Li  Li3  1  0.983361  0.726134  0.611559  1
  Li  Li4  1  0.518756  0.725243  0.611308  1
  Li  Li5  1  0.254666  0.655020  0.400824  1
  Li  Li6  1  0.463758  0.279205  0.378603  1
  Li  Li7  1  0.035861  0.279135  0.378053  1
  Li  Li8  1  0.468977  0.274273  0.875481  1
  Li  Li9  1  0.030461  0.273375  0.875538  1
  Li  Li10  1  0.252180  0.095204  0.119621  1
  Li  Li11  1  0.250832  0.095088  0.616552  1
  Mn  Mn12  1  0.999983  0.732546  0.143934  1
  Mn  Mn13  1  0.255616  0.655436  0.875446  1
  Mn  Mn14  1  0.749499  0.341647  0.112257  1
  Mn  Mn15  1  0.750107  0.339633  0.609217  1
  P  P16  1  0.748358  0.591810  0.362631  1
  P  P17  1  0.750553  0.589966  0.861525  1
  P  P18  1  0.250214  0.409308  0.141317  1
  P  P19  1  0.250168  0.410697  0.638313  1
  C  C20  1  0.245504  0.964284  0.351572  1
  C  C21  1  0.247751  0.966424  0.852649  1
  C  C22  1  0.748661  0.035423  0.148868  1
  C  C23  1  0.750319  0.032868  0.648783  1
  O  O24  1  0.251064  0.929985  0.473641  1
  O  O25  1  0.748061  0.889275  0.181534  1
  O  O26  1  0.244884  0.930819  0.977032  1
  O  O27  1  0.238727  0.852942  0.252358  1
  O  O28  1  0.750665  0.887598  0.677725  1
  O  O29  1  0.249451  0.855128  0.755928  1
  O  O30  1  0.939329  0.689115  0.408459  1
  O  O31  1  0.562586  0.687573  0.412399  1
  O  O32  1  0.938594  0.688178  0.918409  1
  O  O33  1  0.568688  0.689721  0.916999  1
  O  O34  1  0.251415  0.577014  0.089273  1
  O  O35  1  0.749405  0.578452  0.201868  1
  O  O36  1  0.250539  0.579458  0.596914  1
  O  O37  1  0.751040  0.577142  0.704454  1
  O  O38  1  0.250113  0.426069  0.296642  1
  O  O39  1  0.748864  0.421815  0.404406  1
  O  O40  1  0.250669  0.418778  0.796711  1
  O  O41  1  0.749612  0.421969  0.907165  1
  O  O42  1  0.064682  0.311201  0.084308  1
  O  O43  1  0.433817  0.312691  0.084376  1
  O  O44  1  0.433525  0.311343  0.584758  1
  O  O45  1  0.065517  0.310499  0.583653  1
  O  O46  1  0.747900  0.145813  0.244458  1
  O  O47  1  0.249675  0.108949  0.318956  1
  O  O48  1  0.750564  0.144097  0.746322  1
  O  O49  1  0.749563  0.066781  0.024597  1
  O  O50  1  0.249824  0.110485  0.822039  1
  O  O51  1  0.749573  0.069626  0.525472  1
