# generated using pymatgen
data_V5(P3O11)2
_symmetry_space_group_name_H-M   'P 1'
_cell_length_a   10.46520094
_cell_length_b   6.66750963
_cell_length_c   12.89738809
_cell_angle_alpha   90.00000000
_cell_angle_beta   104.09686475
_cell_angle_gamma   90.00000000
_symmetry_Int_Tables_number   1
_chemical_formula_structural   V5(P3O11)2
_chemical_formula_sum   'V10 P12 O44'
_cell_volume   872.83748330
_cell_formula_units_Z   2
loop_
 _symmetry_equiv_pos_site_id
 _symmetry_equiv_pos_as_xyz
  1  'x, y, z'
loop_
 _atom_site_type_symbol
 _atom_site_label
 _atom_site_symmetry_multiplicity
 _atom_site_fract_x
 _atom_site_fract_y
 _atom_site_fract_z
 _atom_site_occupancy
  V  V0  1  0.500000  0.500000  0.000000  1
  V  V1  1  0.211998  0.250238  0.863580  1
  V  V2  1  0.000000  0.000000  0.000000  1
  V  V3  1  0.711998  0.249762  0.863580  1
  V  V4  1  0.197086  0.011705  0.663667  1
  V  V5  1  0.697086  0.488295  0.663667  1
  V  V6  1  0.302914  0.511705  0.336333  1
  V  V7  1  0.802914  0.988295  0.336333  1
  V  V8  1  0.288002  0.750238  0.136420  1
  V  V9  1  0.788002  0.749762  0.136420  1
  P  P10  1  0.224355  0.741465  0.912392  1
  P  P11  1  0.724355  0.758535  0.912392  1
  P  P12  1  0.426237  0.390755  0.741065  1
  P  P13  1  0.926237  0.109245  0.741065  1
  P  P14  1  0.408917  0.702863  0.582346  1
  P  P15  1  0.091083  0.202863  0.417654  1
  P  P16  1  0.908917  0.797137  0.582346  1
  P  P17  1  0.591083  0.297137  0.417654  1
  P  P18  1  0.073763  0.890755  0.258935  1
  P  P19  1  0.573763  0.609245  0.258935  1
  P  P20  1  0.275645  0.241465  0.087608  1
  P  P21  1  0.775645  0.258535  0.087608  1
  O  O22  1  0.138699  0.790579  0.995422  1
  O  O23  1  0.360470  0.710223  0.000612  1
  O  O24  1  0.638699  0.709421  0.995422  1
  O  O25  1  0.860470  0.789777  0.000612  1
  O  O26  1  0.177939  0.550638  0.851578  1
  O  O27  1  0.231710  0.923701  0.839945  1
  O  O28  1  0.448644  0.528934  0.836852  1
  O  O29  1  0.059819  0.190103  0.725998  1
  O  O30  1  0.677939  0.949362  0.851578  1
  O  O31  1  0.731710  0.576299  0.839945  1
  O  O32  1  0.327013  0.224925  0.751434  1
  O  O33  1  0.948644  0.971066  0.836852  1
  O  O34  1  0.559819  0.309897  0.725998  1
  O  O35  1  0.058898  0.800194  0.614791  1
  O  O36  1  0.827013  0.275075  0.751434  1
  O  O37  1  0.349995  0.880812  0.627850  1
  O  O38  1  0.356899  0.502662  0.633581  1
  O  O39  1  0.148389  0.180424  0.538025  1
  O  O40  1  0.558898  0.699806  0.614791  1
  O  O41  1  0.849995  0.619188  0.627850  1
  O  O42  1  0.856899  0.997338  0.633581  1
  O  O43  1  0.648389  0.319576  0.538025  1
  O  O44  1  0.351611  0.680424  0.461975  1
  O  O45  1  0.143101  0.002662  0.366419  1
  O  O46  1  0.150005  0.380812  0.372150  1
  O  O47  1  0.441102  0.300194  0.385209  1
  O  O48  1  0.851611  0.819576  0.461975  1
  O  O49  1  0.643101  0.497338  0.366419  1
  O  O50  1  0.650005  0.119188  0.372150  1
  O  O51  1  0.172987  0.724925  0.248566  1
  O  O52  1  0.941102  0.199806  0.385209  1
  O  O53  1  0.440181  0.690103  0.274002  1
  O  O54  1  0.051356  0.028934  0.163148  1
  O  O55  1  0.672987  0.775075  0.248566  1
  O  O56  1  0.268290  0.423701  0.160055  1
  O  O57  1  0.322061  0.050638  0.148422  1
  O  O58  1  0.940181  0.809897  0.274002  1
  O  O59  1  0.551356  0.471066  0.163148  1
  O  O60  1  0.768290  0.076299  0.160055  1
  O  O61  1  0.822061  0.449362  0.148422  1
  O  O62  1  0.139530  0.210223  0.999388  1
  O  O63  1  0.361301  0.290579  0.004578  1
  O  O64  1  0.639530  0.289777  0.999388  1
  O  O65  1  0.861301  0.209421  0.004578  1
