# generated using pymatgen
data_Li8Mn7Fe(BO3)8
_symmetry_space_group_name_H-M   'P 1'
_cell_length_a   5.25215228
_cell_length_b   9.12466528
_cell_length_c   10.52645171
_cell_angle_alpha   88.25090674
_cell_angle_beta   89.05553613
_cell_angle_gamma   89.85814190
_symmetry_Int_Tables_number   1
_chemical_formula_structural   Li8Mn7Fe(BO3)8
_chemical_formula_sum   'Li8 Mn7 Fe1 B8 O24'
_cell_volume   504.16652325
_cell_formula_units_Z   1
loop_
 _symmetry_equiv_pos_site_id
 _symmetry_equiv_pos_as_xyz
  1  'x, y, z'
loop_
 _atom_site_type_symbol
 _atom_site_label
 _atom_site_symmetry_multiplicity
 _atom_site_fract_x
 _atom_site_fract_y
 _atom_site_fract_z
 _atom_site_occupancy
  Li  Li0  1  0.146511  0.174486  0.667946  1
  Li  Li1  1  0.187309  0.161353  0.168270  1
  Li  Li2  1  0.320353  0.331288  0.417301  1
  Li  Li3  1  0.335252  0.326642  0.916926  1
  Li  Li4  1  0.646603  0.674222  0.668123  1
  Li  Li5  1  0.688387  0.659860  0.168056  1
  Li  Li6  1  0.820218  0.830564  0.417883  1
  Li  Li7  1  0.835978  0.825686  0.917603  1
  Mn  Mn8  1  0.159118  0.837950  0.632725  1
  Mn  Mn9  1  0.330225  0.662989  0.381295  1
  Mn  Mn10  1  0.331060  0.997857  0.882901  1
  Mn  Mn11  1  0.658709  0.338845  0.633173  1
  Mn  Mn12  1  0.677984  0.998299  0.133454  1
  Mn  Mn13  1  0.831544  0.164501  0.383718  1
  Mn  Mn14  1  0.832567  0.498143  0.885328  1
  Fe  Fe15  1  0.185309  0.498188  0.132213  1
  B  B16  1  0.171477  0.828294  0.124916  1
  B  B17  1  0.157051  0.501375  0.625825  1
  B  B18  1  0.336672  0.997395  0.375475  1
  B  B19  1  0.329189  0.667252  0.876515  1
  B  B20  1  0.674634  0.331700  0.127179  1
  B  B21  1  0.657197  0.001426  0.625856  1
  B  B22  1  0.836832  0.497402  0.374635  1
  B  B23  1  0.827966  0.167361  0.876096  1
  O  O24  1  0.095903  0.480975  0.343446  1
  O  O25  1  0.089686  0.179251  0.861426  1
  O  O26  1  0.174741  0.788679  0.845543  1
  O  O27  1  0.194777  0.875606  0.417299  1
  O  O28  1  0.223995  0.134055  0.360768  1
  O  O29  1  0.218595  0.535631  0.919303  1
  O  O30  1  0.265036  0.364067  0.611111  1
  O  O31  1  0.288505  0.963681  0.096547  1
  O  O32  1  0.302956  0.626557  0.595625  1
  O  O33  1  0.317402  0.707594  0.164533  1
  O  O34  1  0.411815  0.320046  0.113017  1
  O  O35  1  0.404392  0.016313  0.666886  1
  O  O36  1  0.596586  0.981515  0.345205  1
  O  O37  1  0.590658  0.679062  0.861421  1
  O  O38  1  0.674048  0.289238  0.846053  1
  O  O39  1  0.694234  0.376309  0.417615  1
  O  O40  1  0.724025  0.634277  0.360785  1
  O  O41  1  0.717272  0.035291  0.917892  1
  O  O42  1  0.794699  0.465548  0.098058  1
  O  O43  1  0.765402  0.864208  0.611345  1
  O  O44  1  0.802697  0.126881  0.595892  1
  O  O45  1  0.818196  0.210360  0.166375  1
  O  O46  1  0.911022  0.814885  0.110800  1
  O  O47  1  0.904610  0.516294  0.667242  1
