# generated using pymatgen
data_YTh4O10
_symmetry_space_group_name_H-M   'P 1'
_cell_length_a   6.84355656
_cell_length_b   6.84355656
_cell_length_c   6.84355656
_cell_angle_alpha   99.60707100
_cell_angle_beta   99.60707100
_cell_angle_gamma   131.77592270
_symmetry_Int_Tables_number   1
_chemical_formula_structural   YTh4O10
_chemical_formula_sum   'Y1 Th4 O10'
_cell_volume   218.16918967
_cell_formula_units_Z   1
loop_
 _symmetry_equiv_pos_site_id
 _symmetry_equiv_pos_as_xyz
  1  'x, y, z'
loop_
 _atom_site_type_symbol
 _atom_site_label
 _atom_site_symmetry_multiplicity
 _atom_site_fract_x
 _atom_site_fract_y
 _atom_site_fract_z
 _atom_site_occupancy
  Y  Y0  1  0.000000  0.000000  0.000000  1
  Th  Th1  1  0.399007  0.201843  0.600850  1
  Th  Th2  1  0.201843  0.600993  0.802836  1
  Th  Th3  1  0.798157  0.399007  0.197164  1
  Th  Th4  1  0.600993  0.798157  0.399150  1
  O  O5  1  0.349691  0.050230  0.899775  1
  O  O6  1  0.849545  0.550084  0.899775  1
  O  O7  1  0.050230  0.150455  0.700539  1
  O  O8  1  0.449916  0.349691  0.299461  1
  O  O9  1  0.750000  0.250000  0.500000  1
  O  O10  1  0.949770  0.849545  0.299461  1
  O  O11  1  0.550084  0.650309  0.700539  1
  O  O12  1  0.250000  0.750000  0.500000  1
  O  O13  1  0.150455  0.449916  0.100225  1
  O  O14  1  0.650309  0.949770  0.100225  1
