# generated using pymatgen
data_Li3CrH12(CO3)6
_symmetry_space_group_name_H-M   'P 1'
_cell_length_a   8.12267421
_cell_length_b   9.42754733
_cell_length_c   12.02556180
_cell_angle_alpha   92.01573514
_cell_angle_beta   104.51166430
_cell_angle_gamma   109.44382268
_symmetry_Int_Tables_number   1
_chemical_formula_structural   Li3CrH12(CO3)6
_chemical_formula_sum   'Li6 Cr2 H24 C12 O36'
_cell_volume   833.53406733
_cell_formula_units_Z   2
loop_
 _symmetry_equiv_pos_site_id
 _symmetry_equiv_pos_as_xyz
  1  'x, y, z'
loop_
 _atom_site_type_symbol
 _atom_site_label
 _atom_site_symmetry_multiplicity
 _atom_site_fract_x
 _atom_site_fract_y
 _atom_site_fract_z
 _atom_site_occupancy
  Li  Li0  1  0.984959  0.069615  0.111929  1
  Li  Li1  1  0.037121  0.104184  0.403944  1
  Li  Li2  1  0.429772  0.209743  0.073939  1
  Li  Li3  1  0.570228  0.790257  0.926061  1
  Li  Li4  1  0.962879  0.895816  0.596056  1
  Li  Li5  1  0.015041  0.930385  0.888071  1
  Cr  Cr6  1  0.701844  0.332554  0.712255  1
  Cr  Cr7  1  0.298156  0.667446  0.287745  1
  H  H8  1  0.349483  0.037002  0.882048  1
  H  H9  1  0.868978  0.216105  0.509289  1
  H  H10  1  0.707919  0.177630  0.213848  1
  H  H11  1  0.536602  0.122300  0.261477  1
  H  H12  1  0.277319  0.172036  0.866642  1
  H  H13  1  0.701446  0.334976  0.985150  1
  H  H14  1  0.836725  0.427195  0.388065  1
  H  H15  1  0.695429  0.461061  0.441818  1
  H  H16  1  0.700502  0.456110  0.081317  1
  H  H17  1  0.403502  0.404872  0.833374  1
  H  H18  1  0.045607  0.343969  0.505007  1
  H  H19  1  0.233918  0.401052  0.740697  1
  H  H20  1  0.766082  0.598948  0.259303  1
  H  H21  1  0.954393  0.656031  0.494993  1
  H  H22  1  0.596498  0.595128  0.166626  1
  H  H23  1  0.299498  0.543890  0.918683  1
  H  H24  1  0.304571  0.538939  0.558182  1
  H  H25  1  0.163275  0.572805  0.611935  1
  H  H26  1  0.298554  0.665024  0.014850  1
  H  H27  1  0.722681  0.827964  0.133358  1
  H  H28  1  0.463398  0.877700  0.738523  1
  H  H29  1  0.292081  0.822370  0.786152  1
  H  H30  1  0.131022  0.783895  0.490711  1
  H  H31  1  0.650517  0.962998  0.117952  1
  C  C32  1  0.869781  0.116641  0.737628  1
  C  C33  1  0.865288  0.166407  0.861057  1
  C  C34  1  0.342187  0.158343  0.598232  1
  C  C35  1  0.409256  0.270157  0.513596  1
  C  C36  1  0.247012  0.377380  0.189415  1
  C  C37  1  0.071521  0.364077  0.224408  1
  C  C38  1  0.928479  0.635923  0.775592  1
  C  C39  1  0.752988  0.622620  0.810585  1
  C  C40  1  0.590744  0.729843  0.486404  1
  C  C41  1  0.657813  0.841657  0.401768  1
  C  C42  1  0.134712  0.833593  0.138943  1
  C  C43  1  0.130219  0.883359  0.262372  1
  O  O44  1  0.934695  0.016972  0.726059  1
  O  O45  1  0.919141  0.099599  0.941303  1
  O  O46  1  0.802402  0.183980  0.655813  1
  O  O47  1  0.574892  0.120516  0.191153  1
  O  O48  1  0.944815  0.238781  0.203011  1
  O  O49  1  0.936677  0.261812  0.454479  1
  O  O50  1  0.288182  0.092932  0.916848  1
  O  O51  1  0.182124  0.068828  0.567775  1
  O  O52  1  0.461573  0.167523  0.694445  1
  O  O53  1  0.802755  0.274855  0.868542  1
  O  O54  1  0.301592  0.269504  0.420287  1
  O  O55  1  0.579825  0.356713  0.549798  1
  O  O56  1  0.628726  0.358145  0.032169  1
  O  O57  1  0.257206  0.263522  0.140296  1
  O  O58  1  0.928533  0.512174  0.726917  1
  O  O59  1  0.270582  0.369984  0.818182  1
  O  O60  1  0.779508  0.503171  0.394475  1
  O  O61  1  0.630130  0.488454  0.786512  1
  O  O62  1  0.369870  0.511546  0.213488  1
  O  O63  1  0.220492  0.496829  0.605525  1
  O  O64  1  0.729418  0.630016  0.181818  1
  O  O65  1  0.071467  0.487826  0.273083  1
  O  O66  1  0.742794  0.736478  0.859704  1
  O  O67  1  0.371274  0.641855  0.967831  1
  O  O68  1  0.420175  0.643287  0.450202  1
  O  O69  1  0.698408  0.730496  0.579713  1
  O  O70  1  0.197245  0.725145  0.131458  1
  O  O71  1  0.538427  0.832477  0.305555  1
  O  O72  1  0.817876  0.931172  0.432225  1
  O  O73  1  0.711818  0.907068  0.083152  1
  O  O74  1  0.063323  0.738188  0.545521  1
  O  O75  1  0.055185  0.761219  0.796989  1
  O  O76  1  0.425108  0.879484  0.808847  1
  O  O77  1  0.197598  0.816020  0.344187  1
  O  O78  1  0.080859  0.900401  0.058697  1
  O  O79  1  0.065305  0.983028  0.273941  1
