# generated using pymatgen
data_CuH6(SeO4)2
_symmetry_space_group_name_H-M   'P 1'
_cell_length_a   6.40565116
_cell_length_b   6.33373189
_cell_length_c   9.18942320
_cell_angle_alpha   90.00000000
_cell_angle_beta   91.25644702
_cell_angle_gamma   90.00000000
_symmetry_Int_Tables_number   1
_chemical_formula_structural   CuH6(SeO4)2
_chemical_formula_sum   'Cu2 H12 Se4 O16'
_cell_volume   372.74066936
_cell_formula_units_Z   2
loop_
 _symmetry_equiv_pos_site_id
 _symmetry_equiv_pos_as_xyz
  1  'x, y, z'
loop_
 _atom_site_type_symbol
 _atom_site_label
 _atom_site_symmetry_multiplicity
 _atom_site_fract_x
 _atom_site_fract_y
 _atom_site_fract_z
 _atom_site_occupancy
  Cu  Cu0  1  0.000000  0.500000  0.500000  1
  Cu  Cu1  1  0.000000  0.000000  0.000000  1
  H  H2  1  0.570077  0.718422  0.660647  1
  H  H3  1  0.429923  0.218422  0.839353  1
  H  H4  1  0.429923  0.281578  0.339353  1
  H  H5  1  0.570077  0.781578  0.160647  1
  H  H6  1  0.358210  0.208560  0.568951  1
  H  H7  1  0.641790  0.708560  0.931049  1
  H  H8  1  0.641790  0.791440  0.431049  1
  H  H9  1  0.358210  0.291440  0.068951  1
  H  H10  1  0.226465  0.067645  0.458630  1
  H  H11  1  0.773535  0.567645  0.041370  1
  H  H12  1  0.773535  0.932355  0.541370  1
  H  H13  1  0.226465  0.432355  0.958630  1
  Se  Se14  1  0.232137  0.773055  0.743083  1
  Se  Se15  1  0.767863  0.273055  0.756917  1
  Se  Se16  1  0.767863  0.226945  0.256917  1
  Se  Se17  1  0.232137  0.726945  0.243083  1
  O  O18  1  0.282811  0.210792  0.474332  1
  O  O19  1  0.717189  0.710792  0.025668  1
  O  O20  1  0.717189  0.789208  0.525668  1
  O  O21  1  0.282811  0.289208  0.974332  1
  O  O22  1  0.095355  0.546938  0.700754  1
  O  O23  1  0.904645  0.046938  0.799246  1
  O  O24  1  0.904645  0.453062  0.299246  1
  O  O25  1  0.095355  0.953062  0.200754  1
  O  O26  1  0.201319  0.778981  0.928220  1
  O  O27  1  0.798681  0.278981  0.571780  1
  O  O28  1  0.798681  0.221019  0.071780  1
  O  O29  1  0.201319  0.721019  0.428220  1
  O  O30  1  0.495402  0.665704  0.750855  1
  O  O31  1  0.504598  0.165704  0.749145  1
  O  O32  1  0.504598  0.334296  0.249145  1
  O  O33  1  0.495402  0.834296  0.250855  1
