# generated using pymatgen
data_LiV4O5F7
_symmetry_space_group_name_H-M   'P 1'
_cell_length_a   5.18441537
_cell_length_b   5.36637801
_cell_length_c   8.98954693
_cell_angle_alpha   105.96045500
_cell_angle_beta   89.48326894
_cell_angle_gamma   118.66667701
_symmetry_Int_Tables_number   1
_chemical_formula_structural   LiV4O5F7
_chemical_formula_sum   'Li1 V4 O5 F7'
_cell_volume   208.73673813
_cell_formula_units_Z   1
loop_
 _symmetry_equiv_pos_site_id
 _symmetry_equiv_pos_as_xyz
  1  'x, y, z'
loop_
 _atom_site_type_symbol
 _atom_site_label
 _atom_site_symmetry_multiplicity
 _atom_site_fract_x
 _atom_site_fract_y
 _atom_site_fract_z
 _atom_site_occupancy
  Li  Li0  1  0.814433  0.025431  0.593085  1
  V  V1  1  0.981034  0.010018  0.006535  1
  V  V2  1  0.748891  0.281130  0.237639  1
  V  V3  1  0.503979  0.456362  0.503177  1
  V  V4  1  0.211851  0.751836  0.740691  1
  O  O5  1  0.841946  0.578366  0.672516  1
  O  O6  1  0.829234  0.149089  0.082513  1
  O  O7  1  0.785409  0.609720  0.122004  1
  O  O8  1  0.675716  0.324297  0.426661  1
  O  O9  1  0.265496  0.132648  0.627876  1
  F  F10  1  0.725945  0.891509  0.385082  1
  F  F11  1  0.683342  0.929397  0.815193  1
  F  F12  1  0.361640  0.697082  0.580106  1
  F  F13  1  0.323400  0.063073  0.175098  1
  F  F14  1  0.228364  0.380470  0.876392  1
  F  F15  1  0.174076  0.423071  0.328313  1
  F  F16  1  0.178198  0.838645  0.924084  1
