# generated using pymatgen
data_Na3V2(PO4)3
_symmetry_space_group_name_H-M   'P 1'
_cell_length_a   8.87318240
_cell_length_b   8.87318240
_cell_length_c   8.89007701
_cell_angle_alpha   60.12004391
_cell_angle_beta   119.87995609
_cell_angle_gamma   119.57889684
_symmetry_Int_Tables_number   1
_chemical_formula_structural   Na3V2(PO4)3
_chemical_formula_sum   'Na6 V4 P6 O24'
_cell_volume   497.39694121
_cell_formula_units_Z   2
loop_
 _symmetry_equiv_pos_site_id
 _symmetry_equiv_pos_as_xyz
  1  'x, y, z'
loop_
 _atom_site_type_symbol
 _atom_site_label
 _atom_site_symmetry_multiplicity
 _atom_site_fract_x
 _atom_site_fract_y
 _atom_site_fract_z
 _atom_site_occupancy
  Na  Na0  1  0.500000  0.000000  0.000000  1
  Na  Na1  1  1.000000  0.500000  0.500000  1
  Na  Na2  1  0.753113  0.104556  0.764582  1
  Na  Na3  1  0.104556  0.753113  0.735418  1
  Na  Na4  1  0.895444  0.246887  0.264582  1
  Na  Na5  1  0.246887  0.895444  0.235418  1
  V  V6  1  0.360122  0.150984  0.562420  1
  V  V7  1  0.849016  0.639878  0.062420  1
  V  V8  1  0.150984  0.360122  0.937580  1
  V  V9  1  0.639878  0.849016  0.437580  1
  P  P10  1  0.252171  0.547263  0.242807  1
  P  P11  1  0.043475  0.043475  0.750000  1
  P  P12  1  0.547263  0.252171  0.257193  1
  P  P13  1  0.452737  0.747829  0.742807  1
  P  P14  1  0.956525  0.956525  0.250000  1
  P  P15  1  0.747829  0.452737  0.757193  1
  O  O16  1  0.413069  0.730371  0.250637  1
  O  O17  1  0.086157  0.563774  0.246871  1
  O  O18  1  0.062418  0.220344  0.763139  1
  O  O19  1  0.200589  0.527801  0.057482  1
  O  O20  1  0.289128  0.376382  0.405401  1
  O  O21  1  0.016068  0.874562  0.924004  1
  O  O22  1  0.220344  0.062418  0.736861  1
  O  O23  1  0.730371  0.413069  0.249363  1
  O  O24  1  0.527801  0.200589  0.442518  1
  O  O25  1  0.376382  0.289128  0.094599  1
  O  O26  1  0.125438  0.983932  0.424004  1
  O  O27  1  0.436226  0.913843  0.746871  1
  O  O28  1  0.563774  0.086157  0.253129  1
  O  O29  1  0.874562  0.016068  0.575996  1
  O  O30  1  0.623618  0.710872  0.905401  1
  O  O31  1  0.472199  0.799411  0.557482  1
  O  O32  1  0.269629  0.586931  0.750637  1
  O  O33  1  0.779656  0.937582  0.263139  1
  O  O34  1  0.983932  0.125438  0.075996  1
  O  O35  1  0.710872  0.623618  0.594599  1
  O  O36  1  0.799411  0.472199  0.942518  1
  O  O37  1  0.937582  0.779656  0.236861  1
  O  O38  1  0.913843  0.436226  0.753129  1
  O  O39  1  0.586931  0.269629  0.749363  1
