# generated using pymatgen
data_Li3Mn2(SiO4)2
_symmetry_space_group_name_H-M   'P 1'
_cell_length_a   5.10222667
_cell_length_b   10.61572756
_cell_length_c   6.68814822
_cell_angle_alpha   90.00000000
_cell_angle_beta   90.16442506
_cell_angle_gamma   90.00000000
_symmetry_Int_Tables_number   1
_chemical_formula_structural   Li3Mn2(SiO4)2
_chemical_formula_sum   'Li6 Mn4 Si4 O16'
_cell_volume   362.25435398
_cell_formula_units_Z   2
loop_
 _symmetry_equiv_pos_site_id
 _symmetry_equiv_pos_as_xyz
  1  'x, y, z'
loop_
 _atom_site_type_symbol
 _atom_site_label
 _atom_site_symmetry_multiplicity
 _atom_site_fract_x
 _atom_site_fract_y
 _atom_site_fract_z
 _atom_site_occupancy
  Li  Li0  1  0.564967  0.840907  0.243967  1
  Li  Li1  1  0.435033  0.340907  0.756033  1
  Li  Li2  1  0.065720  0.658786  0.752266  1
  Li  Li3  1  0.044769  0.423223  0.515989  1
  Li  Li4  1  0.955231  0.923223  0.484011  1
  Li  Li5  1  0.934280  0.158786  0.247734  1
  Mn  Mn6  1  0.447703  0.340532  0.246839  1
  Mn  Mn7  1  0.552297  0.840532  0.753161  1
  Mn  Mn8  1  0.929397  0.157390  0.762215  1
  Mn  Mn9  1  0.070603  0.657390  0.237785  1
  Si  Si10  1  0.067123  0.910787  0.004672  1
  Si  Si11  1  0.932877  0.410787  0.995328  1
  Si  Si12  1  0.561060  0.591346  0.498537  1
  Si  Si13  1  0.438940  0.091346  0.501463  1
  O  O14  1  0.048159  0.346110  0.205825  1
  O  O15  1  0.952736  0.841862  0.209092  1
  O  O16  1  0.386623  0.888833  0.003573  1
  O  O17  1  0.995249  0.059900  0.009989  1
  O  O18  1  0.613377  0.388833  0.996427  1
  O  O19  1  0.004751  0.559900  0.990011  1
  O  O20  1  0.047264  0.341862  0.790908  1
  O  O21  1  0.951841  0.846110  0.794175  1
  O  O22  1  0.546585  0.165874  0.700765  1
  O  O23  1  0.446316  0.665802  0.694654  1
  O  O24  1  0.448458  0.443933  0.501215  1
  O  O25  1  0.885921  0.591454  0.496229  1
  O  O26  1  0.551542  0.943933  0.498785  1
  O  O27  1  0.114079  0.091454  0.503771  1
  O  O28  1  0.553684  0.165802  0.305346  1
  O  O29  1  0.453415  0.665874  0.299235  1
