# generated using pymatgen
data_Li2Co2(SiO3)3
_symmetry_space_group_name_H-M   'P 1'
_cell_length_a   10.56842828
_cell_length_b   7.23080758
_cell_length_c   12.18872933
_cell_angle_alpha   90.00000000
_cell_angle_beta   110.42951881
_cell_angle_gamma   90.00000000
_symmetry_Int_Tables_number   1
_chemical_formula_structural   Li2Co2(SiO3)3
_chemical_formula_sum   'Li8 Co8 Si12 O36'
_cell_volume   872.85607103
_cell_formula_units_Z   4
loop_
 _symmetry_equiv_pos_site_id
 _symmetry_equiv_pos_as_xyz
  1  'x, y, z'
loop_
 _atom_site_type_symbol
 _atom_site_label
 _atom_site_symmetry_multiplicity
 _atom_site_fract_x
 _atom_site_fract_y
 _atom_site_fract_z
 _atom_site_occupancy
  Li  Li0  1  0.052214  0.037490  0.632486  1
  Li  Li1  1  0.052214  0.462510  0.132486  1
  Li  Li2  1  0.457037  0.935806  0.658998  1
  Li  Li3  1  0.542963  0.435806  0.841002  1
  Li  Li4  1  0.457037  0.564194  0.158998  1
  Li  Li5  1  0.542963  0.064194  0.341002  1
  Li  Li6  1  0.947786  0.537490  0.867514  1
  Li  Li7  1  0.947786  0.962510  0.367514  1
  Co  Co8  1  0.055585  0.103563  0.924214  1
  Co  Co9  1  0.055585  0.396437  0.424214  1
  Co  Co10  1  0.434765  0.366607  0.560473  1
  Co  Co11  1  0.565235  0.866607  0.939527  1
  Co  Co12  1  0.434765  0.133393  0.060473  1
  Co  Co13  1  0.565235  0.633393  0.439527  1
  Co  Co14  1  0.944415  0.603563  0.575786  1
  Co  Co15  1  0.944415  0.896437  0.075786  1
  Si  Si16  1  0.229146  0.453244  0.937753  1
  Si  Si17  1  0.239669  0.847050  0.855016  1
  Si  Si18  1  0.257523  0.525997  0.702985  1
  Si  Si19  1  0.229146  0.046756  0.437753  1
  Si  Si20  1  0.239669  0.652950  0.355016  1
  Si  Si21  1  0.257523  0.974003  0.202985  1
  Si  Si22  1  0.742477  0.025997  0.797015  1
  Si  Si23  1  0.760331  0.347050  0.644984  1
  Si  Si24  1  0.770854  0.953244  0.562247  1
  Si  Si25  1  0.742477  0.474003  0.297015  1
  Si  Si26  1  0.760331  0.152950  0.144984  1
  Si  Si27  1  0.770854  0.546756  0.062247  1
  O  O28  1  0.094729  0.368796  0.956723  1
  O  O29  1  0.113245  0.988254  0.803880  1
  O  O30  1  0.125665  0.505031  0.585393  1
  O  O31  1  0.205202  0.680459  0.934355  1
  O  O32  1  0.094729  0.131204  0.456723  1
  O  O33  1  0.236177  0.400464  0.808520  1
  O  O34  1  0.267646  0.748058  0.742694  1
  O  O35  1  0.113245  0.511746  0.303880  1
  O  O36  1  0.370670  0.392694  0.038959  1
  O  O37  1  0.125665  0.994969  0.085393  1
  O  O38  1  0.380264  0.945402  0.932959  1
  O  O39  1  0.205202  0.819541  0.434355  1
  O  O40  1  0.236177  0.099536  0.308520  1
  O  O41  1  0.402336  0.467651  0.695474  1
  O  O42  1  0.267646  0.751942  0.242694  1
  O  O43  1  0.370670  0.107306  0.538959  1
  O  O44  1  0.380264  0.554598  0.432959  1
  O  O45  1  0.402336  0.032349  0.195474  1
  O  O46  1  0.597664  0.967651  0.804526  1
  O  O47  1  0.619736  0.445402  0.567041  1
  O  O48  1  0.629330  0.892694  0.461041  1
  O  O49  1  0.732354  0.248058  0.757306  1
  O  O50  1  0.597664  0.532349  0.304526  1
  O  O51  1  0.763823  0.900464  0.691480  1
  O  O52  1  0.794798  0.180459  0.565645  1
  O  O53  1  0.619736  0.054598  0.067041  1
  O  O54  1  0.874335  0.005031  0.914607  1
  O  O55  1  0.629330  0.607306  0.961041  1
  O  O56  1  0.886755  0.488254  0.696120  1
  O  O57  1  0.732354  0.251942  0.257306  1
  O  O58  1  0.763823  0.599536  0.191480  1
  O  O59  1  0.905271  0.868796  0.543277  1
  O  O60  1  0.794798  0.319541  0.065645  1
  O  O61  1  0.874335  0.494969  0.414607  1
  O  O62  1  0.886755  0.011746  0.196120  1
  O  O63  1  0.905271  0.631204  0.043277  1
