# generated using pymatgen
data_Li5Mn3Bi2(PO4)6
_symmetry_space_group_name_H-M   'P 1'
_cell_length_a   8.86543330
_cell_length_b   8.93910459
_cell_length_c   8.97490334
_cell_angle_alpha   119.35432862
_cell_angle_beta   119.44173196
_cell_angle_gamma   89.97634074
_symmetry_Int_Tables_number   1
_chemical_formula_structural   Li5Mn3Bi2(PO4)6
_chemical_formula_sum   'Li5 Mn3 Bi2 P6 O24'
_cell_volume   512.04447461
_cell_formula_units_Z   1
loop_
 _symmetry_equiv_pos_site_id
 _symmetry_equiv_pos_as_xyz
  1  'x, y, z'
loop_
 _atom_site_type_symbol
 _atom_site_label
 _atom_site_symmetry_multiplicity
 _atom_site_fract_x
 _atom_site_fract_y
 _atom_site_fract_z
 _atom_site_occupancy
  Li  Li0  1  0.512139  0.176596  0.349291  1
  Li  Li1  1  0.745491  0.647505  0.505008  1
  Li  Li2  1  0.305767  0.324643  0.473382  1
  Li  Li3  1  0.319814  0.149331  0.992237  1
  Li  Li4  1  0.310724  0.840504  0.160727  1
  Mn  Mn5  1  0.960154  0.653264  0.310002  1
  Mn  Mn6  1  0.533431  0.843678  0.683918  1
  Mn  Mn7  1  0.036735  0.341148  0.686015  1
  Bi  Bi8  1  0.984512  0.009758  0.001272  1
  Bi  Bi9  1  0.511262  0.504050  0.995082  1
  P  P10  1  0.741158  0.548310  0.794669  1
  P  P11  1  0.745501  0.249043  0.195636  1
  P  P12  1  0.737131  0.946512  0.489810  1
  P  P13  1  0.241433  0.043457  0.497117  1
  P  P14  1  0.224059  0.746445  0.784162  1
  P  P15  1  0.264961  0.457471  0.206336  1
  O  O16  1  0.921513  0.293764  0.391576  1
  O  O17  1  0.908072  0.096570  0.603510  1
  O  O18  1  0.907778  0.504234  0.798245  1
  O  O19  1  0.746743  0.729073  0.800638  1
  O  O20  1  0.752463  0.593981  0.993409  1
  O  O21  1  0.559477  0.400058  0.606536  1
  O  O22  1  0.742264  0.091076  0.006417  1
  O  O23  1  0.745551  0.419010  0.178195  1
  O  O24  1  0.731208  0.750377  0.332916  1
  O  O25  1  0.416963  0.016262  0.621882  1
  O  O26  1  0.227843  0.037911  0.311846  1
  O  O27  1  0.377898  0.776450  0.760904  1
  O  O28  1  0.570349  0.202968  0.179405  1
  O  O29  1  0.750186  0.920461  0.658129  1
  O  O30  1  0.558752  0.972053  0.367140  1
  O  O31  1  0.252941  0.244428  0.641521  1
  O  O32  1  0.252374  0.613157  0.856594  1
  O  O33  1  0.236048  0.925109  0.965551  1
  O  O34  1  0.452022  0.601737  0.393239  1
  O  O35  1  0.262852  0.390260  0.006205  1
  O  O36  1  0.243720  0.279991  0.204410  1
  O  O37  1  0.105476  0.524258  0.200176  1
  O  O38  1  0.070235  0.903233  0.407859  1
  O  O39  1  0.032996  0.680871  0.589036  1
