# generated using pymatgen
data_Co6O7F5
_symmetry_space_group_name_H-M   'P 1'
_cell_length_a   5.47300533
_cell_length_b   5.47300533
_cell_length_c   7.50769470
_cell_angle_alpha   70.08125424
_cell_angle_beta   109.91874576
_cell_angle_gamma   110.85054628
_symmetry_Int_Tables_number   1
_chemical_formula_structural   Co6O7F5
_chemical_formula_sum   'Co6 O7 F5'
_cell_volume   191.32341006
_cell_formula_units_Z   1
loop_
 _symmetry_equiv_pos_site_id
 _symmetry_equiv_pos_as_xyz
  1  'x, y, z'
loop_
 _atom_site_type_symbol
 _atom_site_label
 _atom_site_symmetry_multiplicity
 _atom_site_fract_x
 _atom_site_fract_y
 _atom_site_fract_z
 _atom_site_occupancy
  Co  Co0  1  0.320693  0.696299  0.854581  1
  Co  Co1  1  0.341727  0.669661  0.327803  1
  Co  Co2  1  0.669661  0.341727  0.672197  1
  Co  Co3  1  0.696299  0.320693  0.145419  1
  Co  Co4  1  0.003660  0.003660  0.500000  1
  Co  Co5  1  0.980213  0.980213  0.000000  1
  O  O6  1  0.646263  0.964248  0.330451  1
  O  O7  1  0.964248  0.646263  0.669549  1
  O  O8  1  0.771549  0.216113  0.964918  1
  O  O9  1  0.216113  0.771549  0.035082  1
  O  O10  1  0.043063  0.361369  0.332591  1
  O  O11  1  0.361369  0.043063  0.667409  1
  O  O12  1  0.682925  0.682925  0.000000  1
  F  F13  1  0.428635  0.573902  0.628634  1
  F  F14  1  0.107477  0.896455  0.299059  1
  F  F15  1  0.573902  0.428635  0.371366  1
  F  F16  1  0.896455  0.107477  0.700941  1
  F  F17  1  0.295748  0.295748  0.000000  1
