# generated using pymatgen
data_Li2Cr2Si2O7
_symmetry_space_group_name_H-M   'P 1'
_cell_length_a   5.62913457
_cell_length_b   13.64526688
_cell_length_c   9.80934102
_cell_angle_alpha   90.00000000
_cell_angle_beta   124.62537465
_cell_angle_gamma   90.00000000
_symmetry_Int_Tables_number   1
_chemical_formula_structural   Li2Cr2Si2O7
_chemical_formula_sum   'Li8 Cr8 Si8 O28'
_cell_volume   620.01549291
_cell_formula_units_Z   4
loop_
 _symmetry_equiv_pos_site_id
 _symmetry_equiv_pos_as_xyz
  1  'x, y, z'
loop_
 _atom_site_type_symbol
 _atom_site_label
 _atom_site_symmetry_multiplicity
 _atom_site_fract_x
 _atom_site_fract_y
 _atom_site_fract_z
 _atom_site_occupancy
  Li  Li0  1  0.233217  0.347655  0.884312  1
  Li  Li1  1  0.523036  0.748857  0.817594  1
  Li  Li2  1  0.476964  0.248857  0.682406  1
  Li  Li3  1  0.766783  0.847655  0.615688  1
  Li  Li4  1  0.233217  0.152345  0.384312  1
  Li  Li5  1  0.523036  0.751143  0.317594  1
  Li  Li6  1  0.476964  0.251143  0.182406  1
  Li  Li7  1  0.766783  0.652345  0.115688  1
  Cr  Cr8  1  0.051473  0.083180  0.900945  1
  Cr  Cr9  1  0.680400  0.491402  0.824867  1
  Cr  Cr10  1  0.319600  0.991402  0.675133  1
  Cr  Cr11  1  0.948527  0.583180  0.599055  1
  Cr  Cr12  1  0.051473  0.416820  0.400945  1
  Cr  Cr13  1  0.680400  0.008598  0.324867  1
  Cr  Cr14  1  0.319600  0.508598  0.175133  1
  Cr  Cr15  1  0.948527  0.916820  0.099055  1
  Si  Si16  1  0.285234  0.884711  0.955793  1
  Si  Si17  1  0.136731  0.678199  0.947322  1
  Si  Si18  1  0.863269  0.178199  0.552678  1
  Si  Si19  1  0.714766  0.384711  0.544207  1
  Si  Si20  1  0.285234  0.615289  0.455793  1
  Si  Si21  1  0.136731  0.821801  0.447322  1
  Si  Si22  1  0.863269  0.321801  0.052678  1
  Si  Si23  1  0.714766  0.115289  0.044207  1
  O  O24  1  0.076092  0.797563  0.954613  1
  O  O25  1  0.410836  0.165949  0.984920  1
  O  O26  1  0.706223  0.030489  0.918339  1
  O  O27  1  0.836146  0.629754  0.908977  1
  O  O28  1  0.578725  0.356053  0.869223  1
  O  O29  1  0.209833  0.661998  0.810495  1
  O  O30  1  0.097437  0.933516  0.770191  1
  O  O31  1  0.902563  0.433516  0.729809  1
  O  O32  1  0.790167  0.161998  0.689505  1
  O  O33  1  0.421275  0.856053  0.630777  1
  O  O34  1  0.163854  0.129754  0.591023  1
  O  O35  1  0.293777  0.530489  0.581661  1
  O  O36  1  0.589164  0.665949  0.515080  1
  O  O37  1  0.923908  0.297563  0.545387  1
  O  O38  1  0.076092  0.702437  0.454613  1
  O  O39  1  0.410836  0.334051  0.484920  1
  O  O40  1  0.706223  0.469511  0.418339  1
  O  O41  1  0.836146  0.870246  0.408977  1
  O  O42  1  0.578725  0.143947  0.369223  1
  O  O43  1  0.209833  0.838002  0.310495  1
  O  O44  1  0.097437  0.566484  0.270191  1
  O  O45  1  0.902563  0.066484  0.229809  1
  O  O46  1  0.790167  0.338002  0.189505  1
  O  O47  1  0.421275  0.643947  0.130777  1
  O  O48  1  0.163854  0.370246  0.091023  1
  O  O49  1  0.293777  0.969511  0.081661  1
  O  O50  1  0.589164  0.834051  0.015080  1
  O  O51  1  0.923908  0.202437  0.045387  1
