# generated using pymatgen
data_Li3Mn4F19
_symmetry_space_group_name_H-M   'P 1'
_cell_length_a   5.58639036
_cell_length_b   11.12503728
_cell_length_c   12.13165115
_cell_angle_alpha   114.65865779
_cell_angle_beta   92.71403074
_cell_angle_gamma   93.77267608
_symmetry_Int_Tables_number   1
_chemical_formula_structural   Li3Mn4F19
_chemical_formula_sum   'Li6 Mn8 F38'
_cell_volume   681.39791376
_cell_formula_units_Z   2
loop_
 _symmetry_equiv_pos_site_id
 _symmetry_equiv_pos_as_xyz
  1  'x, y, z'
loop_
 _atom_site_type_symbol
 _atom_site_label
 _atom_site_symmetry_multiplicity
 _atom_site_fract_x
 _atom_site_fract_y
 _atom_site_fract_z
 _atom_site_occupancy
  Li  Li0  1  0.604561  0.137454  0.081673  1
  Li  Li1  1  0.956541  0.759573  0.540360  1
  Li  Li2  1  0.866326  0.463438  0.775408  1
  Li  Li3  1  0.133674  0.536562  0.224592  1
  Li  Li4  1  0.043459  0.240427  0.459640  1
  Li  Li5  1  0.395439  0.862546  0.918327  1
  Mn  Mn6  1  0.099012  0.014219  0.205090  1
  Mn  Mn7  1  0.619107  0.432033  0.378815  1
  Mn  Mn8  1  0.782867  0.671001  0.026494  1
  Mn  Mn9  1  0.518888  0.132394  0.623734  1
  Mn  Mn10  1  0.481112  0.867606  0.376266  1
  Mn  Mn11  1  0.217133  0.328999  0.973506  1
  Mn  Mn12  1  0.380893  0.567967  0.621185  1
  Mn  Mn13  1  0.900988  0.985781  0.794910  1
  F  F14  1  0.313336  0.200984  0.552408  1
  F  F15  1  0.114711  0.978682  0.688417  1
  F  F16  1  0.338463  0.004131  0.100001  1
  F  F17  1  0.395885  0.220848  0.767625  1
  F  F18  1  0.447597  0.240791  0.006772  1
  F  F19  1  0.584632  0.277362  0.245938  1
  F  F20  1  0.633157  0.513691  0.924147  1
  F  F21  1  0.643740  0.595640  0.527252  1
  F  F22  1  0.804673  0.816629  0.694945  1
  F  F23  1  0.599807  0.500915  0.688678  1
  F  F24  1  0.994879  0.829488  0.117602  1
  F  F25  1  0.812178  0.356935  0.453506  1
  F  F26  1  0.865735  0.499482  0.325126  1
  F  F27  1  0.928302  0.596492  0.114046  1
  F  F28  1  0.761849  0.260880  0.663527  1
  F  F29  1  0.674177  0.035297  0.696988  1
  F  F30  1  0.109728  0.937463  0.881598  1
  F  F31  1  0.966336  0.657075  0.906455  1
  F  F32  1  0.675464  0.043363  0.477636  1
  F  F33  1  0.324536  0.956637  0.522364  1
  F  F34  1  0.033664  0.342925  0.093545  1
  F  F35  1  0.890272  0.062537  0.118402  1
  F  F36  1  0.325823  0.964703  0.303012  1
  F  F37  1  0.238151  0.739120  0.336473  1
  F  F38  1  0.071698  0.403508  0.885954  1
  F  F39  1  0.134265  0.500518  0.674874  1
  F  F40  1  0.187822  0.643065  0.546494  1
  F  F41  1  0.005121  0.170512  0.882398  1
  F  F42  1  0.400193  0.499085  0.311322  1
  F  F43  1  0.195327  0.183371  0.305055  1
  F  F44  1  0.356260  0.404360  0.472748  1
  F  F45  1  0.366843  0.486309  0.075853  1
  F  F46  1  0.415368  0.722638  0.754062  1
  F  F47  1  0.552403  0.759209  0.993228  1
  F  F48  1  0.604115  0.779152  0.232375  1
  F  F49  1  0.661537  0.995869  0.899999  1
  F  F50  1  0.885289  0.021318  0.311583  1
  F  F51  1  0.686664  0.799016  0.447592  1
