# generated using pymatgen
data_Li4Mn(PO3)6
_symmetry_space_group_name_H-M   'P 1'
_cell_length_a   7.32107185
_cell_length_b   7.38441180
_cell_length_c   7.52746851
_cell_angle_alpha   106.17656564
_cell_angle_beta   114.44162409
_cell_angle_gamma   97.21969185
_symmetry_Int_Tables_number   1
_chemical_formula_structural   Li4Mn(PO3)6
_chemical_formula_sum   'Li4 Mn1 P6 O18'
_cell_volume   342.03359768
_cell_formula_units_Z   1
loop_
 _symmetry_equiv_pos_site_id
 _symmetry_equiv_pos_as_xyz
  1  'x, y, z'
loop_
 _atom_site_type_symbol
 _atom_site_label
 _atom_site_symmetry_multiplicity
 _atom_site_fract_x
 _atom_site_fract_y
 _atom_site_fract_z
 _atom_site_occupancy
  Li  Li0  1  0.373777  0.154357  0.555327  1
  Li  Li1  1  0.484760  0.524008  0.999151  1
  Li  Li2  1  0.623388  0.839058  0.436705  1
  Li  Li3  1  0.245831  0.884084  0.082298  1
  Mn  Mn4  1  0.806964  0.099881  0.957792  1
  P  P5  1  0.027679  0.235454  0.700036  1
  P  P6  1  0.669095  0.213446  0.326878  1
  P  P7  1  0.770289  0.498876  0.727105  1
  P  P8  1  0.216602  0.499425  0.266029  1
  P  P9  1  0.332771  0.781039  0.675871  1
  P  P10  1  0.976555  0.778927  0.302005  1
  O  O11  1  0.910770  0.076100  0.735434  1
  O  O12  1  0.510254  0.062378  0.327414  1
  O  O13  1  0.901539  0.193521  0.451437  1
  O  O14  1  0.253180  0.264993  0.760812  1
  O  O15  1  0.633594  0.366309  0.770173  1
  O  O16  1  0.994216  0.445398  0.797402  1
  O  O17  1  0.651214  0.219788  0.122844  1
  O  O18  1  0.143605  0.279545  0.172137  1
  O  O19  1  0.683979  0.428342  0.471322  1
  O  O20  1  0.308151  0.565950  0.519238  1
  O  O21  1  0.812943  0.715827  0.811639  1
  O  O22  1  0.355581  0.764372  0.876325  1
  O  O23  1  0.004352  0.568089  0.198645  1
  O  O24  1  0.367038  0.613582  0.222110  1
  O  O25  1  0.751485  0.747061  0.247705  1
  O  O26  1  0.107389  0.814422  0.550857  1
  O  O27  1  0.496962  0.932506  0.678581  1
  O  O28  1  0.086036  0.933262  0.256723  1
