# generated using pymatgen
data_Li2Fe(Si2O5)3
_symmetry_space_group_name_H-M   'P 1'
_cell_length_a   7.45110790
_cell_length_b   7.45110790
_cell_length_c   14.84122231
_cell_angle_alpha   80.23535126
_cell_angle_beta   99.76464874
_cell_angle_gamma   121.68627484
_symmetry_Int_Tables_number   1
_chemical_formula_structural   Li2Fe(Si2O5)3
_chemical_formula_sum   'Li4 Fe2 Si12 O30'
_cell_volume   687.79664438
_cell_formula_units_Z   2
loop_
 _symmetry_equiv_pos_site_id
 _symmetry_equiv_pos_as_xyz
  1  'x, y, z'
loop_
 _atom_site_type_symbol
 _atom_site_label
 _atom_site_symmetry_multiplicity
 _atom_site_fract_x
 _atom_site_fract_y
 _atom_site_fract_z
 _atom_site_occupancy
  Li  Li0  1  0.713485  0.316241  0.949431  1
  Li  Li1  1  0.049104  0.650586  0.839248  1
  Li  Li2  1  0.683759  0.286515  0.449431  1
  Li  Li3  1  0.349414  0.950896  0.339248  1
  Fe  Fe4  1  0.768343  0.719131  0.896203  1
  Fe  Fe5  1  0.280869  0.231657  0.396203  1
  Si  Si6  1  0.540768  0.360090  0.746893  1
  Si  Si7  1  0.031162  0.919117  0.564440  1
  Si  Si8  1  0.639910  0.459232  0.246893  1
  Si  Si9  1  0.080883  0.968838  0.064440  1
  Si  Si10  1  0.374413  0.833367  0.550462  1
  Si  Si11  1  0.633709  0.000324  0.747420  1
  Si  Si12  1  0.166633  0.625587  0.050462  1
  Si  Si13  1  0.999676  0.366291  0.247420  1
  Si  Si14  1  0.073611  0.088428  0.756428  1
  Si  Si15  1  0.555631  0.564026  0.541974  1
  Si  Si16  1  0.911572  0.926389  0.256428  1
  Si  Si17  1  0.435974  0.444369  0.041974  1
  O  O18  1  0.561685  0.461173  0.958092  1
  O  O19  1  0.038797  0.920764  0.848384  1
  O  O20  1  0.066838  0.969798  0.671372  1
  O  O21  1  0.739768  0.536898  0.807361  1
  O  O22  1  0.572420  0.427539  0.638309  1
  O  O23  1  0.538827  0.438315  0.458092  1
  O  O24  1  0.995789  0.534518  0.963079  1
  O  O25  1  0.079236  0.961203  0.348384  1
  O  O26  1  0.551886  0.144113  0.779335  1
  O  O27  1  0.030202  0.933162  0.171372  1
  O  O28  1  0.463102  0.260232  0.307361  1
  O  O29  1  0.128396  0.768375  0.559920  1
  O  O30  1  0.572461  0.427580  0.138309  1
  O  O31  1  0.465482  0.004211  0.463079  1
  O  O32  1  0.515566  0.921078  0.647180  1
  O  O33  1  0.855887  0.448114  0.279335  1
  O  O34  1  0.586927  0.809451  0.826360  1
  O  O35  1  0.892139  0.154570  0.737984  1
  O  O36  1  0.231625  0.871604  0.059920  1
  O  O37  1  0.364668  0.612080  0.538795  1
  O  O38  1  0.078922  0.484434  0.147180  1
  O  O39  1  0.306357  0.304939  0.767235  1
  O  O40  1  0.190549  0.413073  0.326360  1
  O  O41  1  0.845430  0.107861  0.237984  1
  O  O42  1  0.777738  0.791497  0.533214  1
  O  O43  1  0.146004  0.148181  0.503795  1
  O  O44  1  0.387920  0.635332  0.038795  1
  O  O45  1  0.695061  0.693643  0.267235  1
  O  O46  1  0.208503  0.222262  0.033214  1
  O  O47  1  0.851819  0.853996  0.003795  1
