# generated using pymatgen
data_Mn2OF3
_symmetry_space_group_name_H-M   'P 1'
_cell_length_a   5.80770532
_cell_length_b   5.80770532
_cell_length_c   9.47971093
_cell_angle_alpha   86.32839542
_cell_angle_beta   93.67160458
_cell_angle_gamma   107.88685708
_symmetry_Int_Tables_number   1
_chemical_formula_structural   Mn2OF3
_chemical_formula_sum   'Mn8 O4 F12'
_cell_volume   303.33428214
_cell_formula_units_Z   4
loop_
 _symmetry_equiv_pos_site_id
 _symmetry_equiv_pos_as_xyz
  1  'x, y, z'
loop_
 _atom_site_type_symbol
 _atom_site_label
 _atom_site_symmetry_multiplicity
 _atom_site_fract_x
 _atom_site_fract_y
 _atom_site_fract_z
 _atom_site_occupancy
  Mn  Mn0  1  0.646190  0.353810  0.115167  1
  Mn  Mn1  1  0.885856  0.114144  0.391755  1
  Mn  Mn2  1  0.254497  0.745503  0.237068  1
  Mn  Mn3  1  0.500000  0.500000  0.500000  1
  Mn  Mn4  1  0.745503  0.254497  0.762932  1
  Mn  Mn5  1  0.114144  0.885856  0.608245  1
  Mn  Mn6  1  0.353810  0.646190  0.884833  1
  Mn  Mn7  1  0.000000  0.000000  0.000000  1
  O  O8  1  0.811935  0.811935  0.500000  1
  O  O9  1  0.205709  0.794291  0.027568  1
  O  O10  1  0.794291  0.205709  0.972432  1
  O  O11  1  0.188065  0.188065  0.500000  1
  F  F12  1  0.952862  0.424503  0.267395  1
  F  F13  1  0.575497  0.047138  0.267395  1
  F  F14  1  0.721678  0.278322  0.541921  1
  F  F15  1  0.483059  0.516941  0.265554  1
  F  F16  1  0.976673  0.023327  0.781359  1
  F  F17  1  0.023327  0.976673  0.218641  1
  F  F18  1  0.516941  0.483059  0.734446  1
  F  F19  1  0.278322  0.721678  0.458079  1
  F  F20  1  0.693760  0.693760  0.000000  1
  F  F21  1  0.424503  0.952862  0.732605  1
  F  F22  1  0.306240  0.306240  0.000000  1
  F  F23  1  0.047138  0.575497  0.732605  1
