# generated using pymatgen
data_Cr3Sn3(SbO8)2
_symmetry_space_group_name_H-M   'P 1'
_cell_length_a   6.18079331
_cell_length_b   6.18601367
_cell_length_c   9.32276342
_cell_angle_alpha   89.98937319
_cell_angle_beta   90.78279912
_cell_angle_gamma   119.80195693
_symmetry_Int_Tables_number   1
_chemical_formula_structural   Cr3Sn3(SbO8)2
_chemical_formula_sum   'Cr3 Sn3 Sb2 O16'
_cell_volume   309.27192992
_cell_formula_units_Z   1
loop_
 _symmetry_equiv_pos_site_id
 _symmetry_equiv_pos_as_xyz
  1  'x, y, z'
loop_
 _atom_site_type_symbol
 _atom_site_label
 _atom_site_symmetry_multiplicity
 _atom_site_fract_x
 _atom_site_fract_y
 _atom_site_fract_z
 _atom_site_occupancy
  Cr  Cr0  1  0.655757  0.828380  0.789579  1
  Cr  Cr1  1  0.826693  0.169090  0.282803  1
  Cr  Cr2  1  0.828555  0.658997  0.292109  1
  Sn  Sn3  1  0.163945  0.335368  0.787717  1
  Sn  Sn4  1  0.164596  0.829729  0.788058  1
  Sn  Sn5  1  0.335344  0.168667  0.296601  1
  Sb  Sb6  1  0.344312  0.673178  0.506390  1
  Sb  Sb7  1  0.674944  0.338925  0.011649  1
  O  O8  1  0.168359  0.345909  0.399730  1
  O  O9  1  0.044812  0.523495  0.646064  1
  O  O10  1  0.336422  0.668049  0.900601  1
  O  O11  1  0.988185  0.994487  0.691792  1
  O  O12  1  0.982626  0.999289  0.205229  1
  O  O13  1  0.169874  0.827331  0.400141  1
  O  O14  1  0.482545  0.528030  0.655955  1
  O  O15  1  0.481955  0.954762  0.656473  1
  O  O16  1  0.344098  0.171976  0.904774  1
  O  O17  1  0.656471  0.830890  0.394171  1
  O  O18  1  0.535929  0.050304  0.156954  1
  O  O19  1  0.529164  0.476817  0.157155  1
  O  O20  1  0.683671  0.330614  0.394394  1
  O  O21  1  0.824699  0.170738  0.900077  1
  O  O22  1  0.951482  0.468865  0.164681  1
  O  O23  1  0.825564  0.655914  0.901183  1
