# generated using pymatgen
data_Mn12O7F17
_symmetry_space_group_name_H-M   'P 1'
_cell_length_a   4.81704322
_cell_length_b   5.87091122
_cell_length_c   15.71437032
_cell_angle_alpha   89.37090168
_cell_angle_beta   89.91654570
_cell_angle_gamma   86.34149170
_symmetry_Int_Tables_number   1
_chemical_formula_structural   Mn12O7F17
_chemical_formula_sum   'Mn12 O7 F17'
_cell_volume   443.47667110
_cell_formula_units_Z   1
loop_
 _symmetry_equiv_pos_site_id
 _symmetry_equiv_pos_as_xyz
  1  'x, y, z'
loop_
 _atom_site_type_symbol
 _atom_site_label
 _atom_site_symmetry_multiplicity
 _atom_site_fract_x
 _atom_site_fract_y
 _atom_site_fract_z
 _atom_site_occupancy
  Mn  Mn0  1  0.961887  0.162404  0.589273  1
  Mn  Mn1  1  0.000277  0.841395  0.755519  1
  Mn  Mn2  1  0.033667  0.190260  0.926867  1
  Mn  Mn3  1  0.967884  0.175247  0.250635  1
  Mn  Mn4  1  0.991572  0.855866  0.412834  1
  Mn  Mn5  1  0.980082  0.857689  0.079945  1
  Mn  Mn6  1  0.525139  0.329124  0.420487  1
  Mn  Mn7  1  0.519105  0.336225  0.080122  1
  Mn  Mn8  1  0.504897  0.343306  0.749082  1
  Mn  Mn9  1  0.482972  0.635815  0.911792  1
  Mn  Mn10  1  0.506247  0.650035  0.580960  1
  Mn  Mn11  1  0.499923  0.642419  0.245899  1
  O  O12  1  0.766103  0.121655  0.695372  1
  O  O13  1  0.780888  0.126411  0.358503  1
  O  O14  1  0.799024  0.131527  0.028593  1
  O  O15  1  0.714372  0.372496  0.527521  1
  O  O16  1  0.706100  0.375737  0.188803  1
  O  O17  1  0.311152  0.393431  0.974097  1
  O  O18  1  0.288954  0.596805  0.806566  1
  F  F19  1  0.750377  0.859196  0.865090  1
  F  F20  1  0.762415  0.879581  0.524486  1
  F  F21  1  0.763191  0.876467  0.189919  1
  F  F22  1  0.753002  0.365688  0.851861  1
  F  F23  1  0.741602  0.614605  0.692744  1
  F  F24  1  0.733364  0.620893  0.358002  1
  F  F25  1  0.729165  0.630498  0.017375  1
  F  F26  1  0.265293  0.390955  0.644195  1
  F  F27  1  0.269733  0.610623  0.466201  1
  F  F28  1  0.255408  0.614911  0.132186  1
  F  F29  1  0.277386  0.380344  0.315562  1
  F  F30  1  0.238446  0.106547  0.813601  1
  F  F31  1  0.213191  0.116759  0.484158  1
  F  F32  1  0.220607  0.892799  0.636821  1
  F  F33  1  0.240128  0.889154  0.977598  1
  F  F34  1  0.218585  0.121299  0.147901  1
  F  F35  1  0.227862  0.891831  0.299429  1
