# generated using pymatgen
data_CoPO4
_symmetry_space_group_name_H-M   'P 1'
_cell_length_a   5.03142087
_cell_length_b   6.94458150
_cell_length_c   10.30495750
_cell_angle_alpha   90.00000000
_cell_angle_beta   90.00000000
_cell_angle_gamma   90.00000000
_symmetry_Int_Tables_number   1
_chemical_formula_structural   CoPO4
_chemical_formula_sum   'Co4 P4 O16'
_cell_volume   360.06667718
_cell_formula_units_Z   4
loop_
 _symmetry_equiv_pos_site_id
 _symmetry_equiv_pos_as_xyz
  1  'x, y, z'
loop_
 _atom_site_type_symbol
 _atom_site_label
 _atom_site_symmetry_multiplicity
 _atom_site_fract_x
 _atom_site_fract_y
 _atom_site_fract_z
 _atom_site_occupancy
  Co  Co0  1  0.257692  0.221704  0.091370  1
  Co  Co1  1  0.757692  0.721704  0.408630  1
  Co  Co2  1  0.257692  0.278296  0.591370  1
  Co  Co3  1  0.757692  0.778296  0.908630  1
  P  P4  1  0.750904  0.982896  0.170741  1
  P  P5  1  0.250904  0.482896  0.329259  1
  P  P6  1  0.750904  0.517104  0.670741  1
  P  P7  1  0.250904  0.017104  0.829259  1
  O  O8  1  0.814496  0.802810  0.085440  1
  O  O9  1  0.897218  0.163296  0.119442  1
  O  O10  1  0.335668  0.439603  0.187435  1
  O  O11  1  0.448206  0.019923  0.167631  1
  O  O12  1  0.948206  0.519923  0.332369  1
  O  O13  1  0.835668  0.939603  0.312565  1
  O  O14  1  0.397218  0.663296  0.380558  1
  O  O15  1  0.314496  0.302810  0.414560  1
  O  O16  1  0.814496  0.697190  0.585440  1
  O  O17  1  0.897218  0.336704  0.619442  1
  O  O18  1  0.335668  0.060397  0.687435  1
  O  O19  1  0.448206  0.480077  0.667631  1
  O  O20  1  0.948206  0.980077  0.832369  1
  O  O21  1  0.835668  0.560397  0.812565  1
  O  O22  1  0.397218  0.836704  0.880558  1
  O  O23  1  0.314496  0.197190  0.914560  1
