# generated using pymatgen
data_Li2CoSiO4
_symmetry_space_group_name_H-M   'P 1'
_cell_length_a   5.36803562
_cell_length_b   5.36803562
_cell_length_c   5.36803562
_cell_angle_alpha   132.00194584
_cell_angle_beta   132.00194584
_cell_angle_gamma   70.22595367
_symmetry_Int_Tables_number   1
_chemical_formula_structural   Li2CoSiO4
_chemical_formula_sum   'Li2 Co1 Si1 O4'
_cell_volume   83.72656400
_cell_formula_units_Z   1
loop_
 _symmetry_equiv_pos_site_id
 _symmetry_equiv_pos_as_xyz
  1  'x, y, z'
loop_
 _atom_site_type_symbol
 _atom_site_label
 _atom_site_symmetry_multiplicity
 _atom_site_fract_x
 _atom_site_fract_y
 _atom_site_fract_z
 _atom_site_occupancy
  Li  Li0  1  0.750000  0.250000  0.500000  1
  Li  Li1  1  0.250000  0.750000  0.500000  1
  Co  Co2  1  0.000000  0.000000  0.000000  1
  Si  Si3  1  0.500000  0.500000  0.000000  1
  O  O4  1  0.172534  0.605094  0.000000  1
  O  O5  1  0.394906  0.394906  0.567440  1
  O  O6  1  0.605094  0.172534  0.000000  1
  O  O7  1  0.827466  0.827466  0.432560  1
