# generated using pymatgen
data_Li12Mn2O9
_symmetry_space_group_name_H-M   'P 1'
_cell_length_a   5.67241431
_cell_length_b   5.76384156
_cell_length_c   8.15472168
_cell_angle_alpha   87.76044767
_cell_angle_beta   87.08457378
_cell_angle_gamma   62.11573687
_symmetry_Int_Tables_number   1
_chemical_formula_structural   Li12Mn2O9
_chemical_formula_sum   'Li12 Mn2 O9'
_cell_volume   235.32156902
_cell_formula_units_Z   1
loop_
 _symmetry_equiv_pos_site_id
 _symmetry_equiv_pos_as_xyz
  1  'x, y, z'
loop_
 _atom_site_type_symbol
 _atom_site_label
 _atom_site_symmetry_multiplicity
 _atom_site_fract_x
 _atom_site_fract_y
 _atom_site_fract_z
 _atom_site_occupancy
  Li  Li0  1  0.699911  0.938807  0.917697  1
  Li  Li1  1  0.954969  0.710701  0.580469  1
  Li  Li2  1  0.347610  0.935904  0.572996  1
  Li  Li3  1  0.028309  0.961367  0.261509  1
  Li  Li4  1  0.996637  0.030214  0.772129  1
  Li  Li5  1  0.365569  0.678998  0.917544  1
  Li  Li6  1  0.679542  0.376627  0.583189  1
  Li  Li7  1  0.035697  0.623899  0.089208  1
  Li  Li8  1  0.713710  0.295962  0.069421  1
  Li  Li9  1  0.621181  0.076448  0.402789  1
  Li  Li10  1  0.068490  0.331144  0.396619  1
  Li  Li11  1  0.292180  0.061742  0.078416  1
  Mn  Mn12  1  0.620154  0.669250  0.273182  1
  Mn  Mn13  1  0.301318  0.330778  0.758724  1
  O  O14  1  0.919814  0.708117  0.348429  1
  O  O15  1  0.344095  0.004797  0.322689  1
  O  O16  1  0.020004  0.961272  0.007913  1
  O  O17  1  0.647752  0.674108  0.036404  1
  O  O18  1  0.285684  0.665754  0.683021  1
  O  O19  1  0.746058  0.312075  0.325755  1
  O  O20  1  0.382751  0.323577  0.979134  1
  O  O21  1  0.639270  0.040859  0.669291  1
  O  O22  1  0.046827  0.299208  0.634100  1
