# generated using pymatgen
data_Li6MnV3(PO4)6
_symmetry_space_group_name_H-M   'P 1'
_cell_length_a   9.04514142
_cell_length_b   9.04514142
_cell_length_c   9.04514142
_cell_angle_alpha   55.92824934
_cell_angle_beta   55.92824934
_cell_angle_gamma   55.92824934
_symmetry_Int_Tables_number   1
_chemical_formula_structural   Li6MnV3(PO4)6
_chemical_formula_sum   'Li6 Mn1 V3 P6 O24'
_cell_volume   473.89945790
_cell_formula_units_Z   1
loop_
 _symmetry_equiv_pos_site_id
 _symmetry_equiv_pos_as_xyz
  1  'x, y, z'
loop_
 _atom_site_type_symbol
 _atom_site_label
 _atom_site_symmetry_multiplicity
 _atom_site_fract_x
 _atom_site_fract_y
 _atom_site_fract_z
 _atom_site_occupancy
  Li  Li0  1  0.077914  0.732940  0.338462  1
  Li  Li1  1  0.338462  0.077914  0.732940  1
  Li  Li2  1  0.732940  0.338462  0.077914  1
  Li  Li3  1  0.258863  0.668831  0.924220  1
  Li  Li4  1  0.668831  0.924220  0.258863  1
  Li  Li5  1  0.924220  0.258863  0.668831  1
  Mn  Mn6  1  0.854116  0.854116  0.854116  1
  V  V7  1  0.348612  0.348612  0.348612  1
  V  V8  1  0.146132  0.146132  0.146132  1
  V  V9  1  0.651003  0.651003  0.651003  1
  P  P10  1  0.750841  0.042147  0.457544  1
  P  P11  1  0.042147  0.457544  0.750841  1
  P  P12  1  0.457544  0.750841  0.042147  1
  P  P13  1  0.537763  0.254328  0.958732  1
  P  P14  1  0.958732  0.537763  0.254328  1
  P  P15  1  0.254328  0.958732  0.537763  1
  O  O16  1  0.791493  0.845024  0.460965  1
  O  O17  1  0.536013  0.168140  0.485445  1
  O  O18  1  0.168140  0.485445  0.536013  1
  O  O19  1  0.845024  0.460965  0.791493  1
  O  O20  1  0.460965  0.791493  0.845024  1
  O  O21  1  0.798620  0.014118  0.606913  1
  O  O22  1  0.135760  0.250327  0.879104  1
  O  O23  1  0.014118  0.606913  0.798620  1
  O  O24  1  0.485445  0.536013  0.168140  1
  O  O25  1  0.250327  0.879104  0.135760  1
  O  O26  1  0.606913  0.798620  0.014118  1
  O  O27  1  0.879104  0.135760  0.250327  1
  O  O28  1  0.131921  0.866159  0.740455  1
  O  O29  1  0.382737  0.199452  0.997063  1
  O  O30  1  0.740455  0.131921  0.866159  1
  O  O31  1  0.500896  0.470016  0.834714  1
  O  O32  1  0.997063  0.382737  0.199452  1
  O  O33  1  0.866159  0.740455  0.131921  1
  O  O34  1  0.199452  0.997063  0.382737  1
  O  O35  1  0.532641  0.213847  0.155740  1
  O  O36  1  0.155740  0.532641  0.213847  1
  O  O37  1  0.834714  0.500896  0.470016  1
  O  O38  1  0.470016  0.834714  0.500896  1
  O  O39  1  0.213847  0.155740  0.532641  1
