# generated using pymatgen
data_MnF4
_symmetry_space_group_name_H-M   'P 1'
_cell_length_a   5.33840511
_cell_length_b   4.74221118
_cell_length_c   5.55465768
_cell_angle_alpha   90.00000000
_cell_angle_beta   116.55100288
_cell_angle_gamma   90.00000000
_symmetry_Int_Tables_number   1
_chemical_formula_structural   MnF4
_chemical_formula_sum   'Mn2 F8'
_cell_volume   125.79052707
_cell_formula_units_Z   2
loop_
 _symmetry_equiv_pos_site_id
 _symmetry_equiv_pos_as_xyz
  1  'x, y, z'
loop_
 _atom_site_type_symbol
 _atom_site_label
 _atom_site_symmetry_multiplicity
 _atom_site_fract_x
 _atom_site_fract_y
 _atom_site_fract_z
 _atom_site_occupancy
  Mn  Mn0  1  0.500000  0.500000  0.000000  1
  Mn  Mn1  1  0.000000  0.000000  0.000000  1
  F  F2  1  0.166479  0.722715  0.866277  1
  F  F3  1  0.666479  0.777285  0.866277  1
  F  F4  1  0.369039  0.326505  0.686982  1
  F  F5  1  0.869039  0.173495  0.686982  1
  F  F6  1  0.130961  0.826505  0.313018  1
  F  F7  1  0.630961  0.673495  0.313018  1
  F  F8  1  0.333521  0.222715  0.133723  1
  F  F9  1  0.833521  0.277285  0.133723  1
