# generated using pymatgen
data_Li2Cr3WO8
_symmetry_space_group_name_H-M   'P 1'
_cell_length_a   8.54218764
_cell_length_b   8.54218764
_cell_length_c   8.54218764
_cell_angle_alpha   90.00000000
_cell_angle_beta   90.00000000
_cell_angle_gamma   90.00000000
_symmetry_Int_Tables_number   1
_chemical_formula_structural   Li2Cr3WO8
_chemical_formula_sum   'Li8 Cr12 W4 O32'
_cell_volume   623.31463073
_cell_formula_units_Z   4
loop_
 _symmetry_equiv_pos_site_id
 _symmetry_equiv_pos_as_xyz
  1  'x, y, z'
loop_
 _atom_site_type_symbol
 _atom_site_label
 _atom_site_symmetry_multiplicity
 _atom_site_fract_x
 _atom_site_fract_y
 _atom_site_fract_z
 _atom_site_occupancy
  Li  Li0  1  0.993937  0.993937  0.993937  1
  Li  Li1  1  0.256063  0.256063  0.256063  1
  Li  Li2  1  0.743937  0.756063  0.243937  1
  Li  Li3  1  0.006063  0.493937  0.506063  1
  Li  Li4  1  0.506063  0.006063  0.493937  1
  Li  Li5  1  0.243937  0.743937  0.756063  1
  Li  Li6  1  0.756063  0.243937  0.743937  1
  Li  Li7  1  0.493937  0.506063  0.006063  1
  Cr  Cr8  1  0.126345  0.625000  0.123655  1
  Cr  Cr9  1  0.376345  0.873655  0.125000  1
  Cr  Cr10  1  0.625000  0.123655  0.126345  1
  Cr  Cr11  1  0.375000  0.623655  0.373655  1
  Cr  Cr12  1  0.623655  0.373655  0.375000  1
  Cr  Cr13  1  0.873655  0.125000  0.376345  1
  Cr  Cr14  1  0.373655  0.375000  0.623655  1
  Cr  Cr15  1  0.123655  0.126345  0.625000  1
  Cr  Cr16  1  0.875000  0.876345  0.626345  1
  Cr  Cr17  1  0.125000  0.376345  0.873655  1
  Cr  Cr18  1  0.876345  0.626345  0.875000  1
  Cr  Cr19  1  0.626345  0.875000  0.876345  1
  W  W20  1  0.875000  0.375000  0.125000  1
  W  W21  1  0.125000  0.875000  0.375000  1
  W  W22  1  0.625000  0.625000  0.625000  1
  W  W23  1  0.375000  0.125000  0.875000  1
  O  O24  1  0.110348  0.385295  0.113803  1
  O  O25  1  0.886197  0.610348  0.114705  1
  O  O26  1  0.609204  0.890796  0.109204  1
  O  O27  1  0.136197  0.864705  0.139652  1
  O  O28  1  0.385295  0.113803  0.110348  1
  O  O29  1  0.359204  0.640796  0.140796  1
  O  O30  1  0.639652  0.363803  0.135295  1
  O  O31  1  0.864705  0.139652  0.136197  1
  O  O32  1  0.135295  0.639652  0.363803  1
  O  O33  1  0.360348  0.863803  0.364705  1
  O  O34  1  0.640796  0.140796  0.359204  1
  O  O35  1  0.614705  0.613803  0.389652  1
  O  O36  1  0.863803  0.364705  0.360348  1
  O  O37  1  0.390796  0.390796  0.390796  1
  O  O38  1  0.113803  0.110348  0.385295  1
  O  O39  1  0.889652  0.885295  0.386197  1
  O  O40  1  0.389652  0.614705  0.613803  1
  O  O41  1  0.613803  0.389652  0.614705  1
  O  O42  1  0.890796  0.109204  0.609204  1
  O  O43  1  0.363803  0.135295  0.639652  1
  O  O44  1  0.114705  0.886197  0.610348  1
  O  O45  1  0.140796  0.359204  0.640796  1
  O  O46  1  0.860348  0.636197  0.635295  1
  O  O47  1  0.635295  0.860348  0.636197  1
  O  O48  1  0.364705  0.360348  0.863803  1
  O  O49  1  0.139652  0.136197  0.864705  1
  O  O50  1  0.859204  0.859204  0.859204  1
  O  O51  1  0.885295  0.386197  0.889652  1
  O  O52  1  0.636197  0.635295  0.860348  1
  O  O53  1  0.109204  0.609204  0.890796  1
  O  O54  1  0.386197  0.889652  0.885295  1
  O  O55  1  0.610348  0.114705  0.886197  1
