# generated using pymatgen
data_Li6Mn2O5F2
_symmetry_space_group_name_H-M   'P 1'
_cell_length_a   5.87109458
_cell_length_b   5.88297559
_cell_length_c   9.91427526
_cell_angle_alpha   95.43913019
_cell_angle_beta   93.55902052
_cell_angle_gamma   118.10458695
_symmetry_Int_Tables_number   1
_chemical_formula_structural   Li6Mn2O5F2
_chemical_formula_sum   'Li12 Mn4 O10 F4'
_cell_volume   298.46809243
_cell_formula_units_Z   2
loop_
 _symmetry_equiv_pos_site_id
 _symmetry_equiv_pos_as_xyz
  1  'x, y, z'
loop_
 _atom_site_type_symbol
 _atom_site_label
 _atom_site_symmetry_multiplicity
 _atom_site_fract_x
 _atom_site_fract_y
 _atom_site_fract_z
 _atom_site_occupancy
  Li  Li0  1  0.790442  0.868702  0.908090  1
  Li  Li1  1  0.528774  0.866505  0.392618  1
  Li  Li2  1  0.092309  0.893189  0.420510  1
  Li  Li3  1  0.320337  0.877915  0.901788  1
  Li  Li4  1  0.669133  0.584995  0.108907  1
  Li  Li5  1  0.918524  0.580172  0.604751  1
  Li  Li6  1  0.081476  0.419828  0.395249  1
  Li  Li7  1  0.330867  0.415005  0.891093  1
  Li  Li8  1  0.679663  0.122085  0.098212  1
  Li  Li9  1  0.907691  0.106811  0.579490  1
  Li  Li10  1  0.471226  0.133495  0.607382  1
  Li  Li11  1  0.209558  0.131298  0.091910  1
  Mn  Mn12  1  0.204348  0.620253  0.119086  1
  Mn  Mn13  1  0.440763  0.606503  0.622845  1
  Mn  Mn14  1  0.559237  0.393497  0.377155  1
  Mn  Mn15  1  0.795652  0.379747  0.880914  1
  O  O16  1  0.496079  0.754127  0.022052  1
  O  O17  1  0.263321  0.748816  0.525940  1
  O  O18  1  0.748449  0.735700  0.485911  1
  O  O19  1  0.369118  0.499859  0.251041  1
  O  O20  1  0.018346  0.751152  0.008848  1
  O  O21  1  0.981654  0.248848  0.991152  1
  O  O22  1  0.630882  0.500141  0.748959  1
  O  O23  1  0.251551  0.264300  0.514089  1
  O  O24  1  0.736679  0.251184  0.474060  1
  O  O25  1  0.503921  0.245873  0.977948  1
  F  F26  1  0.898764  0.509467  0.238373  1
  F  F27  1  0.101236  0.490533  0.761627  1
  F  F28  1  0.365358  0.030082  0.258911  1
  F  F29  1  0.634642  0.969918  0.741089  1
