# generated using pymatgen
data_Ba6SrI14
_symmetry_space_group_name_H-M   'P 1'
_cell_length_a   15.86017645
_cell_length_b   15.86017645
_cell_length_c   8.83508934
_cell_angle_alpha   90.00000000
_cell_angle_beta   90.00000000
_cell_angle_gamma   99.03611670
_symmetry_Int_Tables_number   1
_chemical_formula_structural   Ba6SrI14
_chemical_formula_sum   'Ba12 Sr2 I28'
_cell_volume   2194.84296897
_cell_formula_units_Z   2
loop_
 _symmetry_equiv_pos_site_id
 _symmetry_equiv_pos_as_xyz
  1  'x, y, z'
loop_
 _atom_site_type_symbol
 _atom_site_label
 _atom_site_symmetry_multiplicity
 _atom_site_fract_x
 _atom_site_fract_y
 _atom_site_fract_z
 _atom_site_occupancy
  Ba  Ba0  1  0.751477  0.051714  0.328481  1
  Ba  Ba1  1  0.948286  0.248523  0.671519  1
  Ba  Ba2  1  0.551714  0.251477  0.171519  1
  Ba  Ba3  1  0.748523  0.448286  0.828481  1
  Ba  Ba4  1  0.697934  0.697934  0.245215  1
  Ba  Ba5  1  0.197934  0.197934  0.254785  1
  Ba  Ba6  1  0.302066  0.302066  0.754785  1
  Ba  Ba7  1  0.802066  0.802066  0.745215  1
  Ba  Ba8  1  0.448286  0.748523  0.828481  1
  Ba  Ba9  1  0.251477  0.551714  0.171519  1
  Ba  Ba10  1  0.051714  0.751477  0.328481  1
  Ba  Ba11  1  0.248523  0.948286  0.671519  1
  Sr  Sr12  1  0.000000  0.000000  0.000000  1
  Sr  Sr13  1  0.500000  0.500000  0.500000  1
  I  I14  1  0.966525  0.155668  0.232536  1
  I  I15  1  0.844332  0.033475  0.767464  1
  I  I16  1  0.747657  0.252343  1.000000  1
  I  I17  1  0.953696  0.453696  0.750000  1
  I  I18  1  0.546304  0.046304  0.250000  1
  I  I19  1  0.752343  0.247657  0.500000  1
  I  I20  1  0.357949  0.157169  0.009634  1
  I  I21  1  0.342831  0.142051  0.509634  1
  I  I22  1  0.842831  0.642051  0.990366  1
  I  I23  1  0.857949  0.657169  0.490366  1
  I  I24  1  0.655668  0.466525  0.267464  1
  I  I25  1  0.533475  0.344332  0.732536  1
  I  I26  1  0.121882  0.121882  0.773129  1
  I  I27  1  0.378118  0.378118  0.273129  1
  I  I28  1  0.621882  0.621882  0.726871  1
  I  I29  1  0.878118  0.878118  0.226871  1
  I  I30  1  0.344332  0.533475  0.732536  1
  I  I31  1  0.466525  0.655668  0.267464  1
  I  I32  1  0.642051  0.842831  0.990366  1
  I  I33  1  0.142051  0.342831  0.509634  1
  I  I34  1  0.157169  0.357949  0.009634  1
  I  I35  1  0.657169  0.857949  0.490366  1
  I  I36  1  0.247657  0.752343  0.500000  1
  I  I37  1  0.046304  0.546304  0.250000  1
  I  I38  1  0.453696  0.953696  0.750000  1
  I  I39  1  0.252343  0.747657  0.000000  1
  I  I40  1  0.155668  0.966525  0.232536  1
  I  I41  1  0.033475  0.844332  0.767464  1
