# generated using pymatgen
data_Li5Fe8(BO3)8
_symmetry_space_group_name_H-M   'P 1'
_cell_length_a   5.25470741
_cell_length_b   9.11514695
_cell_length_c   10.13290065
_cell_angle_alpha   89.06303934
_cell_angle_beta   88.59996703
_cell_angle_gamma   89.44876658
_symmetry_Int_Tables_number   1
_chemical_formula_structural   Li5Fe8(BO3)8
_chemical_formula_sum   'Li5 Fe8 B8 O24'
_cell_volume   485.10949731
_cell_formula_units_Z   1
loop_
 _symmetry_equiv_pos_site_id
 _symmetry_equiv_pos_as_xyz
  1  'x, y, z'
loop_
 _atom_site_type_symbol
 _atom_site_label
 _atom_site_symmetry_multiplicity
 _atom_site_fract_x
 _atom_site_fract_y
 _atom_site_fract_z
 _atom_site_occupancy
  Li  Li0  1  0.151348  0.174184  0.665374  1
  Li  Li1  1  0.186002  0.162516  0.158299  1
  Li  Li2  1  0.324480  0.330009  0.404469  1
  Li  Li3  1  0.682974  0.662266  0.145358  1
  Li  Li4  1  0.816148  0.833518  0.417678  1
  Fe  Fe5  1  0.157634  0.834737  0.636587  1
  Fe  Fe6  1  0.186210  0.494486  0.122565  1
  Fe  Fe7  1  0.334939  0.993154  0.878780  1
  Fe  Fe8  1  0.324273  0.664058  0.379097  1
  Fe  Fe9  1  0.652287  0.348518  0.635364  1
  Fe  Fe10  1  0.685696  0.997139  0.125388  1
  Fe  Fe11  1  0.833252  0.162106  0.383476  1
  Fe  Fe12  1  0.831247  0.499227  0.877577  1
  B  B13  1  0.155340  0.496834  0.621109  1
  B  B14  1  0.169908  0.830321  0.132980  1
  B  B15  1  0.338919  0.994573  0.374974  1
  B  B16  1  0.333221  0.666372  0.882097  1
  B  B17  1  0.669245  0.006841  0.628012  1
  B  B18  1  0.675683  0.329235  0.130036  1
  B  B19  1  0.825129  0.501402  0.375297  1
  B  B20  1  0.826730  0.165667  0.876148  1
  O  O21  1  0.088911  0.498957  0.345666  1
  O  O22  1  0.085051  0.144779  0.858358  1
  O  O23  1  0.222062  0.798215  0.841213  1
  O  O24  1  0.209011  0.865637  0.412294  1
  O  O25  1  0.208819  0.126570  0.366525  1
  O  O26  1  0.174496  0.552096  0.922173  1
  O  O27  1  0.277425  0.362576  0.604951  1
  O  O28  1  0.295208  0.957232  0.084959  1
  O  O29  1  0.268225  0.625346  0.572466  1
  O  O30  1  0.317868  0.709290  0.177371  1
  O  O31  1  0.414506  0.323562  0.140658  1
  O  O32  1  0.412509  0.012592  0.674309  1
  O  O33  1  0.596254  0.987703  0.344063  1
  O  O34  1  0.590659  0.652249  0.888652  1
  O  O35  1  0.715836  0.300683  0.846650  1
  O  O36  1  0.702047  0.374850  0.415174  1
  O  O37  1  0.691739  0.632858  0.360295  1
  O  O38  1  0.674319  0.051211  0.921721  1
  O  O39  1  0.796859  0.460059  0.089075  1
  O  O40  1  0.791120  0.875662  0.607904  1
  O  O41  1  0.792922  0.138925  0.596999  1
  O  O42  1  0.822499  0.206568  0.164291  1
  O  O43  1  0.912653  0.823058  0.139256  1
  O  O44  1  0.914979  0.504990  0.680269  1
