# generated using pymatgen
data_Li4V2Co3Sb3O16
_symmetry_space_group_name_H-M   'P 1'
_cell_length_a   6.13760511
_cell_length_b   6.13760511
_cell_length_c   9.74016336
_cell_angle_alpha   89.21023408
_cell_angle_beta   90.78976592
_cell_angle_gamma   120.42477595
_symmetry_Int_Tables_number   1
_chemical_formula_structural   Li4V2Co3Sb3O16
_chemical_formula_sum   'Li4 V2 Co3 Sb3 O16'
_cell_volume   316.34800314
_cell_formula_units_Z   1
loop_
 _symmetry_equiv_pos_site_id
 _symmetry_equiv_pos_as_xyz
  1  'x, y, z'
loop_
 _atom_site_type_symbol
 _atom_site_label
 _atom_site_symmetry_multiplicity
 _atom_site_fract_x
 _atom_site_fract_y
 _atom_site_fract_z
 _atom_site_occupancy
  Li  Li0  1  0.669635  0.330365  0.886704  1
  Li  Li1  1  0.978303  0.021697  0.980583  1
  Li  Li2  1  0.993923  0.006077  0.507888  1
  Li  Li3  1  0.324499  0.675501  0.403384  1
  V  V4  1  0.678353  0.321647  0.499998  1
  V  V5  1  0.347294  0.652706  0.975618  1
  Co  Co6  1  0.829110  0.170890  0.215467  1
  Co  Co7  1  0.192648  0.341743  0.716615  1
  Co  Co8  1  0.658257  0.807352  0.716615  1
  Sb  Sb9  1  0.333908  0.171118  0.215196  1
  Sb  Sb10  1  0.828882  0.666092  0.215196  1
  Sb  Sb11  1  0.176625  0.823375  0.713360  1
  O  O12  1  0.340529  0.155271  0.592758  1
  O  O13  1  0.513667  0.486333  0.338586  1
  O  O14  1  0.656332  0.343668  0.102899  1
  O  O15  1  0.003812  0.996188  0.320273  1
  O  O16  1  0.008230  0.991770  0.797844  1
  O  O17  1  0.844729  0.659471  0.592758  1
  O  O18  1  0.505928  0.044870  0.339650  1
  O  O19  1  0.955130  0.494072  0.339650  1
  O  O20  1  0.156563  0.843437  0.103339  1
  O  O21  1  0.822957  0.177043  0.581320  1
  O  O22  1  0.040332  0.523617  0.844530  1
  O  O23  1  0.476383  0.959668  0.844530  1
  O  O24  1  0.332354  0.667646  0.603462  1
  O  O25  1  0.166412  0.319726  0.103581  1
  O  O26  1  0.486606  0.513394  0.852813  1
  O  O27  1  0.680274  0.833588  0.103581  1
