# generated using pymatgen
data_KNaReH9
_symmetry_space_group_name_H-M   'P 1'
_cell_length_a   5.62777663
_cell_length_b   9.06409951
_cell_length_c   10.02927333
_cell_angle_alpha   90.00000000
_cell_angle_beta   90.00000000
_cell_angle_gamma   90.00000000
_symmetry_Int_Tables_number   1
_chemical_formula_structural   KNaReH9
_chemical_formula_sum   'K4 Na4 Re4 H36'
_cell_volume   511.60052780
_cell_formula_units_Z   4
loop_
 _symmetry_equiv_pos_site_id
 _symmetry_equiv_pos_as_xyz
  1  'x, y, z'
loop_
 _atom_site_type_symbol
 _atom_site_label
 _atom_site_symmetry_multiplicity
 _atom_site_fract_x
 _atom_site_fract_y
 _atom_site_fract_z
 _atom_site_occupancy
  K  K0  1  0.750000  0.474447  0.822408  1
  K  K1  1  0.750000  0.974447  0.677592  1
  K  K2  1  0.250000  0.525553  0.177592  1
  K  K3  1  0.250000  0.025553  0.322408  1
  Na  Na4  1  0.750000  0.359720  0.425609  1
  Na  Na5  1  0.750000  0.859720  0.074391  1
  Na  Na6  1  0.250000  0.640280  0.574391  1
  Na  Na7  1  0.250000  0.140280  0.925609  1
  Re  Re8  1  0.750000  0.226521  0.113981  1
  Re  Re9  1  0.750000  0.726521  0.386019  1
  Re  Re10  1  0.250000  0.773479  0.886019  1
  Re  Re11  1  0.250000  0.273479  0.613981  1
  H  H12  1  0.966391  0.097200  0.093845  1
  H  H13  1  0.533609  0.597200  0.406155  1
  H  H14  1  0.466391  0.902800  0.906155  1
  H  H15  1  0.033609  0.402800  0.593845  1
  H  H16  1  0.033609  0.902800  0.906155  1
  H  H17  1  0.466391  0.402800  0.593845  1
  H  H18  1  0.533609  0.097200  0.093845  1
  H  H19  1  0.966391  0.597200  0.406155  1
  H  H20  1  0.961850  0.269680  0.230792  1
  H  H21  1  0.538150  0.769680  0.269208  1
  H  H22  1  0.461850  0.730320  0.769208  1
  H  H23  1  0.038150  0.230320  0.730792  1
  H  H24  1  0.038150  0.730320  0.769208  1
  H  H25  1  0.461850  0.230320  0.730792  1
  H  H26  1  0.538150  0.269680  0.230792  1
  H  H27  1  0.961850  0.769680  0.269208  1
  H  H28  1  0.963432  0.314664  0.021954  1
  H  H29  1  0.536568  0.814664  0.478046  1
  H  H30  1  0.463432  0.685336  0.978046  1
  H  H31  1  0.036568  0.185336  0.521954  1
  H  H32  1  0.036568  0.685336  0.978046  1
  H  H33  1  0.463432  0.185336  0.521954  1
  H  H34  1  0.536568  0.314664  0.021954  1
  H  H35  1  0.963432  0.814664  0.478046  1
  H  H36  1  0.750000  0.104276  0.240048  1
  H  H37  1  0.750000  0.604276  0.259952  1
  H  H38  1  0.250000  0.895724  0.759952  1
  H  H39  1  0.250000  0.395724  0.740048  1
  H  H40  1  0.750000  0.157815  0.958107  1
  H  H41  1  0.750000  0.657815  0.541893  1
  H  H42  1  0.250000  0.842185  0.041893  1
  H  H43  1  0.250000  0.342185  0.458107  1
  H  H44  1  0.750000  0.409660  0.143208  1
  H  H45  1  0.750000  0.909660  0.356792  1
  H  H46  1  0.250000  0.590340  0.856792  1
  H  H47  1  0.250000  0.090340  0.643208  1
