# generated using pymatgen
data_LiFePO4
_symmetry_space_group_name_H-M   'P 1'
_cell_length_a   10.65159497
_cell_length_b   10.65159497
_cell_length_c   12.70458463
_cell_angle_alpha   90.00000000
_cell_angle_beta   90.00000000
_cell_angle_gamma   120.00000000
_symmetry_Int_Tables_number   1
_chemical_formula_structural   LiFePO4
_chemical_formula_sum   'Li12 Fe12 P12 O48'
_cell_volume   1248.30408035
_cell_formula_units_Z   12
loop_
 _symmetry_equiv_pos_site_id
 _symmetry_equiv_pos_as_xyz
  1  'x, y, z'
loop_
 _atom_site_type_symbol
 _atom_site_label
 _atom_site_symmetry_multiplicity
 _atom_site_fract_x
 _atom_site_fract_y
 _atom_site_fract_z
 _atom_site_occupancy
  Li  Li0  1  0.000000  0.500000  0.007491  1
  Li  Li1  1  0.000000  0.500000  0.659176  1
  Li  Li2  1  0.000000  0.500000  0.333333  1
  Li  Li3  1  0.000000  0.000000  0.166667  1
  Li  Li4  1  0.000000  0.000000  0.500000  1
  Li  Li5  1  0.000000  0.000000  0.833333  1
  Li  Li6  1  0.500000  0.500000  0.340824  1
  Li  Li7  1  0.500000  0.500000  0.666667  1
  Li  Li8  1  0.500000  0.500000  0.992509  1
  Li  Li9  1  0.500000  0.000000  0.325842  1
  Li  Li10  1  0.500000  0.000000  0.000000  1
  Li  Li11  1  0.500000  0.000000  0.674158  1
  Fe  Fe12  1  0.000000  0.747388  0.833333  1
  Fe  Fe13  1  0.000000  0.252612  0.833333  1
  Fe  Fe14  1  0.247812  0.752188  0.166667  1
  Fe  Fe15  1  0.247812  0.495624  0.500000  1
  Fe  Fe16  1  0.504376  0.752188  0.833333  1
  Fe  Fe17  1  0.252612  0.252612  0.166667  1
  Fe  Fe18  1  0.252612  0.000000  0.500000  1
  Fe  Fe19  1  0.747388  0.747388  0.166667  1
  Fe  Fe20  1  0.495624  0.247812  0.833333  1
  Fe  Fe21  1  0.752188  0.504376  0.500000  1
  Fe  Fe22  1  0.752188  0.247812  0.166667  1
  Fe  Fe23  1  0.747388  0.000000  0.500000  1
  P  P24  1  0.000000  0.756823  0.333333  1
  P  P25  1  0.247854  0.752146  0.666667  1
  P  P26  1  0.000000  0.243177  0.333333  1
  P  P27  1  0.247854  0.495707  0.000000  1
  P  P28  1  0.243177  0.243177  0.666667  1
  P  P29  1  0.504293  0.752146  0.333333  1
  P  P30  1  0.243177  0.000000  0.000000  1
  P  P31  1  0.495707  0.247854  0.333333  1
  P  P32  1  0.756823  0.756823  0.666667  1
  P  P33  1  0.752146  0.504293  0.000000  1
  P  P34  1  0.752146  0.247854  0.666667  1
  P  P35  1  0.756823  0.000000  0.000000  1
  O  O36  1  0.065600  0.876147  0.419515  1
  O  O37  1  0.123853  0.934400  0.913818  1
  O  O38  1  0.104430  0.699810  0.728545  1
  O  O39  1  0.111373  0.719147  0.284049  1
  O  O40  1  0.280853  0.888627  0.049284  1
  O  O41  1  0.300190  0.895570  0.604789  1
  O  O42  1  0.204521  0.620886  0.592891  1
  O  O43  1  0.104430  0.404621  0.938122  1
  O  O44  1  0.204521  0.583635  0.073776  1
  O  O45  1  0.111373  0.392226  0.382617  1
  O  O46  1  0.065600  0.189453  0.247152  1
  O  O47  1  0.379114  0.795479  0.740442  1
  O  O48  1  0.416365  0.795479  0.259558  1
  O  O49  1  0.123853  0.189453  0.752848  1
  O  O50  1  0.280853  0.392226  0.617383  1
  O  O51  1  0.379114  0.583635  0.926224  1
  O  O52  1  0.300190  0.404621  0.061878  1
  O  O53  1  0.416365  0.620886  0.407109  1
  O  O54  1  0.189453  0.123853  0.580485  1
  O  O55  1  0.189453  0.065600  0.086182  1
  O  O56  1  0.595379  0.895570  0.395211  1
  O  O57  1  0.607774  0.888627  0.950716  1
  O  O58  1  0.607774  0.719147  0.715951  1
  O  O59  1  0.404621  0.300190  0.271455  1
  O  O60  1  0.595379  0.699810  0.271455  1
  O  O61  1  0.392226  0.280853  0.715951  1
  O  O62  1  0.392226  0.111373  0.950716  1
  O  O63  1  0.404621  0.104430  0.395211  1
  O  O64  1  0.810547  0.934400  0.086182  1
  O  O65  1  0.810547  0.876147  0.580485  1
  O  O66  1  0.583635  0.379114  0.407109  1
  O  O67  1  0.699810  0.595379  0.061878  1
  O  O68  1  0.620886  0.416365  0.926224  1
  O  O69  1  0.719147  0.607774  0.617383  1
  O  O70  1  0.876147  0.810547  0.752848  1
  O  O71  1  0.583635  0.204521  0.259558  1
  O  O72  1  0.620886  0.204521  0.740442  1
  O  O73  1  0.934400  0.810547  0.247152  1
  O  O74  1  0.888627  0.607774  0.382617  1
  O  O75  1  0.795479  0.416365  0.073776  1
  O  O76  1  0.895570  0.595379  0.938122  1
  O  O77  1  0.795479  0.379114  0.592891  1
  O  O78  1  0.699810  0.104430  0.604789  1
  O  O79  1  0.719147  0.111373  0.049284  1
  O  O80  1  0.888627  0.280853  0.284049  1
  O  O81  1  0.895570  0.300190  0.728545  1
  O  O82  1  0.876147  0.065600  0.913818  1
  O  O83  1  0.934400  0.123853  0.419515  1
