# generated using pymatgen
data_Li2NbNi3O8
_symmetry_space_group_name_H-M   'P 1'
_cell_length_a   5.87660024
_cell_length_b   5.87660024
_cell_length_c   9.63638902
_cell_angle_alpha   90.00000000
_cell_angle_beta   90.00000000
_cell_angle_gamma   120.00000000
_symmetry_Int_Tables_number   1
_chemical_formula_structural   Li2NbNi3O8
_chemical_formula_sum   'Li4 Nb2 Ni6 O16'
_cell_volume   288.20217417
_cell_formula_units_Z   2
loop_
 _symmetry_equiv_pos_site_id
 _symmetry_equiv_pos_as_xyz
  1  'x, y, z'
loop_
 _atom_site_type_symbol
 _atom_site_label
 _atom_site_symmetry_multiplicity
 _atom_site_fract_x
 _atom_site_fract_y
 _atom_site_fract_z
 _atom_site_occupancy
  Li  Li0  1  0.666667  0.333333  0.106085  1
  Li  Li1  1  0.000000  0.000000  0.007588  1
  Li  Li2  1  0.000000  0.000000  0.507588  1
  Li  Li3  1  0.333333  0.666667  0.606085  1
  Nb  Nb4  1  0.666667  0.333333  0.503874  1
  Nb  Nb5  1  0.333333  0.666667  0.003874  1
  Ni  Ni6  1  0.336877  0.168438  0.784593  1
  Ni  Ni7  1  0.831562  0.663123  0.784593  1
  Ni  Ni8  1  0.831562  0.168438  0.784593  1
  Ni  Ni9  1  0.168438  0.831562  0.284593  1
  Ni  Ni10  1  0.168438  0.336877  0.284593  1
  Ni  Ni11  1  0.663123  0.831562  0.284593  1
  O  O12  1  0.327623  0.163812  0.407378  1
  O  O13  1  0.517072  0.482928  0.657600  1
  O  O14  1  0.666667  0.333333  0.881817  1
  O  O15  1  0.000000  0.000000  0.697458  1
  O  O16  1  0.000000  0.000000  0.197458  1
  O  O17  1  0.836188  0.672377  0.407378  1
  O  O18  1  0.517072  0.034143  0.657600  1
  O  O19  1  0.965857  0.482928  0.657600  1
  O  O20  1  0.163812  0.836188  0.907378  1
  O  O21  1  0.836188  0.163812  0.407378  1
  O  O22  1  0.034143  0.517072  0.157600  1
  O  O23  1  0.482928  0.965857  0.157600  1
  O  O24  1  0.333333  0.666667  0.381817  1
  O  O25  1  0.163812  0.327623  0.907378  1
  O  O26  1  0.482928  0.517072  0.157600  1
  O  O27  1  0.672377  0.836188  0.907378  1
