# generated using pymatgen
data_K2Li3NiO4
_symmetry_space_group_name_H-M   'P 1'
_cell_length_a   5.54561970
_cell_length_b   8.79584033
_cell_length_c   10.96674549
_cell_angle_alpha   90.00000000
_cell_angle_beta   111.50044511
_cell_angle_gamma   90.00000000
_symmetry_Int_Tables_number   1
_chemical_formula_structural   K2Li3NiO4
_chemical_formula_sum   'K8 Li12 Ni4 O16'
_cell_volume   497.71617972
_cell_formula_units_Z   4
loop_
 _symmetry_equiv_pos_site_id
 _symmetry_equiv_pos_as_xyz
  1  'x, y, z'
loop_
 _atom_site_type_symbol
 _atom_site_label
 _atom_site_symmetry_multiplicity
 _atom_site_fract_x
 _atom_site_fract_y
 _atom_site_fract_z
 _atom_site_occupancy
  K  K0  1  0.280224  0.227859  0.891602  1
  K  K1  1  0.291583  0.492229  0.637956  1
  K  K2  1  0.280224  0.272141  0.391602  1
  K  K3  1  0.708417  0.992229  0.862044  1
  K  K4  1  0.291583  0.007771  0.137956  1
  K  K5  1  0.719776  0.727859  0.608398  1
  K  K6  1  0.708417  0.507771  0.362044  1
  K  K7  1  0.719776  0.772141  0.108398  1
  Li  Li8  1  0.092469  0.969682  0.700549  1
  Li  Li9  1  0.375716  0.736529  0.801643  1
  Li  Li10  1  0.092469  0.530318  0.200549  1
  Li  Li11  1  0.633944  0.505889  0.932962  1
  Li  Li12  1  0.366056  0.005889  0.567038  1
  Li  Li13  1  0.624284  0.236529  0.698357  1
  Li  Li14  1  0.375716  0.763471  0.301643  1
  Li  Li15  1  0.633944  0.994111  0.432962  1
  Li  Li16  1  0.366056  0.494111  0.067038  1
  Li  Li17  1  0.907531  0.469682  0.799451  1
  Li  Li18  1  0.624284  0.263471  0.198357  1
  Li  Li19  1  0.907531  0.030318  0.299451  1
  Ni  Ni20  1  0.099795  0.714165  0.937760  1
  Ni  Ni21  1  0.099795  0.785835  0.437760  1
  Ni  Ni22  1  0.900205  0.214165  0.562240  1
  Ni  Ni23  1  0.900205  0.285835  0.062240  1
  O  O24  1  0.219092  0.892414  0.885379  1
  O  O25  1  0.258806  0.551574  0.876505  1
  O  O26  1  0.234255  0.810746  0.619768  1
  O  O27  1  0.253533  0.175575  0.644578  1
  O  O28  1  0.219092  0.607586  0.385379  1
  O  O29  1  0.258806  0.948426  0.376505  1
  O  O30  1  0.746467  0.675575  0.855422  1
  O  O31  1  0.765745  0.310746  0.880232  1
  O  O32  1  0.234255  0.689254  0.119768  1
  O  O33  1  0.253533  0.324425  0.144578  1
  O  O34  1  0.741194  0.051574  0.623495  1
  O  O35  1  0.780908  0.392414  0.614621  1
  O  O36  1  0.746467  0.824425  0.355422  1
  O  O37  1  0.765745  0.189254  0.380232  1
  O  O38  1  0.741194  0.448426  0.123495  1
  O  O39  1  0.780908  0.107586  0.114621  1
