# generated using pymatgen
data_Ba3YI9
_symmetry_space_group_name_H-M   'P 1'
_cell_length_a   8.26189151
_cell_length_b   14.30238239
_cell_length_c   20.41597432
_cell_angle_alpha   90.00000000
_cell_angle_beta   90.00000000
_cell_angle_gamma   90.00000000
_symmetry_Int_Tables_number   1
_chemical_formula_structural   Ba3YI9
_chemical_formula_sum   'Ba12 Y4 I36'
_cell_volume   2412.44812671
_cell_formula_units_Z   4
loop_
 _symmetry_equiv_pos_site_id
 _symmetry_equiv_pos_as_xyz
  1  'x, y, z'
loop_
 _atom_site_type_symbol
 _atom_site_label
 _atom_site_symmetry_multiplicity
 _atom_site_fract_x
 _atom_site_fract_y
 _atom_site_fract_z
 _atom_site_occupancy
  Ba  Ba0  1  0.250000  0.950592  0.901458  1
  Ba  Ba1  1  0.250000  0.809777  0.472362  1
  Ba  Ba2  1  0.750000  0.765510  0.675060  1
  Ba  Ba3  1  0.250000  0.734490  0.175060  1
  Ba  Ba4  1  0.750000  0.690223  0.972362  1
  Ba  Ba5  1  0.750000  0.549408  0.401458  1
  Ba  Ba6  1  0.250000  0.450592  0.598542  1
  Ba  Ba7  1  0.250000  0.309777  0.027638  1
  Ba  Ba8  1  0.750000  0.265510  0.824940  1
  Ba  Ba9  1  0.250000  0.234490  0.324940  1
  Ba  Ba10  1  0.750000  0.190223  0.527638  1
  Ba  Ba11  1  0.750000  0.049408  0.098542  1
  Y  Y12  1  0.750000  0.978909  0.324464  1
  Y  Y13  1  0.250000  0.521091  0.824464  1
  Y  Y14  1  0.750000  0.478909  0.175536  1
  Y  Y15  1  0.250000  0.021091  0.675536  1
  I  I16  1  0.509102  0.933001  0.586282  1
  I  I17  1  0.990898  0.933001  0.586282  1
  I  I18  1  0.494506  0.918318  0.231524  1
  I  I19  1  0.005494  0.918318  0.231524  1
  I  I20  1  0.250000  0.838481  0.747371  1
  I  I21  1  0.750000  0.831108  0.839313  1
  I  I22  1  0.497382  0.862778  0.038318  1
  I  I23  1  0.002618  0.862778  0.038318  1
  I  I24  1  0.750000  0.813678  0.415871  1
  I  I25  1  0.250000  0.686322  0.915871  1
  I  I26  1  0.997382  0.637222  0.538318  1
  I  I27  1  0.502618  0.637222  0.538318  1
  I  I28  1  0.250000  0.668892  0.339313  1
  I  I29  1  0.750000  0.661519  0.247371  1
  I  I30  1  0.505494  0.581682  0.731524  1
  I  I31  1  0.994506  0.581682  0.731524  1
  I  I32  1  0.009102  0.566999  0.086282  1
  I  I33  1  0.490898  0.566999  0.086282  1
  I  I34  1  0.509102  0.433001  0.913718  1
  I  I35  1  0.990898  0.433001  0.913718  1
  I  I36  1  0.005494  0.418318  0.268476  1
  I  I37  1  0.494506  0.418318  0.268476  1
  I  I38  1  0.250000  0.338481  0.752629  1
  I  I39  1  0.750000  0.331108  0.660687  1
  I  I40  1  0.497382  0.362778  0.461682  1
  I  I41  1  0.002618  0.362778  0.461682  1
  I  I42  1  0.750000  0.313678  0.084129  1
  I  I43  1  0.250000  0.186322  0.584129  1
  I  I44  1  0.997382  0.137222  0.961682  1
  I  I45  1  0.502618  0.137222  0.961682  1
  I  I46  1  0.250000  0.168892  0.160687  1
  I  I47  1  0.750000  0.161519  0.252629  1
  I  I48  1  0.505494  0.081682  0.768476  1
  I  I49  1  0.994506  0.081682  0.768476  1
  I  I50  1  0.009102  0.066999  0.413718  1
  I  I51  1  0.490898  0.066999  0.413718  1
