# generated using pymatgen
data_BaYI5
_symmetry_space_group_name_H-M   'P 1'
_cell_length_a   13.92137968
_cell_length_b   11.74224267
_cell_length_c   20.30758128
_cell_angle_alpha   90.00000000
_cell_angle_beta   128.76512447
_cell_angle_gamma   90.00000000
_symmetry_Int_Tables_number   1
_chemical_formula_structural   BaYI5
_chemical_formula_sum   'Ba8 Y8 I40'
_cell_volume   2588.39036672
_cell_formula_units_Z   8
loop_
 _symmetry_equiv_pos_site_id
 _symmetry_equiv_pos_as_xyz
  1  'x, y, z'
loop_
 _atom_site_type_symbol
 _atom_site_label
 _atom_site_symmetry_multiplicity
 _atom_site_fract_x
 _atom_site_fract_y
 _atom_site_fract_z
 _atom_site_occupancy
  Ba  Ba0  1  0.831757  0.717394  0.639428  1
  Ba  Ba1  1  0.298604  0.733975  0.038680  1
  Ba  Ba2  1  0.168243  0.217394  0.860572  1
  Ba  Ba3  1  0.701396  0.233975  0.461320  1
  Ba  Ba4  1  0.298604  0.766025  0.538680  1
  Ba  Ba5  1  0.831757  0.782606  0.139428  1
  Ba  Ba6  1  0.701396  0.266025  0.961320  1
  Ba  Ba7  1  0.168243  0.282606  0.360572  1
  Y  Y8  1  0.712399  0.191762  0.692841  1
  Y  Y9  1  0.290991  0.221789  0.164019  1
  Y  Y10  1  0.709009  0.721789  0.335981  1
  Y  Y11  1  0.287601  0.691762  0.807159  1
  Y  Y12  1  0.712399  0.308238  0.192841  1
  Y  Y13  1  0.290991  0.278211  0.664019  1
  Y  Y14  1  0.709009  0.778211  0.835981  1
  Y  Y15  1  0.287601  0.808238  0.307159  1
  I  I16  1  0.919659  0.230626  0.873938  1
  I  I17  1  0.509403  0.818500  0.492443  1
  I  I18  1  0.944582  0.780179  0.860578  1
  I  I19  1  0.782679  0.399325  0.642967  1
  I  I20  1  0.402198  0.367972  0.317806  1
  I  I21  1  0.389014  0.025089  0.292418  1
  I  I22  1  0.871294  0.049711  0.669708  1
  I  I23  1  0.236101  0.410362  0.046428  1
  I  I24  1  0.228873  0.042723  0.034312  1
  I  I25  1  0.433125  0.686179  0.261503  1
  I  I26  1  0.128706  0.549711  0.830292  1
  I  I27  1  0.566875  0.186179  0.238497  1
  I  I28  1  0.771127  0.542723  0.465688  1
  I  I29  1  0.763899  0.910362  0.453572  1
  I  I30  1  0.217321  0.899325  0.857033  1
  I  I31  1  0.055418  0.280179  0.639422  1
  I  I32  1  0.610986  0.525089  0.207582  1
  I  I33  1  0.597802  0.867972  0.182194  1
  I  I34  1  0.080341  0.730626  0.626062  1
  I  I35  1  0.490597  0.318500  0.007557  1
  I  I36  1  0.509403  0.681500  0.992443  1
  I  I37  1  0.919659  0.269374  0.373938  1
  I  I38  1  0.402198  0.132028  0.817806  1
  I  I39  1  0.389014  0.474911  0.792418  1
  I  I40  1  0.944582  0.719821  0.360578  1
  I  I41  1  0.782679  0.100675  0.142967  1
  I  I42  1  0.236101  0.089638  0.546428  1
  I  I43  1  0.228873  0.457277  0.534312  1
  I  I44  1  0.433125  0.813821  0.761503  1
  I  I45  1  0.871294  0.450289  0.169708  1
  I  I46  1  0.566875  0.313821  0.738497  1
  I  I47  1  0.771127  0.957277  0.965688  1
  I  I48  1  0.763899  0.589638  0.953572  1
  I  I49  1  0.128706  0.950289  0.330292  1
  I  I50  1  0.610986  0.974911  0.707582  1
  I  I51  1  0.597802  0.632028  0.682194  1
  I  I52  1  0.217321  0.600675  0.357033  1
  I  I53  1  0.055418  0.219821  0.139422  1
  I  I54  1  0.490597  0.181500  0.507557  1
  I  I55  1  0.080341  0.769374  0.126062  1
