# generated using pymatgen
data_K4TeP4(HO2)10
_symmetry_space_group_name_H-M   'P 1'
_cell_length_a   7.62406662
_cell_length_b   7.62406662
_cell_length_c   17.46807460
_cell_angle_alpha   84.22615921
_cell_angle_beta   95.77384079
_cell_angle_gamma   80.47886654
_symmetry_Int_Tables_number   1
_chemical_formula_structural   K4TeP4(HO2)10
_chemical_formula_sum   'K8 Te2 P8 H20 O40'
_cell_volume   989.15146732
_cell_formula_units_Z   2
loop_
 _symmetry_equiv_pos_site_id
 _symmetry_equiv_pos_as_xyz
  1  'x, y, z'
loop_
 _atom_site_type_symbol
 _atom_site_label
 _atom_site_symmetry_multiplicity
 _atom_site_fract_x
 _atom_site_fract_y
 _atom_site_fract_z
 _atom_site_occupancy
  K  K0  1  0.923561  0.923561  0.250000  1
  K  K1  1  0.076439  0.076439  0.750000  1
  K  K2  1  0.453377  0.791214  0.931287  1
  K  K3  1  0.791214  0.453377  0.568713  1
  K  K4  1  0.546623  0.208786  0.068713  1
  K  K5  1  0.208786  0.546623  0.431287  1
  K  K6  1  0.710255  0.710255  0.750000  1
  K  K7  1  0.289745  0.289745  0.250000  1
  Te  Te8  1  0.000000  1.000000  0.500000  1
  Te  Te9  1  0.000000  1.000000  0.000000  1
  P  P10  1  0.347490  0.365248  0.635510  1
  P  P11  1  0.365248  0.347490  0.864490  1
  P  P12  1  0.652510  0.634751  0.364490  1
  P  P13  1  0.634751  0.652510  0.135510  1
  P  P14  1  0.639716  0.234045  0.763175  1
  P  P15  1  0.234045  0.639716  0.736825  1
  P  P16  1  0.360284  0.765955  0.236825  1
  P  P17  1  0.765955  0.360284  0.263175  1
  H  H18  1  0.865464  0.815140  0.092439  1
  H  H19  1  0.815140  0.865464  0.407561  1
  H  H20  1  0.134536  0.184860  0.907561  1
  H  H21  1  0.184860  0.134536  0.592439  1
  H  H22  1  0.741294  0.028446  0.901091  1
  H  H23  1  0.028446  0.741294  0.598909  1
  H  H24  1  0.258706  0.971554  0.098909  1
  H  H25  1  0.971554  0.258706  0.401091  1
  H  H26  1  0.021693  0.732446  0.929241  1
  H  H27  1  0.732446  0.021693  0.570759  1
  H  H28  1  0.978307  0.267554  0.070759  1
  H  H29  1  0.267554  0.978307  0.429241  1
  H  H30  1  0.896403  0.445940  0.924917  1
  H  H31  1  0.445940  0.896403  0.575083  1
  H  H32  1  0.103597  0.554060  0.075083  1
  H  H33  1  0.554060  0.103597  0.424917  1
  H  H34  1  0.800626  0.572878  0.976734  1
  H  H35  1  0.572878  0.800626  0.523266  1
  H  H36  1  0.199374  0.427122  0.023266  1
  H  H37  1  0.427122  0.199374  0.476734  1
  O  O38  1  0.989925  0.796607  0.075132  1
  O  O39  1  0.796607  0.989925  0.424868  1
  O  O40  1  0.010075  0.203393  0.924868  1
  O  O41  1  0.203393  0.010075  0.575132  1
  O  O42  1  0.748972  0.009057  0.959353  1
  O  O43  1  0.009057  0.748972  0.540647  1
  O  O44  1  0.251028  0.990943  0.040647  1
  O  O45  1  0.990943  0.251028  0.459353  1
  O  O46  1  0.085145  0.836517  0.925666  1
  O  O47  1  0.836517  0.085145  0.574334  1
  O  O48  1  0.914855  0.163483  0.074334  1
  O  O49  1  0.163483  0.914855  0.425666  1
  O  O50  1  0.781118  0.534762  0.204246  1
  O  O51  1  0.534762  0.781118  0.295754  1
  O  O52  1  0.218882  0.465238  0.795754  1
  O  O53  1  0.465238  0.218882  0.704246  1
  O  O54  1  0.447832  0.648663  0.172092  1
  O  O55  1  0.648663  0.447832  0.327908  1
  O  O56  1  0.552168  0.351337  0.827908  1
  O  O57  1  0.351337  0.552168  0.672092  1
  O  O58  1  0.627715  0.560019  0.064168  1
  O  O59  1  0.560019  0.627715  0.435832  1
  O  O60  1  0.372285  0.439981  0.935832  1
  O  O61  1  0.439981  0.372285  0.564168  1
  O  O62  1  0.680816  0.838201  0.130607  1
  O  O63  1  0.838201  0.680816  0.369393  1
  O  O64  1  0.319184  0.161799  0.869393  1
  O  O65  1  0.161799  0.319184  0.630607  1
  O  O66  1  0.715227  0.046877  0.800908  1
  O  O67  1  0.046877  0.715227  0.699092  1
  O  O68  1  0.284773  0.953123  0.199092  1
  O  O69  1  0.953123  0.284773  0.300908  1
  O  O70  1  0.344170  0.758822  0.775194  1
  O  O71  1  0.758822  0.344170  0.724806  1
  O  O72  1  0.655830  0.241178  0.224806  1
  O  O73  1  0.241178  0.655830  0.275194  1
  O  O74  1  0.854709  0.575306  0.928003  1
  O  O75  1  0.575306  0.854709  0.571997  1
  O  O76  1  0.145291  0.424694  0.071997  1
  O  O77  1  0.424694  0.145291  0.428003  1
