# generated using pymatgen
data_K3CuB2P4H3O17
_symmetry_space_group_name_H-M   'P 1'
_cell_length_a   9.49098361
_cell_length_b   17.84098724
_cell_length_c   9.70173634
_cell_angle_alpha   90.00000000
_cell_angle_beta   112.05970985
_cell_angle_gamma   90.00000000
_symmetry_Int_Tables_number   1
_chemical_formula_structural   K3CuB2P4H3O17
_chemical_formula_sum   'K12 Cu4 B8 P16 H12 O68'
_cell_volume   1522.51752553
_cell_formula_units_Z   4
loop_
 _symmetry_equiv_pos_site_id
 _symmetry_equiv_pos_as_xyz
  1  'x, y, z'
loop_
 _atom_site_type_symbol
 _atom_site_label
 _atom_site_symmetry_multiplicity
 _atom_site_fract_x
 _atom_site_fract_y
 _atom_site_fract_z
 _atom_site_occupancy
  K  K0  1  0.055320  0.868752  0.984226  1
  K  K1  1  0.555320  0.631248  0.984226  1
  K  K2  1  0.463994  0.130863  0.627940  1
  K  K3  1  0.098325  0.888006  0.456699  1
  K  K4  1  0.401675  0.388006  0.543301  1
  K  K5  1  0.036006  0.630863  0.372060  1
  K  K6  1  0.963994  0.369137  0.627940  1
  K  K7  1  0.598325  0.611994  0.456699  1
  K  K8  1  0.901675  0.111994  0.543301  1
  K  K9  1  0.536006  0.869137  0.372060  1
  K  K10  1  0.444680  0.368752  0.015774  1
  K  K11  1  0.944680  0.131248  0.015774  1
  Cu  Cu12  1  0.436660  0.832302  0.974082  1
  Cu  Cu13  1  0.936660  0.667698  0.974082  1
  Cu  Cu14  1  0.063340  0.332302  0.025918  1
  Cu  Cu15  1  0.563340  0.167698  0.025918  1
  B  B16  1  0.206993  0.586692  0.988858  1
  B  B17  1  0.706993  0.913308  0.988858  1
  B  B18  1  0.492615  0.908391  0.723302  1
  B  B19  1  0.992615  0.591609  0.723302  1
  B  B20  1  0.007385  0.408391  0.276698  1
  B  B21  1  0.507385  0.091609  0.276698  1
  B  B22  1  0.293007  0.086692  0.011142  1
  B  B23  1  0.793007  0.413308  0.011142  1
  P  P24  1  0.222962  0.219495  0.858285  1
  P  P25  1  0.269910  0.977668  0.796216  1
  P  P26  1  0.256499  0.518724  0.753118  1
  P  P27  1  0.722962  0.280505  0.858285  1
  P  P28  1  0.769910  0.522332  0.796216  1
  P  P29  1  0.393498  0.759184  0.650828  1
  P  P30  1  0.756499  0.981276  0.753118  1
  P  P31  1  0.893498  0.740816  0.650828  1
  P  P32  1  0.106502  0.259184  0.349172  1
  P  P33  1  0.243501  0.018724  0.246882  1
  P  P34  1  0.606502  0.240816  0.349172  1
  P  P35  1  0.230090  0.477668  0.203784  1
  P  P36  1  0.277038  0.719495  0.141715  1
  P  P37  1  0.743501  0.481276  0.246882  1
  P  P38  1  0.730090  0.022332  0.203784  1
  P  P39  1  0.777038  0.780505  0.141715  1
  H  H40  1  0.151995  0.759609  0.729267  1
  H  H41  1  0.167262  0.222639  0.607797  1
  H  H42  1  0.474682  0.534481  0.703061  1
  H  H43  1  0.651995  0.740391  0.729267  1
  H  H44  1  0.667262  0.277361  0.607797  1
  H  H45  1  0.974681  0.965519  0.703061  1
  H  H46  1  0.025318  0.034481  0.296939  1
  H  H47  1  0.332738  0.722639  0.392203  1
  H  H48  1  0.348005  0.259609  0.270733  1
  H  H49  1  0.525318  0.465519  0.296939  1
  H  H50  1  0.832738  0.777361  0.392203  1
  H  H51  1  0.848005  0.240391  0.270733  1
  O  O52  1  0.184944  0.148507  0.934890  1
  O  O53  1  0.068157  0.618242  0.876462  1
  O  O54  1  0.189126  0.291707  0.923857  1
  O  O55  1  0.291086  0.537433  0.922487  1
  O  O56  1  0.273523  0.906141  0.884271  1
  O  O57  1  0.338718  0.046277  0.901757  1
  O  O58  1  0.389004  0.217131  0.870924  1
  O  O59  1  0.684944  0.351493  0.934890  1
  O  O60  1  0.568157  0.881758  0.876462  1
  O  O61  1  0.689126  0.208293  0.923857  1
  O  O62  1  0.049227  0.782270  0.672966  1
  O  O63  1  0.349016  0.747985  0.784551  1
  O  O64  1  0.109986  0.995840  0.685582  1
  O  O65  1  0.115067  0.215594  0.689345  1
  O  O66  1  0.255935  0.435942  0.727755  1
  O  O67  1  0.791086  0.962567  0.922487  1
  O  O68  1  0.103442  0.560346  0.662934  1
  O  O69  1  0.773523  0.593859  0.884271  1
  O  O70  1  0.838718  0.453723  0.901757  1
  O  O71  1  0.377400  0.561272  0.707916  1
  O  O72  1  0.378852  0.969578  0.707145  1
  O  O73  1  0.889004  0.282869  0.870924  1
  O  O74  1  0.549227  0.717730  0.672966  1
  O  O75  1  0.849016  0.752015  0.784551  1
  O  O76  1  0.414500  0.845827  0.623141  1
  O  O77  1  0.609986  0.504160  0.685582  1
  O  O78  1  0.615067  0.284406  0.689345  1
  O  O79  1  0.755935  0.064058  0.727755  1
  O  O80  1  0.603442  0.939654  0.662934  1
  O  O81  1  0.222687  0.229755  0.495217  1
  O  O82  1  0.277313  0.729755  0.504783  1
  O  O83  1  0.877400  0.938728  0.707916  1
  O  O84  1  0.878852  0.530422  0.707145  1
  O  O85  1  0.085500  0.345827  0.376859  1
  O  O86  1  0.914500  0.654173  0.623141  1
  O  O87  1  0.121148  0.469578  0.292855  1
  O  O88  1  0.122600  0.061272  0.292084  1
  O  O89  1  0.722687  0.270245  0.495217  1
  O  O90  1  0.777313  0.770245  0.504783  1
  O  O91  1  0.396558  0.060346  0.337066  1
  O  O92  1  0.244065  0.935942  0.272245  1
  O  O93  1  0.384933  0.715594  0.310655  1
  O  O94  1  0.390014  0.495840  0.314418  1
  O  O95  1  0.585500  0.154173  0.376859  1
  O  O96  1  0.150984  0.247985  0.215449  1
  O  O97  1  0.450773  0.282270  0.327034  1
  O  O98  1  0.110996  0.717131  0.129076  1
  O  O99  1  0.621148  0.030422  0.292855  1
  O  O100  1  0.622600  0.438728  0.292084  1
  O  O101  1  0.161282  0.546277  0.098243  1
  O  O102  1  0.226477  0.406141  0.115729  1
  O  O103  1  0.896558  0.439654  0.337066  1
  O  O104  1  0.208914  0.037433  0.077513  1
  O  O105  1  0.744065  0.564058  0.272245  1
  O  O106  1  0.884933  0.784406  0.310655  1
  O  O107  1  0.890014  0.004160  0.314418  1
  O  O108  1  0.650984  0.252015  0.215449  1
  O  O109  1  0.950773  0.217730  0.327034  1
  O  O110  1  0.310874  0.791707  0.076143  1
  O  O111  1  0.431843  0.118242  0.123538  1
  O  O112  1  0.315056  0.648507  0.065110  1
  O  O113  1  0.610996  0.782869  0.129076  1
  O  O114  1  0.661282  0.953723  0.098243  1
  O  O115  1  0.726477  0.093859  0.115729  1
  O  O116  1  0.708914  0.462567  0.077513  1
  O  O117  1  0.810874  0.708293  0.076143  1
  O  O118  1  0.931843  0.381758  0.123538  1
  O  O119  1  0.815056  0.851493  0.065110  1
