# generated using pymatgen
data_Fe2CoO4
_symmetry_space_group_name_H-M   'P 1'
_cell_length_a   5.93291374
_cell_length_b   5.93291374
_cell_length_c   5.93291374
_cell_angle_alpha   120.49478172
_cell_angle_beta   120.20238521
_cell_angle_gamma   89.39747720
_symmetry_Int_Tables_number   1
_chemical_formula_structural   Fe2CoO4
_chemical_formula_sum   'Fe4 Co2 O8'
_cell_volume   146.88086358
_cell_formula_units_Z   2
loop_
 _symmetry_equiv_pos_site_id
 _symmetry_equiv_pos_as_xyz
  1  'x, y, z'
loop_
 _atom_site_type_symbol
 _atom_site_label
 _atom_site_symmetry_multiplicity
 _atom_site_fract_x
 _atom_site_fract_y
 _atom_site_fract_z
 _atom_site_occupancy
  Fe  Fe0  1  0.500000  0.500000  0.000000  1
  Fe  Fe1  1  0.000000  0.500000  0.000000  1
  Fe  Fe2  1  0.000000  0.500000  0.500000  1
  Fe  Fe3  1  0.000000  0.000000  0.500000  1
  Co  Co4  1  0.374390  0.124390  0.250000  1
  Co  Co5  1  0.625610  0.875610  0.750000  1
  O  O6  1  0.226538  0.254848  0.971691  1
  O  O7  1  0.237458  0.258777  0.521320  1
  O  O8  1  0.237458  0.716138  0.978680  1
  O  O9  1  0.216843  0.745152  0.471691  1
  O  O10  1  0.783157  0.254848  0.528309  1
  O  O11  1  0.762542  0.283862  0.021320  1
  O  O12  1  0.773462  0.745152  0.028309  1
  O  O13  1  0.762542  0.741223  0.478680  1
