# generated using pymatgen
data_Li2FeWO6
_symmetry_space_group_name_H-M   'P 1'
_cell_length_a   5.43339469
_cell_length_b   5.43339469
_cell_length_c   5.43339469
_cell_angle_alpha   56.52640888
_cell_angle_beta   56.52640888
_cell_angle_gamma   56.52640888
_symmetry_Int_Tables_number   1
_chemical_formula_structural   Li2FeWO6
_chemical_formula_sum   'Li2 Fe1 W1 O6'
_cell_volume   104.31716919
_cell_formula_units_Z   1
loop_
 _symmetry_equiv_pos_site_id
 _symmetry_equiv_pos_as_xyz
  1  'x, y, z'
loop_
 _atom_site_type_symbol
 _atom_site_label
 _atom_site_symmetry_multiplicity
 _atom_site_fract_x
 _atom_site_fract_y
 _atom_site_fract_z
 _atom_site_occupancy
  Li  Li0  1  0.286975  0.286975  0.286975  1
  Li  Li1  1  0.776563  0.776563  0.776563  1
  Fe  Fe2  1  0.002838  0.002838  0.002838  1
  W  W3  1  0.503896  0.503896  0.503896  1
  O  O4  1  0.728443  0.131596  0.369355  1
  O  O5  1  0.864698  0.619610  0.242427  1
  O  O6  1  0.369355  0.728443  0.131596  1
  O  O7  1  0.619610  0.242427  0.864698  1
  O  O8  1  0.131596  0.369355  0.728443  1
  O  O9  1  0.242427  0.864698  0.619610  1
