# generated using pymatgen
data_Li2V2Si5O13
_symmetry_space_group_name_H-M   'P 1'
_cell_length_a   7.45497312
_cell_length_b   7.59560931
_cell_length_c   10.01490638
_cell_angle_alpha   83.34463837
_cell_angle_beta   68.51801951
_cell_angle_gamma   75.39759611
_symmetry_Int_Tables_number   1
_chemical_formula_structural   Li2V2Si5O13
_chemical_formula_sum   'Li4 V4 Si10 O26'
_cell_volume   510.47976484
_cell_formula_units_Z   2
loop_
 _symmetry_equiv_pos_site_id
 _symmetry_equiv_pos_as_xyz
  1  'x, y, z'
loop_
 _atom_site_type_symbol
 _atom_site_label
 _atom_site_symmetry_multiplicity
 _atom_site_fract_x
 _atom_site_fract_y
 _atom_site_fract_z
 _atom_site_occupancy
  Li  Li0  1  0.177186  0.080412  0.875028  1
  Li  Li1  1  0.162653  0.407536  0.745312  1
  Li  Li2  1  0.837347  0.592464  0.254688  1
  Li  Li3  1  0.822814  0.919588  0.124972  1
  V  V4  1  0.035154  0.152606  0.600504  1
  V  V5  1  0.452535  0.853965  0.399164  1
  V  V6  1  0.547465  0.146035  0.600836  1
  V  V7  1  0.964846  0.847394  0.399496  1
  Si  Si8  1  0.150512  0.222174  0.264815  1
  Si  Si9  1  0.213361  0.691293  0.044040  1
  Si  Si10  1  0.310256  0.458162  0.408845  1
  Si  Si11  1  0.267484  0.769386  0.730812  1
  Si  Si12  1  0.632120  0.704066  0.043739  1
  Si  Si13  1  0.367880  0.295934  0.956261  1
  Si  Si14  1  0.732516  0.230614  0.269188  1
  Si  Si15  1  0.689744  0.541838  0.591155  1
  Si  Si16  1  0.786639  0.308707  0.955960  1
  Si  Si17  1  0.849488  0.777826  0.735185  1
  O  O18  1  0.024331  0.770832  0.180038  1
  O  O19  1  0.160944  0.049171  0.376843  1
  O  O20  1  0.296333  0.162302  0.099800  1
  O  O21  1  0.197741  0.400144  0.310689  1
  O  O22  1  0.074227  0.695981  0.740734  1
  O  O23  1  0.414425  0.676916  0.072297  1
  O  O24  1  0.243516  0.677177  0.427421  1
  O  O25  1  0.277200  0.321835  0.550997  1
  O  O26  1  0.550763  0.408176  0.310887  1
  O  O27  1  0.361389  0.218194  0.816520  1
  O  O28  1  0.207751  0.494146  0.995766  1
  O  O29  1  0.306317  0.947324  0.625828  1
  O  O30  1  0.216999  0.828530  0.899071  1
  O  O31  1  0.783001  0.171470  0.100929  1
  O  O32  1  0.693683  0.052676  0.374172  1
  O  O33  1  0.792249  0.505854  0.004234  1
  O  O34  1  0.638611  0.781806  0.183480  1
  O  O35  1  0.449237  0.591824  0.689113  1
  O  O36  1  0.722800  0.678165  0.449003  1
  O  O37  1  0.756484  0.322823  0.572579  1
  O  O38  1  0.585575  0.323084  0.927703  1
  O  O39  1  0.925773  0.304019  0.259266  1
  O  O40  1  0.802259  0.599856  0.689311  1
  O  O41  1  0.703667  0.837698  0.900200  1
  O  O42  1  0.839056  0.950829  0.623157  1
  O  O43  1  0.975669  0.229168  0.819962  1
