# generated using pymatgen
data_LiV3O8
_symmetry_space_group_name_H-M   'P 1'
_cell_length_a   6.96986060
_cell_length_b   3.62309515
_cell_length_c   12.47283059
_cell_angle_alpha   90.00000000
_cell_angle_beta   104.92783961
_cell_angle_gamma   90.00000000
_symmetry_Int_Tables_number   1
_chemical_formula_structural   LiV3O8
_chemical_formula_sum   'Li2 V6 O16'
_cell_volume   304.33985127
_cell_formula_units_Z   2
loop_
 _symmetry_equiv_pos_site_id
 _symmetry_equiv_pos_as_xyz
  1  'x, y, z'
loop_
 _atom_site_type_symbol
 _atom_site_label
 _atom_site_symmetry_multiplicity
 _atom_site_fract_x
 _atom_site_fract_y
 _atom_site_fract_z
 _atom_site_occupancy
  Li  Li0  1  0.542515  0.500000  0.959499  1
  Li  Li1  1  0.354825  0.500000  0.698288  1
  V  V2  1  0.259606  0.500000  0.199727  1
  V  V3  1  0.693807  0.000000  0.537242  1
  V  V4  1  0.139571  0.500000  0.927191  1
  V  V5  1  0.877245  0.000000  0.077576  1
  V  V6  1  0.315667  0.500000  0.452216  1
  V  V7  1  0.763070  0.000000  0.797380  1
  O  O8  1  0.179205  0.000000  0.170017  1
  O  O9  1  0.329194  0.500000  0.048846  1
  O  O10  1  0.604724  0.500000  0.544268  1
  O  O11  1  0.487608  0.500000  0.272513  1
  O  O12  1  0.866914  0.000000  0.676223  1
  O  O13  1  0.056155  0.000000  0.921706  1
  O  O14  1  0.827002  0.000000  0.450849  1
  O  O15  1  0.753281  0.000000  0.169640  1
  O  O16  1  0.277131  0.500000  0.835809  1
  O  O17  1  0.190388  0.500000  0.546552  1
  O  O18  1  0.952327  0.500000  0.064951  1
  O  O19  1  0.142067  0.500000  0.321236  1
  O  O20  1  0.522382  0.000000  0.728673  1
  O  O21  1  0.405712  0.000000  0.451009  1
  O  O22  1  0.681173  0.000000  0.948508  1
  O  O23  1  0.830265  0.500000  0.827986  1
