# generated using pymatgen
data_VO2F
_symmetry_space_group_name_H-M   'P 1'
_cell_length_a   5.18094476
_cell_length_b   5.31798720
_cell_length_c   11.58635404
_cell_angle_alpha   100.87697759
_cell_angle_beta   102.18778076
_cell_angle_gamma   90.94573235
_symmetry_Int_Tables_number   1
_chemical_formula_structural   VO2F
_chemical_formula_sum   'V6 O12 F6'
_cell_volume   305.90023906
_cell_formula_units_Z   6
loop_
 _symmetry_equiv_pos_site_id
 _symmetry_equiv_pos_as_xyz
  1  'x, y, z'
loop_
 _atom_site_type_symbol
 _atom_site_label
 _atom_site_symmetry_multiplicity
 _atom_site_fract_x
 _atom_site_fract_y
 _atom_site_fract_z
 _atom_site_occupancy
  V  V0  1  0.877352  0.815521  0.678837  1
  V  V1  1  0.630983  0.653044  0.345124  1
  V  V2  1  0.538997  0.537373  0.011748  1
  V  V3  1  0.360160  0.363447  0.685154  1
  V  V4  1  0.029596  0.032398  0.018909  1
  V  V5  1  0.161130  0.148053  0.352257  1
  O  O6  1  0.998267  0.089643  0.161803  1
  O  O7  1  0.969238  0.893315  0.355162  1
  O  O8  1  0.665470  0.584010  0.159060  1
  O  O9  1  0.660253  0.743680  0.493276  1
  O  O10  1  0.631313  0.559514  0.692509  1
  O  O11  1  0.296907  0.216956  0.021727  1
  O  O12  1  0.693668  0.770869  0.967458  1
  O  O13  1  0.363945  0.445250  0.303019  1
  O  O14  1  0.318853  0.245788  0.495418  1
  O  O15  1  0.333070  0.406983  0.828976  1
  O  O16  1  0.105656  0.601518  0.638030  1
  O  O17  1  0.992294  0.910294  0.825680  1
  F  F18  1  0.885723  0.390577  0.358866  1
  F  F19  1  0.773256  0.271721  0.963508  1
  F  F20  1  0.445699  0.949133  0.298849  1
  F  F21  1  0.215306  0.714550  0.026610  1
  F  F22  1  0.539859  0.049517  0.685469  1
  F  F23  1  0.013005  0.106846  0.632551  1
