# generated using pymatgen
data_LiCo2(CO3)3
_symmetry_space_group_name_H-M   'P 1'
_cell_length_a   7.39989235
_cell_length_b   7.54647082
_cell_length_c   7.59058806
_cell_angle_alpha   110.20906914
_cell_angle_beta   108.13941407
_cell_angle_gamma   108.21464767
_symmetry_Int_Tables_number   1
_chemical_formula_structural   LiCo2(CO3)3
_chemical_formula_sum   'Li2 Co4 C6 O18'
_cell_volume   333.44192562
_cell_formula_units_Z   2
loop_
 _symmetry_equiv_pos_site_id
 _symmetry_equiv_pos_as_xyz
  1  'x, y, z'
loop_
 _atom_site_type_symbol
 _atom_site_label
 _atom_site_symmetry_multiplicity
 _atom_site_fract_x
 _atom_site_fract_y
 _atom_site_fract_z
 _atom_site_occupancy
  Li  Li0  1  0.639400  0.104372  0.361777  1
  Li  Li1  1  0.168012  0.427503  0.725414  1
  Co  Co2  1  0.958345  0.829776  0.456244  1
  Co  Co3  1  0.841643  0.466631  0.962943  1
  Co  Co4  1  0.570866  0.553672  0.574952  1
  Co  Co5  1  0.466472  0.963770  0.840434  1
  C  C6  1  0.830698  0.066214  0.741571  1
  C  C7  1  0.766283  0.844772  0.083345  1
  C  C8  1  0.618097  0.414666  0.204000  1
  C  C9  1  0.391049  0.193816  0.604174  1
  C  C10  1  0.204246  0.604822  0.419233  1
  C  C11  1  0.077083  0.760605  0.824500  1
  O  O12  1  0.890480  0.053019  0.591566  1
  O  O13  1  0.944306  0.930085  0.255588  1
  O  O14  1  0.940658  0.240462  0.916901  1
  O  O15  1  0.607579  0.297909  0.022825  1
  O  O16  1  0.922205  0.725188  0.652918  1
  O  O17  1  0.666406  0.614511  0.259455  1
  O  O18  1  0.578998  0.334244  0.318463  1
  O  O19  1  0.583983  0.235681  0.625672  1
  O  O20  1  0.647571  0.941718  0.081442  1
  O  O21  1  0.711421  0.673207  0.916018  1
  O  O22  1  0.655479  0.910272  0.701990  1
  O  O23  1  0.281893  0.023558  0.612849  1
  O  O24  1  0.315823  0.319617  0.582115  1
  O  O25  1  0.308319  0.537522  0.336752  1
  O  O26  1  0.254821  0.658043  0.619366  1
  O  O27  1  0.039705  0.625495  0.309169  1
  O  O28  1  0.249783  0.943630  0.938564  1
  O  O29  1  0.057971  0.612229  0.875665  1
