# generated using pymatgen
data_Na3VPCO7
_symmetry_space_group_name_H-M   'P 1'
_cell_length_a   5.32302505
_cell_length_b   6.82034368
_cell_length_c   8.97978347
_cell_angle_alpha   90.00000000
_cell_angle_beta   92.20089299
_cell_angle_gamma   90.00000000
_symmetry_Int_Tables_number   1
_chemical_formula_structural   Na3VPCO7
_chemical_formula_sum   'Na6 V2 P2 C2 O14'
_cell_volume   325.76929288
_cell_formula_units_Z   2
loop_
 _symmetry_equiv_pos_site_id
 _symmetry_equiv_pos_as_xyz
  1  'x, y, z'
loop_
 _atom_site_type_symbol
 _atom_site_label
 _atom_site_symmetry_multiplicity
 _atom_site_fract_x
 _atom_site_fract_y
 _atom_site_fract_z
 _atom_site_occupancy
  Na  Na0  1  0.779892  0.250000  0.913855  1
  Na  Na1  1  0.261701  0.487852  0.721619  1
  Na  Na2  1  0.261701  0.012148  0.721619  1
  Na  Na3  1  0.738299  0.987852  0.278381  1
  Na  Na4  1  0.738299  0.512148  0.278381  1
  Na  Na5  1  0.220108  0.750000  0.086145  1
  V  V6  1  0.776402  0.750000  0.660290  1
  V  V7  1  0.223598  0.250000  0.339710  1
  P  P8  1  0.722806  0.250000  0.584363  1
  P  P9  1  0.277194  0.750000  0.415637  1
  C  C10  1  0.701229  0.750000  0.945454  1
  C  C11  1  0.298771  0.250000  0.054546  1
  O  O12  1  0.926492  0.750000  0.892246  1
  O  O13  1  0.331777  0.250000  0.912988  1
  O  O14  1  0.510267  0.750000  0.848853  1
  O  O15  1  0.796636  0.068032  0.681524  1
  O  O16  1  0.796636  0.431968  0.681524  1
  O  O17  1  0.142192  0.750000  0.565793  1
  O  O18  1  0.432518  0.250000  0.551108  1
  O  O19  1  0.567482  0.750000  0.448892  1
  O  O20  1  0.857808  0.250000  0.434207  1
  O  O21  1  0.203364  0.568032  0.318476  1
  O  O22  1  0.203364  0.931968  0.318476  1
  O  O23  1  0.489733  0.250000  0.151147  1
  O  O24  1  0.668223  0.750000  0.087012  1
  O  O25  1  0.073508  0.250000  0.107754  1
