# generated using pymatgen
data_Mg2CoO4
_symmetry_space_group_name_H-M   'P 1'
_cell_length_a   5.94614370
_cell_length_b   5.94614370
_cell_length_c   5.94614370
_cell_angle_alpha   60.00000000
_cell_angle_beta   60.00000000
_cell_angle_gamma   60.00000000
_symmetry_Int_Tables_number   1
_chemical_formula_structural   Mg2CoO4
_chemical_formula_sum   'Mg4 Co2 O8'
_cell_volume   148.65899867
_cell_formula_units_Z   2
loop_
 _symmetry_equiv_pos_site_id
 _symmetry_equiv_pos_as_xyz
  1  'x, y, z'
loop_
 _atom_site_type_symbol
 _atom_site_label
 _atom_site_symmetry_multiplicity
 _atom_site_fract_x
 _atom_site_fract_y
 _atom_site_fract_z
 _atom_site_occupancy
  Mg  Mg0  1  0.125000  0.125000  0.125000  1
  Mg  Mg1  1  0.625000  0.125000  0.125000  1
  Mg  Mg2  1  0.125000  0.125000  0.625000  1
  Mg  Mg3  1  0.125000  0.625000  0.125000  1
  Co  Co4  1  0.500000  0.500000  0.500000  1
  Co  Co5  1  0.750000  0.750000  0.750000  1
  O  O6  1  0.374199  0.877402  0.374199  1
  O  O7  1  0.374199  0.374199  0.877402  1
  O  O8  1  0.875801  0.875801  0.875801  1
  O  O9  1  0.372598  0.875801  0.875801  1
  O  O10  1  0.877402  0.374199  0.374199  1
  O  O11  1  0.374199  0.374199  0.374199  1
  O  O12  1  0.875801  0.875801  0.372598  1
  O  O13  1  0.875801  0.372598  0.875801  1
