# generated using pymatgen
data_PH6NO4
_symmetry_space_group_name_H-M   'P 1'
_cell_length_a   7.49865589
_cell_length_b   7.76249468
_cell_length_c   8.01087209
_cell_angle_alpha   90.00000000
_cell_angle_beta   90.00000000
_cell_angle_gamma   90.00000000
_symmetry_Int_Tables_number   1
_chemical_formula_structural   PH6NO4
_chemical_formula_sum   'P4 H24 N4 O16'
_cell_volume   466.29905725
_cell_formula_units_Z   4
loop_
 _symmetry_equiv_pos_site_id
 _symmetry_equiv_pos_as_xyz
  1  'x, y, z'
loop_
 _atom_site_type_symbol
 _atom_site_label
 _atom_site_symmetry_multiplicity
 _atom_site_fract_x
 _atom_site_fract_y
 _atom_site_fract_z
 _atom_site_occupancy
  P  P0  1  0.187862  0.229086  0.717081  1
  P  P1  1  0.687862  0.270914  0.282919  1
  P  P2  1  0.312138  0.770914  0.217081  1
  P  P3  1  0.812138  0.729086  0.782919  1
  H  H4  1  0.052906  0.443409  0.863199  1
  H  H5  1  0.552906  0.056591  0.136801  1
  H  H6  1  0.447094  0.556591  0.363199  1
  H  H7  1  0.947094  0.943409  0.636801  1
  H  H8  1  0.379378  0.350856  0.539755  1
  H  H9  1  0.879378  0.149144  0.460245  1
  H  H10  1  0.120622  0.649144  0.039755  1
  H  H11  1  0.620622  0.850856  0.960245  1
  H  H12  1  0.688426  0.225714  0.890179  1
  H  H13  1  0.188426  0.274286  0.109821  1
  H  H14  1  0.811574  0.774286  0.390179  1
  H  H15  1  0.311574  0.725714  0.609821  1
  H  H16  1  0.607972  0.192135  0.700351  1
  H  H17  1  0.170852  0.723169  0.776709  1
  H  H18  1  0.892028  0.807865  0.200351  1
  H  H19  1  0.392028  0.692135  0.799649  1
  H  H20  1  0.686392  0.394234  0.749814  1
  H  H21  1  0.186392  0.105766  0.250186  1
  H  H22  1  0.813608  0.605766  0.249814  1
  H  H23  1  0.313608  0.894234  0.750186  1
  H  H24  1  0.829148  0.223169  0.723291  1
  H  H25  1  0.329148  0.276831  0.276709  1
  H  H26  1  0.670852  0.776831  0.223291  1
  H  H27  1  0.107972  0.307865  0.299649  1
  N  N28  1  0.297112  0.759037  0.733878  1
  N  N29  1  0.202888  0.240963  0.233878  1
  N  N30  1  0.702888  0.259037  0.766122  1
  N  N31  1  0.797112  0.740963  0.266122  1
  O  O32  1  0.772913  0.118647  0.390967  1
  O  O33  1  0.526293  0.347386  0.376198  1
  O  O34  1  0.473707  0.847386  0.123802  1
  O  O35  1  0.973707  0.652614  0.876198  1
  O  O36  1  0.272913  0.381353  0.609033  1
  O  O37  1  0.026293  0.152614  0.623802  1
  O  O38  1  0.227087  0.618647  0.109033  1
  O  O39  1  0.727087  0.881353  0.890967  1
  O  O40  1  0.885413  0.829598  0.621964  1
  O  O41  1  0.827511  0.396981  0.227377  1
  O  O42  1  0.327511  0.103019  0.772623  1
  O  O43  1  0.672489  0.603019  0.727377  1
  O  O44  1  0.385413  0.670402  0.378036  1
  O  O45  1  0.614587  0.170402  0.121964  1
  O  O46  1  0.114587  0.329598  0.878036  1
  O  O47  1  0.172489  0.896981  0.272623  1
