# generated using pymatgen
data_V(GeO3)2
_symmetry_space_group_name_H-M   'P 1'
_cell_length_a   5.48477119
_cell_length_b   8.88388480
_cell_length_c   9.67126886
_cell_angle_alpha   90.00000000
_cell_angle_beta   102.96701502
_cell_angle_gamma   90.00000000
_symmetry_Int_Tables_number   1
_chemical_formula_structural   V(GeO3)2
_chemical_formula_sum   'V4 Ge8 O24'
_cell_volume   459.22600064
_cell_formula_units_Z   4
loop_
 _symmetry_equiv_pos_site_id
 _symmetry_equiv_pos_as_xyz
  1  'x, y, z'
loop_
 _atom_site_type_symbol
 _atom_site_label
 _atom_site_symmetry_multiplicity
 _atom_site_fract_x
 _atom_site_fract_y
 _atom_site_fract_z
 _atom_site_occupancy
  V  V0  1  0.978025  0.352743  0.251915  1
  V  V1  1  0.478025  0.147257  0.251915  1
  V  V2  1  0.521975  0.852743  0.748085  1
  V  V3  1  0.021975  0.647257  0.748085  1
  Ge  Ge4  1  0.831752  0.661658  0.050840  1
  Ge  Ge5  1  0.331752  0.838342  0.050840  1
  Ge  Ge6  1  0.727045  0.836168  0.452468  1
  Ge  Ge7  1  0.227045  0.663832  0.452468  1
  Ge  Ge8  1  0.772955  0.336168  0.547532  1
  Ge  Ge9  1  0.272955  0.163832  0.547532  1
  Ge  Ge10  1  0.668248  0.161658  0.949160  1
  Ge  Ge11  1  0.168248  0.338342  0.949160  1
  O  O12  1  0.649509  0.794483  0.116971  1
  O  O13  1  0.784450  0.483793  0.118058  1
  O  O14  1  0.728916  0.182315  0.140203  1
  O  O15  1  0.149509  0.705517  0.116971  1
  O  O16  1  0.284450  0.016207  0.118058  1
  O  O17  1  0.228916  0.317685  0.140203  1
  O  O18  1  0.991121  0.796594  0.384352  1
  O  O19  1  0.698731  0.323468  0.359100  1
  O  O20  1  0.632092  0.019174  0.389054  1
  O  O21  1  0.491121  0.703406  0.384352  1
  O  O22  1  0.198731  0.176532  0.359100  1
  O  O23  1  0.132092  0.480826  0.389054  1
  O  O24  1  0.867908  0.519174  0.610946  1
  O  O25  1  0.801269  0.823468  0.640900  1
  O  O26  1  0.508879  0.296594  0.615648  1
  O  O27  1  0.367908  0.980826  0.610946  1
  O  O28  1  0.301269  0.676532  0.640900  1
  O  O29  1  0.008879  0.203406  0.615648  1
  O  O30  1  0.771084  0.682315  0.859797  1
  O  O31  1  0.715550  0.983793  0.881942  1
  O  O32  1  0.850491  0.294483  0.883029  1
  O  O33  1  0.271084  0.817685  0.859797  1
  O  O34  1  0.215550  0.516207  0.881942  1
  O  O35  1  0.350491  0.205517  0.883029  1
