# generated using pymatgen
data_LiNbCrO4
_symmetry_space_group_name_H-M   'P 1'
_cell_length_a   6.30824380
_cell_length_b   6.30824380
_cell_length_c   8.46472208
_cell_angle_alpha   90.00000000
_cell_angle_beta   90.00000000
_cell_angle_gamma   90.00000000
_symmetry_Int_Tables_number   1
_chemical_formula_structural   LiNbCrO4
_chemical_formula_sum   'Li4 Nb4 Cr4 O16'
_cell_volume   336.84464106
_cell_formula_units_Z   4
loop_
 _symmetry_equiv_pos_site_id
 _symmetry_equiv_pos_as_xyz
  1  'x, y, z'
loop_
 _atom_site_type_symbol
 _atom_site_label
 _atom_site_symmetry_multiplicity
 _atom_site_fract_x
 _atom_site_fract_y
 _atom_site_fract_z
 _atom_site_occupancy
  Li  Li0  1  0.000000  0.231715  0.000000  1
  Li  Li1  1  0.000000  0.768285  0.500000  1
  Li  Li2  1  0.231715  0.000000  0.250000  1
  Li  Li3  1  0.768285  0.000000  0.750000  1
  Nb  Nb4  1  0.249495  0.249495  0.625000  1
  Nb  Nb5  1  0.249495  0.750505  0.875000  1
  Nb  Nb6  1  0.750505  0.249495  0.375000  1
  Nb  Nb7  1  0.750505  0.750505  0.125000  1
  Cr  Cr8  1  0.242395  0.500000  0.250000  1
  Cr  Cr9  1  0.500000  0.242395  0.000000  1
  Cr  Cr10  1  0.500000  0.757605  0.500000  1
  Cr  Cr11  1  0.757605  0.500000  0.750000  1
  O  O12  1  0.997339  0.251814  0.253463  1
  O  O13  1  0.997339  0.748186  0.246537  1
  O  O14  1  0.251814  0.997339  0.996537  1
  O  O15  1  0.251814  0.002661  0.503463  1
  O  O16  1  0.254159  0.503660  0.006902  1
  O  O17  1  0.254159  0.496340  0.493098  1
  O  O18  1  0.503660  0.254159  0.243098  1
  O  O19  1  0.503660  0.745841  0.256902  1
  O  O20  1  0.496340  0.254159  0.756902  1
  O  O21  1  0.496340  0.745841  0.743098  1
  O  O22  1  0.745841  0.496340  0.506902  1
  O  O23  1  0.745841  0.503660  0.993098  1
  O  O24  1  0.748186  0.997339  0.003463  1
  O  O25  1  0.748186  0.002661  0.496537  1
  O  O26  1  0.002661  0.251814  0.746537  1
  O  O27  1  0.002661  0.748186  0.753463  1
