# generated using pymatgen
data_Mn4Si4SnB2(HO9)2
_symmetry_space_group_name_H-M   'P 1'
_cell_length_a   7.05391763
_cell_length_b   7.46469081
_cell_length_c   7.77823811
_cell_angle_alpha   90.00146742
_cell_angle_beta   116.94328335
_cell_angle_gamma   103.11033061
_symmetry_Int_Tables_number   1
_chemical_formula_structural   Mn4Si4SnB2(HO9)2
_chemical_formula_sum   'Mn4 Si4 Sn1 B2 H2 O18'
_cell_volume   353.09141092
_cell_formula_units_Z   1
loop_
 _symmetry_equiv_pos_site_id
 _symmetry_equiv_pos_as_xyz
  1  'x, y, z'
loop_
 _atom_site_type_symbol
 _atom_site_label
 _atom_site_symmetry_multiplicity
 _atom_site_fract_x
 _atom_site_fract_y
 _atom_site_fract_z
 _atom_site_occupancy
  Mn  Mn0  1  0.190430  0.277185  0.735601  1
  Mn  Mn1  1  0.809570  0.722815  0.264399  1
  Mn  Mn2  1  0.694185  0.288305  0.735814  1
  Mn  Mn3  1  0.305815  0.711695  0.264186  1
  Si  Si4  1  0.924937  0.325641  0.241487  1
  Si  Si5  1  0.075063  0.674359  0.758513  1
  Si  Si6  1  0.469275  0.323366  0.223669  1
  Si  Si7  1  0.530725  0.676634  0.776331  1
  Sn  Sn8  1  0.000000  0.000000  0.000000  1
  B  B9  1  0.250470  0.123808  0.430223  1
  B  B10  1  0.749530  0.876192  0.569777  1
  H  H11  1  0.671403  0.045638  0.339853  1
  H  H12  1  0.328597  0.954362  0.660147  1
  O  O13  1  0.143101  0.956283  0.291383  1
  O  O14  1  0.856899  0.043717  0.708617  1
  O  O15  1  0.876983  0.220233  0.034790  1
  O  O16  1  0.123017  0.779767  0.965210  1
  O  O17  1  0.434940  0.249089  0.410307  1
  O  O18  1  0.565060  0.750911  0.589693  1
  O  O19  1  0.273666  0.195000  0.022198  1
  O  O20  1  0.726334  0.805000  0.977802  1
  O  O21  1  0.090617  0.229789  0.421332  1
  O  O22  1  0.909383  0.770211  0.578668  1
  O  O23  1  0.698498  0.269449  0.263772  1
  O  O24  1  0.301502  0.730551  0.736228  1
  O  O25  1  0.014091  0.548265  0.264360  1
  O  O26  1  0.985909  0.451735  0.735640  1
  O  O27  1  0.490745  0.542042  0.209770  1
  O  O28  1  0.509255  0.457958  0.790230  1
  O  O29  1  0.354286  0.086189  0.638187  1
  O  O30  1  0.645714  0.913811  0.361813  1
