# generated using pymatgen
data_DyY7O12
_symmetry_space_group_name_H-M   'P 1'
_cell_length_a   9.27008713
_cell_length_b   9.27008713
_cell_length_c   9.27008713
_cell_angle_alpha   109.47996296
_cell_angle_beta   109.47308397
_cell_angle_gamma   109.46061557
_symmetry_Int_Tables_number   1
_chemical_formula_structural   DyY7O12
_chemical_formula_sum   'Dy2 Y14 O24'
_cell_volume   613.23868595
_cell_formula_units_Z   2
loop_
 _symmetry_equiv_pos_site_id
 _symmetry_equiv_pos_as_xyz
  1  'x, y, z'
loop_
 _atom_site_type_symbol
 _atom_site_label
 _atom_site_symmetry_multiplicity
 _atom_site_fract_x
 _atom_site_fract_y
 _atom_site_fract_z
 _atom_site_occupancy
  Dy  Dy0  1  0.217242  0.967242  0.250000  1
  Dy  Dy1  1  0.282758  0.532758  0.750000  1
  Y  Y2  1  0.717332  0.467332  0.250000  1
  Y  Y3  1  0.499971  0.999950  0.000046  1
  Y  Y4  1  0.250000  0.282685  0.032685  1
  Y  Y5  1  0.750000  0.217315  0.467315  1
  Y  Y6  1  0.532592  0.250000  0.782592  1
  Y  Y7  1  0.032743  0.250000  0.282743  1
  Y  Y8  1  0.000029  0.000075  0.499979  1
  Y  Y9  1  0.000096  0.500050  0.000021  1
  Y  Y10  1  0.499904  0.499925  0.499954  1
  Y  Y11  1  0.782668  0.032668  0.750000  1
  Y  Y12  1  0.967408  0.750000  0.717408  1
  Y  Y13  1  0.467257  0.750000  0.217257  1
  Y  Y14  1  0.750000  0.717385  0.967385  1
  Y  Y15  1  0.250000  0.782615  0.532615  1
  O  O16  1  0.988880  0.260857  0.031620  1
  O  O17  1  0.770763  0.239143  0.228022  1
  O  O18  1  0.542445  0.771696  0.010875  1
  O  O19  1  0.739197  0.468418  0.511175  1
  O  O20  1  0.957555  0.968430  0.229251  1
  O  O21  1  0.760803  0.271977  0.729220  1
  O  O22  1  0.729237  0.957259  0.468380  1
  O  O23  1  0.511120  0.542741  0.271978  1
  O  O24  1  0.271928  0.228859  0.260802  1
  O  O25  1  0.531586  0.988878  0.760821  1
  O  O26  1  0.771944  0.511122  0.042708  1
  O  O27  1  0.031944  0.271141  0.543069  1
  O  O28  1  0.968414  0.729236  0.457292  1
  O  O29  1  0.728056  0.770764  0.739179  1
  O  O30  1  0.228072  0.488874  0.956931  1
  O  O31  1  0.468056  0.011126  0.239198  1
  O  O32  1  0.488454  0.457448  0.728128  1
  O  O33  1  0.270679  0.042552  0.531006  1
  O  O34  1  0.042757  0.031582  0.770780  1
  O  O35  1  0.239179  0.728304  0.270749  1
  O  O36  1  0.457243  0.228023  0.988825  1
  O  O37  1  0.260821  0.531570  0.489125  1
  O  O38  1  0.011546  0.739674  0.968994  1
  O  O39  1  0.229321  0.760326  0.771872  1
