# generated using pymatgen
data_Li2V(Si2O5)3
_symmetry_space_group_name_H-M   'P 1'
_cell_length_a   9.75245553
_cell_length_b   9.75245553
_cell_length_c   9.75245553
_cell_angle_alpha   131.77904936
_cell_angle_beta   118.29041485
_cell_angle_gamma   81.94053752
_symmetry_Int_Tables_number   1
_chemical_formula_structural   Li2V(Si2O5)3
_chemical_formula_sum   'Li4 V2 Si12 O30'
_cell_volume   586.90673992
_cell_formula_units_Z   2
loop_
 _symmetry_equiv_pos_site_id
 _symmetry_equiv_pos_as_xyz
  1  'x, y, z'
loop_
 _atom_site_type_symbol
 _atom_site_label
 _atom_site_symmetry_multiplicity
 _atom_site_fract_x
 _atom_site_fract_y
 _atom_site_fract_z
 _atom_site_occupancy
  Li  Li0  1  0.745392  0.245392  1.000000  1
  Li  Li1  1  0.745392  0.745392  0.500000  1
  Li  Li2  1  0.254608  0.754608  1.000000  1
  Li  Li3  1  0.254608  0.254608  0.500000  1
  V  V4  1  0.500000  0.500000  0.000000  1
  V  V5  1  0.000000  0.000000  0.000000  1
  Si  Si6  1  0.421641  0.148818  0.272824  1
  Si  Si7  1  0.624006  0.351182  0.272824  1
  Si  Si8  1  0.318325  0.041773  0.651332  1
  Si  Si9  1  0.318325  0.666993  0.276552  1
  Si  Si10  1  0.109559  0.833007  0.651332  1
  Si  Si11  1  0.109559  0.458227  0.276552  1
  Si  Si12  1  0.681675  0.958227  0.348668  1
  Si  Si13  1  0.681675  0.333007  0.723448  1
  Si  Si14  1  0.890441  0.166993  0.348668  1
  Si  Si15  1  0.890441  0.541773  0.723448  1
  Si  Si16  1  0.578359  0.851182  0.727176  1
  Si  Si17  1  0.375994  0.648818  0.727176  1
  O  O18  1  0.542634  0.750000  0.792634  1
  O  O19  1  0.402659  0.568483  0.834176  1
  O  O20  1  0.765693  0.931517  0.834176  1
  O  O21  1  0.273426  0.874682  0.398744  1
  O  O22  1  0.507454  0.299831  0.535979  1
  O  O23  1  0.507454  0.971475  0.207623  1
  O  O24  1  0.736148  0.200169  0.207623  1
  O  O25  1  0.736148  0.528525  0.535979  1
  O  O26  1  0.024062  0.625318  0.398744  1
  O  O27  1  0.983828  0.250211  0.090260  1
  O  O28  1  0.983828  0.893569  0.733617  1
  O  O29  1  0.340048  0.606431  0.090260  1
  O  O30  1  0.340048  0.249789  0.733617  1
  O  O31  1  0.178790  0.993531  0.672321  1
  O  O32  1  0.178790  0.506469  0.185259  1
  O  O33  1  0.821210  0.006469  0.327679  1
  O  O34  1  0.821210  0.493531  0.814741  1
  O  O35  1  0.016172  0.106431  0.266383  1
  O  O36  1  0.016172  0.749789  0.909740  1
  O  O37  1  0.659952  0.393569  0.909740  1
  O  O38  1  0.659952  0.750211  0.266383  1
  O  O39  1  0.726574  0.125318  0.601256  1
  O  O40  1  0.492546  0.700169  0.464021  1
  O  O41  1  0.492546  0.028525  0.792377  1
  O  O42  1  0.263852  0.471475  0.464021  1
  O  O43  1  0.263852  0.799831  0.792377  1
  O  O44  1  0.975938  0.374682  0.601256  1
  O  O45  1  0.597341  0.431517  0.165824  1
  O  O46  1  0.234307  0.068483  0.165824  1
  O  O47  1  0.457366  0.250000  0.207366  1
