# generated using pymatgen
data_Li3Co3NiO8
_symmetry_space_group_name_H-M   'P 1'
_cell_length_a   5.91435898
_cell_length_b   5.91435898
_cell_length_c   5.89830079
_cell_angle_alpha   58.48459063
_cell_angle_beta   121.51540937
_cell_angle_gamma   120.63448680
_symmetry_Int_Tables_number   1
_chemical_formula_structural   Li3Co3NiO8
_chemical_formula_sum   'Li3 Co3 Ni1 O8'
_cell_volume   141.79618254
_cell_formula_units_Z   1
loop_
 _symmetry_equiv_pos_site_id
 _symmetry_equiv_pos_as_xyz
  1  'x, y, z'
loop_
 _atom_site_type_symbol
 _atom_site_label
 _atom_site_symmetry_multiplicity
 _atom_site_fract_x
 _atom_site_fract_y
 _atom_site_fract_z
 _atom_site_occupancy
  Li  Li0  1  0.500000  0.000000  0.000000  1
  Li  Li1  1  0.500000  0.500000  0.500000  1
  Li  Li2  1  1.000000  0.500000  0.000000  1
  Co  Co3  1  0.500000  1.000000  0.500000  1
  Co  Co4  1  0.500000  0.500000  0.000000  1
  Co  Co5  1  1.000000  0.500000  0.500000  1
  Ni  Ni6  1  0.000000  0.000000  0.000000  1
  O  O7  1  0.257757  0.281740  0.763908  1
  O  O8  1  0.730126  0.269874  0.240627  1
  O  O9  1  0.718260  0.742243  0.763908  1
  O  O10  1  0.247716  0.752284  0.268031  1
  O  O11  1  0.752284  0.247716  0.731969  1
  O  O12  1  0.281740  0.257757  0.236092  1
  O  O13  1  0.269874  0.730126  0.759373  1
  O  O14  1  0.742243  0.718260  0.236092  1
