# generated using pymatgen
data_Li4Mn2Nb3Co3O16
_symmetry_space_group_name_H-M   'P 1'
_cell_length_a   5.97626774
_cell_length_b   5.97626774
_cell_length_c   9.84991454
_cell_angle_alpha   88.31668432
_cell_angle_beta   91.68331568
_cell_angle_gamma   119.52867398
_symmetry_Int_Tables_number   1
_chemical_formula_structural   Li4Mn2Nb3Co3O16
_chemical_formula_sum   'Li4 Mn2 Nb3 Co3 O16'
_cell_volume   305.92510259
_cell_formula_units_Z   1
loop_
 _symmetry_equiv_pos_site_id
 _symmetry_equiv_pos_as_xyz
  1  'x, y, z'
loop_
 _atom_site_type_symbol
 _atom_site_label
 _atom_site_symmetry_multiplicity
 _atom_site_fract_x
 _atom_site_fract_y
 _atom_site_fract_z
 _atom_site_occupancy
  Li  Li0  1  0.339430  0.660570  0.901976  1
  Li  Li1  1  0.981125  0.018875  0.001782  1
  Li  Li2  1  0.967243  0.032757  0.488575  1
  Li  Li3  1  0.671488  0.328512  0.379431  1
  Mn  Mn4  1  0.348543  0.651457  0.477537  1
  Mn  Mn5  1  0.669304  0.330696  0.009253  1
  Nb  Nb6  1  0.174711  0.825289  0.208665  1
  Nb  Nb7  1  0.837611  0.659585  0.712245  1
  Nb  Nb8  1  0.340415  0.162389  0.712245  1
  Co  Co9  1  0.667239  0.829359  0.219085  1
  Co  Co10  1  0.170641  0.332761  0.219085  1
  Co  Co11  1  0.827339  0.172661  0.712870  1
  O  O12  1  0.665970  0.831093  0.598409  1
  O  O13  1  0.490275  0.509725  0.322292  1
  O  O14  1  0.337812  0.662188  0.107396  1
  O  O15  1  0.002326  0.997674  0.312655  1
  O  O16  1  0.006075  0.993925  0.815654  1
  O  O17  1  0.168907  0.334030  0.598409  1
  O  O18  1  0.489397  0.948722  0.342743  1
  O  O19  1  0.051278  0.510603  0.342743  1
  O  O20  1  0.842274  0.157726  0.119151  1
  O  O21  1  0.154576  0.845424  0.598316  1
  O  O22  1  0.973668  0.496854  0.835583  1
  O  O23  1  0.503146  0.026332  0.835583  1
  O  O24  1  0.651837  0.348163  0.592773  1
  O  O25  1  0.843609  0.690357  0.108761  1
  O  O26  1  0.514797  0.485203  0.825708  1
  O  O27  1  0.309643  0.156391  0.108761  1
