# generated using pymatgen
data_Li3MnF6
_symmetry_space_group_name_H-M   'P 1'
_cell_length_a   4.86037468
_cell_length_b   8.47360369
_cell_length_c   8.76353148
_cell_angle_alpha   118.71406535
_cell_angle_beta   90.39732223
_cell_angle_gamma   90.32290602
_symmetry_Int_Tables_number   1
_chemical_formula_structural   Li3MnF6
_chemical_formula_sum   'Li9 Mn3 F18'
_cell_volume   316.51732373
_cell_formula_units_Z   3
loop_
 _symmetry_equiv_pos_site_id
 _symmetry_equiv_pos_as_xyz
  1  'x, y, z'
loop_
 _atom_site_type_symbol
 _atom_site_label
 _atom_site_symmetry_multiplicity
 _atom_site_fract_x
 _atom_site_fract_y
 _atom_site_fract_z
 _atom_site_occupancy
  Li  Li0  1  0.992871  0.013972  0.354576  1
  Li  Li1  1  0.499695  0.687378  0.998523  1
  Li  Li2  1  0.996451  0.987669  0.644549  1
  Li  Li3  1  0.491906  0.990873  0.700634  1
  Li  Li4  1  0.996148  0.647822  0.994772  1
  Li  Li5  1  0.009260  0.358498  0.005212  1
  Li  Li6  1  0.998269  0.660660  0.650963  1
  Li  Li7  1  0.007022  0.345277  0.352654  1
  Li  Li8  1  0.508913  0.283851  0.290889  1
  Mn  Mn9  1  0.490320  0.333407  0.665886  1
  Mn  Mn10  1  0.510116  0.665825  0.333437  1
  Mn  Mn11  1  0.000054  0.000758  0.000104  1
  F  F12  1  0.209423  0.785908  0.899564  1
  F  F13  1  0.717489  0.548936  0.777464  1
  F  F14  1  0.261760  0.435381  0.558303  1
  F  F15  1  0.249751  0.461858  0.895901  1
  F  F16  1  0.741778  0.231798  0.439015  1
  F  F17  1  0.216500  0.119636  0.235182  1
  F  F18  1  0.791547  0.885891  0.101698  1
  F  F19  1  0.713954  0.216800  0.760029  1
  F  F20  1  0.255582  0.121853  0.575323  1
  F  F21  1  0.206374  0.108661  0.890043  1
  F  F22  1  0.289169  0.768098  0.224588  1
  F  F23  1  0.739203  0.881251  0.445262  1
  F  F24  1  0.753601  0.565463  0.106084  1
  F  F25  1  0.257832  0.787527  0.560676  1
  F  F26  1  0.781296  0.887397  0.765979  1
  F  F27  1  0.279685  0.450971  0.239337  1
  F  F28  1  0.740684  0.548940  0.424627  1
  F  F29  1  0.793355  0.217711  0.108740  1
