# generated using pymatgen
data_LiFeSi3O8
_symmetry_space_group_name_H-M   'P 1'
_cell_length_a   7.43968486
_cell_length_b   13.04974899
_cell_length_c   8.02696157
_cell_angle_alpha   90.00000000
_cell_angle_beta   119.37613700
_cell_angle_gamma   90.00000000
_symmetry_Int_Tables_number   1
_chemical_formula_structural   LiFeSi3O8
_chemical_formula_sum   'Li4 Fe4 Si12 O32'
_cell_volume   679.10120834
_cell_formula_units_Z   4
loop_
 _symmetry_equiv_pos_site_id
 _symmetry_equiv_pos_as_xyz
  1  'x, y, z'
loop_
 _atom_site_type_symbol
 _atom_site_label
 _atom_site_symmetry_multiplicity
 _atom_site_fract_x
 _atom_site_fract_y
 _atom_site_fract_z
 _atom_site_occupancy
  Li  Li0  1  0.849682  0.052330  0.735109  1
  Li  Li1  1  0.150318  0.552330  0.764891  1
  Li  Li2  1  0.849682  0.447670  0.235109  1
  Li  Li3  1  0.150318  0.947670  0.264891  1
  Fe  Fe4  1  0.821630  0.174152  0.023971  1
  Fe  Fe5  1  0.821630  0.325848  0.523971  1
  Fe  Fe6  1  0.178370  0.674152  0.476029  1
  Fe  Fe7  1  0.178370  0.825848  0.976029  1
  Si  Si8  1  0.743572  0.838376  0.987638  1
  Si  Si9  1  0.298051  0.896334  0.652500  1
  Si  Si10  1  0.357213  0.119560  0.675460  1
  Si  Si11  1  0.743572  0.661624  0.487638  1
  Si  Si12  1  0.701949  0.396334  0.847500  1
  Si  Si13  1  0.642787  0.619560  0.824540  1
  Si  Si14  1  0.357213  0.380440  0.175460  1
  Si  Si15  1  0.298051  0.603666  0.152500  1
  Si  Si16  1  0.256428  0.338376  0.512362  1
  Si  Si17  1  0.701949  0.103666  0.347500  1
  Si  Si18  1  0.642787  0.880440  0.324540  1
  Si  Si19  1  0.256428  0.161624  0.012362  1
  O  O20  1  0.830114  0.389323  0.734053  1
  O  O21  1  0.739264  0.625701  0.680680  1
  O  O22  1  0.260736  0.125701  0.819320  1
  O  O23  1  0.169886  0.889323  0.765947  1
  O  O24  1  0.735200  0.712832  0.978830  1
  O  O25  1  0.786873  0.317918  0.028576  1
  O  O26  1  0.043550  0.118084  0.995624  1
  O  O27  1  0.956450  0.881916  0.004376  1
  O  O28  1  0.546303  0.884366  0.796855  1
  O  O29  1  0.607601  0.119332  0.791837  1
  O  O30  1  0.729482  0.511585  0.949146  1
  O  O31  1  0.270518  0.011585  0.550854  1
  O  O32  1  0.786873  0.182082  0.528576  1
  O  O33  1  0.735200  0.787168  0.478830  1
  O  O34  1  0.392399  0.619332  0.708163  1
  O  O35  1  0.453697  0.384366  0.703145  1
  O  O36  1  0.956450  0.618084  0.504376  1
  O  O37  1  0.043550  0.381916  0.495624  1
  O  O38  1  0.607601  0.380668  0.291837  1
  O  O39  1  0.546303  0.615634  0.296855  1
  O  O40  1  0.264800  0.212832  0.521170  1
  O  O41  1  0.213127  0.817918  0.471424  1
  O  O42  1  0.729482  0.988415  0.449146  1
  O  O43  1  0.270518  0.488415  0.050854  1
  O  O44  1  0.453697  0.115634  0.203145  1
  O  O45  1  0.392399  0.880668  0.208163  1
  O  O46  1  0.264800  0.287168  0.021170  1
  O  O47  1  0.213127  0.682082  0.971424  1
  O  O48  1  0.830114  0.110677  0.234053  1
  O  O49  1  0.739264  0.874299  0.180680  1
  O  O50  1  0.260736  0.374299  0.319320  1
  O  O51  1  0.169886  0.610677  0.265947  1
