# generated using pymatgen
data_NaYH8(CO3)4
_symmetry_space_group_name_H-M   'P 1'
_cell_length_a   8.78721164
_cell_length_b   8.65442459
_cell_length_c   15.03030095
_cell_angle_alpha   90.00000000
_cell_angle_beta   103.27459648
_cell_angle_gamma   90.00000000
_symmetry_Int_Tables_number   1
_chemical_formula_structural   NaYH8(CO3)4
_chemical_formula_sum   'Na4 Y4 H32 C16 O48'
_cell_volume   1112.48741346
_cell_formula_units_Z   4
loop_
 _symmetry_equiv_pos_site_id
 _symmetry_equiv_pos_as_xyz
  1  'x, y, z'
loop_
 _atom_site_type_symbol
 _atom_site_label
 _atom_site_symmetry_multiplicity
 _atom_site_fract_x
 _atom_site_fract_y
 _atom_site_fract_z
 _atom_site_occupancy
  Na  Na0  1  0.992549  0.678342  0.522040  1
  Na  Na1  1  0.992549  0.321658  0.022040  1
  Na  Na2  1  0.314802  0.379893  0.517377  1
  Na  Na3  1  0.314802  0.620107  0.017377  1
  Y  Y4  1  0.662508  0.405727  0.734171  1
  Y  Y5  1  0.662508  0.594273  0.234171  1
  Y  Y6  1  0.194656  0.905272  0.804420  1
  Y  Y7  1  0.194656  0.094728  0.304420  1
  H  H8  1  0.355075  0.039075  0.510163  1
  H  H9  1  0.355075  0.960925  0.010163  1
  H  H10  1  0.171362  0.052408  0.501634  1
  H  H11  1  0.171362  0.947592  0.001634  1
  H  H12  1  0.642665  0.321575  0.531363  1
  H  H13  1  0.642665  0.678425  0.031363  1
  H  H14  1  0.634557  0.506020  0.537020  1
  H  H15  1  0.634557  0.493980  0.037020  1
  H  H16  1  0.236010  0.716578  0.441632  1
  H  H17  1  0.236010  0.283422  0.941632  1
  H  H18  1  0.347019  0.709297  0.539552  1
  H  H19  1  0.347019  0.290703  0.039552  1
  H  H20  1  0.893849  0.026422  0.491699  1
  H  H21  1  0.893849  0.973578  0.991699  1
  H  H22  1  0.970624  0.979305  0.591375  1
  H  H23  1  0.970624  0.020695  0.091375  1
  H  H24  1  0.663518  0.774659  0.545247  1
  H  H25  1  0.663518  0.225341  0.045247  1
  H  H26  1  0.671053  0.727225  0.447159  1
  H  H27  1  0.671053  0.272775  0.947159  1
  H  H28  1  0.991468  0.317332  0.497259  1
  H  H29  1  0.991468  0.682668  0.997259  1
  H  H30  1  0.027614  0.378222  0.597986  1
  H  H31  1  0.027614  0.621778  0.097986  1
  H  H32  1  0.509975  0.903766  0.631607  1
  H  H33  1  0.509975  0.096234  0.131607  1
  H  H34  1  0.625166  0.027061  0.606729  1
  H  H35  1  0.625166  0.972939  0.106729  1
  H  H36  1  0.724005  0.232801  0.407886  1
  H  H37  1  0.724005  0.767199  0.907886  1
  H  H38  1  0.617226  0.095394  0.427145  1
  H  H39  1  0.617226  0.904606  0.927145  1
  C  C40  1  0.367822  0.179383  0.722954  1
  C  C41  1  0.367822  0.820617  0.222954  1
  C  C42  1  0.484777  0.130612  0.812541  1
  C  C43  1  0.484777  0.869388  0.312541  1
  C  C44  1  0.956064  0.625611  0.724964  1
  C  C45  1  0.956064  0.374389  0.224964  1
  C  C46  1  0.908857  0.680472  0.812905  1
  C  C47  1  0.908857  0.319528  0.312905  1
  C  C48  1  0.885668  0.113753  0.727631  1
  C  C49  1  0.885668  0.886247  0.227631  1
  C  C50  1  0.971472  0.199257  0.815655  1
  C  C51  1  0.971472  0.800743  0.315655  1
  C  C52  1  0.433286  0.692279  0.725845  1
  C  C53  1  0.433286  0.307721  0.225845  1
  C  C54  1  0.418905  0.608896  0.814752  1
  C  C55  1  0.418905  0.391104  0.314752  1
  O  O56  1  0.259655  0.093958  0.477728  1
  O  O57  1  0.259655  0.906042  0.977728  1
  O  O58  1  0.600268  0.407892  0.561697  1
  O  O59  1  0.600268  0.592108  0.061697  1
  O  O60  1  0.262679  0.654514  0.497997  1
  O  O61  1  0.262679  0.345486  0.997997  1
  O  O62  1  0.984177  0.969324  0.528065  1
  O  O63  1  0.984177  0.030676  0.028065  1
  O  O64  1  0.706294  0.693410  0.511479  1
  O  O65  1  0.706294  0.306590  0.011479  1
  O  O66  1  0.051041  0.394954  0.538302  1
  O  O67  1  0.051041  0.605046  0.038302  1
  O  O68  1  0.551372  0.943640  0.580546  1
  O  O69  1  0.551372  0.056360  0.080546  1
  O  O70  1  0.704784  0.163447  0.456533  1
  O  O71  1  0.704784  0.836553  0.956533  1
  O  O72  1  0.415115  0.282736  0.675328  1
  O  O73  1  0.415115  0.717264  0.175328  1
  O  O74  1  0.237429  0.112593  0.704548  1
  O  O75  1  0.237429  0.887407  0.204548  1
  O  O76  1  0.615437  0.199130  0.832074  1
  O  O77  1  0.615437  0.800870  0.332074  1
  O  O78  1  0.443165  0.975593  0.360088  1
  O  O79  1  0.443165  0.024407  0.860088  1
  O  O80  1  0.065390  0.697997  0.701199  1
  O  O81  1  0.065390  0.302003  0.201199  1
  O  O82  1  0.880703  0.512291  0.682855  1
  O  O83  1  0.880703  0.487709  0.182855  1
  O  O84  1  0.997060  0.776869  0.863356  1
  O  O85  1  0.997060  0.223131  0.363356  1
  O  O86  1  0.783865  0.625213  0.828891  1
  O  O87  1  0.783865  0.374787  0.328891  1
  O  O88  1  0.760468  0.173143  0.680926  1
  O  O89  1  0.760468  0.826857  0.180926  1
  O  O90  1  0.947043  0.989950  0.708186  1
  O  O91  1  0.947043  0.010050  0.208186  1
  O  O92  1  0.906451  0.317297  0.839950  1
  O  O93  1  0.906451  0.682703  0.339950  1
  O  O94  1  0.102005  0.143144  0.856966  1
  O  O95  1  0.102005  0.856856  0.356966  1
  O  O96  1  0.366019  0.821532  0.707769  1
  O  O97  1  0.366019  0.178468  0.207769  1
  O  O98  1  0.514119  0.627273  0.676603  1
  O  O99  1  0.514119  0.372727  0.176603  1
  O  O100  1  0.332900  0.673087  0.861386  1
  O  O101  1  0.332900  0.326913  0.361386  1
  O  O102  1  0.495712  0.485775  0.833997  1
  O  O103  1  0.495712  0.514225  0.333997  1
