# generated using pymatgen
data_Li5V2Fe5O12
_symmetry_space_group_name_H-M   'P 1'
_cell_length_a   5.21045737
_cell_length_b   5.21045737
_cell_length_c   10.00733545
_cell_angle_alpha   84.87768880
_cell_angle_beta   95.12231120
_cell_angle_gamma   59.34487096
_symmetry_Int_Tables_number   1
_chemical_formula_structural   Li5V2Fe5O12
_chemical_formula_sum   'Li5 V2 Fe5 O12'
_cell_volume   229.88737975
_cell_formula_units_Z   1
loop_
 _symmetry_equiv_pos_site_id
 _symmetry_equiv_pos_as_xyz
  1  'x, y, z'
loop_
 _atom_site_type_symbol
 _atom_site_label
 _atom_site_symmetry_multiplicity
 _atom_site_fract_x
 _atom_site_fract_y
 _atom_site_fract_z
 _atom_site_occupancy
  Li  Li0  1  0.330675  0.834308  0.753154  1
  Li  Li1  1  0.161334  0.677875  0.245798  1
  Li  Li2  1  0.834308  0.330675  0.246846  1
  Li  Li3  1  0.677875  0.161334  0.754202  1
  Li  Li4  1  0.075830  0.075830  0.000000  1
  V  V5  1  0.750046  0.750046  0.000000  1
  V  V6  1  0.247381  0.247381  0.500000  1
  Fe  Fe7  1  0.920463  0.920463  0.500000  1
  Fe  Fe8  1  0.488395  0.003528  0.246103  1
  Fe  Fe9  1  0.003528  0.488395  0.753897  1
  Fe  Fe10  1  0.582186  0.582186  0.500000  1
  Fe  Fe11  1  0.421353  0.421353  0.000000  1
  O  O12  1  0.772652  0.041122  0.113745  1
  O  O13  1  0.041122  0.772652  0.886255  1
  O  O14  1  0.625390  0.889561  0.614505  1
  O  O15  1  0.889561  0.625390  0.385495  1
  O  O16  1  0.479960  0.700228  0.117558  1
  O  O17  1  0.700228  0.479960  0.882442  1
  O  O18  1  0.277520  0.538460  0.620621  1
  O  O19  1  0.538460  0.277520  0.379379  1
  O  O20  1  0.104497  0.412232  0.110565  1
  O  O21  1  0.412232  0.104497  0.889435  1
  O  O22  1  0.974795  0.190212  0.621055  1
  O  O23  1  0.190212  0.974795  0.378945  1
