# generated using pymatgen
data_Li3Ti(NiO3)2
_symmetry_space_group_name_H-M   'P 1'
_cell_length_a   6.62622532
_cell_length_b   6.62622532
_cell_length_c   5.87223710
_cell_angle_alpha   77.17502102
_cell_angle_beta   102.82497898
_cell_angle_gamma   154.57768202
_symmetry_Int_Tables_number   1
_chemical_formula_structural   Li3Ti(NiO3)2
_chemical_formula_sum   'Li3 Ti1 Ni2 O6'
_cell_volume   107.78006022
_cell_formula_units_Z   1
loop_
 _symmetry_equiv_pos_site_id
 _symmetry_equiv_pos_as_xyz
  1  'x, y, z'
loop_
 _atom_site_type_symbol
 _atom_site_label
 _atom_site_symmetry_multiplicity
 _atom_site_fract_x
 _atom_site_fract_y
 _atom_site_fract_z
 _atom_site_occupancy
  Li  Li0  1  0.000000  0.000000  0.000000  1
  Li  Li1  1  0.327266  0.672734  0.671298  1
  Li  Li2  1  0.672734  0.327266  0.328702  1
  Ti  Ti3  1  0.000000  0.000000  0.500000  1
  Ni  Ni4  1  0.331630  0.668370  0.161889  1
  Ni  Ni5  1  0.668370  0.331630  0.838111  1
  O  O6  1  0.843432  0.156568  0.410574  1
  O  O7  1  0.167972  0.832028  0.067572  1
  O  O8  1  0.156568  0.843432  0.589426  1
  O  O9  1  0.497208  0.502792  0.725746  1
  O  O10  1  0.502792  0.497208  0.274254  1
  O  O11  1  0.832028  0.167972  0.932428  1
