# generated using pymatgen
data_Li4V(PO3)6
_symmetry_space_group_name_H-M   'P 1'
_cell_length_a   7.35708684
_cell_length_b   7.35708684
_cell_length_c   13.99525050
_cell_angle_alpha   86.65661435
_cell_angle_beta   93.34338565
_cell_angle_gamma   115.82050572
_symmetry_Int_Tables_number   1
_chemical_formula_structural   Li4V(PO3)6
_chemical_formula_sum   'Li8 V2 P12 O36'
_cell_volume   680.27132584
_cell_formula_units_Z   2
loop_
 _symmetry_equiv_pos_site_id
 _symmetry_equiv_pos_as_xyz
  1  'x, y, z'
loop_
 _atom_site_type_symbol
 _atom_site_label
 _atom_site_symmetry_multiplicity
 _atom_site_fract_x
 _atom_site_fract_y
 _atom_site_fract_z
 _atom_site_occupancy
  Li  Li0  1  0.960262  0.300249  0.075137  1
  Li  Li1  1  0.699751  0.039738  0.575137  1
  Li  Li2  1  0.782668  0.440085  0.452636  1
  Li  Li3  1  0.559915  0.217332  0.952636  1
  Li  Li4  1  0.440085  0.782668  0.047364  1
  Li  Li5  1  0.217332  0.559915  0.547364  1
  Li  Li6  1  0.300249  0.960262  0.424863  1
  Li  Li7  1  0.039738  0.699751  0.924863  1
  V  V8  1  0.372232  0.372232  0.250000  1
  V  V9  1  0.627768  0.627768  0.750000  1
  P  P10  1  0.963567  0.147027  0.386436  1
  P  P11  1  0.852973  0.036433  0.886436  1
  P  P12  1  0.630601  0.092601  0.248843  1
  P  P13  1  0.907399  0.369399  0.748843  1
  P  P14  1  0.769693  0.600187  0.110215  1
  P  P15  1  0.399813  0.230307  0.610215  1
  P  P16  1  0.600187  0.769693  0.389785  1
  P  P17  1  0.230307  0.399813  0.889785  1
  P  P18  1  0.092601  0.630601  0.251157  1
  P  P19  1  0.369399  0.907399  0.751157  1
  P  P20  1  0.147027  0.963567  0.113564  1
  P  P21  1  0.036433  0.852973  0.613564  1
  O  O22  1  0.865748  0.184506  0.285670  1
  O  O23  1  0.913305  0.245941  0.465155  1
  O  O24  1  0.815494  0.134252  0.785670  1
  O  O25  1  0.754059  0.086695  0.965155  1
  O  O26  1  0.630085  0.098350  0.142567  1
  O  O27  1  0.901650  0.369915  0.642567  1
  O  O28  1  0.812520  0.495642  0.031240  1
  O  O29  1  0.523572  0.188143  0.301958  1
  O  O30  1  0.859563  0.551500  0.211678  1
  O  O31  1  0.504358  0.187480  0.531240  1
  O  O32  1  0.811857  0.476428  0.801958  1
  O  O33  1  0.448500  0.140437  0.711678  1
  O  O34  1  0.903324  0.842737  0.098076  1
  O  O35  1  0.189040  0.177879  0.131459  1
  O  O36  1  0.557752  0.568523  0.127431  1
  O  O37  1  0.157263  0.096676  0.598076  1
  O  O38  1  0.568523  0.557752  0.372569  1
  O  O39  1  0.822121  0.810960  0.631459  1
  O  O40  1  0.177879  0.189040  0.368541  1
  O  O41  1  0.431477  0.442248  0.627431  1
  O  O42  1  0.842737  0.903324  0.401924  1
  O  O43  1  0.442248  0.431477  0.872569  1
  O  O44  1  0.810960  0.822121  0.868541  1
  O  O45  1  0.096676  0.157263  0.901924  1
  O  O46  1  0.551500  0.859563  0.288322  1
  O  O47  1  0.188143  0.523572  0.198042  1
  O  O48  1  0.495642  0.812520  0.468760  1
  O  O49  1  0.140437  0.448500  0.788322  1
  O  O50  1  0.476428  0.811857  0.698042  1
  O  O51  1  0.187480  0.504358  0.968760  1
  O  O52  1  0.098350  0.630085  0.357433  1
  O  O53  1  0.369915  0.901650  0.857433  1
  O  O54  1  0.245941  0.913305  0.034845  1
  O  O55  1  0.184506  0.865748  0.214330  1
  O  O56  1  0.086695  0.754059  0.534845  1
  O  O57  1  0.134252  0.815494  0.714330  1
