# generated using pymatgen
data_Co5O8
_symmetry_space_group_name_H-M   'P 1'
_cell_length_a   5.71419144
_cell_length_b   5.71419144
_cell_length_c   5.71419144
_cell_angle_alpha   60.00000000
_cell_angle_beta   60.00000000
_cell_angle_gamma   60.00000000
_symmetry_Int_Tables_number   1
_chemical_formula_structural   Co5O8
_chemical_formula_sum   'Co5 O8'
_cell_volume   131.93176161
_cell_formula_units_Z   1
loop_
 _symmetry_equiv_pos_site_id
 _symmetry_equiv_pos_as_xyz
  1  'x, y, z'
loop_
 _atom_site_type_symbol
 _atom_site_label
 _atom_site_symmetry_multiplicity
 _atom_site_fract_x
 _atom_site_fract_y
 _atom_site_fract_z
 _atom_site_occupancy
  Co  Co0  1  0.872984  0.381049  0.872984  1
  Co  Co1  1  0.872984  0.872984  0.872984  1
  Co  Co2  1  0.250000  0.250000  0.250000  1
  Co  Co3  1  0.381049  0.872984  0.872984  1
  Co  Co4  1  0.872984  0.872984  0.381049  1
  O  O5  1  0.112507  0.662479  0.112507  1
  O  O6  1  0.112507  0.112507  0.112507  1
  O  O7  1  0.112507  0.112507  0.662479  1
  O  O8  1  0.662479  0.112507  0.112507  1
  O  O9  1  0.072645  0.642452  0.642452  1
  O  O10  1  0.642452  0.642452  0.072645  1
  O  O11  1  0.642452  0.642452  0.642452  1
  O  O12  1  0.642452  0.072645  0.642452  1
