# generated using pymatgen
data_LiH2ClO
_symmetry_space_group_name_H-M   'P 1'
_cell_length_a   5.48661344
_cell_length_b   5.48661344
_cell_length_c   7.70825872
_cell_angle_alpha   90.00000000
_cell_angle_beta   90.00000000
_cell_angle_gamma   91.31480225
_symmetry_Int_Tables_number   1
_chemical_formula_structural   LiH2ClO
_chemical_formula_sum   'Li4 H8 Cl4 O4'
_cell_volume   231.98005696
_cell_formula_units_Z   4
loop_
 _symmetry_equiv_pos_site_id
 _symmetry_equiv_pos_as_xyz
  1  'x, y, z'
loop_
 _atom_site_type_symbol
 _atom_site_label
 _atom_site_symmetry_multiplicity
 _atom_site_fract_x
 _atom_site_fract_y
 _atom_site_fract_z
 _atom_site_occupancy
  Li  Li0  1  0.500000  0.500000  0.000000  1
  Li  Li1  1  0.500000  0.500000  0.500000  1
  Li  Li2  1  0.820269  0.179731  0.750000  1
  Li  Li3  1  0.179731  0.820269  0.250000  1
  H  H4  1  0.710819  0.087804  0.069736  1
  H  H5  1  0.710819  0.087804  0.430264  1
  H  H6  1  0.087804  0.710819  0.569736  1
  H  H7  1  0.087804  0.710819  0.930264  1
  H  H8  1  0.912196  0.289181  0.069736  1
  H  H9  1  0.289181  0.912196  0.569736  1
  H  H10  1  0.912196  0.289181  0.430264  1
  H  H11  1  0.289181  0.912196  0.930264  1
  Cl  Cl12  1  0.226607  0.285914  0.250000  1
  Cl  Cl13  1  0.285914  0.226607  0.750000  1
  Cl  Cl14  1  0.773393  0.714086  0.750000  1
  Cl  Cl15  1  0.714086  0.773393  0.250000  1
  O  O16  1  0.239007  0.760993  0.506317  1
  O  O17  1  0.760993  0.239007  0.006317  1
  O  O18  1  0.760993  0.239007  0.493683  1
  O  O19  1  0.239007  0.760993  0.993683  1
