# generated using pymatgen
data_LiMnF3
_symmetry_space_group_name_H-M   'P 1'
_cell_length_a   5.93846366
_cell_length_b   5.93846366
_cell_length_c   11.67697038
_cell_angle_alpha   90.00000000
_cell_angle_beta   90.00000000
_cell_angle_gamma   120.00000000
_symmetry_Int_Tables_number   1
_chemical_formula_structural   LiMnF3
_chemical_formula_sum   'Li6 Mn6 F18'
_cell_volume   356.62272656
_cell_formula_units_Z   6
loop_
 _symmetry_equiv_pos_site_id
 _symmetry_equiv_pos_as_xyz
  1  'x, y, z'
loop_
 _atom_site_type_symbol
 _atom_site_label
 _atom_site_symmetry_multiplicity
 _atom_site_fract_x
 _atom_site_fract_y
 _atom_site_fract_z
 _atom_site_occupancy
  Li  Li0  1  0.342018  0.008195  0.746714  1
  Li  Li1  1  0.991805  0.333823  0.746714  1
  Li  Li2  1  0.665628  0.003529  0.244920  1
  Li  Li3  1  0.996471  0.662099  0.244920  1
  Li  Li4  1  0.666177  0.657982  0.746714  1
  Li  Li5  1  0.337901  0.334372  0.244920  1
  Mn  Mn6  1  0.000000  0.000000  0.027875  1
  Mn  Mn7  1  0.000000  0.000000  0.529163  1
  Mn  Mn8  1  0.666667  0.333333  0.494057  1
  Mn  Mn9  1  0.333333  0.666667  0.963100  1
  Mn  Mn10  1  0.333333  0.666667  0.462189  1
  Mn  Mn11  1  0.666667  0.333333  0.999800  1
  F  F12  1  0.310219  0.286680  0.417728  1
  F  F13  1  0.352567  0.374663  0.073049  1
  F  F14  1  0.314859  0.023757  0.919524  1
  F  F15  1  0.354499  0.977724  0.571946  1
  F  F16  1  0.976243  0.291101  0.919524  1
  F  F17  1  0.022276  0.376775  0.571946  1
  F  F18  1  0.000000  0.000000  0.712082  1
  F  F19  1  0.000000  0.000000  0.211202  1
  F  F20  1  0.666667  0.333333  0.242334  1
  F  F21  1  0.666667  0.333333  0.744796  1
  F  F22  1  0.976460  0.689781  0.417728  1
  F  F23  1  0.713320  0.023540  0.417728  1
  F  F24  1  0.022097  0.647433  0.073049  1
  F  F25  1  0.625337  0.977903  0.073049  1
  F  F26  1  0.708899  0.685141  0.919524  1
  F  F27  1  0.623225  0.645501  0.571946  1
  F  F28  1  0.333333  0.666667  0.780215  1
  F  F29  1  0.333333  0.666667  0.279151  1
