# generated using pymatgen
data_Li3Al2FeO6
_symmetry_space_group_name_H-M   'P 1'
_cell_length_a   5.34768949
_cell_length_b   5.85778866
_cell_length_c   7.82028685
_cell_angle_alpha   90.78144526
_cell_angle_beta   98.55856037
_cell_angle_gamma   90.23326056
_symmetry_Int_Tables_number   1
_chemical_formula_structural   Li3Al2FeO6
_chemical_formula_sum   'Li6 Al4 Fe2 O12'
_cell_volume   242.22032929
_cell_formula_units_Z   2
loop_
 _symmetry_equiv_pos_site_id
 _symmetry_equiv_pos_as_xyz
  1  'x, y, z'
loop_
 _atom_site_type_symbol
 _atom_site_label
 _atom_site_symmetry_multiplicity
 _atom_site_fract_x
 _atom_site_fract_y
 _atom_site_fract_z
 _atom_site_occupancy
  Li  Li0  1  0.176298  0.843072  0.094393  1
  Li  Li1  1  0.347177  0.663523  0.419686  1
  Li  Li2  1  0.502228  0.834588  0.744249  1
  Li  Li3  1  0.497772  0.165412  0.255751  1
  Li  Li4  1  0.652823  0.336477  0.580314  1
  Li  Li5  1  0.823702  0.156928  0.905607  1
  Al  Al6  1  0.175253  0.167741  0.589164  1
  Al  Al7  1  0.658024  0.672100  0.077939  1
  Al  Al8  1  0.341976  0.327900  0.922061  1
  Al  Al9  1  0.824747  0.832259  0.410836  1
  Fe  Fe10  1  0.994686  0.669435  0.753498  1
  Fe  Fe11  1  0.005314  0.330565  0.246502  1
  O  O12  1  0.976570  0.665230  0.253847  1
  O  O13  1  0.173046  0.187536  0.074598  1
  O  O14  1  0.145169  0.853539  0.581225  1
  O  O15  1  0.308193  0.321712  0.425907  1
  O  O16  1  0.532384  0.827850  0.245221  1
  O  O17  1  0.340622  0.641862  0.920891  1
  O  O18  1  0.659378  0.358138  0.079109  1
  O  O19  1  0.467616  0.172150  0.754779  1
  O  O20  1  0.691807  0.678288  0.574093  1
  O  O21  1  0.854831  0.146461  0.418775  1
  O  O22  1  0.826954  0.812464  0.925402  1
  O  O23  1  0.023430  0.334770  0.746153  1
