# generated using pymatgen
data_Li4Ti2Nb3Co3O16
_symmetry_space_group_name_H-M   'P 1'
_cell_length_a   6.02069280
_cell_length_b   6.02069280
_cell_length_c   9.85171236
_cell_angle_alpha   89.56727251
_cell_angle_beta   90.43272749
_cell_angle_gamma   119.19092959
_symmetry_Int_Tables_number   1
_chemical_formula_structural   Li4Ti2Nb3Co3O16
_chemical_formula_sum   'Li4 Ti2 Nb3 Co3 O16'
_cell_volume   311.74672768
_cell_formula_units_Z   1
loop_
 _symmetry_equiv_pos_site_id
 _symmetry_equiv_pos_as_xyz
  1  'x, y, z'
loop_
 _atom_site_type_symbol
 _atom_site_label
 _atom_site_symmetry_multiplicity
 _atom_site_fract_x
 _atom_site_fract_y
 _atom_site_fract_z
 _atom_site_occupancy
  Li  Li0  1  0.333484  0.666516  0.903364  1
  Li  Li1  1  0.996623  0.003377  0.998752  1
  Li  Li2  1  0.979703  0.020297  0.485386  1
  Li  Li3  1  0.669125  0.330875  0.390941  1
  Ti  Ti4  1  0.362925  0.637075  0.484596  1
  Ti  Ti5  1  0.673026  0.326974  0.010908  1
  Nb  Nb6  1  0.179366  0.820634  0.228858  1
  Nb  Nb7  1  0.841784  0.651803  0.715676  1
  Nb  Nb8  1  0.348197  0.158216  0.715676  1
  Co  Co9  1  0.658034  0.826245  0.208586  1
  Co  Co10  1  0.173755  0.341966  0.208586  1
  Co  Co11  1  0.812220  0.187780  0.711408  1
  O  O12  1  0.661025  0.819841  0.593065  1
  O  O13  1  0.482253  0.517747  0.350094  1
  O  O14  1  0.325037  0.674963  0.099659  1
  O  O15  1  0.002777  0.997223  0.300233  1
  O  O16  1  0.001591  0.998409  0.807172  1
  O  O17  1  0.180159  0.338975  0.593065  1
  O  O18  1  0.471023  0.963422  0.350871  1
  O  O19  1  0.036578  0.528977  0.350871  1
  O  O20  1  0.829677  0.170323  0.092908  1
  O  O21  1  0.164440  0.835560  0.600708  1
  O  O22  1  0.962184  0.497581  0.850000  1
  O  O23  1  0.502419  0.037816  0.850000  1
  O  O24  1  0.650972  0.349028  0.589509  1
  O  O25  1  0.836473  0.651649  0.094223  1
  O  O26  1  0.515262  0.484738  0.828562  1
  O  O27  1  0.348351  0.163527  0.094223  1
