# generated using pymatgen
data_Mn3CrO8
_symmetry_space_group_name_H-M   'P 1'
_cell_length_a   8.25126657
_cell_length_b   8.25126657
_cell_length_c   8.25126657
_cell_angle_alpha   90.00000000
_cell_angle_beta   90.00000000
_cell_angle_gamma   90.00000000
_symmetry_Int_Tables_number   1
_chemical_formula_structural   Mn3CrO8
_chemical_formula_sum   'Mn12 Cr4 O32'
_cell_volume   561.77428248
_cell_formula_units_Z   4
loop_
 _symmetry_equiv_pos_site_id
 _symmetry_equiv_pos_as_xyz
  1  'x, y, z'
loop_
 _atom_site_type_symbol
 _atom_site_label
 _atom_site_symmetry_multiplicity
 _atom_site_fract_x
 _atom_site_fract_y
 _atom_site_fract_z
 _atom_site_occupancy
  Mn  Mn0  1  0.624026  0.625974  0.125000  1
  Mn  Mn1  1  0.625000  0.875974  0.374026  1
  Mn  Mn2  1  0.625974  0.125000  0.624026  1
  Mn  Mn3  1  0.874026  0.875000  0.124026  1
  Mn  Mn4  1  0.875000  0.124026  0.874026  1
  Mn  Mn5  1  0.875974  0.374026  0.625000  1
  Mn  Mn6  1  0.124026  0.874026  0.875000  1
  Mn  Mn7  1  0.125000  0.624026  0.625974  1
  Mn  Mn8  1  0.125974  0.375000  0.375974  1
  Mn  Mn9  1  0.374026  0.625000  0.875974  1
  Mn  Mn10  1  0.375000  0.375974  0.125974  1
  Mn  Mn11  1  0.375974  0.125974  0.375000  1
  Cr  Cr12  1  0.625000  0.375000  0.875000  1
  Cr  Cr13  1  0.875000  0.625000  0.375000  1
  Cr  Cr14  1  0.125000  0.125000  0.125000  1
  Cr  Cr15  1  0.375000  0.875000  0.625000  1
  O  O16  1  0.608000  0.610502  0.891219  1
  O  O17  1  0.608781  0.392000  0.110502  1
  O  O18  1  0.610901  0.110901  0.389099  1
  O  O19  1  0.639498  0.642000  0.358781  1
  O  O20  1  0.610502  0.891219  0.608000  1
  O  O21  1  0.639099  0.860901  0.139099  1
  O  O22  1  0.641219  0.139498  0.858000  1
  O  O23  1  0.642000  0.358781  0.639498  1
  O  O24  1  0.858000  0.641219  0.139498  1
  O  O25  1  0.858781  0.860502  0.358000  1
  O  O26  1  0.860901  0.139099  0.639099  1
  O  O27  1  0.889498  0.108781  0.108000  1
  O  O28  1  0.860502  0.358000  0.858781  1
  O  O29  1  0.889099  0.889099  0.889099  1
  O  O30  1  0.891219  0.608000  0.610502  1
  O  O31  1  0.892000  0.389498  0.391219  1
  O  O32  1  0.108000  0.889498  0.108781  1
  O  O33  1  0.108781  0.108000  0.889498  1
  O  O34  1  0.110901  0.389099  0.610901  1
  O  O35  1  0.139498  0.858000  0.641219  1
  O  O36  1  0.110502  0.608781  0.392000  1
  O  O37  1  0.139099  0.639099  0.860901  1
  O  O38  1  0.141219  0.360502  0.142000  1
  O  O39  1  0.142000  0.141219  0.360502  1
  O  O40  1  0.358000  0.858781  0.860502  1
  O  O41  1  0.358781  0.639498  0.642000  1
  O  O42  1  0.360901  0.360901  0.360901  1
  O  O43  1  0.389498  0.391219  0.892000  1
  O  O44  1  0.360502  0.142000  0.141219  1
  O  O45  1  0.389099  0.610901  0.110901  1
  O  O46  1  0.391219  0.892000  0.389498  1
  O  O47  1  0.392000  0.110502  0.608781  1
