# generated using pymatgen
data_Cu3OF5
_symmetry_space_group_name_H-M   'P 1'
_cell_length_a   5.88329365
_cell_length_b   4.61220655
_cell_length_c   7.62943719
_cell_angle_alpha   90.00000000
_cell_angle_beta   91.14414321
_cell_angle_gamma   90.00000000
_symmetry_Int_Tables_number   1
_chemical_formula_structural   Cu3OF5
_chemical_formula_sum   'Cu6 O2 F10'
_cell_volume   206.98323947
_cell_formula_units_Z   2
loop_
 _symmetry_equiv_pos_site_id
 _symmetry_equiv_pos_as_xyz
  1  'x, y, z'
loop_
 _atom_site_type_symbol
 _atom_site_label
 _atom_site_symmetry_multiplicity
 _atom_site_fract_x
 _atom_site_fract_y
 _atom_site_fract_z
 _atom_site_occupancy
  Cu  Cu0  1  0.442524  0.972963  0.325091  1
  Cu  Cu1  1  0.905204  0.523647  0.333815  1
  Cu  Cu2  1  0.094796  0.023647  0.666185  1
  Cu  Cu3  1  0.245007  0.487322  0.989448  1
  Cu  Cu4  1  0.557476  0.472963  0.674909  1
  Cu  Cu5  1  0.754993  0.987322  0.010552  1
  O  O6  1  0.277132  0.311865  0.774191  1
  O  O7  1  0.722868  0.811865  0.225809  1
  F  F8  1  0.392821  0.797732  0.556930  1
  F  F9  1  0.108972  0.215738  0.435460  1
  F  F10  1  0.891028  0.715738  0.564540  1
  F  F11  1  0.607179  0.297732  0.443070  1
  F  F12  1  0.071835  0.796653  0.888033  1
  F  F13  1  0.771577  0.192329  0.785180  1
  F  F14  1  0.228423  0.692329  0.214820  1
  F  F15  1  0.928165  0.296653  0.111967  1
  F  F16  1  0.574260  0.701752  0.895782  1
  F  F17  1  0.425740  0.201752  0.104218  1
