# generated using pymatgen
data_Li2Ti3SbO8
_symmetry_space_group_name_H-M   'P 1'
_cell_length_a   5.99726282
_cell_length_b   5.99726282
_cell_length_c   10.42422294
_cell_angle_alpha   90.00000000
_cell_angle_beta   90.00000000
_cell_angle_gamma   120.00000000
_symmetry_Int_Tables_number   1
_chemical_formula_structural   Li2Ti3SbO8
_chemical_formula_sum   'Li4 Ti6 Sb2 O16'
_cell_volume   324.69865208
_cell_formula_units_Z   2
loop_
 _symmetry_equiv_pos_site_id
 _symmetry_equiv_pos_as_xyz
  1  'x, y, z'
loop_
 _atom_site_type_symbol
 _atom_site_label
 _atom_site_symmetry_multiplicity
 _atom_site_fract_x
 _atom_site_fract_y
 _atom_site_fract_z
 _atom_site_occupancy
  Li  Li0  1  0.333333  0.666667  0.891636  1
  Li  Li1  1  0.000000  0.000000  0.994542  1
  Li  Li2  1  0.000000  0.000000  0.494542  1
  Li  Li3  1  0.666667  0.333333  0.391636  1
  Ti  Ti4  1  0.658479  0.829240  0.218537  1
  Ti  Ti5  1  0.341521  0.170760  0.718537  1
  Ti  Ti6  1  0.829240  0.170760  0.718537  1
  Ti  Ti7  1  0.170760  0.829240  0.218537  1
  Ti  Ti8  1  0.170760  0.341521  0.218537  1
  Ti  Ti9  1  0.829240  0.658479  0.718537  1
  Sb  Sb10  1  0.333333  0.666667  0.504053  1
  Sb  Sb11  1  0.666667  0.333333  0.004053  1
  O  O12  1  0.154638  0.845362  0.606342  1
  O  O13  1  0.025093  0.512546  0.321434  1
  O  O14  1  0.333333  0.666667  0.111950  1
  O  O15  1  0.000000  0.000000  0.312903  1
  O  O16  1  0.000000  0.000000  0.812903  1
  O  O17  1  0.154638  0.309276  0.606342  1
  O  O18  1  0.487454  0.974907  0.321434  1
  O  O19  1  0.487454  0.512546  0.321434  1
  O  O20  1  0.309276  0.154638  0.106342  1
  O  O21  1  0.690724  0.845362  0.606342  1
  O  O22  1  0.512546  0.487454  0.821434  1
  O  O23  1  0.512546  0.025093  0.821434  1
  O  O24  1  0.666667  0.333333  0.611950  1
  O  O25  1  0.845362  0.690724  0.106342  1
  O  O26  1  0.974907  0.487454  0.821434  1
  O  O27  1  0.845362  0.154638  0.106342  1
