# generated using pymatgen
data_NaCaB5(H5O7)2
_symmetry_space_group_name_H-M   'P 1'
_cell_length_a   6.63860710
_cell_length_b   12.67095281
_cell_length_c   13.60216763
_cell_angle_alpha   90.00000000
_cell_angle_beta   99.95714681
_cell_angle_gamma   90.00000000
_symmetry_Int_Tables_number   1
_chemical_formula_structural   NaCaB5(H5O7)2
_chemical_formula_sum   'Na4 Ca4 B20 H40 O56'
_cell_volume   1126.94564775
_cell_formula_units_Z   4
loop_
 _symmetry_equiv_pos_site_id
 _symmetry_equiv_pos_as_xyz
  1  'x, y, z'
loop_
 _atom_site_type_symbol
 _atom_site_label
 _atom_site_symmetry_multiplicity
 _atom_site_fract_x
 _atom_site_fract_y
 _atom_site_fract_z
 _atom_site_occupancy
  Na  Na0  1  0.880927  0.995454  0.176179  1
  Na  Na1  1  0.119073  0.495454  0.323821  1
  Na  Na2  1  0.119073  0.004546  0.823821  1
  Na  Na3  1  0.880927  0.504546  0.676179  1
  Ca  Ca4  1  0.649725  0.087199  0.406399  1
  Ca  Ca5  1  0.350275  0.587199  0.093601  1
  Ca  Ca6  1  0.350275  0.912801  0.593601  1
  Ca  Ca7  1  0.649725  0.412801  0.906399  1
  B  B8  1  0.663928  0.742768  0.550687  1
  B  B9  1  0.336072  0.242768  0.949313  1
  B  B10  1  0.336072  0.257232  0.449313  1
  B  B11  1  0.663928  0.757232  0.050687  1
  B  B12  1  0.500407  0.857315  0.397609  1
  B  B13  1  0.499593  0.357315  0.102391  1
  B  B14  1  0.499593  0.142685  0.602391  1
  B  B15  1  0.500407  0.642685  0.897609  1
  B  B16  1  0.880114  0.849499  0.454972  1
  B  B17  1  0.119886  0.349499  0.045028  1
  B  B18  1  0.119886  0.150501  0.545028  1
  B  B19  1  0.880114  0.650501  0.954972  1
  B  B20  1  0.147526  0.939333  0.367031  1
  B  B21  1  0.852474  0.439333  0.132969  1
  B  B22  1  0.852474  0.060667  0.632969  1
  B  B23  1  0.147526  0.560667  0.867031  1
  B  B24  1  0.249214  0.809054  0.246958  1
  B  B25  1  0.750786  0.309054  0.253042  1
  B  B26  1  0.750786  0.190946  0.753042  1
  B  B27  1  0.249214  0.690946  0.746958  1
  H  H28  1  0.653138  0.752176  0.702893  1
  H  H29  1  0.346862  0.252176  0.797107  1
  H  H30  1  0.346862  0.247824  0.297107  1
  H  H31  1  0.653138  0.747824  0.202893  1
  H  H32  1  0.520217  0.602109  0.567044  1
  H  H33  1  0.479783  0.102109  0.932956  1
  H  H34  1  0.479783  0.397891  0.432956  1
  H  H35  1  0.520217  0.897891  0.067044  1
  H  H36  1  0.071806  0.754679  0.119248  1
  H  H37  1  0.928194  0.254679  0.380752  1
  H  H38  1  0.928194  0.245321  0.880752  1
  H  H39  1  0.071806  0.745321  0.619248  1
  H  H40  1  0.127534  0.098479  0.340088  1
  H  H41  1  0.872466  0.598479  0.159912  1
  H  H42  1  0.872466  0.901521  0.659912  1
  H  H43  1  0.127534  0.401521  0.840088  1
  H  H44  1  0.547938  0.148028  0.205878  1
  H  H45  1  0.452062  0.648028  0.294122  1
  H  H46  1  0.452062  0.851972  0.794122  1
  H  H47  1  0.547938  0.351972  0.705878  1
  H  H48  1  0.444982  0.035530  0.191031  1
  H  H49  1  0.555018  0.535530  0.308969  1
  H  H50  1  0.555018  0.964470  0.808969  1
  H  H51  1  0.444982  0.464470  0.691031  1
  H  H52  1  0.198567  0.942389  0.048379  1
  H  H53  1  0.801433  0.442389  0.451621  1
  H  H54  1  0.801433  0.057611  0.951621  1
  H  H55  1  0.198567  0.557611  0.548379  1
  H  H56  1  0.249683  0.060229  0.044185  1
  H  H57  1  0.750317  0.560229  0.455815  1
  H  H58  1  0.750317  0.939771  0.955815  1
  H  H59  1  0.249683  0.439771  0.544185  1
  H  H60  1  0.951488  0.175808  0.050576  1
  H  H61  1  0.048512  0.675808  0.449424  1
  H  H62  1  0.048512  0.824192  0.949424  1
  H  H63  1  0.951488  0.324192  0.550576  1
  H  H64  1  0.716883  0.195550  0.052635  1
  H  H65  1  0.283117  0.695550  0.447365  1
  H  H66  1  0.283117  0.804450  0.947365  1
  H  H67  1  0.716883  0.304450  0.552635  1
  O  O68  1  0.670043  0.799403  0.647769  1
  O  O69  1  0.329957  0.299403  0.852231  1
  O  O70  1  0.329957  0.200597  0.352231  1
  O  O71  1  0.670043  0.700597  0.147769  1
  O  O72  1  0.657274  0.626505  0.562701  1
  O  O73  1  0.342726  0.126505  0.937299  1
  O  O74  1  0.342726  0.373495  0.437299  1
  O  O75  1  0.657274  0.873495  0.062701  1
  O  O76  1  0.859911  0.762583  0.514853  1
  O  O77  1  0.140089  0.262583  0.985147  1
  O  O78  1  0.140089  0.237417  0.485147  1
  O  O79  1  0.859911  0.737417  0.014853  1
  O  O80  1  0.487589  0.785617  0.481954  1
  O  O81  1  0.512411  0.285617  0.018046  1
  O  O82  1  0.512411  0.214383  0.518046  1
  O  O83  1  0.487589  0.714383  0.981954  1
  O  O84  1  0.711089  0.899298  0.402685  1
  O  O85  1  0.288911  0.399298  0.097315  1
  O  O86  1  0.288911  0.100702  0.597315  1
  O  O87  1  0.711089  0.600702  0.902685  1
  O  O88  1  0.369849  0.951698  0.400258  1
  O  O89  1  0.630151  0.451698  0.099742  1
  O  O90  1  0.630151  0.048302  0.599742  1
  O  O91  1  0.369849  0.548302  0.900258  1
  O  O92  1  0.442620  0.797329  0.301724  1
  O  O93  1  0.557380  0.297329  0.198276  1
  O  O94  1  0.557380  0.202671  0.698276  1
  O  O95  1  0.442620  0.702671  0.801724  1
  O  O96  1  0.074356  0.880815  0.449833  1
  O  O97  1  0.925644  0.380815  0.050167  1
  O  O98  1  0.925644  0.119185  0.550167  1
  O  O99  1  0.074356  0.619185  0.949833  1
  O  O100  1  0.103534  0.873080  0.273897  1
  O  O101  1  0.896466  0.373080  0.226103  1
  O  O102  1  0.896466  0.126920  0.726103  1
  O  O103  1  0.103534  0.626920  0.773897  1
  O  O104  1  0.210338  0.748898  0.159436  1
  O  O105  1  0.789662  0.248898  0.340564  1
  O  O106  1  0.789662  0.251102  0.840564  1
  O  O107  1  0.210338  0.751102  0.659436  1
  O  O108  1  0.035157  0.038932  0.347283  1
  O  O109  1  0.964843  0.538932  0.152717  1
  O  O110  1  0.964843  0.961068  0.652717  1
  O  O111  1  0.035157  0.461068  0.847283  1
  O  O112  1  0.570251  0.072280  0.223591  1
  O  O113  1  0.429749  0.572280  0.276409  1
  O  O114  1  0.429749  0.927720  0.776409  1
  O  O115  1  0.570251  0.427720  0.723591  1
  O  O116  1  0.218600  0.005869  0.092133  1
  O  O117  1  0.781400  0.505869  0.407867  1
  O  O118  1  0.781400  0.994131  0.907867  1
  O  O119  1  0.218600  0.494131  0.592133  1
  O  O120  1  0.826101  0.140125  0.062023  1
  O  O121  1  0.173899  0.640125  0.437977  1
  O  O122  1  0.173899  0.859875  0.937977  1
  O  O123  1  0.826101  0.359875  0.562023  1
