# generated using pymatgen
data_LiFe2(BO3)2
_symmetry_space_group_name_H-M   'P 1'
_cell_length_a   5.24702441
_cell_length_b   9.14558865
_cell_length_c   11.36373891
_cell_angle_alpha   112.88918132
_cell_angle_beta   103.08066257
_cell_angle_gamma   89.98534923
_symmetry_Int_Tables_number   1
_chemical_formula_structural   LiFe2(BO3)2
_chemical_formula_sum   'Li4 Fe8 B8 O24'
_cell_volume   486.99274159
_cell_formula_units_Z   4
loop_
 _symmetry_equiv_pos_site_id
 _symmetry_equiv_pos_as_xyz
  1  'x, y, z'
loop_
 _atom_site_type_symbol
 _atom_site_label
 _atom_site_symmetry_multiplicity
 _atom_site_fract_x
 _atom_site_fract_y
 _atom_site_fract_z
 _atom_site_occupancy
  Li  Li0  1  0.028753  0.032993  0.397150  1
  Li  Li1  1  0.483244  0.507104  0.657746  1
  Li  Li2  1  0.988381  0.010498  0.666595  1
  Li  Li3  1  0.765267  0.748170  0.158833  1
  Fe  Fe4  1  0.017859  0.359951  0.374320  1
  Fe  Fe5  1  0.272436  0.933341  0.884530  1
  Fe  Fe6  1  0.471460  0.152956  0.628371  1
  Fe  Fe7  1  0.236393  0.561569  0.131139  1
  Fe  Fe8  1  0.770379  0.429753  0.875403  1
  Fe  Fe9  1  0.527760  0.842579  0.386080  1
  Fe  Fe10  1  0.963685  0.658187  0.628179  1
  Fe  Fe11  1  0.749672  0.069486  0.129141  1
  B  B12  1  0.025837  0.683983  0.372944  1
  B  B13  1  0.263031  0.600765  0.875978  1
  B  B14  1  0.480477  0.820698  0.635565  1
  B  B15  1  0.238053  0.888015  0.128188  1
  B  B16  1  0.514392  0.186019  0.379245  1
  B  B17  1  0.767063  0.100811  0.875796  1
  B  B18  1  0.976033  0.314644  0.621837  1
  B  B19  1  0.729333  0.404236  0.130793  1
  O  O20  1  0.012990  0.070638  0.857344  1
  O  O21  1  0.138067  0.714058  0.838248  1
  O  O22  1  0.134418  0.516789  0.929470  1
  O  O23  1  0.082967  0.172566  0.608503  1
  O  O24  1  0.084898  0.423216  0.583543  1
  O  O25  1  0.245254  0.856278  0.677026  1
  O  O26  1  0.247701  0.654164  0.322678  1
  O  O27  1  0.507793  0.565790  0.856288  1
  O  O28  1  0.640817  0.217953  0.840362  1
  O  O29  1  0.425635  0.070688  0.416929  1
  O  O30  1  0.365736  0.307048  0.376424  1
  O  O31  1  0.636697  0.015240  0.924886  1
  O  O32  1  0.351462  0.980675  0.078016  1
  O  O33  1  0.592643  0.686077  0.633012  1
  O  O34  1  0.594795  0.926601  0.595331  1
  O  O35  1  0.393563  0.775281  0.160701  1
  O  O36  1  0.471305  0.409404  0.126410  1
  O  O37  1  0.752521  0.350664  0.673854  1
  O  O38  1  0.763981  0.177519  0.349005  1
  O  O39  1  0.942033  0.582272  0.423113  1
  O  O40  1  0.895425  0.813931  0.369167  1
  O  O41  1  0.847954  0.504993  0.083672  1
  O  O42  1  0.883183  0.307797  0.179507  1
  O  O43  1  0.989579  0.903084  0.147556  1
