# generated using pymatgen
data_K2AlPCO7
_symmetry_space_group_name_H-M   'P 1'
_cell_length_a   5.45840641
_cell_length_b   6.62442884
_cell_length_c   9.61185245
_cell_angle_alpha   90.00000000
_cell_angle_beta   90.08441218
_cell_angle_gamma   90.00000000
_symmetry_Int_Tables_number   1
_chemical_formula_structural   K2AlPCO7
_chemical_formula_sum   'K4 Al2 P2 C2 O14'
_cell_volume   347.55291232
_cell_formula_units_Z   2
loop_
 _symmetry_equiv_pos_site_id
 _symmetry_equiv_pos_as_xyz
  1  'x, y, z'
loop_
 _atom_site_type_symbol
 _atom_site_label
 _atom_site_symmetry_multiplicity
 _atom_site_fract_x
 _atom_site_fract_y
 _atom_site_fract_z
 _atom_site_occupancy
  K  K0  1  0.244436  0.028076  0.242654  1
  K  K1  1  0.244436  0.471924  0.242654  1
  K  K2  1  0.755564  0.528076  0.757346  1
  K  K3  1  0.755564  0.971924  0.757346  1
  Al  Al4  1  0.765417  0.750000  0.357348  1
  Al  Al5  1  0.234583  0.250000  0.642652  1
  P  P6  1  0.730936  0.250000  0.437780  1
  P  P7  1  0.269064  0.750000  0.562220  1
  C  C8  1  0.728416  0.750000  0.108757  1
  C  C9  1  0.271584  0.250000  0.891243  1
  O  O10  1  0.295153  0.250000  0.020392  1
  O  O11  1  0.938338  0.750000  0.176985  1
  O  O12  1  0.544083  0.750000  0.198783  1
  O  O13  1  0.759774  0.057046  0.348109  1
  O  O14  1  0.759774  0.442954  0.348109  1
  O  O15  1  0.071221  0.750000  0.444941  1
  O  O16  1  0.467509  0.250000  0.502228  1
  O  O17  1  0.532491  0.750000  0.497772  1
  O  O18  1  0.928779  0.250000  0.555059  1
  O  O19  1  0.240226  0.557046  0.651891  1
  O  O20  1  0.240226  0.942954  0.651891  1
  O  O21  1  0.455917  0.250000  0.801217  1
  O  O22  1  0.061662  0.250000  0.823015  1
  O  O23  1  0.704847  0.750000  0.979608  1
