# generated using pymatgen
data_LiTi2O4
_symmetry_space_group_name_H-M   'P 1'
_cell_length_a   5.14441153
_cell_length_b   5.99503556
_cell_length_c   5.30149786
_cell_angle_alpha   90.00000000
_cell_angle_beta   90.68874020
_cell_angle_gamma   90.00000000
_symmetry_Int_Tables_number   1
_chemical_formula_structural   LiTi2O4
_chemical_formula_sum   'Li2 Ti4 O8'
_cell_volume   163.49131178
_cell_formula_units_Z   2
loop_
 _symmetry_equiv_pos_site_id
 _symmetry_equiv_pos_as_xyz
  1  'x, y, z'
loop_
 _atom_site_type_symbol
 _atom_site_label
 _atom_site_symmetry_multiplicity
 _atom_site_fract_x
 _atom_site_fract_y
 _atom_site_fract_z
 _atom_site_occupancy
  Li  Li0  1  0.322877  0.750000  0.437209  1
  Li  Li1  1  0.677123  0.250000  0.562791  1
  Ti  Ti2  1  0.500000  0.500000  0.000000  1
  Ti  Ti3  1  0.500000  0.000000  0.000000  1
  Ti  Ti4  1  0.974945  0.750000  0.985104  1
  Ti  Ti5  1  0.025055  0.250000  0.014896  1
  O  O6  1  0.832660  0.489167  0.802144  1
  O  O7  1  0.657319  0.750000  0.204130  1
  O  O8  1  0.832660  0.010833  0.802144  1
  O  O9  1  0.666183  0.250000  0.198163  1
  O  O10  1  0.167340  0.510833  0.197856  1
  O  O11  1  0.333817  0.750000  0.801837  1
  O  O12  1  0.167340  0.989167  0.197856  1
  O  O13  1  0.342681  0.250000  0.795870  1
