# generated using pymatgen
data_TiSnO3
_symmetry_space_group_name_H-M   'P 1'
_cell_length_a   7.42635365
_cell_length_b   7.42635365
_cell_length_c   7.42635365
_cell_angle_alpha   40.50845103
_cell_angle_beta   40.50845103
_cell_angle_gamma   40.50845103
_symmetry_Int_Tables_number   1
_chemical_formula_structural   TiSnO3
_chemical_formula_sum   'Ti2 Sn2 O6'
_cell_volume   155.85840035
_cell_formula_units_Z   2
loop_
 _symmetry_equiv_pos_site_id
 _symmetry_equiv_pos_as_xyz
  1  'x, y, z'
loop_
 _atom_site_type_symbol
 _atom_site_label
 _atom_site_symmetry_multiplicity
 _atom_site_fract_x
 _atom_site_fract_y
 _atom_site_fract_z
 _atom_site_occupancy
  Ti  Ti0  1  0.665273  0.665273  0.665273  1
  Ti  Ti1  1  0.334727  0.334727  0.334727  1
  Sn  Sn2  1  0.891905  0.891905  0.891905  1
  Sn  Sn3  1  0.108095  0.108095  0.108095  1
  O  O4  1  0.305689  0.589041  0.946790  1
  O  O5  1  0.946790  0.305689  0.589041  1
  O  O6  1  0.410959  0.053210  0.694311  1
  O  O7  1  0.589041  0.946790  0.305689  1
  O  O8  1  0.053210  0.694311  0.410959  1
  O  O9  1  0.694311  0.410959  0.053210  1
