# generated using pymatgen
data_Li2VCr(P2O7)2
_symmetry_space_group_name_H-M   'P 1'
_cell_length_a   7.15127676
_cell_length_b   8.22140472
_cell_length_c   9.74233852
_cell_angle_alpha   90.00000000
_cell_angle_beta   111.46355376
_cell_angle_gamma   90.00000000
_symmetry_Int_Tables_number   1
_chemical_formula_structural   Li2VCr(P2O7)2
_chemical_formula_sum   'Li4 V2 Cr2 P8 O28'
_cell_volume   533.06411981
_cell_formula_units_Z   2
loop_
 _symmetry_equiv_pos_site_id
 _symmetry_equiv_pos_as_xyz
  1  'x, y, z'
loop_
 _atom_site_type_symbol
 _atom_site_label
 _atom_site_symmetry_multiplicity
 _atom_site_fract_x
 _atom_site_fract_y
 _atom_site_fract_z
 _atom_site_occupancy
  Li  Li0  1  0.676497  0.636991  0.249714  1
  Li  Li1  1  0.323339  0.137201  0.249968  1
  Li  Li2  1  0.676661  0.637201  0.750032  1
  Li  Li3  1  0.323503  0.136991  0.750286  1
  V  V4  1  0.729306  0.000365  0.256503  1
  V  V5  1  0.270694  0.500365  0.743497  1
  Cr  Cr6  1  0.272166  0.499917  0.243243  1
  Cr  Cr7  1  0.727834  0.999917  0.756757  1
  P  P8  1  0.914226  0.217213  0.062793  1
  P  P9  1  0.521549  0.320251  0.061286  1
  P  P10  1  0.477114  0.819413  0.439102  1
  P  P11  1  0.913961  0.215087  0.564099  1
  P  P12  1  0.086039  0.715087  0.435901  1
  P  P13  1  0.522886  0.319413  0.560898  1
  P  P14  1  0.478451  0.820251  0.938714  1
  P  P15  1  0.085774  0.717213  0.937207  1
  O  O16  1  0.752902  0.348435  0.079421  1
  O  O17  1  0.919577  0.066707  0.157870  1
  O  O18  1  0.605832  0.821760  0.104277  1
  O  O19  1  0.504773  0.155761  0.128952  1
  O  O20  1  0.481331  0.463212  0.147657  1
  O  O21  1  0.145481  0.676809  0.099586  1
  O  O22  1  0.115362  0.307465  0.123617  1
  O  O23  1  0.884444  0.802556  0.377230  1
  O  O24  1  0.851005  0.176437  0.400601  1
  O  O25  1  0.517508  0.961467  0.351744  1
  O  O26  1  0.490112  0.653775  0.369743  1
  O  O27  1  0.393458  0.320219  0.396338  1
  O  O28  1  0.084280  0.565062  0.341952  1
  O  O29  1  0.246090  0.848316  0.420677  1
  O  O30  1  0.753910  0.348316  0.579323  1
  O  O31  1  0.915720  0.065062  0.658048  1
  O  O32  1  0.606542  0.820219  0.603662  1
  O  O33  1  0.509888  0.153775  0.630257  1
  O  O34  1  0.482492  0.461467  0.648256  1
  O  O35  1  0.148995  0.676437  0.599399  1
  O  O36  1  0.115556  0.302556  0.622770  1
  O  O37  1  0.884638  0.807465  0.876383  1
  O  O38  1  0.854519  0.176809  0.900414  1
  O  O39  1  0.518669  0.963212  0.852343  1
  O  O40  1  0.495227  0.655761  0.871048  1
  O  O41  1  0.394168  0.321760  0.895723  1
  O  O42  1  0.080423  0.566707  0.842130  1
  O  O43  1  0.247098  0.848435  0.920579  1
