# generated using pymatgen
data_Fe6O7F5
_symmetry_space_group_name_H-M   'P 1'
_cell_length_a   4.71066092
_cell_length_b   5.59639651
_cell_length_c   7.76846516
_cell_angle_alpha   85.89757901
_cell_angle_beta   89.43551057
_cell_angle_gamma   89.22231896
_symmetry_Int_Tables_number   1
_chemical_formula_structural   Fe6O7F5
_chemical_formula_sum   'Fe6 O7 F5'
_cell_volume   204.24626530
_cell_formula_units_Z   1
loop_
 _symmetry_equiv_pos_site_id
 _symmetry_equiv_pos_as_xyz
  1  'x, y, z'
loop_
 _atom_site_type_symbol
 _atom_site_label
 _atom_site_symmetry_multiplicity
 _atom_site_fract_x
 _atom_site_fract_y
 _atom_site_fract_z
 _atom_site_occupancy
  Fe  Fe0  1  0.557457  0.179724  0.348580  1
  Fe  Fe1  1  0.484371  0.499465  0.997967  1
  Fe  Fe2  1  0.511560  0.814995  0.654620  1
  Fe  Fe3  1  0.975251  0.660285  0.315057  1
  Fe  Fe4  1  0.980288  0.352262  0.683844  1
  Fe  Fe5  1  0.991237  0.001113  0.012022  1
  O  O6  1  0.803530  0.624976  0.555539  1
  O  O7  1  0.801922  0.965663  0.233314  1
  O  O8  1  0.805232  0.295064  0.906848  1
  O  O9  1  0.685615  0.462158  0.222715  1
  O  O10  1  0.702943  0.124535  0.577711  1
  O  O11  1  0.307273  0.540952  0.763668  1
  O  O12  1  0.186899  0.704034  0.094866  1
  F  F13  1  0.696540  0.801203  0.893787  1
  F  F14  1  0.301831  0.875978  0.431833  1
  F  F15  1  0.303374  0.196096  0.105384  1
  F  F16  1  0.202824  0.036789  0.771235  1
  F  F17  1  0.201852  0.364706  0.431011  1
