# generated using pymatgen
data_Li4Ti3Cu3(WO8)2
_symmetry_space_group_name_H-M   'P 1'
_cell_length_a   6.01353935
_cell_length_b   6.01353935
_cell_length_c   10.03712575
_cell_angle_alpha   87.81775785
_cell_angle_beta   92.18224215
_cell_angle_gamma   120.51467547
_symmetry_Int_Tables_number   1
_chemical_formula_structural   Li4Ti3Cu3(WO8)2
_chemical_formula_sum   'Li4 Ti3 Cu3 W2 O16'
_cell_volume   312.39673170
_cell_formula_units_Z   1
loop_
 _symmetry_equiv_pos_site_id
 _symmetry_equiv_pos_as_xyz
  1  'x, y, z'
loop_
 _atom_site_type_symbol
 _atom_site_label
 _atom_site_symmetry_multiplicity
 _atom_site_fract_x
 _atom_site_fract_y
 _atom_site_fract_z
 _atom_site_occupancy
  Li  Li0  1  0.664924  0.335076  0.910620  1
  Li  Li1  1  0.992465  0.007535  0.975538  1
  Li  Li2  1  0.000593  0.999407  0.490143  1
  Li  Li3  1  0.331944  0.668056  0.414938  1
  Ti  Ti4  1  0.343485  0.151064  0.218992  1
  Ti  Ti5  1  0.848936  0.656515  0.218992  1
  Ti  Ti6  1  0.178082  0.821918  0.734404  1
  Cu  Cu7  1  0.829255  0.170745  0.204708  1
  Cu  Cu8  1  0.173737  0.338503  0.699896  1
  Cu  Cu9  1  0.661497  0.826263  0.699896  1
  W  W10  1  0.665503  0.334497  0.490143  1
  W  W11  1  0.349037  0.650963  0.984387  1
  O  O12  1  0.355978  0.159729  0.585022  1
  O  O13  1  0.520172  0.479828  0.337545  1
  O  O14  1  0.652569  0.347431  0.111483  1
  O  O15  1  0.003653  0.996347  0.299097  1
  O  O16  1  0.004039  0.995961  0.784503  1
  O  O17  1  0.840271  0.644022  0.585022  1
  O  O18  1  0.494925  0.037611  0.348657  1
  O  O19  1  0.962389  0.505075  0.348657  1
  O  O20  1  0.168459  0.831541  0.109856  1
  O  O21  1  0.830013  0.169987  0.563786  1
  O  O22  1  0.031560  0.544303  0.865540  1
  O  O23  1  0.455697  0.968440  0.865540  1
  O  O24  1  0.320620  0.679380  0.617436  1
  O  O25  1  0.180250  0.339825  0.088577  1
  O  O26  1  0.479138  0.520862  0.866023  1
  O  O27  1  0.660175  0.819750  0.088577  1
