# generated using pymatgen
data_Li3MnF5
_symmetry_space_group_name_H-M   'P 1'
_cell_length_a   5.78844292
_cell_length_b   5.78844292
_cell_length_c   11.24769081
_cell_angle_alpha   90.00000000
_cell_angle_beta   90.00000000
_cell_angle_gamma   90.00000000
_symmetry_Int_Tables_number   1
_chemical_formula_structural   Li3MnF5
_chemical_formula_sum   'Li12 Mn4 F20'
_cell_volume   376.86593179
_cell_formula_units_Z   4
loop_
 _symmetry_equiv_pos_site_id
 _symmetry_equiv_pos_as_xyz
  1  'x, y, z'
loop_
 _atom_site_type_symbol
 _atom_site_label
 _atom_site_symmetry_multiplicity
 _atom_site_fract_x
 _atom_site_fract_y
 _atom_site_fract_z
 _atom_site_occupancy
  Li  Li0  1  0.024300  0.166510  0.320337  1
  Li  Li1  1  0.082878  0.328806  0.846474  1
  Li  Li2  1  0.219025  0.443436  0.615756  1
  Li  Li3  1  0.166510  0.975700  0.070337  1
  Li  Li4  1  0.328806  0.917122  0.596474  1
  Li  Li5  1  0.443436  0.780975  0.365756  1
  Li  Li6  1  0.556564  0.219025  0.865756  1
  Li  Li7  1  0.671194  0.082878  0.096474  1
  Li  Li8  1  0.833490  0.024300  0.570337  1
  Li  Li9  1  0.780975  0.556564  0.115756  1
  Li  Li10  1  0.917122  0.671194  0.346474  1
  Li  Li11  1  0.975700  0.833490  0.820337  1
  Mn  Mn12  1  0.283283  0.487411  0.141894  1
  Mn  Mn13  1  0.487411  0.716717  0.891894  1
  Mn  Mn14  1  0.512589  0.283283  0.391894  1
  Mn  Mn15  1  0.716717  0.512589  0.641894  1
  F  F16  1  0.970642  0.248860  0.144984  1
  F  F17  1  0.013024  0.767740  0.174496  1
  F  F18  1  0.152147  0.579532  0.965579  1
  F  F19  1  0.232260  0.013024  0.424496  1
  F  F20  1  0.205061  0.491040  0.330551  1
  F  F21  1  0.248860  0.029358  0.894984  1
  F  F22  1  0.420468  0.152147  0.215579  1
  F  F23  1  0.368996  0.442186  0.771369  1
  F  F24  1  0.557814  0.368996  0.021369  1
  F  F25  1  0.491040  0.794939  0.080551  1
  F  F26  1  0.508960  0.205061  0.580551  1
  F  F27  1  0.442186  0.631004  0.521369  1
  F  F28  1  0.631004  0.557814  0.271369  1
  F  F29  1  0.579532  0.847853  0.715579  1
  F  F30  1  0.751140  0.970642  0.394984  1
  F  F31  1  0.794939  0.508960  0.830551  1
  F  F32  1  0.767740  0.986976  0.924496  1
  F  F33  1  0.847853  0.420468  0.465579  1
  F  F34  1  0.986976  0.232260  0.674496  1
  F  F35  1  0.029358  0.751140  0.644984  1
