# generated using pymatgen
data_Li3Mn5Cr3O16
_symmetry_space_group_name_H-M   'P 1'
_cell_length_a   5.91125606
_cell_length_b   5.91125606
_cell_length_c   10.19571749
_cell_angle_alpha   73.46529261
_cell_angle_beta   106.53470739
_cell_angle_gamma   120.78865142
_symmetry_Int_Tables_number   1
_chemical_formula_structural   Li3Mn5Cr3O16
_chemical_formula_sum   'Li3 Mn5 Cr3 O16'
_cell_volume   289.19575575
_cell_formula_units_Z   1
loop_
 _symmetry_equiv_pos_site_id
 _symmetry_equiv_pos_as_xyz
  1  'x, y, z'
loop_
 _atom_site_type_symbol
 _atom_site_label
 _atom_site_symmetry_multiplicity
 _atom_site_fract_x
 _atom_site_fract_y
 _atom_site_fract_z
 _atom_site_occupancy
  Li  Li0  1  0.686742  0.313258  0.567968  1
  Li  Li1  1  0.184697  0.815303  0.060947  1
  Li  Li2  1  0.317695  0.682305  0.437023  1
  Mn  Mn3  1  0.499883  0.500117  0.998386  1
  Mn  Mn4  1  0.750921  0.749494  0.752821  1
  Mn  Mn5  1  0.249852  0.249732  0.249708  1
  Mn  Mn6  1  0.250506  0.249079  0.752821  1
  Mn  Mn7  1  0.750268  0.750148  0.249708  1
  Cr  Cr8  1  0.251581  0.748419  0.753141  1
  Cr  Cr9  1  0.000542  0.999458  0.501293  1
  Cr  Cr10  1  0.750431  0.249569  0.248432  1
  O  O11  1  0.609776  0.831856  0.871497  1
  O  O12  1  0.168144  0.390224  0.871497  1
  O  O13  1  0.614177  0.385823  0.354360  1
  O  O14  1  0.114190  0.885810  0.856246  1
  O  O15  1  0.344824  0.111165  0.635845  1
  O  O16  1  0.395967  0.604033  0.131788  1
  O  O17  1  0.888835  0.655176  0.635845  1
  O  O18  1  0.895727  0.104273  0.638268  1
  O  O19  1  0.105796  0.894204  0.363277  1
  O  O20  1  0.602128  0.397872  0.868960  1
  O  O21  1  0.116764  0.346399  0.365503  1
  O  O22  1  0.888872  0.111128  0.148302  1
  O  O23  1  0.653601  0.883236  0.365503  1
  O  O24  1  0.387266  0.612734  0.646496  1
  O  O25  1  0.840185  0.614714  0.129185  1
  O  O26  1  0.385286  0.159815  0.129185  1
