# generated using pymatgen
data_Li2FeSiO5
_symmetry_space_group_name_H-M   'P 1'
_cell_length_a   4.54982912
_cell_length_b   9.07396943
_cell_length_c   9.15523211
_cell_angle_alpha   90.00000000
_cell_angle_beta   90.00000000
_cell_angle_gamma   90.00000000
_symmetry_Int_Tables_number   1
_chemical_formula_structural   Li2FeSiO5
_chemical_formula_sum   'Li8 Fe4 Si4 O20'
_cell_volume   377.97385239
_cell_formula_units_Z   4
loop_
 _symmetry_equiv_pos_site_id
 _symmetry_equiv_pos_as_xyz
  1  'x, y, z'
loop_
 _atom_site_type_symbol
 _atom_site_label
 _atom_site_symmetry_multiplicity
 _atom_site_fract_x
 _atom_site_fract_y
 _atom_site_fract_z
 _atom_site_occupancy
  Li  Li0  1  0.392170  0.000000  0.000368  1
  Li  Li1  1  0.607830  0.000000  0.500368  1
  Li  Li2  1  0.997480  0.762175  0.001106  1
  Li  Li3  1  0.002520  0.762175  0.501106  1
  Li  Li4  1  0.986688  0.500000  0.257287  1
  Li  Li5  1  0.013312  0.500000  0.757287  1
  Li  Li6  1  0.997480  0.237825  0.001106  1
  Li  Li7  1  0.002520  0.237825  0.501106  1
  Fe  Fe8  1  0.033509  0.000000  0.280658  1
  Fe  Fe9  1  0.966491  0.000000  0.780658  1
  Fe  Fe10  1  0.600468  0.500000  0.998030  1
  Fe  Fe11  1  0.399532  0.500000  0.498030  1
  Si  Si12  1  0.498781  0.749319  0.248989  1
  Si  Si13  1  0.501219  0.749319  0.748989  1
  Si  Si14  1  0.498781  0.250681  0.248989  1
  Si  Si15  1  0.501219  0.250681  0.748989  1
  O  O16  1  0.187562  0.000000  0.464172  1
  O  O17  1  0.812438  0.000000  0.964172  1
  O  O18  1  0.261747  0.850928  0.160468  1
  O  O19  1  0.738253  0.850928  0.660468  1
  O  O20  1  0.737641  0.846557  0.340643  1
  O  O21  1  0.262359  0.846557  0.840643  1
  O  O22  1  0.706798  0.646280  0.142011  1
  O  O23  1  0.293202  0.646280  0.642011  1
  O  O24  1  0.288941  0.645540  0.354330  1
  O  O25  1  0.711059  0.645540  0.854330  1
  O  O26  1  0.785495  0.500000  0.493453  1
  O  O27  1  0.214505  0.500000  0.993453  1
  O  O28  1  0.288941  0.354460  0.354330  1
  O  O29  1  0.711059  0.354460  0.854330  1
  O  O30  1  0.706798  0.353720  0.142011  1
  O  O31  1  0.293202  0.353720  0.642011  1
  O  O32  1  0.737641  0.153443  0.340643  1
  O  O33  1  0.262359  0.153443  0.840643  1
  O  O34  1  0.738253  0.149072  0.660468  1
  O  O35  1  0.261747  0.149072  0.160468  1
