# generated using pymatgen
data_RbLiMnP3HO10
_symmetry_space_group_name_H-M   'P 1'
_cell_length_a   7.45920568
_cell_length_b   7.45920568
_cell_length_c   9.59117402
_cell_angle_alpha   75.12719544
_cell_angle_beta   104.87280456
_cell_angle_gamma   104.99222563
_symmetry_Int_Tables_number   1
_chemical_formula_structural   RbLiMnP3HO10
_chemical_formula_sum   'Rb2 Li2 Mn2 P6 H2 O20'
_cell_volume   487.75859347
_cell_formula_units_Z   2
loop_
 _symmetry_equiv_pos_site_id
 _symmetry_equiv_pos_as_xyz
  1  'x, y, z'
loop_
 _atom_site_type_symbol
 _atom_site_label
 _atom_site_symmetry_multiplicity
 _atom_site_fract_x
 _atom_site_fract_y
 _atom_site_fract_z
 _atom_site_occupancy
  Rb  Rb0  1  0.454551  0.462597  0.735329  1
  Rb  Rb1  1  0.537403  0.545449  0.235329  1
  Li  Li2  1  0.930968  0.853206  0.481950  1
  Li  Li3  1  0.146794  0.069032  0.981950  1
  Mn  Mn4  1  0.999029  0.507085  0.000173  1
  Mn  Mn5  1  0.492915  0.000971  0.500173  1
  P  P6  1  0.282908  0.851476  0.811126  1
  P  P7  1  0.876846  0.873940  0.744005  1
  P  P8  1  0.148524  0.717092  0.311126  1
  P  P9  1  0.849332  0.283769  0.692962  1
  P  P10  1  0.126060  0.123154  0.244005  1
  P  P11  1  0.716231  0.150668  0.192962  1
  H  H12  1  0.996167  0.485114  0.520343  1
  H  H13  1  0.514886  0.003833  0.020343  1
  O  O14  1  0.071229  0.874944  0.698570  1
  O  O15  1  0.125056  0.928771  0.198570  1
  O  O16  1  0.406655  0.873078  0.703649  1
  O  O17  1  0.251510  0.654973  0.909475  1
  O  O18  1  0.627823  0.983117  0.106297  1
  O  O19  1  0.345027  0.748490  0.409475  1
  O  O20  1  0.737596  0.856162  0.599163  1
  O  O21  1  0.847479  0.735783  0.883825  1
  O  O22  1  0.126922  0.593345  0.203649  1
  O  O23  1  0.016883  0.372177  0.606297  1
  O  O24  1  0.985449  0.671179  0.395437  1
  O  O25  1  0.860332  0.385114  0.811921  1
  O  O26  1  0.143838  0.262404  0.099163  1
  O  O27  1  0.264217  0.152521  0.383825  1
  O  O28  1  0.657506  0.248137  0.592637  1
  O  O29  1  0.328821  0.014551  0.895437  1
  O  O30  1  0.751863  0.342494  0.092637  1
  O  O31  1  0.614886  0.139668  0.311921  1
  O  O32  1  0.913100  0.080648  0.784136  1
  O  O33  1  0.919352  0.086900  0.284136  1
