# generated using pymatgen
data_Ba3(BrO)2
_symmetry_space_group_name_H-M   'P 1'
_cell_length_a   12.77368064
_cell_length_b   10.69661369
_cell_length_c   14.42148669
_cell_angle_alpha   90.00000000
_cell_angle_beta   112.05336471
_cell_angle_gamma   90.00000000
_symmetry_Int_Tables_number   1
_chemical_formula_structural   Ba3(BrO)2
_chemical_formula_sum   'Ba24 Br16 O16'
_cell_volume   1826.31048564
_cell_formula_units_Z   8
loop_
 _symmetry_equiv_pos_site_id
 _symmetry_equiv_pos_as_xyz
  1  'x, y, z'
loop_
 _atom_site_type_symbol
 _atom_site_label
 _atom_site_symmetry_multiplicity
 _atom_site_fract_x
 _atom_site_fract_y
 _atom_site_fract_z
 _atom_site_occupancy
  Ba  Ba0  1  0.010251  0.818959  0.631387  1
  Ba  Ba1  1  0.092418  0.416065  0.623524  1
  Ba  Ba2  1  0.208413  0.108996  0.859863  1
  Ba  Ba3  1  0.010251  0.681041  0.131387  1
  Ba  Ba4  1  0.339230  0.474781  0.920924  1
  Ba  Ba5  1  0.092418  0.083935  0.123524  1
  Ba  Ba6  1  0.208413  0.391004  0.359863  1
  Ba  Ba7  1  0.423474  0.943913  0.724065  1
  Ba  Ba8  1  0.339230  0.025219  0.420924  1
  Ba  Ba9  1  0.564705  0.158199  0.983788  1
  Ba  Ba10  1  0.435295  0.658199  0.516212  1
  Ba  Ba11  1  0.576526  0.443913  0.775935  1
  Ba  Ba12  1  0.423474  0.556087  0.224065  1
  Ba  Ba13  1  0.564705  0.341801  0.483788  1
  Ba  Ba14  1  0.435295  0.841801  0.016212  1
  Ba  Ba15  1  0.660770  0.974781  0.579076  1
  Ba  Ba16  1  0.576526  0.056087  0.275935  1
  Ba  Ba17  1  0.791587  0.608996  0.640137  1
  Ba  Ba18  1  0.907582  0.916065  0.876476  1
  Ba  Ba19  1  0.660770  0.525219  0.079076  1
  Ba  Ba20  1  0.989749  0.318959  0.868613  1
  Ba  Ba21  1  0.791587  0.891004  0.140137  1
  Ba  Ba22  1  0.907582  0.583935  0.376476  1
  Ba  Ba23  1  0.989749  0.181041  0.368613  1
  Br  Br24  1  0.151450  0.772442  0.878927  1
  Br  Br25  1  0.152363  0.067667  0.610194  1
  Br  Br26  1  0.151450  0.727558  0.378927  1
  Br  Br27  1  0.320473  0.627177  0.700683  1
  Br  Br28  1  0.152363  0.432333  0.110194  1
  Br  Br29  1  0.382392  0.266076  0.597202  1
  Br  Br30  1  0.320473  0.872823  0.200683  1
  Br  Br31  1  0.617608  0.766076  0.902798  1
  Br  Br32  1  0.382392  0.233924  0.097202  1
  Br  Br33  1  0.679527  0.127177  0.799317  1
  Br  Br34  1  0.617608  0.733924  0.402798  1
  Br  Br35  1  0.847637  0.567667  0.889806  1
  Br  Br36  1  0.679527  0.372823  0.299317  1
  Br  Br37  1  0.848550  0.272442  0.621073  1
  Br  Br38  1  0.847637  0.932333  0.389806  1
  Br  Br39  1  0.848550  0.227558  0.121073  1
  O  O40  1  0.042244  0.102913  0.928808  1
  O  O41  1  0.155429  0.338615  0.818130  1
  O  O42  1  0.042244  0.397087  0.428808  1
  O  O43  1  0.155429  0.161385  0.318130  1
  O  O44  1  0.402388  0.022411  0.881898  1
  O  O45  1  0.527594  0.392384  0.927877  1
  O  O46  1  0.472406  0.892384  0.572123  1
  O  O47  1  0.402388  0.477589  0.381898  1
  O  O48  1  0.597612  0.522411  0.618102  1
  O  O49  1  0.527594  0.107616  0.427877  1
  O  O50  1  0.472406  0.607616  0.072123  1
  O  O51  1  0.597612  0.977589  0.118102  1
  O  O52  1  0.844571  0.838615  0.681870  1
  O  O53  1  0.957756  0.602913  0.571192  1
  O  O54  1  0.844571  0.661385  0.181870  1
  O  O55  1  0.957756  0.897087  0.071192  1
