# generated using pymatgen
data_Li8Mn3V(PO4)6
_symmetry_space_group_name_H-M   'P 1'
_cell_length_a   8.41823625
_cell_length_b   8.47486394
_cell_length_c   9.28255841
_cell_angle_alpha   91.14458477
_cell_angle_beta   116.15480745
_cell_angle_gamma   119.35912297
_symmetry_Int_Tables_number   1
_chemical_formula_structural   Li8Mn3V(PO4)6
_chemical_formula_sum   'Li8 Mn3 V1 P6 O24'
_cell_volume   493.93661883
_cell_formula_units_Z   1
loop_
 _symmetry_equiv_pos_site_id
 _symmetry_equiv_pos_as_xyz
  1  'x, y, z'
loop_
 _atom_site_type_symbol
 _atom_site_label
 _atom_site_symmetry_multiplicity
 _atom_site_fract_x
 _atom_site_fract_y
 _atom_site_fract_z
 _atom_site_occupancy
  Li  Li0  1  0.196690  0.265187  0.864808  1
  Li  Li1  1  0.636361  0.943846  0.904071  1
  Li  Li2  1  0.927900  0.660905  0.853458  1
  Li  Li3  1  0.329492  0.796905  0.590527  1
  Li  Li4  1  0.669603  0.202249  0.408217  1
  Li  Li5  1  0.072709  0.339761  0.147703  1
  Li  Li6  1  0.366026  0.055932  0.098192  1
  Li  Li7  1  0.803071  0.734270  0.132494  1
  Mn  Mn8  1  0.284354  0.148181  0.437656  1
  Mn  Mn9  1  0.711624  0.849987  0.561824  1
  Mn  Mn10  1  0.688914  0.350395  0.031378  1
  V  V11  1  0.311082  0.649056  0.966835  1
  P  P12  1  0.214539  0.948521  0.754487  1
  P  P13  1  0.494748  0.550769  0.751967  1
  P  P14  1  0.808384  0.256468  0.762181  1
  P  P15  1  0.191408  0.745586  0.237877  1
  P  P16  1  0.506275  0.451428  0.244155  1
  P  P17  1  0.783643  0.047673  0.247917  1
  O  O18  1  0.360090  0.148458  0.895405  1
  O  O19  1  0.340589  0.505396  0.820189  1
  O  O20  1  0.318540  0.832214  0.817624  1
  O  O21  1  0.696720  0.565366  0.896465  1
  O  O22  1  0.745646  0.213147  0.903553  1
  O  O23  1  0.567957  0.750745  0.726365  1
  O  O24  1  0.207254  0.966781  0.589076  1
  O  O25  1  0.381946  0.397521  0.591109  1
  O  O26  1  0.986390  0.470885  0.822440  1
  O  O27  1  0.892066  0.132521  0.756020  1
  O  O28  1  0.617992  0.208575  0.592589  1
  O  O29  1  0.999563  0.852605  0.744102  1
  O  O30  1  0.997053  0.145259  0.253911  1
  O  O31  1  0.382571  0.792885  0.407528  1
  O  O32  1  0.106774  0.867526  0.246764  1
  O  O33  1  0.014387  0.529007  0.177797  1
  O  O34  1  0.621353  0.605930  0.404441  1
  O  O35  1  0.800137  0.029349  0.416542  1
  O  O36  1  0.424567  0.251269  0.267163  1
  O  O37  1  0.255371  0.788922  0.099272  1
  O  O38  1  0.307436  0.445429  0.099616  1
  O  O39  1  0.676801  0.160507  0.189326  1
  O  O40  1  0.664183  0.494827  0.179782  1
  O  O41  1  0.637791  0.847758  0.107175  1
