# generated using pymatgen
data_Li5Ni2O2F5
_symmetry_space_group_name_H-M   'P 1'
_cell_length_a   14.62747870
_cell_length_b   14.62747870
_cell_length_c   14.62747870
_cell_angle_alpha   168.50353473
_cell_angle_beta   168.50353473
_cell_angle_gamma   16.28596701
_symmetry_Int_Tables_number   1
_chemical_formula_structural   Li5Ni2O2F5
_chemical_formula_sum   'Li5 Ni2 O2 F5'
_cell_volume   124.31780130
_cell_formula_units_Z   1
loop_
 _symmetry_equiv_pos_site_id
 _symmetry_equiv_pos_as_xyz
  1  'x, y, z'
loop_
 _atom_site_type_symbol
 _atom_site_label
 _atom_site_symmetry_multiplicity
 _atom_site_fract_x
 _atom_site_fract_y
 _atom_site_fract_z
 _atom_site_occupancy
  Li  Li0  1  0.858716  0.858716  0.000000  1
  Li  Li1  1  0.430166  0.430166  0.000000  1
  Li  Li2  1  0.000000  0.000000  0.000000  1
  Li  Li3  1  0.569834  0.569834  0.000000  1
  Li  Li4  1  0.141284  0.141284  0.000000  1
  Ni  Ni5  1  0.714330  0.714330  0.000000  1
  Ni  Ni6  1  0.285670  0.285670  0.000000  1
  O  O7  1  0.212855  0.212855  0.000000  1
  O  O8  1  0.787145  0.787145  0.000000  1
  F  F9  1  0.360655  0.360655  0.000000  1
  F  F10  1  0.929832  0.929832  0.000000  1
  F  F11  1  0.500000  0.500000  0.000000  1
  F  F12  1  0.070168  0.070168  0.000000  1
  F  F13  1  0.639345  0.639345  0.000000  1
