# generated using pymatgen
data_Na3CrBAsO7
_symmetry_space_group_name_H-M   'P 1'
_cell_length_a   5.31788470
_cell_length_b   6.74536202
_cell_length_c   9.11699771
_cell_angle_alpha   90.00000000
_cell_angle_beta   91.74597331
_cell_angle_gamma   90.00000000
_symmetry_Int_Tables_number   1
_chemical_formula_structural   Na3CrBAsO7
_chemical_formula_sum   'Na6 Cr2 B2 As2 O14'
_cell_volume   326.88451722
_cell_formula_units_Z   2
loop_
 _symmetry_equiv_pos_site_id
 _symmetry_equiv_pos_as_xyz
  1  'x, y, z'
loop_
 _atom_site_type_symbol
 _atom_site_label
 _atom_site_symmetry_multiplicity
 _atom_site_fract_x
 _atom_site_fract_y
 _atom_site_fract_z
 _atom_site_occupancy
  Na  Na0  1  0.242017  0.750000  0.071874  1
  Na  Na1  1  0.750734  0.999455  0.244289  1
  Na  Na2  1  0.750734  0.500545  0.244289  1
  Na  Na3  1  0.249266  0.499455  0.755711  1
  Na  Na4  1  0.249266  0.000545  0.755711  1
  Na  Na5  1  0.757983  0.250000  0.928126  1
  Cr  Cr6  1  0.217324  0.250000  0.328205  1
  Cr  Cr7  1  0.782676  0.750000  0.671795  1
  B  B8  1  0.270922  0.250000  0.063849  1
  B  B9  1  0.729078  0.750000  0.936151  1
  As  As10  1  0.289734  0.750000  0.423154  1
  As  As11  1  0.710266  0.250000  0.576846  1
  O  O12  1  0.698196  0.750000  0.082108  1
  O  O13  1  0.036450  0.250000  0.131496  1
  O  O14  1  0.469491  0.250000  0.169545  1
  O  O15  1  0.212978  0.946002  0.309219  1
  O  O16  1  0.212978  0.553998  0.309219  1
  O  O17  1  0.609592  0.750000  0.464286  1
  O  O18  1  0.864997  0.250000  0.415723  1
  O  O19  1  0.135003  0.750000  0.584277  1
  O  O20  1  0.390408  0.250000  0.535714  1
  O  O21  1  0.787022  0.446002  0.690781  1
  O  O22  1  0.787022  0.053998  0.690781  1
  O  O23  1  0.530509  0.750000  0.830455  1
  O  O24  1  0.963550  0.750000  0.868504  1
  O  O25  1  0.301804  0.250000  0.917892  1
