# generated using pymatgen
data_Li3Cu(TeO3)4
_symmetry_space_group_name_H-M   'P 1'
_cell_length_a   5.30773984
_cell_length_b   5.71546385
_cell_length_c   7.84113178
_cell_angle_alpha   83.94758886
_cell_angle_beta   89.79702226
_cell_angle_gamma   89.90914960
_symmetry_Int_Tables_number   1
_chemical_formula_structural   Li3Cu(TeO3)4
_chemical_formula_sum   'Li3 Cu1 Te4 O12'
_cell_volume   236.54252326
_cell_formula_units_Z   1
loop_
 _symmetry_equiv_pos_site_id
 _symmetry_equiv_pos_as_xyz
  1  'x, y, z'
loop_
 _atom_site_type_symbol
 _atom_site_label
 _atom_site_symmetry_multiplicity
 _atom_site_fract_x
 _atom_site_fract_y
 _atom_site_fract_z
 _atom_site_occupancy
  Li  Li0  1  0.501329  0.953942  0.226344  1
  Li  Li1  1  0.996876  0.416454  0.207158  1
  Li  Li2  1  0.501630  0.913636  0.707773  1
  Cu  Cu3  1  0.999412  0.492192  0.747241  1
  Te  Te4  1  0.000169  0.995181  0.002116  1
  Te  Te5  1  0.494597  0.487305  0.493816  1
  Te  Te6  1  0.007436  0.010715  0.500582  1
  Te  Te7  1  0.493849  0.512995  0.014098  1
  O  O8  1  0.699325  0.185735  0.572001  1
  O  O9  1  0.867648  0.031589  0.264350  1
  O  O10  1  0.659459  0.835431  0.958018  1
  O  O11  1  0.824402  0.721759  0.582662  1
  O  O12  1  0.200217  0.696457  0.096482  1
  O  O13  1  0.636516  0.535195  0.253214  1
  O  O14  1  0.362563  0.547584  0.783103  1
  O  O15  1  0.813091  0.364603  0.957843  1
  O  O16  1  0.162411  0.327199  0.432866  1
  O  O17  1  0.322793  0.224744  0.092372  1
  O  O18  1  0.140132  0.032906  0.734552  1
  O  O19  1  0.316145  0.855179  0.443808  1
