# generated using pymatgen
data_Li2MnVP2(HO5)2
_symmetry_space_group_name_H-M   'P 1'
_cell_length_a   6.95633574
_cell_length_b   7.41470192
_cell_length_c   8.05206091
_cell_angle_alpha   91.70266720
_cell_angle_beta   92.28652503
_cell_angle_gamma   117.49036191
_symmetry_Int_Tables_number   1
_chemical_formula_structural   Li2MnVP2(HO5)2
_chemical_formula_sum   'Li4 Mn2 V2 P4 H4 O20'
_cell_volume   367.58784705
_cell_formula_units_Z   2
loop_
 _symmetry_equiv_pos_site_id
 _symmetry_equiv_pos_as_xyz
  1  'x, y, z'
loop_
 _atom_site_type_symbol
 _atom_site_label
 _atom_site_symmetry_multiplicity
 _atom_site_fract_x
 _atom_site_fract_y
 _atom_site_fract_z
 _atom_site_occupancy
  Li  Li0  1  0.072818  0.822868  0.675921  1
  Li  Li1  1  0.428569  0.173313  0.825476  1
  Li  Li2  1  0.571431  0.826687  0.174524  1
  Li  Li3  1  0.927182  0.177132  0.324079  1
  Mn  Mn4  1  0.500000  0.500000  0.500000  1
  Mn  Mn5  1  0.500000  0.000000  0.500000  1
  V  V6  1  0.000000  0.500000  0.000000  1
  V  V7  1  0.000000  0.000000  0.000000  1
  P  P8  1  0.478426  0.766323  0.843855  1
  P  P9  1  0.022603  0.232064  0.658473  1
  P  P10  1  0.977397  0.767936  0.341527  1
  P  P11  1  0.521574  0.233677  0.156145  1
  H  H12  1  0.789143  0.660546  0.848019  1
  H  H13  1  0.289874  0.669879  0.351801  1
  H  H14  1  0.710126  0.330121  0.648199  1
  H  H15  1  0.210857  0.339454  0.151981  1
  O  O16  1  0.324184  0.656615  0.982202  1
  O  O17  1  0.113953  0.120167  0.773709  1
  O  O18  1  0.381786  0.875504  0.732753  1
  O  O19  1  0.687784  0.927229  0.942597  1
  O  O20  1  0.181969  0.925280  0.443696  1
  O  O21  1  0.535669  0.618447  0.741325  1
  O  O22  1  0.183292  0.342598  0.521029  1
  O  O23  1  0.031808  0.618908  0.239284  1
  O  O24  1  0.942005  0.724520  0.896048  1
  O  O25  1  0.444232  0.737078  0.395091  1
  O  O26  1  0.555768  0.262922  0.604909  1
  O  O27  1  0.057995  0.275480  0.103952  1
  O  O28  1  0.968192  0.381092  0.760716  1
  O  O29  1  0.816708  0.657402  0.478971  1
  O  O30  1  0.464331  0.381553  0.258675  1
  O  O31  1  0.818031  0.074720  0.556304  1
  O  O32  1  0.312216  0.072771  0.057403  1
  O  O33  1  0.618214  0.124496  0.267247  1
  O  O34  1  0.886047  0.879833  0.226291  1
  O  O35  1  0.675816  0.343385  0.017798  1
