# generated using pymatgen
data_Li3Mn3CrO8
_symmetry_space_group_name_H-M   'P 1'
_cell_length_a   5.86069821
_cell_length_b   5.86069821
_cell_length_c   9.50881992
_cell_angle_alpha   89.56364884
_cell_angle_beta   90.43635116
_cell_angle_gamma   61.16851689
_symmetry_Int_Tables_number   1
_chemical_formula_structural   Li3Mn3CrO8
_chemical_formula_sum   'Li6 Mn6 Cr2 O16'
_cell_volume   286.08924459
_cell_formula_units_Z   2
loop_
 _symmetry_equiv_pos_site_id
 _symmetry_equiv_pos_as_xyz
  1  'x, y, z'
loop_
 _atom_site_type_symbol
 _atom_site_label
 _atom_site_symmetry_multiplicity
 _atom_site_fract_x
 _atom_site_fract_y
 _atom_site_fract_z
 _atom_site_occupancy
  Li  Li0  1  0.825437  0.352637  0.554790  1
  Li  Li1  1  0.346738  0.835385  0.557791  1
  Li  Li2  1  0.835515  0.826827  0.556974  1
  Li  Li3  1  0.173173  0.164485  0.056974  1
  Li  Li4  1  0.647363  0.174563  0.054790  1
  Li  Li5  1  0.164615  0.653262  0.057791  1
  Mn  Mn6  1  0.834392  0.338948  0.284520  1
  Mn  Mn7  1  0.341026  0.834004  0.285603  1
  Mn  Mn8  1  0.837440  0.835107  0.288640  1
  Mn  Mn9  1  0.164893  0.162560  0.788640  1
  Mn  Mn10  1  0.661052  0.165608  0.784520  1
  Mn  Mn11  1  0.165996  0.658974  0.785603  1
  Cr  Cr12  1  0.657730  0.663116  0.010199  1
  Cr  Cr13  1  0.336884  0.342270  0.510199  1
  O  O14  1  0.809667  0.323345  0.908225  1
  O  O15  1  0.515466  0.515234  0.162909  1
  O  O16  1  0.704879  0.648689  0.401596  1
  O  O17  1  0.970763  0.019527  0.175411  1
  O  O18  1  0.980473  0.029237  0.675411  1
  O  O19  1  0.307567  0.835815  0.907641  1
  O  O20  1  0.966436  0.499088  0.147506  1
  O  O21  1  0.520220  0.957729  0.157633  1
  O  O22  1  0.833125  0.836829  0.897189  1
  O  O23  1  0.163171  0.166875  0.397189  1
  O  O24  1  0.500912  0.033564  0.647506  1
  O  O25  1  0.351311  0.295121  0.901596  1
  O  O26  1  0.042271  0.479780  0.657633  1
  O  O27  1  0.676655  0.190333  0.408225  1
  O  O28  1  0.484766  0.484534  0.662909  1
  O  O29  1  0.164185  0.692433  0.407641  1
