# generated using pymatgen
data_Li6Mn5Fe(BO3)6
_symmetry_space_group_name_H-M   'P 1'
_cell_length_a   8.86982808
_cell_length_b   8.86982808
_cell_length_c   8.26034014
_cell_angle_alpha   62.21647318
_cell_angle_beta   117.78352682
_cell_angle_gamma   137.86643724
_symmetry_Int_Tables_number   1
_chemical_formula_structural   Li6Mn5Fe(BO3)6
_chemical_formula_sum   'Li6 Mn5 Fe1 B6 O18'
_cell_volume   377.68585858
_cell_formula_units_Z   1
loop_
 _symmetry_equiv_pos_site_id
 _symmetry_equiv_pos_as_xyz
  1  'x, y, z'
loop_
 _atom_site_type_symbol
 _atom_site_label
 _atom_site_symmetry_multiplicity
 _atom_site_fract_x
 _atom_site_fract_y
 _atom_site_fract_z
 _atom_site_occupancy
  Li  Li0  1  0.740965  0.757907  0.284040  1
  Li  Li1  1  0.242093  0.259035  0.284040  1
  Li  Li2  1  0.900204  0.598703  0.018271  1
  Li  Li3  1  0.401297  0.099796  0.018271  1
  Li  Li4  1  0.608453  0.891973  0.698877  1
  Li  Li5  1  0.108027  0.391547  0.698877  1
  Mn  Mn6  1  0.179517  0.820483  0.371225  1
  Mn  Mn7  1  0.506007  0.493993  0.639714  1
  Mn  Mn8  1  0.006092  0.993908  0.640844  1
  Mn  Mn9  1  0.814389  0.185611  0.988142  1
  Mn  Mn10  1  0.313916  0.686084  0.987736  1
  Fe  Fe11  1  0.680253  0.319747  0.369016  1
  B  B12  1  0.080908  0.415215  0.333266  1
  B  B13  1  0.584785  0.919092  0.333266  1
  B  B14  1  0.915482  0.581957  0.665385  1
  B  B15  1  0.418043  0.084518  0.665385  1
  B  B16  1  0.999938  0.000062  0.999921  1
  B  B17  1  0.500192  0.499808  0.002162  1
  O  O18  1  0.460289  0.539711  0.115746  1
  O  O19  1  0.961082  0.038918  0.115840  1
  O  O20  1  0.540070  0.960008  0.139665  1
  O  O21  1  0.039992  0.459930  0.139665  1
  O  O22  1  0.096600  0.903400  0.077396  1
  O  O23  1  0.597365  0.402635  0.084032  1
  O  O24  1  0.179330  0.320238  0.440812  1
  O  O25  1  0.679762  0.820670  0.440812  1
  O  O26  1  0.532889  0.975014  0.419223  1
  O  O27  1  0.024986  0.467111  0.419223  1
  O  O28  1  0.873591  0.621793  0.471687  1
  O  O29  1  0.378207  0.126410  0.471687  1
  O  O30  1  0.443677  0.556323  0.808283  1
  O  O31  1  0.942091  0.057909  0.806249  1
  O  O32  1  0.013228  0.486108  0.777258  1
  O  O33  1  0.513892  0.986772  0.777258  1
  O  O34  1  0.861015  0.638627  0.748363  1
  O  O35  1  0.361373  0.138985  0.748363  1
