# generated using pymatgen
data_Li3Mn4(BO3)4
_symmetry_space_group_name_H-M   'P 1'
_cell_length_a   5.28846992
_cell_length_b   9.09230215
_cell_length_c   11.57125895
_cell_angle_alpha   90.00000000
_cell_angle_beta   116.35488572
_cell_angle_gamma   90.00000000
_symmetry_Int_Tables_number   1
_chemical_formula_structural   Li3Mn4(BO3)4
_chemical_formula_sum   'Li6 Mn8 B8 O24'
_cell_volume   498.56566889
_cell_formula_units_Z   2
loop_
 _symmetry_equiv_pos_site_id
 _symmetry_equiv_pos_as_xyz
  1  'x, y, z'
loop_
 _atom_site_type_symbol
 _atom_site_label
 _atom_site_symmetry_multiplicity
 _atom_site_fract_x
 _atom_site_fract_y
 _atom_site_fract_z
 _atom_site_occupancy
  Li  Li0  1  0.513790  0.231029  0.658045  1
  Li  Li1  1  0.015238  0.263853  0.180636  1
  Li  Li2  1  0.566742  0.740723  0.910219  1
  Li  Li3  1  0.513790  0.768971  0.158045  1
  Li  Li4  1  0.015238  0.736147  0.680636  1
  Li  Li5  1  0.566742  0.259277  0.410219  1
  Mn  Mn6  1  0.460084  0.888322  0.621123  1
  Mn  Mn7  1  0.982353  0.580291  0.135419  1
  Mn  Mn8  1  0.559139  0.398664  0.884962  1
  Mn  Mn9  1  0.023196  0.062673  0.378792  1
  Mn  Mn10  1  0.982353  0.419709  0.635419  1
  Mn  Mn11  1  0.460084  0.111678  0.121123  1
  Mn  Mn12  1  0.559139  0.601336  0.384962  1
  Mn  Mn13  1  0.023196  0.937327  0.878792  1
  B  B14  1  0.464320  0.571681  0.630905  1
  B  B15  1  0.947656  0.924831  0.121709  1
  B  B16  1  0.534582  0.061454  0.865934  1
  B  B17  1  0.048965  0.414119  0.380145  1
  B  B18  1  0.947656  0.075169  0.621709  1
  B  B19  1  0.464320  0.428319  0.130905  1
  B  B20  1  0.048965  0.585881  0.880145  1
  B  B21  1  0.534582  0.938546  0.365934  1
  O  O22  1  0.364174  0.943669  0.428708  1
  O  O23  1  0.842196  0.574727  0.924080  1
  O  O24  1  0.629639  0.188088  0.840176  1
  O  O25  1  0.139713  0.535969  0.337109  1
  O  O26  1  0.611595  0.924945  0.831589  1
  O  O27  1  0.159521  0.277179  0.373759  1
  O  O28  1  0.408478  0.432124  0.662417  1
  O  O29  1  0.899131  0.048605  0.183900  1
  O  O30  1  0.809399  0.795828  0.107298  1
  O  O31  1  0.309178  0.689610  0.636404  1
  O  O32  1  0.683927  0.405737  0.095271  1
  O  O33  1  0.144325  0.055160  0.571724  1
  O  O34  1  0.364174  0.056331  0.928708  1
  O  O35  1  0.842196  0.425273  0.424080  1
  O  O36  1  0.139713  0.464031  0.837109  1
  O  O37  1  0.159521  0.722821  0.873759  1
  O  O38  1  0.629639  0.811912  0.340176  1
  O  O39  1  0.611595  0.075055  0.331589  1
  O  O40  1  0.408478  0.567876  0.162417  1
  O  O41  1  0.899131  0.951395  0.683900  1
  O  O42  1  0.809399  0.204172  0.607298  1
  O  O43  1  0.309178  0.310390  0.136404  1
  O  O44  1  0.683927  0.594263  0.595271  1
  O  O45  1  0.144325  0.944840  0.071724  1
