# generated using pymatgen
data_TiCo(PO4)2
_symmetry_space_group_name_H-M   'P 1'
_cell_length_a   4.92319198
_cell_length_b   5.95707335
_cell_length_c   9.96578319
_cell_angle_alpha   90.00000000
_cell_angle_beta   90.46896922
_cell_angle_gamma   90.00000000
_symmetry_Int_Tables_number   1
_chemical_formula_structural   TiCo(PO4)2
_chemical_formula_sum   'Ti2 Co2 P4 O16'
_cell_volume   292.26486249
_cell_formula_units_Z   2
loop_
 _symmetry_equiv_pos_site_id
 _symmetry_equiv_pos_as_xyz
  1  'x, y, z'
loop_
 _atom_site_type_symbol
 _atom_site_label
 _atom_site_symmetry_multiplicity
 _atom_site_fract_x
 _atom_site_fract_y
 _atom_site_fract_z
 _atom_site_occupancy
  Ti  Ti0  1  0.524360  0.250000  0.225523  1
  Ti  Ti1  1  0.475640  0.750000  0.774477  1
  Co  Co2  1  0.030750  0.750000  0.270349  1
  Co  Co3  1  0.969250  0.250000  0.729651  1
  P  P4  1  0.562392  0.750000  0.098187  1
  P  P5  1  0.099658  0.250000  0.400863  1
  P  P6  1  0.900342  0.750000  0.599137  1
  P  P7  1  0.437608  0.250000  0.901813  1
  O  O8  1  0.352894  0.250000  0.052283  1
  O  O9  1  0.257419  0.750000  0.109237  1
  O  O10  1  0.701326  0.956249  0.171104  1
  O  O11  1  0.701326  0.543751  0.171104  1
  O  O12  1  0.251818  0.446872  0.325969  1
  O  O13  1  0.251818  0.053128  0.325969  1
  O  O14  1  0.794251  0.250000  0.362993  1
  O  O15  1  0.859631  0.750000  0.449593  1
  O  O16  1  0.140369  0.250000  0.550407  1
  O  O17  1  0.205749  0.750000  0.637007  1
  O  O18  1  0.748182  0.946872  0.674031  1
  O  O19  1  0.748182  0.553128  0.674031  1
  O  O20  1  0.298674  0.456249  0.828896  1
  O  O21  1  0.298674  0.043751  0.828896  1
  O  O22  1  0.742581  0.250000  0.890763  1
  O  O23  1  0.647106  0.750000  0.947717  1
