# generated using pymatgen
data_Li5Ni3O5F3
_symmetry_space_group_name_H-M   'P 1'
_cell_length_a   5.59938421
_cell_length_b   5.75624396
_cell_length_c   5.98309483
_cell_angle_alpha   118.67083396
_cell_angle_beta   117.37320220
_cell_angle_gamma   90.35921488
_symmetry_Int_Tables_number   1
_chemical_formula_structural   Li5Ni3O5F3
_chemical_formula_sum   'Li5 Ni3 O5 F3'
_cell_volume   143.74382739
_cell_formula_units_Z   1
loop_
 _symmetry_equiv_pos_site_id
 _symmetry_equiv_pos_as_xyz
  1  'x, y, z'
loop_
 _atom_site_type_symbol
 _atom_site_label
 _atom_site_symmetry_multiplicity
 _atom_site_fract_x
 _atom_site_fract_y
 _atom_site_fract_z
 _atom_site_occupancy
  Li  Li0  1  0.501069  0.000316  0.501651  1
  Li  Li1  1  0.996552  0.005846  0.003114  1
  Li  Li2  1  0.997800  0.485750  0.012233  1
  Li  Li3  1  0.990318  0.010199  0.479853  1
  Li  Li4  1  0.508640  0.492332  0.004048  1
  Ni  Ni5  1  0.506503  0.005628  0.001405  1
  Ni  Ni6  1  0.519184  0.484839  0.534418  1
  Ni  Ni7  1  0.000149  0.500929  0.499033  1
  O  O8  1  0.747959  0.254312  0.993904  1
  O  O9  1  0.261940  0.258989  0.536413  1
  O  O10  1  0.758632  0.285064  0.502887  1
  O  O11  1  0.243027  0.715631  0.496950  1
  O  O12  1  0.734892  0.741458  0.459507  1
  F  F13  1  0.278591  0.223293  0.066697  1
  F  F14  1  0.722826  0.776186  0.936462  1
  F  F15  1  0.231917  0.759231  0.971426  1
