# generated using pymatgen
data_Sr3TeO6
_symmetry_space_group_name_H-M   'P 1'
_cell_length_a   5.91197576
_cell_length_b   6.13200767
_cell_length_c   10.33893313
_cell_angle_alpha   90.00000000
_cell_angle_beta   124.90296792
_cell_angle_gamma   90.00000000
_symmetry_Int_Tables_number   1
_chemical_formula_structural   Sr3TeO6
_chemical_formula_sum   'Sr6 Te2 O12'
_cell_volume   307.38993857
_cell_formula_units_Z   2
loop_
 _symmetry_equiv_pos_site_id
 _symmetry_equiv_pos_as_xyz
  1  'x, y, z'
loop_
 _atom_site_type_symbol
 _atom_site_label
 _atom_site_symmetry_multiplicity
 _atom_site_fract_x
 _atom_site_fract_y
 _atom_site_fract_z
 _atom_site_occupancy
  Sr  Sr0  1  0.500000  0.500000  0.500000  1
  Sr  Sr1  1  0.732156  0.951912  0.746032  1
  Sr  Sr2  1  0.267844  0.451912  0.753968  1
  Sr  Sr3  1  0.500000  0.000000  0.000000  1
  Sr  Sr4  1  0.732156  0.548088  0.246032  1
  Sr  Sr5  1  0.267844  0.048088  0.253968  1
  Te  Te6  1  0.000000  0.500000  0.000000  1
  Te  Te7  1  0.000000  0.000000  0.500000  1
  O  O8  1  0.117412  0.451599  0.217877  1
  O  O9  1  0.766082  0.237820  0.935368  1
  O  O10  1  0.311227  0.177045  0.542761  1
  O  O11  1  0.688773  0.677045  0.957239  1
  O  O12  1  0.233918  0.737820  0.564632  1
  O  O13  1  0.882588  0.951599  0.282123  1
  O  O14  1  0.117412  0.048401  0.717877  1
  O  O15  1  0.766082  0.262180  0.435368  1
  O  O16  1  0.311227  0.322955  0.042761  1
  O  O17  1  0.688773  0.822955  0.457239  1
  O  O18  1  0.233918  0.762180  0.064632  1
  O  O19  1  0.882588  0.548401  0.782123  1
