# generated using pymatgen
data_Sb(PO3)4
_symmetry_space_group_name_H-M   'P 1'
_cell_length_a   7.28038881
_cell_length_b   13.53346296
_cell_length_c   11.90091273
_cell_angle_alpha   90.00000000
_cell_angle_beta   125.50821216
_cell_angle_gamma   90.00000000
_symmetry_Int_Tables_number   1
_chemical_formula_structural   Sb(PO3)4
_chemical_formula_sum   'Sb4 P16 O48'
_cell_volume   954.52082662
_cell_formula_units_Z   4
loop_
 _symmetry_equiv_pos_site_id
 _symmetry_equiv_pos_as_xyz
  1  'x, y, z'
loop_
 _atom_site_type_symbol
 _atom_site_label
 _atom_site_symmetry_multiplicity
 _atom_site_fract_x
 _atom_site_fract_y
 _atom_site_fract_z
 _atom_site_occupancy
  Sb  Sb0  1  0.453254  0.787338  0.924123  1
  Sb  Sb1  1  0.546746  0.287338  0.575877  1
  Sb  Sb2  1  0.453254  0.712662  0.424123  1
  Sb  Sb3  1  0.546746  0.212662  0.075877  1
  P  P4  1  0.490108  0.588786  0.801677  1
  P  P5  1  0.424216  0.374689  0.802788  1
  P  P6  1  0.066845  0.911823  0.781628  1
  P  P7  1  0.163434  0.123099  0.761198  1
  P  P8  1  0.836566  0.623099  0.738802  1
  P  P9  1  0.575784  0.874689  0.697212  1
  P  P10  1  0.509892  0.088786  0.698323  1
  P  P11  1  0.933155  0.411823  0.718372  1
  P  P12  1  0.066845  0.588177  0.281628  1
  P  P13  1  0.490108  0.911214  0.301677  1
  P  P14  1  0.424216  0.125311  0.302788  1
  P  P15  1  0.163434  0.376901  0.261198  1
  P  P16  1  0.836566  0.876901  0.238802  1
  P  P17  1  0.933155  0.088177  0.218372  1
  P  P18  1  0.575784  0.625311  0.197212  1
  P  P19  1  0.509892  0.411214  0.198323  1
  O  O20  1  0.629199  0.658202  0.929206  1
  O  O21  1  0.251585  0.904337  0.937969  1
  O  O22  1  0.546436  0.294927  0.910302  1
  O  O23  1  0.265745  0.149069  0.913544  1
  O  O24  1  0.539665  0.478846  0.871870  1
  O  O25  1  0.595234  0.861264  0.830339  1
  O  O26  1  0.979368  0.696329  0.845807  1
  O  O27  1  0.749730  0.111607  0.798159  1
  O  O28  1  0.176008  0.384993  0.761812  1
  O  O29  1  0.864208  0.346844  0.792027  1
  O  O30  1  0.373938  0.081097  0.765686  1
  O  O31  1  0.977635  0.522812  0.770402  1
  O  O32  1  0.626062  0.581097  0.734314  1
  O  O33  1  0.022365  0.022812  0.729598  1
  O  O34  1  0.250270  0.611607  0.701841  1
  O  O35  1  0.135792  0.846844  0.707973  1
  O  O36  1  0.823992  0.884993  0.738188  1
  O  O37  1  0.404766  0.361264  0.669661  1
  O  O38  1  0.460335  0.978846  0.628130  1
  O  O39  1  0.020632  0.196329  0.654193  1
  O  O40  1  0.453564  0.794927  0.589698  1
  O  O41  1  0.370801  0.158202  0.570794  1
  O  O42  1  0.734255  0.649069  0.586456  1
  O  O43  1  0.748415  0.404337  0.562031  1
  O  O44  1  0.251585  0.595663  0.437969  1
  O  O45  1  0.265745  0.350931  0.413544  1
  O  O46  1  0.629199  0.841798  0.429206  1
  O  O47  1  0.546436  0.205073  0.410302  1
  O  O48  1  0.979368  0.803671  0.345807  1
  O  O49  1  0.539665  0.021154  0.371870  1
  O  O50  1  0.595234  0.638736  0.330339  1
  O  O51  1  0.176008  0.115007  0.261812  1
  O  O52  1  0.864208  0.153156  0.292027  1
  O  O53  1  0.749730  0.388393  0.298159  1
  O  O54  1  0.977635  0.977188  0.270402  1
  O  O55  1  0.373938  0.418903  0.265686  1
  O  O56  1  0.022365  0.477188  0.229598  1
  O  O57  1  0.626062  0.918903  0.234314  1
  O  O58  1  0.135792  0.653156  0.207973  1
  O  O59  1  0.823992  0.615007  0.238188  1
  O  O60  1  0.250270  0.888393  0.201841  1
  O  O61  1  0.020632  0.303671  0.154193  1
  O  O62  1  0.404766  0.138736  0.169661  1
  O  O63  1  0.460335  0.521154  0.128130  1
  O  O64  1  0.734255  0.850931  0.086456  1
  O  O65  1  0.453564  0.705073  0.089698  1
  O  O66  1  0.748415  0.095663  0.062031  1
  O  O67  1  0.370801  0.341798  0.070794  1
