# generated using pymatgen
data_TiGa2O5
_symmetry_space_group_name_H-M   'P 1'
_cell_length_a   5.64301270
_cell_length_b   5.64301270
_cell_length_c   7.06332254
_cell_angle_alpha   71.65583292
_cell_angle_beta   108.34416708
_cell_angle_gamma   126.91366599
_symmetry_Int_Tables_number   1
_chemical_formula_structural   TiGa2O5
_chemical_formula_sum   'Ti2 Ga4 O10'
_cell_volume   168.33789275
_cell_formula_units_Z   2
loop_
 _symmetry_equiv_pos_site_id
 _symmetry_equiv_pos_as_xyz
  1  'x, y, z'
loop_
 _atom_site_type_symbol
 _atom_site_label
 _atom_site_symmetry_multiplicity
 _atom_site_fract_x
 _atom_site_fract_y
 _atom_site_fract_z
 _atom_site_occupancy
  Ti  Ti0  1  0.000000  1.000000  0.500000  1
  Ti  Ti1  1  0.000000  0.000000  0.000000  1
  Ga  Ga2  1  0.360746  0.633240  0.274285  1
  Ga  Ga3  1  0.366760  0.639254  0.774285  1
  Ga  Ga4  1  0.633240  0.360746  0.225715  1
  Ga  Ga5  1  0.639254  0.366760  0.725715  1
  O  O6  1  0.249640  0.418560  0.050957  1
  O  O7  1  0.581440  0.750360  0.550957  1
  O  O8  1  0.968209  0.337965  0.350147  1
  O  O9  1  0.337965  0.968209  0.149853  1
  O  O10  1  0.662035  0.031791  0.850147  1
  O  O11  1  0.031791  0.662035  0.649853  1
  O  O12  1  0.418560  0.249640  0.449043  1
  O  O13  1  0.803525  0.803525  0.250000  1
  O  O14  1  0.750360  0.581440  0.949043  1
  O  O15  1  0.196475  0.196475  0.750000  1
