# generated using pymatgen
data_LiVNiO4
_symmetry_space_group_name_H-M   'P 1'
_cell_length_a   5.86409474
_cell_length_b   5.86409474
_cell_length_c   5.86409474
_cell_angle_alpha   120.42714925
_cell_angle_beta   119.15292100
_cell_angle_gamma   90.36757598
_symmetry_Int_Tables_number   1
_chemical_formula_structural   LiVNiO4
_chemical_formula_sum   'Li2 V2 Ni2 O8'
_cell_volume   143.01702988
_cell_formula_units_Z   2
loop_
 _symmetry_equiv_pos_site_id
 _symmetry_equiv_pos_as_xyz
  1  'x, y, z'
loop_
 _atom_site_type_symbol
 _atom_site_label
 _atom_site_symmetry_multiplicity
 _atom_site_fract_x
 _atom_site_fract_y
 _atom_site_fract_z
 _atom_site_occupancy
  Li  Li0  1  0.000000  0.500000  0.500000  1
  Li  Li1  1  0.000000  0.000000  0.000000  1
  V  V2  1  0.376832  0.626832  0.250000  1
  V  V3  1  0.623168  0.373168  0.750000  1
  Ni  Ni4  1  0.500000  0.000000  0.000000  1
  Ni  Ni5  1  0.000000  0.000000  0.500000  1
  O  O6  1  0.252959  0.251816  0.998857  1
  O  O7  1  0.252959  0.754102  0.501143  1
  O  O8  1  0.263529  0.251248  0.512281  1
  O  O9  1  0.738967  0.251248  0.987719  1
  O  O10  1  0.261033  0.748752  0.012281  1
  O  O11  1  0.736471  0.748752  0.487719  1
  O  O12  1  0.747041  0.245898  0.498857  1
  O  O13  1  0.747041  0.748184  0.001143  1
