# generated using pymatgen
data_LaSCl
_symmetry_space_group_name_H-M   'P 1'
_cell_length_a   6.95834545
_cell_length_b   7.05059017
_cell_length_c   41.97295618
_cell_angle_alpha   90.00000000
_cell_angle_beta   90.00000000
_cell_angle_gamma   90.00000000
_symmetry_Int_Tables_number   1
_chemical_formula_structural   LaSCl
_chemical_formula_sum   'La24 S24 Cl24'
_cell_volume   2059.21178346
_cell_formula_units_Z   24
loop_
 _symmetry_equiv_pos_site_id
 _symmetry_equiv_pos_as_xyz
  1  'x, y, z'
loop_
 _atom_site_type_symbol
 _atom_site_label
 _atom_site_symmetry_multiplicity
 _atom_site_fract_x
 _atom_site_fract_y
 _atom_site_fract_z
 _atom_site_occupancy
  La  La0  1  0.286695  0.250000  0.000000  1
  La  La1  1  0.713305  0.750000  0.500000  1
  La  La2  1  0.713305  0.750000  0.000000  1
  La  La3  1  0.286695  0.250000  0.500000  1
  La  La4  1  0.317958  0.707379  0.250000  1
  La  La5  1  0.682042  0.292621  0.750000  1
  La  La6  1  0.317958  0.792621  0.750000  1
  La  La7  1  0.682042  0.207379  0.250000  1
  La  La8  1  0.696592  0.305410  0.582291  1
  La  La9  1  0.303408  0.694590  0.082291  1
  La  La10  1  0.696592  0.194590  0.417709  1
  La  La11  1  0.303408  0.805410  0.917709  1
  La  La12  1  0.303408  0.694590  0.417709  1
  La  La13  1  0.696592  0.305410  0.917709  1
  La  La14  1  0.303408  0.805410  0.582291  1
  La  La15  1  0.696592  0.194590  0.082291  1
  La  La16  1  0.698215  0.731636  0.665010  1
  La  La17  1  0.301785  0.268364  0.165010  1
  La  La18  1  0.698215  0.768364  0.334990  1
  La  La19  1  0.301785  0.231636  0.834990  1
  La  La20  1  0.301785  0.268364  0.334990  1
  La  La21  1  0.698215  0.731636  0.834990  1
  La  La22  1  0.301785  0.231636  0.665010  1
  La  La23  1  0.698215  0.768364  0.165010  1
  S  S24  1  0.532830  0.463849  0.040950  1
  S  S25  1  0.467170  0.536151  0.540950  1
  S  S26  1  0.532830  0.036151  0.959050  1
  S  S27  1  0.467170  0.963849  0.459050  1
  S  S28  1  0.467170  0.536151  0.959050  1
  S  S29  1  0.532830  0.463849  0.459050  1
  S  S30  1  0.467170  0.963849  0.040950  1
  S  S31  1  0.532830  0.036151  0.540950  1
  S  S32  1  0.545342  0.484834  0.125209  1
  S  S33  1  0.454658  0.515166  0.625209  1
  S  S34  1  0.545342  0.015166  0.874791  1
  S  S35  1  0.454658  0.984834  0.374791  1
  S  S36  1  0.454658  0.515166  0.874791  1
  S  S37  1  0.545342  0.484834  0.374791  1
  S  S38  1  0.454658  0.984834  0.125209  1
  S  S39  1  0.545342  0.015166  0.625209  1
  S  S40  1  0.540991  0.015116  0.791795  1
  S  S41  1  0.459009  0.984884  0.291795  1
  S  S42  1  0.540991  0.484884  0.208205  1
  S  S43  1  0.459009  0.515116  0.708205  1
  S  S44  1  0.459009  0.984884  0.208205  1
  S  S45  1  0.540991  0.015116  0.708205  1
  S  S46  1  0.459009  0.515116  0.791795  1
  S  S47  1  0.540991  0.484884  0.291795  1
  Cl  Cl48  1  0.062893  0.612043  0.304631  1
  Cl  Cl49  1  0.937107  0.387957  0.804631  1
  Cl  Cl50  1  0.062893  0.887957  0.695369  1
  Cl  Cl51  1  0.937107  0.112043  0.195369  1
  Cl  Cl52  1  0.937107  0.387957  0.695369  1
  Cl  Cl53  1  0.062893  0.612043  0.195369  1
  Cl  Cl54  1  0.937107  0.112043  0.304631  1
  Cl  Cl55  1  0.062893  0.887957  0.804631  1
  Cl  Cl56  1  0.065392  0.359682  0.389724  1
  Cl  Cl57  1  0.934608  0.640318  0.889724  1
  Cl  Cl58  1  0.065392  0.140318  0.610276  1
  Cl  Cl59  1  0.934608  0.859682  0.110276  1
  Cl  Cl60  1  0.934608  0.640318  0.610276  1
  Cl  Cl61  1  0.065392  0.359682  0.110276  1
  Cl  Cl62  1  0.934608  0.859682  0.389724  1
  Cl  Cl63  1  0.065392  0.140318  0.889724  1
  Cl  Cl64  1  0.042877  0.918674  0.965268  1
  Cl  Cl65  1  0.957123  0.081326  0.465268  1
  Cl  Cl66  1  0.042877  0.581326  0.034732  1
  Cl  Cl67  1  0.957123  0.418674  0.534732  1
  Cl  Cl68  1  0.957123  0.081326  0.034732  1
  Cl  Cl69  1  0.042877  0.918674  0.534732  1
  Cl  Cl70  1  0.957123  0.418674  0.965268  1
  Cl  Cl71  1  0.042877  0.581326  0.465268  1
