# generated using pymatgen
data_Sb(PO3)4
_symmetry_space_group_name_H-M   'P 1'
_cell_length_a   7.48515432
_cell_length_b   7.48515432
_cell_length_c   10.30361609
_cell_angle_alpha   67.40712448
_cell_angle_beta   112.59287552
_cell_angle_gamma   110.23451461
_symmetry_Int_Tables_number   1
_chemical_formula_structural   Sb(PO3)4
_chemical_formula_sum   'Sb2 P8 O24'
_cell_volume   478.58535486
_cell_formula_units_Z   2
loop_
 _symmetry_equiv_pos_site_id
 _symmetry_equiv_pos_as_xyz
  1  'x, y, z'
loop_
 _atom_site_type_symbol
 _atom_site_label
 _atom_site_symmetry_multiplicity
 _atom_site_fract_x
 _atom_site_fract_y
 _atom_site_fract_z
 _atom_site_occupancy
  Sb  Sb0  1  0.500000  0.000000  0.000000  1
  Sb  Sb1  1  0.000000  0.500000  0.500000  1
  P  P2  1  0.676528  0.312218  0.689728  1
  P  P3  1  0.271754  0.255178  0.472482  1
  P  P4  1  0.255178  0.271754  0.027518  1
  P  P5  1  0.687782  0.323472  0.189728  1
  P  P6  1  0.312218  0.676528  0.810272  1
  P  P7  1  0.744822  0.728246  0.972482  1
  P  P8  1  0.728246  0.744822  0.527518  1
  P  P9  1  0.323472  0.687782  0.310272  1
  O  O10  1  0.337711  0.799909  0.155885  1
  O  O11  1  0.681912  0.797374  0.069204  1
  O  O12  1  0.329504  0.463665  0.344307  1
  O  O13  1  0.202626  0.318088  0.569204  1
  O  O14  1  0.494645  0.222568  0.570898  1
  O  O15  1  0.864315  0.303763  0.668361  1
  O  O16  1  0.158158  0.090675  0.409343  1
  O  O17  1  0.799909  0.337711  0.344115  1
  O  O18  1  0.777432  0.505355  0.070898  1
  O  O19  1  0.303763  0.864315  0.831639  1
  O  O20  1  0.463665  0.329504  0.155693  1
  O  O21  1  0.090675  0.158158  0.090657  1
  O  O22  1  0.909325  0.841842  0.909343  1
  O  O23  1  0.536335  0.670496  0.844307  1
  O  O24  1  0.696237  0.135685  0.168361  1
  O  O25  1  0.222568  0.494645  0.929102  1
  O  O26  1  0.200091  0.662289  0.655885  1
  O  O27  1  0.841842  0.909325  0.590657  1
  O  O28  1  0.135685  0.696237  0.331639  1
  O  O29  1  0.505355  0.777432  0.429102  1
  O  O30  1  0.797374  0.681912  0.430796  1
  O  O31  1  0.670496  0.536335  0.655693  1
  O  O32  1  0.318088  0.202626  0.930796  1
  O  O33  1  0.662289  0.200091  0.844115  1
