# generated using pymatgen
data_Li2CrPCO7
_symmetry_space_group_name_H-M   'P 1'
_cell_length_a   5.05976878
_cell_length_b   6.39882535
_cell_length_c   8.30505935
_cell_angle_alpha   90.00000000
_cell_angle_beta   95.54911580
_cell_angle_gamma   90.00000000
_symmetry_Int_Tables_number   1
_chemical_formula_structural   Li2CrPCO7
_chemical_formula_sum   'Li4 Cr2 P2 C2 O14'
_cell_volume   267.62928685
_cell_formula_units_Z   2
loop_
 _symmetry_equiv_pos_site_id
 _symmetry_equiv_pos_as_xyz
  1  'x, y, z'
loop_
 _atom_site_type_symbol
 _atom_site_label
 _atom_site_symmetry_multiplicity
 _atom_site_fract_x
 _atom_site_fract_y
 _atom_site_fract_z
 _atom_site_occupancy
  Li  Li0  1  0.763482  0.244720  0.902355  1
  Li  Li1  1  0.248618  0.462515  0.717877  1
  Li  Li2  1  0.751382  0.962515  0.282123  1
  Li  Li3  1  0.236518  0.744720  0.097645  1
  Cr  Cr4  1  0.798368  0.754648  0.676239  1
  Cr  Cr5  1  0.201632  0.254648  0.323761  1
  P  P6  1  0.721773  0.250071  0.580623  1
  P  P7  1  0.278227  0.750071  0.419377  1
  C  C8  1  0.699371  0.750991  0.958833  1
  C  C9  1  0.300629  0.250991  0.041167  1
  O  O10  1  0.946396  0.750867  0.920506  1
  O  O11  1  0.365184  0.277479  0.899629  1
  O  O12  1  0.521309  0.727007  0.834743  1
  O  O13  1  0.782625  0.065058  0.698807  1
  O  O14  1  0.827623  0.438067  0.688268  1
  O  O15  1  0.143355  0.728648  0.575983  1
  O  O16  1  0.417566  0.277943  0.538734  1
  O  O17  1  0.582434  0.777943  0.461266  1
  O  O18  1  0.856645  0.228648  0.424017  1
  O  O19  1  0.217375  0.565058  0.301193  1
  O  O20  1  0.172377  0.938067  0.311732  1
  O  O21  1  0.478691  0.227007  0.165257  1
  O  O22  1  0.634816  0.777479  0.100371  1
  O  O23  1  0.053604  0.250867  0.079494  1
