# generated using pymatgen
data_Li2Fe2SiO6
_symmetry_space_group_name_H-M   'P 1'
_cell_length_a   15.72518036
_cell_length_b   11.64850556
_cell_length_c   11.59233309
_cell_angle_alpha   85.15955386
_cell_angle_beta   47.57092783
_cell_angle_gamma   47.26951830
_symmetry_Int_Tables_number   1
_chemical_formula_structural   Li2Fe2SiO6
_chemical_formula_sum   'Li12 Fe12 Si6 O36'
_cell_volume   834.69683279
_cell_formula_units_Z   6
loop_
 _symmetry_equiv_pos_site_id
 _symmetry_equiv_pos_as_xyz
  1  'x, y, z'
loop_
 _atom_site_type_symbol
 _atom_site_label
 _atom_site_symmetry_multiplicity
 _atom_site_fract_x
 _atom_site_fract_y
 _atom_site_fract_z
 _atom_site_occupancy
  Li  Li0  1  0.994871  0.505129  0.994871  1
  Li  Li1  1  0.665265  0.834735  0.665265  1
  Li  Li2  1  0.094078  0.543258  0.450222  1
  Li  Li3  1  0.785063  0.926657  0.072417  1
  Li  Li4  1  0.323343  0.464937  0.034137  1
  Li  Li5  1  0.706742  0.155922  0.337558  1
  Li  Li6  1  0.744871  0.255129  0.744871  1
  Li  Li7  1  0.415265  0.584735  0.415265  1
  Li  Li8  1  0.337558  0.799778  0.706742  1
  Li  Li9  1  0.034137  0.177583  0.323343  1
  Li  Li10  1  0.072417  0.215863  0.785063  1
  Li  Li11  1  0.450222  0.912442  0.094078  1
  Fe  Fe12  1  0.152037  0.347963  0.152037  1
  Fe  Fe13  1  0.491856  0.008144  0.491856  1
  Fe  Fe14  1  0.580131  0.034071  0.956639  1
  Fe  Fe15  1  0.288179  0.424414  0.564324  1
  Fe  Fe16  1  0.825586  0.961821  0.526917  1
  Fe  Fe17  1  0.215929  0.669869  0.820841  1
  Fe  Fe18  1  0.902037  0.097963  0.902037  1
  Fe  Fe19  1  0.241856  0.758144  0.241856  1
  Fe  Fe20  1  0.820841  0.293361  0.215929  1
  Fe  Fe21  1  0.526917  0.685676  0.825586  1
  Fe  Fe22  1  0.564324  0.723083  0.288179  1
  Fe  Fe23  1  0.956639  0.429159  0.580131  1
  Si  Si24  1  0.873623  0.626377  0.873623  1
  Si  Si25  1  0.913388  0.751266  0.230360  1
  Si  Si26  1  0.498734  0.336612  0.145014  1
  Si  Si27  1  0.623623  0.376377  0.623623  1
  Si  Si28  1  0.145014  0.019640  0.498734  1
  Si  Si29  1  0.230360  0.104986  0.913388  1
  O  O30  1  0.430838  0.074882  0.975046  1
  O  O31  1  0.798595  0.737861  0.269715  1
  O  O32  1  0.632117  0.869411  0.032614  1
  O  O33  1  0.992306  0.622313  0.848480  1
  O  O34  1  0.500479  0.132752  0.381301  1
  O  O35  1  0.150971  0.505730  0.080564  1
  O  O36  1  0.832280  0.858721  0.663599  1
  O  O37  1  0.752274  0.926707  0.468447  1
  O  O38  1  0.411688  0.309384  0.133616  1
  O  O39  1  0.940616  0.838312  0.104688  1
  O  O40  1  0.323293  0.497726  0.397429  1
  O  O41  1  0.391279  0.417720  0.604600  1
  O  O42  1  0.744270  0.099029  0.987264  1
  O  O43  1  0.117248  0.749521  0.264533  1
  O  O44  1  0.627687  0.257694  0.713100  1
  O  O45  1  0.380589  0.617883  0.784142  1
  O  O46  1  0.512139  0.451405  0.056171  1
  O  O47  1  0.175118  0.819162  0.730765  1
  O  O48  1  0.730765  0.274954  0.175118  1
  O  O49  1  0.056171  0.980285  0.512139  1
  O  O50  1  0.784142  0.217386  0.380589  1
  O  O51  1  0.713100  0.401520  0.627687  1
  O  O52  1  0.264533  0.868699  0.117248  1
  O  O53  1  0.987264  0.169436  0.744270  1
  O  O54  1  0.604600  0.586401  0.391279  1
  O  O55  1  0.397429  0.781553  0.323293  1
  O  O56  1  0.104688  0.116384  0.940616  1
  O  O57  1  0.133616  0.145312  0.411688  1
  O  O58  1  0.468447  0.852571  0.752274  1
  O  O59  1  0.663599  0.645400  0.832280  1
  O  O60  1  0.080564  0.262736  0.150971  1
  O  O61  1  0.381301  0.985467  0.500479  1
  O  O62  1  0.848480  0.536900  0.992306  1
  O  O63  1  0.032614  0.465858  0.632117  1
  O  O64  1  0.269715  0.193829  0.798595  1
  O  O65  1  0.975046  0.519235  0.430838  1
