# generated using pymatgen
data_Be2P2O7
_symmetry_space_group_name_H-M   'P 1'
_cell_length_a   10.57355390
_cell_length_b   10.57355390
_cell_length_c   8.86750447
_cell_angle_alpha   82.56689819
_cell_angle_beta   97.43310181
_cell_angle_gamma   136.17035523
_symmetry_Int_Tables_number   1
_chemical_formula_structural   Be2P2O7
_chemical_formula_sum   'Be12 P12 O42'
_cell_volume   679.84441133
_cell_formula_units_Z   6
loop_
 _symmetry_equiv_pos_site_id
 _symmetry_equiv_pos_as_xyz
  1  'x, y, z'
loop_
 _atom_site_type_symbol
 _atom_site_label
 _atom_site_symmetry_multiplicity
 _atom_site_fract_x
 _atom_site_fract_y
 _atom_site_fract_z
 _atom_site_occupancy
  Be  Be0  1  0.853567  0.779515  0.049088  1
  Be  Be1  1  0.708781  0.425865  0.121188  1
  Be  Be2  1  0.494464  0.074004  0.229432  1
  Be  Be3  1  0.074004  0.494464  0.270568  1
  Be  Be4  1  0.425865  0.708781  0.378812  1
  Be  Be5  1  0.779515  0.853567  0.450912  1
  Be  Be6  1  0.220485  0.146433  0.549088  1
  Be  Be7  1  0.574135  0.291219  0.621188  1
  Be  Be8  1  0.925996  0.505536  0.729432  1
  Be  Be9  1  0.505536  0.925996  0.770568  1
  Be  Be10  1  0.291219  0.574135  0.878812  1
  Be  Be11  1  0.146433  0.220485  0.950912  1
  P  P12  1  0.937326  0.148324  0.192905  1
  P  P13  1  0.260284  0.779358  0.027362  1
  P  P14  1  0.479561  0.597872  0.136052  1
  P  P15  1  0.597872  0.479561  0.363948  1
  P  P16  1  0.779358  0.260284  0.472638  1
  P  P17  1  0.148324  0.937326  0.307095  1
  P  P18  1  0.851676  0.062674  0.692905  1
  P  P19  1  0.220642  0.739716  0.527362  1
  P  P20  1  0.402128  0.520439  0.636052  1
  P  P21  1  0.520439  0.402128  0.863948  1
  P  P22  1  0.739716  0.220642  0.972638  1
  P  P23  1  0.062674  0.851676  0.807095  1
  O  O24  1  0.037761  0.131851  0.101226  1
  O  O25  1  0.792967  0.126550  0.070655  1
  O  O26  1  0.678009  0.263472  0.094107  1
  O  O27  1  0.318739  0.486077  0.013793  1
  O  O28  1  0.667361  0.725915  0.072894  1
  O  O29  1  0.987497  0.818828  0.191459  1
  O  O30  1  0.337098  0.063620  0.244172  1
  O  O31  1  0.099950  0.607795  0.115307  1
  O  O32  1  0.691985  0.454239  0.277536  1
  O  O33  1  0.419856  0.915722  0.134502  1
  O  O34  1  0.443085  0.443085  0.250000  1
  O  O35  1  0.915722  0.419856  0.365498  1
  O  O36  1  0.454239  0.691985  0.222464  1
  O  O37  1  0.607795  0.099950  0.384693  1
  O  O38  1  0.063620  0.337098  0.255828  1
  O  O39  1  0.818828  0.987497  0.308541  1
  O  O40  1  0.725915  0.667361  0.427106  1
  O  O41  1  0.868149  0.962239  0.601226  1
  O  O42  1  0.873450  0.207033  0.570655  1
  O  O43  1  0.486077  0.318739  0.486207  1
  O  O44  1  0.736528  0.321991  0.594107  1
  O  O45  1  0.263472  0.678009  0.405893  1
  O  O46  1  0.513923  0.681261  0.513793  1
  O  O47  1  0.126550  0.792967  0.429345  1
  O  O48  1  0.131851  0.037761  0.398774  1
  O  O49  1  0.274085  0.332639  0.572894  1
  O  O50  1  0.181172  0.012503  0.691459  1
  O  O51  1  0.936380  0.662902  0.744172  1
  O  O52  1  0.392205  0.900050  0.615307  1
  O  O53  1  0.545761  0.308015  0.777536  1
  O  O54  1  0.084278  0.580144  0.634502  1
  O  O55  1  0.556915  0.556915  0.750000  1
  O  O56  1  0.580144  0.084278  0.865498  1
  O  O57  1  0.308015  0.545761  0.722464  1
  O  O58  1  0.900050  0.392205  0.884693  1
  O  O59  1  0.662902  0.936380  0.755828  1
  O  O60  1  0.012503  0.181172  0.808541  1
  O  O61  1  0.332639  0.274085  0.927106  1
  O  O62  1  0.681261  0.513923  0.986207  1
  O  O63  1  0.321991  0.736528  0.905893  1
  O  O64  1  0.207033  0.873450  0.929345  1
  O  O65  1  0.962239  0.868149  0.898774  1
