# generated using pymatgen
data_Li3CrPCO7
_symmetry_space_group_name_H-M   'P 1'
_cell_length_a   9.53971731
_cell_length_b   6.48960008
_cell_length_c   9.98049180
_cell_angle_alpha   90.00000000
_cell_angle_beta   116.28522742
_cell_angle_gamma   90.00000000
_symmetry_Int_Tables_number   1
_chemical_formula_structural   Li3CrPCO7
_chemical_formula_sum   'Li12 Cr4 P4 C4 O28'
_cell_volume   553.99318896
_cell_formula_units_Z   4
loop_
 _symmetry_equiv_pos_site_id
 _symmetry_equiv_pos_as_xyz
  1  'x, y, z'
loop_
 _atom_site_type_symbol
 _atom_site_label
 _atom_site_symmetry_multiplicity
 _atom_site_fract_x
 _atom_site_fract_y
 _atom_site_fract_z
 _atom_site_occupancy
  Li  Li0  1  0.111456  0.249583  0.692351  1
  Li  Li1  1  0.111456  0.250417  0.192351  1
  Li  Li2  1  0.293562  0.020082  0.513835  1
  Li  Li3  1  0.293562  0.479918  0.013835  1
  Li  Li4  1  0.356701  0.757759  0.315858  1
  Li  Li5  1  0.356701  0.742241  0.815858  1
  Li  Li6  1  0.643299  0.242241  0.684142  1
  Li  Li7  1  0.643299  0.257759  0.184142  1
  Li  Li8  1  0.706438  0.979918  0.486165  1
  Li  Li9  1  0.706438  0.520082  0.986165  1
  Li  Li10  1  0.888544  0.750417  0.307649  1
  Li  Li11  1  0.888544  0.749583  0.807649  1
  Cr  Cr12  1  0.259304  0.517362  0.504080  1
  Cr  Cr13  1  0.259304  0.982638  0.004080  1
  Cr  Cr14  1  0.740696  0.482638  0.495920  1
  Cr  Cr15  1  0.740696  0.017362  0.995920  1
  P  P16  1  0.410758  0.253676  0.317718  1
  P  P17  1  0.410758  0.246324  0.817718  1
  P  P18  1  0.589242  0.746324  0.682282  1
  P  P19  1  0.589242  0.753676  0.182282  1
  C  C20  1  0.040507  0.736596  0.623387  1
  C  C21  1  0.040507  0.763404  0.123387  1
  C  C22  1  0.959493  0.263404  0.376613  1
  C  C23  1  0.959493  0.236596  0.876613  1
  O  O24  1  0.061816  0.750998  0.258019  1
  O  O25  1  0.061816  0.749002  0.758019  1
  O  O26  1  0.103183  0.277913  0.487298  1
  O  O27  1  0.156504  0.741701  0.588442  1
  O  O28  1  0.103183  0.222087  0.987298  1
  O  O29  1  0.156504  0.758299  0.088442  1
  O  O30  1  0.314706  0.064027  0.321841  1
  O  O31  1  0.312740  0.442545  0.326099  1
  O  O32  1  0.312740  0.057455  0.826099  1
  O  O33  1  0.314706  0.435973  0.821841  1
  O  O34  1  0.421894  0.749704  0.549181  1
  O  O35  1  0.424965  0.235363  0.669215  1
  O  O36  1  0.421894  0.750296  0.049181  1
  O  O37  1  0.424965  0.264637  0.169215  1
  O  O38  1  0.575035  0.764637  0.330785  1
  O  O39  1  0.578106  0.250296  0.450819  1
  O  O40  1  0.575035  0.735363  0.830785  1
  O  O41  1  0.578106  0.249704  0.950819  1
  O  O42  1  0.685294  0.935973  0.678159  1
  O  O43  1  0.687260  0.557455  0.673901  1
  O  O44  1  0.687260  0.942545  0.173901  1
  O  O45  1  0.685294  0.564027  0.178159  1
  O  O46  1  0.843496  0.258299  0.411558  1
  O  O47  1  0.896817  0.722087  0.512702  1
  O  O48  1  0.843496  0.241701  0.911558  1
  O  O49  1  0.896817  0.777913  0.012702  1
  O  O50  1  0.938184  0.249002  0.741981  1
  O  O51  1  0.938184  0.250998  0.241981  1
