# generated using pymatgen
data_Li2Cr(BO2)5
_symmetry_space_group_name_H-M   'P 1'
_cell_length_a   7.13318900
_cell_length_b   15.61630370
_cell_length_c   7.14835019
_cell_angle_alpha   90.00000000
_cell_angle_beta   90.18361037
_cell_angle_gamma   90.00000000
_symmetry_Int_Tables_number   1
_chemical_formula_structural   Li2Cr(BO2)5
_chemical_formula_sum   'Li8 Cr4 B20 O40'
_cell_volume   796.27955906
_cell_formula_units_Z   4
loop_
 _symmetry_equiv_pos_site_id
 _symmetry_equiv_pos_as_xyz
  1  'x, y, z'
loop_
 _atom_site_type_symbol
 _atom_site_label
 _atom_site_symmetry_multiplicity
 _atom_site_fract_x
 _atom_site_fract_y
 _atom_site_fract_z
 _atom_site_occupancy
  Li  Li0  1  0.002065  0.166935  0.098464  1
  Li  Li1  1  0.502065  0.333065  0.098464  1
  Li  Li2  1  0.410692  0.923422  0.305133  1
  Li  Li3  1  0.910692  0.576578  0.305133  1
  Li  Li4  1  0.089308  0.423422  0.694867  1
  Li  Li5  1  0.589308  0.076578  0.694867  1
  Li  Li6  1  0.497935  0.666935  0.901536  1
  Li  Li7  1  0.997935  0.833065  0.901536  1
  Cr  Cr8  1  0.470007  0.124533  0.155506  1
  Cr  Cr9  1  0.970007  0.375467  0.155506  1
  Cr  Cr10  1  0.029993  0.624533  0.844494  1
  Cr  Cr11  1  0.529993  0.875467  0.844494  1
  B  B12  1  0.092935  0.024045  0.206804  1
  B  B13  1  0.592935  0.475955  0.206804  1
  B  B14  1  0.476661  0.774109  0.215674  1
  B  B15  1  0.976661  0.725891  0.215674  1
  B  B16  1  0.262129  0.504954  0.249439  1
  B  B17  1  0.762129  0.995046  0.249439  1
  B  B18  1  0.493972  0.620838  0.320691  1
  B  B19  1  0.993972  0.879162  0.320691  1
  B  B20  1  0.499640  0.258429  0.453014  1
  B  B21  1  0.999640  0.241571  0.453014  1
  B  B22  1  0.000360  0.758429  0.546986  1
  B  B23  1  0.500360  0.741571  0.546986  1
  B  B24  1  0.006028  0.120838  0.679309  1
  B  B25  1  0.506028  0.379162  0.679309  1
  B  B26  1  0.237871  0.004954  0.750561  1
  B  B27  1  0.737871  0.495046  0.750561  1
  B  B28  1  0.023339  0.274109  0.784326  1
  B  B29  1  0.523339  0.225891  0.784326  1
  B  B30  1  0.407065  0.524045  0.793196  1
  B  B31  1  0.907065  0.975955  0.793196  1
  O  O32  1  0.457629  0.838099  0.087913  1
  O  O33  1  0.957629  0.661901  0.087913  1
  O  O34  1  0.217949  0.085682  0.156300  1
  O  O35  1  0.717949  0.414318  0.156300  1
  O  O36  1  0.004657  0.810247  0.171404  1
  O  O37  1  0.403557  0.452605  0.173951  1
  O  O38  1  0.504657  0.689753  0.171404  1
  O  O39  1  0.903557  0.047395  0.173951  1
  O  O40  1  0.077688  0.478305  0.253765  1
  O  O41  1  0.577688  0.021695  0.253765  1
  O  O42  1  0.495926  0.234086  0.267886  1
  O  O43  1  0.139211  0.946047  0.280404  1
  O  O44  1  0.995926  0.265914  0.267886  1
  O  O45  1  0.639211  0.553953  0.280404  1
  O  O46  1  0.305692  0.583064  0.318836  1
  O  O47  1  0.805692  0.916936  0.318836  1
  O  O48  1  0.463113  0.801190  0.404168  1
  O  O49  1  0.963113  0.698810  0.404168  1
  O  O50  1  0.468453  0.341677  0.496265  1
  O  O51  1  0.031547  0.841677  0.503735  1
  O  O52  1  0.968453  0.158323  0.496265  1
  O  O53  1  0.531547  0.658323  0.503735  1
  O  O54  1  0.036887  0.301190  0.595832  1
  O  O55  1  0.536887  0.198810  0.595832  1
  O  O56  1  0.194308  0.083064  0.681164  1
  O  O57  1  0.694308  0.416936  0.681164  1
  O  O58  1  0.360789  0.446047  0.719596  1
  O  O59  1  0.004074  0.734086  0.732114  1
  O  O60  1  0.860789  0.053953  0.719596  1
  O  O61  1  0.504074  0.765914  0.732114  1
  O  O62  1  0.422312  0.978305  0.746235  1
  O  O63  1  0.922312  0.521695  0.746235  1
  O  O64  1  0.096443  0.952605  0.826049  1
  O  O65  1  0.495343  0.310247  0.828596  1
  O  O66  1  0.596443  0.547395  0.826049  1
  O  O67  1  0.995343  0.189753  0.828596  1
  O  O68  1  0.282051  0.585682  0.843700  1
  O  O69  1  0.782051  0.914318  0.843700  1
  O  O70  1  0.042371  0.338099  0.912087  1
  O  O71  1  0.542371  0.161901  0.912087  1
