# generated using pymatgen
data_LiCu2PO4
_symmetry_space_group_name_H-M   'P 1'
_cell_length_a   5.56749893
_cell_length_b   6.26308135
_cell_length_c   10.24669763
_cell_angle_alpha   89.04232392
_cell_angle_beta   89.32733980
_cell_angle_gamma   88.81915550
_symmetry_Int_Tables_number   1
_chemical_formula_structural   LiCu2PO4
_chemical_formula_sum   'Li4 Cu8 P4 O16'
_cell_volume   357.15027253
_cell_formula_units_Z   4
loop_
 _symmetry_equiv_pos_site_id
 _symmetry_equiv_pos_as_xyz
  1  'x, y, z'
loop_
 _atom_site_type_symbol
 _atom_site_label
 _atom_site_symmetry_multiplicity
 _atom_site_fract_x
 _atom_site_fract_y
 _atom_site_fract_z
 _atom_site_occupancy
  Li  Li0  1  0.146856  0.007762  0.250769  1
  Li  Li1  1  0.153777  0.998298  0.749687  1
  Li  Li2  1  0.327339  0.247369  0.504923  1
  Li  Li3  1  0.684154  0.248140  0.753565  1
  Cu  Cu4  1  0.341183  0.274740  0.988989  1
  Cu  Cu5  1  0.654332  0.282313  0.255647  1
  Cu  Cu6  1  0.750080  0.510905  0.012247  1
  Cu  Cu7  1  0.750862  0.507730  0.510483  1
  Cu  Cu8  1  0.646122  0.702014  0.271892  1
  Cu  Cu9  1  0.655288  0.707432  0.776247  1
  Cu  Cu10  1  0.369794  0.732794  0.498201  1
  Cu  Cu11  1  0.367448  0.718530  0.989575  1
  P  P12  1  0.849919  0.005079  0.999606  1
  P  P13  1  0.842159  0.012852  0.502515  1
  P  P14  1  0.177519  0.491355  0.740120  1
  P  P15  1  0.178371  0.501650  0.250785  1
  O  O16  1  0.839185  0.011562  0.350825  1
  O  O17  1  0.103171  0.014042  0.554637  1
  O  O18  1  0.843488  0.001872  0.848286  1
  O  O19  1  0.110253  0.001004  0.053080  1
  O  O20  1  0.689547  0.207235  0.556233  1
  O  O21  1  0.707921  0.207429  0.049640  1
  O  O22  1  0.322207  0.288153  0.788006  1
  O  O23  1  0.303735  0.296275  0.308216  1
  O  O24  1  0.170161  0.498859  0.099886  1
  O  O25  1  0.917226  0.503753  0.306747  1
  O  O26  1  0.179576  0.496034  0.588682  1
  O  O27  1  0.914557  0.479999  0.793390  1
  O  O28  1  0.294060  0.716189  0.294426  1
  O  O29  1  0.292391  0.703668  0.789274  1
  O  O30  1  0.709546  0.812401  0.560661  1
  O  O31  1  0.707768  0.812566  0.060171  1
