# generated using pymatgen
data_K8Li3(FeO4)4
_symmetry_space_group_name_H-M   'P 1'
_cell_length_a   5.55322754
_cell_length_b   8.45075603
_cell_length_c   10.94827255
_cell_angle_alpha   86.27140075
_cell_angle_beta   84.78058322
_cell_angle_gamma   89.05727715
_symmetry_Int_Tables_number   1
_chemical_formula_structural   K8Li3(FeO4)4
_chemical_formula_sum   'K8 Li3 Fe4 O16'
_cell_volume   510.54905277
_cell_formula_units_Z   1
loop_
 _symmetry_equiv_pos_site_id
 _symmetry_equiv_pos_as_xyz
  1  'x, y, z'
loop_
 _atom_site_type_symbol
 _atom_site_label
 _atom_site_symmetry_multiplicity
 _atom_site_fract_x
 _atom_site_fract_y
 _atom_site_fract_z
 _atom_site_occupancy
  K  K0  1  0.205515  0.983287  0.167620  1
  K  K1  1  0.200718  0.257947  0.632188  1
  K  K2  1  0.290514  0.492996  0.341638  1
  K  K3  1  0.323392  0.769343  0.864993  1
  K  K4  1  0.679770  0.260273  0.110148  1
  K  K5  1  0.721206  0.501444  0.698879  1
  K  K6  1  0.803384  0.737862  0.368397  1
  K  K7  1  0.793357  0.013770  0.827354  1
  Li  Li8  1  0.216488  0.024442  0.431664  1
  Li  Li9  1  0.279183  0.516140  0.061254  1
  Li  Li10  1  0.789807  0.973271  0.566545  1
  Fe  Fe11  1  0.200716  0.279863  0.933568  1
  Fe  Fe12  1  0.293907  0.774421  0.567047  1
  Fe  Fe13  1  0.714227  0.223027  0.431792  1
  Fe  Fe14  1  0.793266  0.713963  0.062863  1
  O  O15  1  0.165909  0.300828  0.091855  1
  O  O16  1  0.068806  0.688346  0.120437  1
  O  O17  1  0.120386  0.940304  0.615068  1
  O  O18  1  0.192534  0.582902  0.589617  1
  O  O19  1  0.440373  0.190051  0.371546  1
  O  O20  1  0.314993  0.800816  0.406082  1
  O  O21  1  0.308604  0.092467  0.903409  1
  O  O22  1  0.376155  0.443636  0.893986  1
  O  O23  1  0.585630  0.579606  0.122616  1
  O  O24  1  0.705537  0.899296  0.094002  1
  O  O25  1  0.689306  0.197260  0.592734  1
  O  O26  1  0.566847  0.807016  0.628860  1
  O  O27  1  0.808435  0.416543  0.409381  1
  O  O28  1  0.886363  0.054218  0.387040  1
  O  O29  1  0.933767  0.288660  0.868160  1
  O  O30  1  0.831902  0.705348  0.910412  1
