# generated using pymatgen
data_Li2Fe3F8
_symmetry_space_group_name_H-M   'P 1'
_cell_length_a   6.79365626
_cell_length_b   9.40465196
_cell_length_c   11.29224249
_cell_angle_alpha   90.00000000
_cell_angle_beta   91.52931664
_cell_angle_gamma   90.00000000
_symmetry_Int_Tables_number   1
_chemical_formula_structural   Li2Fe3F8
_chemical_formula_sum   'Li8 Fe12 F32'
_cell_volume   721.22665580
_cell_formula_units_Z   4
loop_
 _symmetry_equiv_pos_site_id
 _symmetry_equiv_pos_as_xyz
  1  'x, y, z'
loop_
 _atom_site_type_symbol
 _atom_site_label
 _atom_site_symmetry_multiplicity
 _atom_site_fract_x
 _atom_site_fract_y
 _atom_site_fract_z
 _atom_site_occupancy
  Li  Li0  1  0.903433  0.052528  0.145718  1
  Li  Li1  1  0.903433  0.447472  0.645718  1
  Li  Li2  1  0.592603  0.605803  0.137271  1
  Li  Li3  1  0.592603  0.894197  0.637271  1
  Li  Li4  1  0.407397  0.105803  0.362729  1
  Li  Li5  1  0.407397  0.394197  0.862729  1
  Li  Li6  1  0.096567  0.552528  0.354282  1
  Li  Li7  1  0.096567  0.947472  0.854282  1
  Fe  Fe8  1  0.902541  0.190978  0.438680  1
  Fe  Fe9  1  0.902541  0.309022  0.938680  1
  Fe  Fe10  1  0.751680  0.841302  0.357241  1
  Fe  Fe11  1  0.751680  0.658698  0.857241  1
  Fe  Fe12  1  0.609538  0.452120  0.376836  1
  Fe  Fe13  1  0.609538  0.047880  0.876836  1
  Fe  Fe14  1  0.390462  0.952120  0.123164  1
  Fe  Fe15  1  0.390462  0.547880  0.623164  1
  Fe  Fe16  1  0.248320  0.341302  0.142759  1
  Fe  Fe17  1  0.248320  0.158698  0.642759  1
  Fe  Fe18  1  0.097459  0.690978  0.061320  1
  Fe  Fe19  1  0.097459  0.809022  0.561320  1
  F  F20  1  0.967302  0.244629  0.105745  1
  F  F21  1  0.967302  0.255371  0.605745  1
  F  F22  1  0.906477  0.402276  0.377149  1
  F  F23  1  0.906477  0.097724  0.877149  1
  F  F24  1  0.864274  0.039278  0.313838  1
  F  F25  1  0.864274  0.460722  0.813838  1
  F  F26  1  0.808154  0.605567  0.033317  1
  F  F27  1  0.808154  0.894433  0.533317  1
  F  F28  1  0.664101  0.994985  0.067762  1
  F  F29  1  0.680105  0.650523  0.295288  1
  F  F30  1  0.664101  0.505015  0.567762  1
  F  F31  1  0.680105  0.849477  0.795288  1
  F  F32  1  0.601633  0.232515  0.421001  1
  F  F33  1  0.601633  0.267485  0.921001  1
  F  F34  1  0.514014  0.421836  0.194717  1
  F  F35  1  0.514014  0.078164  0.694717  1
  F  F36  1  0.485986  0.921836  0.305283  1
  F  F37  1  0.485986  0.578164  0.805283  1
  F  F38  1  0.398367  0.732515  0.078999  1
  F  F39  1  0.398367  0.767485  0.578999  1
  F  F40  1  0.319895  0.150523  0.204712  1
  F  F41  1  0.335899  0.494985  0.432238  1
  F  F42  1  0.319895  0.349477  0.704712  1
  F  F43  1  0.335899  0.005015  0.932238  1
  F  F44  1  0.191846  0.105567  0.466683  1
  F  F45  1  0.191846  0.394433  0.966683  1
  F  F46  1  0.135726  0.539278  0.186162  1
  F  F47  1  0.135726  0.960722  0.686162  1
  F  F48  1  0.093523  0.902276  0.122851  1
  F  F49  1  0.093523  0.597724  0.622851  1
  F  F50  1  0.032698  0.744629  0.394255  1
  F  F51  1  0.032698  0.755371  0.894255  1
