# generated using pymatgen
data_Cr3Sb3(TeO8)2
_symmetry_space_group_name_H-M   'P 1'
_cell_length_a   6.15395216
_cell_length_b   6.15395216
_cell_length_c   9.96441414
_cell_angle_alpha   89.98344936
_cell_angle_beta   90.01655064
_cell_angle_gamma   119.60748179
_symmetry_Int_Tables_number   1
_chemical_formula_structural   Cr3Sb3(TeO8)2
_chemical_formula_sum   'Cr3 Sb3 Te2 O16'
_cell_volume   328.09137199
_cell_formula_units_Z   1
loop_
 _symmetry_equiv_pos_site_id
 _symmetry_equiv_pos_as_xyz
  1  'x, y, z'
loop_
 _atom_site_type_symbol
 _atom_site_label
 _atom_site_symmetry_multiplicity
 _atom_site_fract_x
 _atom_site_fract_y
 _atom_site_fract_z
 _atom_site_occupancy
  Cr  Cr0  1  0.663245  0.832039  0.211488  1
  Cr  Cr1  1  0.167961  0.336755  0.211488  1
  Cr  Cr2  1  0.830794  0.169206  0.710911  1
  Sb  Sb3  1  0.165138  0.834862  0.212764  1
  Sb  Sb4  1  0.331099  0.169543  0.714014  1
  Sb  Sb5  1  0.830457  0.668901  0.714014  1
  Te  Te6  1  0.345196  0.654804  0.472621  1
  Te  Te7  1  0.678711  0.321289  0.000909  1
  O  O8  1  0.690693  0.842020  0.606067  1
  O  O9  1  0.478891  0.521109  0.331277  1
  O  O10  1  0.330258  0.669742  0.113521  1
  O  O11  1  0.998865  0.001135  0.305807  1
  O  O12  1  0.997211  0.002789  0.816931  1
  O  O13  1  0.157980  0.309307  0.606067  1
  O  O14  1  0.477689  0.956046  0.333924  1
  O  O15  1  0.043954  0.522311  0.333924  1
  O  O16  1  0.836886  0.163114  0.104977  1
  O  O17  1  0.156554  0.843446  0.611407  1
  O  O18  1  0.957369  0.482237  0.826941  1
  O  O19  1  0.517763  0.042631  0.826941  1
  O  O20  1  0.664065  0.335935  0.607136  1
  O  O21  1  0.841672  0.673560  0.109001  1
  O  O22  1  0.511394  0.488606  0.824634  1
  O  O23  1  0.326440  0.158328  0.109001  1
