# generated using pymatgen
data_Li4Mn3Cr2Co3O16
_symmetry_space_group_name_H-M   'P 1'
_cell_length_a   5.77565961
_cell_length_b   5.77565961
_cell_length_c   9.48454901
_cell_angle_alpha   89.59681289
_cell_angle_beta   90.40318711
_cell_angle_gamma   119.67552676
_symmetry_Int_Tables_number   1
_chemical_formula_structural   Li4Mn3Cr2Co3O16
_chemical_formula_sum   'Li4 Mn3 Cr2 Co3 O16'
_cell_volume   274.88232722
_cell_formula_units_Z   1
loop_
 _symmetry_equiv_pos_site_id
 _symmetry_equiv_pos_as_xyz
  1  'x, y, z'
loop_
 _atom_site_type_symbol
 _atom_site_label
 _atom_site_symmetry_multiplicity
 _atom_site_fract_x
 _atom_site_fract_y
 _atom_site_fract_z
 _atom_site_occupancy
  Li  Li0  1  0.332766  0.667234  0.894591  1
  Li  Li1  1  0.997393  0.002607  0.998824  1
  Li  Li2  1  0.996054  0.003946  0.495327  1
  Li  Li3  1  0.667291  0.332709  0.389665  1
  Mn  Mn4  1  0.170428  0.829572  0.214777  1
  Mn  Mn5  1  0.832382  0.660583  0.714872  1
  Mn  Mn6  1  0.339417  0.167618  0.714872  1
  Cr  Cr7  1  0.338063  0.661937  0.483676  1
  Cr  Cr8  1  0.668796  0.331204  0.986033  1
  Co  Co9  1  0.662642  0.829350  0.212554  1
  Co  Co10  1  0.170650  0.337358  0.212554  1
  Co  Co11  1  0.833137  0.166863  0.711291  1
  O  O12  1  0.674545  0.830198  0.601342  1
  O  O13  1  0.482271  0.517729  0.336298  1
  O  O14  1  0.334726  0.665274  0.110339  1
  O  O15  1  0.999970  0.000030  0.307024  1
  O  O16  1  0.000204  0.999796  0.809843  1
  O  O17  1  0.169802  0.325455  0.601342  1
  O  O18  1  0.481832  0.961679  0.334979  1
  O  O19  1  0.038321  0.518168  0.334979  1
  O  O20  1  0.836579  0.163421  0.105006  1
  O  O21  1  0.161586  0.838414  0.602889  1
  O  O22  1  0.963242  0.487169  0.841505  1
  O  O23  1  0.512831  0.036758  0.841505  1
  O  O24  1  0.667219  0.332781  0.609644  1
  O  O25  1  0.837642  0.676504  0.103704  1
  O  O26  1  0.518768  0.481232  0.835544  1
  O  O27  1  0.323496  0.162358  0.103704  1
