# generated using pymatgen
data_Mn3Ni(PO4)4
_symmetry_space_group_name_H-M   'P 1'
_cell_length_a   4.83325636
_cell_length_b   5.91789161
_cell_length_c   9.83056963
_cell_angle_alpha   90.00000000
_cell_angle_beta   90.12977083
_cell_angle_gamma   90.00000000
_symmetry_Int_Tables_number   1
_chemical_formula_structural   Mn3Ni(PO4)4
_chemical_formula_sum   'Mn3 Ni1 P4 O16'
_cell_volume   281.17998785
_cell_formula_units_Z   1
loop_
 _symmetry_equiv_pos_site_id
 _symmetry_equiv_pos_as_xyz
  1  'x, y, z'
loop_
 _atom_site_type_symbol
 _atom_site_label
 _atom_site_symmetry_multiplicity
 _atom_site_fract_x
 _atom_site_fract_y
 _atom_site_fract_z
 _atom_site_occupancy
  Mn  Mn0  1  0.939909  0.500000  0.720759  1
  Mn  Mn1  1  0.545689  0.500000  0.224994  1
  Mn  Mn2  1  0.446931  0.000000  0.781353  1
  Ni  Ni3  1  0.042907  0.000000  0.270840  1
  P  P4  1  0.914262  0.000000  0.594793  1
  P  P5  1  0.580505  0.000000  0.094676  1
  P  P6  1  0.415408  0.500000  0.905777  1
  P  P7  1  0.090617  0.500000  0.403001  1
  O  O8  1  0.842695  0.000000  0.445190  1
  O  O9  1  0.767977  0.201682  0.672185  1
  O  O10  1  0.767977  0.798318  0.672185  1
  O  O11  1  0.773899  0.500000  0.384661  1
  O  O12  1  0.730662  0.500000  0.886755  1
  O  O13  1  0.728439  0.204316  0.169833  1
  O  O14  1  0.728439  0.795684  0.169833  1
  O  O15  1  0.666726  0.000000  0.943050  1
  O  O16  1  0.343508  0.500000  0.057924  1
  O  O17  1  0.269273  0.702167  0.831273  1
  O  O18  1  0.269273  0.297833  0.831273  1
  O  O19  1  0.269090  0.000000  0.105477  1
  O  O20  1  0.229643  0.000000  0.617404  1
  O  O21  1  0.241704  0.701007  0.330035  1
  O  O22  1  0.241704  0.298993  0.330035  1
  O  O23  1  0.152764  0.500000  0.556698  1
