# generated using pymatgen
data_CrSn(PO4)2
_symmetry_space_group_name_H-M   'P 1'
_cell_length_a   5.02839897
_cell_length_b   6.16097519
_cell_length_c   10.13305968
_cell_angle_alpha   90.00000000
_cell_angle_beta   90.73784139
_cell_angle_gamma   90.00000000
_symmetry_Int_Tables_number   1
_chemical_formula_structural   CrSn(PO4)2
_chemical_formula_sum   'Cr2 Sn2 P4 O16'
_cell_volume   313.89455136
_cell_formula_units_Z   2
loop_
 _symmetry_equiv_pos_site_id
 _symmetry_equiv_pos_as_xyz
  1  'x, y, z'
loop_
 _atom_site_type_symbol
 _atom_site_label
 _atom_site_symmetry_multiplicity
 _atom_site_fract_x
 _atom_site_fract_y
 _atom_site_fract_z
 _atom_site_occupancy
  Cr  Cr0  1  0.573520  0.250000  0.217933  1
  Cr  Cr1  1  0.426480  0.750000  0.782067  1
  Sn  Sn2  1  0.036355  0.750000  0.280007  1
  Sn  Sn3  1  0.963645  0.250000  0.719993  1
  P  P4  1  0.592871  0.750000  0.098577  1
  P  P5  1  0.087752  0.250000  0.402043  1
  P  P6  1  0.912248  0.750000  0.597957  1
  P  P7  1  0.407129  0.250000  0.901423  1
  O  O8  1  0.357780  0.250000  0.047811  1
  O  O9  1  0.289270  0.750000  0.123724  1
  O  O10  1  0.742248  0.941514  0.173177  1
  O  O11  1  0.742248  0.558486  0.173177  1
  O  O12  1  0.221491  0.048499  0.331872  1
  O  O13  1  0.221491  0.451501  0.331872  1
  O  O14  1  0.788468  0.250000  0.387642  1
  O  O15  1  0.824790  0.750000  0.449954  1
  O  O16  1  0.175210  0.250000  0.550046  1
  O  O17  1  0.211532  0.750000  0.612358  1
  O  O18  1  0.778509  0.951501  0.668128  1
  O  O19  1  0.778509  0.548499  0.668128  1
  O  O20  1  0.257752  0.441514  0.826823  1
  O  O21  1  0.257752  0.058486  0.826823  1
  O  O22  1  0.710730  0.250000  0.876276  1
  O  O23  1  0.642220  0.750000  0.952189  1
