# generated using pymatgen
data_Li3MnV(PO4)3
_symmetry_space_group_name_H-M   'P 1'
_cell_length_a   10.28342121
_cell_length_b   10.28342121
_cell_length_c   10.28342121
_cell_angle_alpha   109.47122063
_cell_angle_beta   109.47122063
_cell_angle_gamma   109.47122063
_symmetry_Int_Tables_number   1
_chemical_formula_structural   Li3MnV(PO4)3
_chemical_formula_sum   'Li12 Mn4 V4 P12 O48'
_cell_volume   837.12629588
_cell_formula_units_Z   4
loop_
 _symmetry_equiv_pos_site_id
 _symmetry_equiv_pos_as_xyz
  1  'x, y, z'
loop_
 _atom_site_type_symbol
 _atom_site_label
 _atom_site_symmetry_multiplicity
 _atom_site_fract_x
 _atom_site_fract_y
 _atom_site_fract_z
 _atom_site_occupancy
  Li  Li0  1  0.250000  0.877767  0.627767  1
  Li  Li1  1  0.122233  0.372233  0.750000  1
  Li  Li2  1  0.127767  0.250000  0.377767  1
  Li  Li3  1  0.622233  0.872233  0.750000  1
  Li  Li4  1  0.372233  0.750000  0.122233  1
  Li  Li5  1  0.250000  0.377767  0.127767  1
  Li  Li6  1  0.750000  0.622233  0.872233  1
  Li  Li7  1  0.627767  0.250000  0.877767  1
  Li  Li8  1  0.377767  0.127767  0.250000  1
  Li  Li9  1  0.872233  0.750000  0.622233  1
  Li  Li10  1  0.877767  0.627767  0.250000  1
  Li  Li11  1  0.750000  0.122233  0.372233  1
  Mn  Mn12  1  0.000000  0.000000  0.500000  1
  Mn  Mn13  1  0.000000  0.500000  0.000000  1
  Mn  Mn14  1  0.500000  0.500000  0.500000  1
  Mn  Mn15  1  0.500000  0.000000  0.000000  1
  V  V16  1  0.000000  0.500000  0.500000  1
  V  V17  1  0.000000  0.000000  0.000000  1
  V  V18  1  0.500000  0.000000  0.500000  1
  V  V19  1  0.500000  0.500000  0.000000  1
  P  P20  1  0.123955  0.750000  0.873955  1
  P  P21  1  0.126045  0.876045  0.250000  1
  P  P22  1  0.373955  0.623955  0.750000  1
  P  P23  1  0.250000  0.626045  0.376045  1
  P  P24  1  0.250000  0.126045  0.876045  1
  P  P25  1  0.376045  0.250000  0.626045  1
  P  P26  1  0.623955  0.750000  0.373955  1
  P  P27  1  0.750000  0.373955  0.623955  1
  P  P28  1  0.750000  0.873955  0.123955  1
  P  P29  1  0.626045  0.376045  0.250000  1
  P  P30  1  0.873955  0.123955  0.750000  1
  P  P31  1  0.876045  0.250000  0.126045  1
  O  O32  1  0.109362  0.995610  0.709845  1
  O  O33  1  0.113752  0.609362  0.899517  1
  O  O34  1  0.004390  0.290155  0.890638  1
  O  O35  1  0.082565  0.702523  0.694980  1
  O  O36  1  0.100483  0.886248  0.390638  1
  O  O37  1  0.112415  0.619958  0.417435  1
  O  O38  1  0.194980  0.492457  0.612415  1
  O  O39  1  0.399517  0.790155  0.785765  1
  O  O40  1  0.380042  0.582565  0.887585  1
  O  O41  1  0.297477  0.305020  0.917435  1
  O  O42  1  0.305020  0.917435  0.297477  1
  O  O43  1  0.007543  0.202523  0.119958  1
  O  O44  1  0.209845  0.214235  0.600483  1
  O  O45  1  0.214235  0.600483  0.209845  1
  O  O46  1  0.387585  0.805020  0.507543  1
  O  O47  1  0.285765  0.495610  0.386248  1
  O  O48  1  0.290155  0.890638  0.004390  1
  O  O49  1  0.119958  0.007543  0.202523  1
  O  O50  1  0.504390  0.613752  0.714235  1
  O  O51  1  0.390638  0.100483  0.886248  1
  O  O52  1  0.507543  0.387585  0.805020  1
  O  O53  1  0.386248  0.285765  0.495610  1
  O  O54  1  0.582565  0.887585  0.380042  1
  O  O55  1  0.202523  0.119958  0.007543  1
  O  O56  1  0.797477  0.880042  0.992457  1
  O  O57  1  0.417435  0.112415  0.619958  1
  O  O58  1  0.613752  0.714235  0.504390  1
  O  O59  1  0.492457  0.612415  0.194980  1
  O  O60  1  0.609362  0.899517  0.113752  1
  O  O61  1  0.495610  0.386248  0.285765  1
  O  O62  1  0.880042  0.992457  0.797477  1
  O  O63  1  0.709845  0.109362  0.995610  1
  O  O64  1  0.714235  0.504390  0.613752  1
  O  O65  1  0.612415  0.194980  0.492457  1
  O  O66  1  0.785765  0.399517  0.790155  1
  O  O67  1  0.790155  0.785765  0.399517  1
  O  O68  1  0.992457  0.797477  0.880042  1
  O  O69  1  0.694980  0.082565  0.702523  1
  O  O70  1  0.702523  0.694980  0.082565  1
  O  O71  1  0.619958  0.417435  0.112415  1
  O  O72  1  0.600483  0.209845  0.214235  1
  O  O73  1  0.805020  0.507543  0.387585  1
  O  O74  1  0.887585  0.380042  0.582565  1
  O  O75  1  0.899517  0.113752  0.609362  1
  O  O76  1  0.917435  0.297477  0.305020  1
  O  O77  1  0.995610  0.709845  0.109362  1
  O  O78  1  0.886248  0.390638  0.100483  1
  O  O79  1  0.890638  0.004390  0.290155  1
