# generated using pymatgen
data_NaMnPCO7
_symmetry_space_group_name_H-M   'P 1'
_cell_length_a   5.24620392
_cell_length_b   6.24815254
_cell_length_c   18.36314802
_cell_angle_alpha   90.00000000
_cell_angle_beta   92.47612609
_cell_angle_gamma   90.00000000
_symmetry_Int_Tables_number   1
_chemical_formula_structural   NaMnPCO7
_chemical_formula_sum   'Na4 Mn4 P4 C4 O28'
_cell_volume   601.36512801
_cell_formula_units_Z   4
loop_
 _symmetry_equiv_pos_site_id
 _symmetry_equiv_pos_as_xyz
  1  'x, y, z'
loop_
 _atom_site_type_symbol
 _atom_site_label
 _atom_site_symmetry_multiplicity
 _atom_site_fract_x
 _atom_site_fract_y
 _atom_site_fract_z
 _atom_site_occupancy
  Na  Na0  1  0.758662  0.972047  0.119343  1
  Na  Na1  1  0.241338  0.472047  0.380657  1
  Na  Na2  1  0.758662  0.527953  0.619343  1
  Na  Na3  1  0.241338  0.027953  0.880657  1
  Mn  Mn4  1  0.216982  0.266693  0.172328  1
  Mn  Mn5  1  0.783018  0.766693  0.327672  1
  Mn  Mn6  1  0.216982  0.233307  0.672328  1
  Mn  Mn7  1  0.783018  0.733307  0.827672  1
  P  P8  1  0.277539  0.760196  0.217424  1
  P  P9  1  0.722461  0.260196  0.282576  1
  P  P10  1  0.277539  0.739804  0.717424  1
  P  P11  1  0.722461  0.239804  0.782576  1
  C  C12  1  0.274009  0.254577  0.042131  1
  C  C13  1  0.725991  0.754577  0.457869  1
  C  C14  1  0.274009  0.245423  0.542131  1
  C  C15  1  0.725991  0.745423  0.957869  1
  O  O16  1  0.693799  0.751966  0.023591  1
  O  O17  1  0.050886  0.257906  0.072843  1
  O  O18  1  0.461456  0.257611  0.093397  1
  O  O19  1  0.208155  0.954064  0.167301  1
  O  O20  1  0.214313  0.569660  0.166188  1
  O  O21  1  0.567767  0.767642  0.238348  1
  O  O22  1  0.874289  0.252905  0.213041  1
  O  O23  1  0.125711  0.752905  0.286959  1
  O  O24  1  0.432233  0.267642  0.261652  1
  O  O25  1  0.791845  0.454064  0.332699  1
  O  O26  1  0.785687  0.069660  0.333812  1
  O  O27  1  0.538544  0.757611  0.406603  1
  O  O28  1  0.949114  0.757906  0.427157  1
  O  O29  1  0.306201  0.251966  0.476409  1
  O  O30  1  0.693799  0.748034  0.523591  1
  O  O31  1  0.050886  0.242094  0.572843  1
  O  O32  1  0.461456  0.242389  0.593397  1
  O  O33  1  0.214313  0.930340  0.666188  1
  O  O34  1  0.208155  0.545936  0.667301  1
  O  O35  1  0.567767  0.732358  0.738348  1
  O  O36  1  0.874289  0.247095  0.713041  1
  O  O37  1  0.125711  0.747095  0.786959  1
  O  O38  1  0.432233  0.232358  0.761652  1
  O  O39  1  0.785687  0.430340  0.833812  1
  O  O40  1  0.791845  0.045936  0.832699  1
  O  O41  1  0.538544  0.742389  0.906603  1
  O  O42  1  0.949114  0.742094  0.927157  1
  O  O43  1  0.306201  0.248034  0.976409  1
