# generated using pymatgen
data_Li4V5CuClO15
_symmetry_space_group_name_H-M   'P 1'
_cell_length_a   8.96325136
_cell_length_b   8.96325136
_cell_length_c   5.50150258
_cell_angle_alpha   90.00000000
_cell_angle_beta   90.00000000
_cell_angle_gamma   90.00000000
_symmetry_Int_Tables_number   1
_chemical_formula_structural   Li4V5CuClO15
_chemical_formula_sum   'Li4 V5 Cu1 Cl1 O15'
_cell_volume   441.99002927
_cell_formula_units_Z   1
loop_
 _symmetry_equiv_pos_site_id
 _symmetry_equiv_pos_as_xyz
  1  'x, y, z'
loop_
 _atom_site_type_symbol
 _atom_site_label
 _atom_site_symmetry_multiplicity
 _atom_site_fract_x
 _atom_site_fract_y
 _atom_site_fract_z
 _atom_site_occupancy
  Li  Li0  1  0.190074  0.175763  0.437037  1
  Li  Li1  1  0.824237  0.190074  0.437037  1
  Li  Li2  1  0.175763  0.809926  0.437037  1
  Li  Li3  1  0.809926  0.824237  0.437037  1
  V  V4  1  0.640500  0.140122  0.901259  1
  V  V5  1  0.140122  0.359500  0.901259  1
  V  V6  1  0.500000  0.500000  0.865393  1
  V  V7  1  0.859878  0.640500  0.901259  1
  V  V8  1  0.359500  0.859878  0.901259  1
  Cu  Cu9  1  0.000000  0.000000  0.803607  1
  Cl  Cl10  1  0.000000  0.000000  0.270419  1
  O  O11  1  0.500000  0.000000  0.844396  1
  O  O12  1  0.801563  0.087085  0.745759  1
  O  O13  1  0.674449  0.154639  0.198550  1
  O  O14  1  0.087085  0.198437  0.745759  1
  O  O15  1  0.584870  0.312753  0.778021  1
  O  O16  1  0.154639  0.325551  0.198550  1
  O  O17  1  0.312753  0.415130  0.778021  1
  O  O18  1  0.000000  0.500000  0.844396  1
  O  O19  1  0.500000  0.500000  0.158352  1
  O  O20  1  0.687247  0.584870  0.778021  1
  O  O21  1  0.845361  0.674449  0.198550  1
  O  O22  1  0.415130  0.687247  0.778021  1
  O  O23  1  0.912915  0.801563  0.745759  1
  O  O24  1  0.325551  0.845361  0.198550  1
  O  O25  1  0.198437  0.912915  0.745759  1
