# generated using pymatgen
data_Rb2S2O7
_symmetry_space_group_name_H-M   'P 1'
_cell_length_a   7.52255682
_cell_length_b   7.52255682
_cell_length_c   7.76284601
_cell_angle_alpha   85.42816972
_cell_angle_beta   94.57183028
_cell_angle_gamma   118.47776704
_symmetry_Int_Tables_number   1
_chemical_formula_structural   Rb2S2O7
_chemical_formula_sum   'Rb4 S4 O14'
_cell_volume   384.47260538
_cell_formula_units_Z   2
loop_
 _symmetry_equiv_pos_site_id
 _symmetry_equiv_pos_as_xyz
  1  'x, y, z'
loop_
 _atom_site_type_symbol
 _atom_site_label
 _atom_site_symmetry_multiplicity
 _atom_site_fract_x
 _atom_site_fract_y
 _atom_site_fract_z
 _atom_site_occupancy
  Rb  Rb0  1  0.991928  0.705097  0.349243  1
  Rb  Rb1  1  0.294903  0.008072  0.849243  1
  Rb  Rb2  1  0.705097  0.991928  0.150757  1
  Rb  Rb3  1  0.008072  0.294903  0.650757  1
  S  S4  1  0.420253  0.217543  0.356178  1
  S  S5  1  0.782457  0.579747  0.856178  1
  S  S6  1  0.217543  0.420253  0.143822  1
  S  S7  1  0.579747  0.782457  0.643822  1
  O  O8  1  0.628077  0.301898  0.425159  1
  O  O9  1  0.698102  0.371923  0.925159  1
  O  O10  1  0.367892  0.067780  0.225735  1
  O  O11  1  0.932220  0.632108  0.725735  1
  O  O12  1  0.849692  0.732927  0.985725  1
  O  O13  1  0.267073  0.150308  0.485725  1
  O  O14  1  0.422203  0.422203  0.250000  1
  O  O15  1  0.577797  0.577797  0.750000  1
  O  O16  1  0.732927  0.849692  0.514275  1
  O  O17  1  0.150308  0.267073  0.014275  1
  O  O18  1  0.067780  0.367892  0.274265  1
  O  O19  1  0.632108  0.932220  0.774265  1
  O  O20  1  0.301898  0.628077  0.074841  1
  O  O21  1  0.371923  0.698102  0.574841  1
