# generated using pymatgen
data_Li3Fe8(BO3)8
_symmetry_space_group_name_H-M   'P 1'
_cell_length_a   5.29551562
_cell_length_b   9.05317878
_cell_length_c   10.17373907
_cell_angle_alpha   90.06717860
_cell_angle_beta   90.98711956
_cell_angle_gamma   89.99904424
_symmetry_Int_Tables_number   1
_chemical_formula_structural   Li3Fe8(BO3)8
_chemical_formula_sum   'Li3 Fe8 B8 O24'
_cell_volume   487.66904511
_cell_formula_units_Z   1
loop_
 _symmetry_equiv_pos_site_id
 _symmetry_equiv_pos_as_xyz
  1  'x, y, z'
loop_
 _atom_site_type_symbol
 _atom_site_label
 _atom_site_symmetry_multiplicity
 _atom_site_fract_x
 _atom_site_fract_y
 _atom_site_fract_z
 _atom_site_occupancy
  Li  Li0  1  0.655762  0.006829  0.153500  1
  Li  Li1  1  0.342048  0.000462  0.891397  1
  Li  Li2  1  0.149784  0.494567  0.650792  1
  Fe  Fe3  1  0.842331  0.165573  0.878088  1
  Fe  Fe4  1  0.159345  0.159879  0.629358  1
  Fe  Fe5  1  0.667754  0.342227  0.130940  1
  Fe  Fe6  1  0.341851  0.334501  0.380055  1
  Fe  Fe7  1  0.660603  0.666413  0.626456  1
  Fe  Fe8  1  0.843877  0.829834  0.379280  1
  Fe  Fe9  1  0.344941  0.665995  0.876350  1
  Fe  Fe10  1  0.153285  0.833072  0.127611  1
  B  B11  1  0.840011  0.169777  0.374142  1
  B  B12  1  0.674821  0.329614  0.626364  1
  B  B13  1  0.176797  0.169571  0.129560  1
  B  B14  1  0.347091  0.330539  0.873944  1
  B  B15  1  0.656781  0.669681  0.127074  1
  B  B16  1  0.333381  0.668094  0.380030  1
  B  B17  1  0.828539  0.834079  0.880442  1
  B  B18  1  0.160689  0.831338  0.632998  1
  O  O19  1  0.748120  0.032157  0.349050  1
  O  O20  1  0.918836  0.183493  0.099418  1
  O  O21  1  0.299608  0.039170  0.106195  1
  O  O22  1  0.803894  0.202108  0.666262  1
  O  O23  1  0.699306  0.294350  0.337544  1
  O  O24  1  0.221408  0.201419  0.830453  1
  O  O25  1  0.080539  0.190741  0.431515  1
  O  O26  1  0.574153  0.313564  0.941586  1
  O  O27  1  0.790309  0.462087  0.626637  1
  O  O28  1  0.415814  0.315283  0.585726  1
  O  O29  1  0.306816  0.292570  0.180707  1
  O  O30  1  0.775288  0.537109  0.139056  1
  O  O31  1  0.245820  0.465114  0.844505  1
  O  O32  1  0.698399  0.709817  0.836060  1
  O  O33  1  0.578847  0.694443  0.421661  1
  O  O34  1  0.234399  0.529246  0.391371  1
  O  O35  1  0.418574  0.681867  0.068048  1
  O  O36  1  0.927859  0.820718  0.570469  1
  O  O37  1  0.772929  0.799465  0.174249  1
  O  O38  1  0.278035  0.700638  0.676444  1
  O  O39  1  0.189474  0.784966  0.331709  1
  O  O40  1  0.704785  0.964732  0.899074  1
  O  O41  1  0.088661  0.823375  0.910257  1
  O  O42  1  0.273844  0.965151  0.655024  1
