# generated using pymatgen
data_Li2MnVP2(HO5)2
_symmetry_space_group_name_H-M   'P 1'
_cell_length_a   5.48861689
_cell_length_b   7.43203783
_cell_length_c   14.34969057
_cell_angle_alpha   95.14043864
_cell_angle_beta   91.48467279
_cell_angle_gamma   110.04188863
_symmetry_Int_Tables_number   1
_chemical_formula_structural   Li2MnVP2(HO5)2
_chemical_formula_sum   'Li6 Mn3 V3 P6 H6 O30'
_cell_volume   546.68452795
_cell_formula_units_Z   3
loop_
 _symmetry_equiv_pos_site_id
 _symmetry_equiv_pos_as_xyz
  1  'x, y, z'
loop_
 _atom_site_type_symbol
 _atom_site_label
 _atom_site_symmetry_multiplicity
 _atom_site_fract_x
 _atom_site_fract_y
 _atom_site_fract_z
 _atom_site_occupancy
  Li  Li0  1  0.256048  0.861944  0.695257  1
  Li  Li1  1  0.068225  0.465956  0.640715  1
  Li  Li2  1  0.407819  0.796846  0.974983  1
  Li  Li3  1  0.593851  0.202624  0.025904  1
  Li  Li4  1  0.932701  0.538317  0.357767  1
  Li  Li5  1  0.743236  0.132748  0.305797  1
  Mn  Mn6  1  0.335808  0.335428  0.835490  1
  Mn  Mn7  1  0.666757  0.667543  0.667204  1
  Mn  Mn8  1  0.668324  0.667265  0.166145  1
  V  V9  1  0.334019  0.334194  0.331994  1
  V  V10  1  0.994337  0.996795  0.499125  1
  V  V11  1  0.001454  0.999051  0.000010  1
  P  P12  1  0.013761  0.379104  0.145640  1
  P  P13  1  0.320042  0.953629  0.186963  1
  P  P14  1  0.348497  0.714940  0.480907  1
  P  P15  1  0.640511  0.284691  0.518465  1
  P  P16  1  0.681918  0.047810  0.812881  1
  P  P17  1  0.992370  0.618723  0.854624  1
  H  H18  1  0.052504  0.987548  0.325229  1
  H  H19  1  0.278018  0.347635  0.007401  1
  H  H20  1  0.390411  0.324811  0.661310  1
  H  H21  1  0.616690  0.682550  0.338562  1
  H  H22  1  0.722395  0.651754  0.992336  1
  H  H23  1  0.943037  0.009134  0.675981  1
  O  O24  1  0.093129  0.830530  0.902271  1
  O  O25  1  0.059698  0.841219  0.225066  1
  O  O26  1  0.137659  0.796243  0.447687  1
  O  O27  1  0.211587  0.542771  0.885839  1
  O  O28  1  0.297810  0.958389  0.078313  1
  O  O29  1  0.036055  0.373437  0.254404  1
  O  O30  1  0.351138  0.708349  0.587882  1
  O  O31  1  0.249794  0.506036  0.430901  1
  O  O32  1  0.054609  0.096966  0.371834  1
  O  O33  1  0.274408  0.491689  0.107847  1
  O  O34  1  0.280584  0.238223  0.961298  1
  O  O35  1  0.576745  0.835540  0.766048  1
  O  O36  1  0.541370  0.878278  0.214371  1
  O  O37  1  0.388818  0.434348  0.706552  1
  O  O38  1  0.619562  0.826432  0.447342  1
  O  O39  1  0.371246  0.172760  0.552241  1
  O  O40  1  0.617644  0.573460  0.292972  1
  O  O41  1  0.461079  0.125247  0.786831  1
  O  O42  1  0.423117  0.165502  0.233289  1
  O  O43  1  0.721296  0.761005  0.039060  1
  O  O44  1  0.729663  0.507918  0.892343  1
  O  O45  1  0.942807  0.898834  0.629698  1
  O  O46  1  0.744266  0.494632  0.567070  1
  O  O47  1  0.629776  0.291785  0.409782  1
  O  O48  1  0.979621  0.623028  0.747242  1
  O  O49  1  0.705811  0.043167  0.921634  1
  O  O50  1  0.792420  0.454500  0.118885  1
  O  O51  1  0.852041  0.201627  0.547496  1
  O  O52  1  0.942372  0.159415  0.774335  1
  O  O53  1  0.911140  0.167628  0.098779  1
