# generated using pymatgen
data_LiCoS2
_symmetry_space_group_name_H-M   'P 1'
_cell_length_a   3.41253178
_cell_length_b   4.50180657
_cell_length_c   7.80428184
_cell_angle_alpha   90.00000000
_cell_angle_beta   90.46249061
_cell_angle_gamma   90.00000000
_symmetry_Int_Tables_number   1
_chemical_formula_structural   LiCoS2
_chemical_formula_sum   'Li2 Co2 S4'
_cell_volume   119.88982655
_cell_formula_units_Z   2
loop_
 _symmetry_equiv_pos_site_id
 _symmetry_equiv_pos_as_xyz
  1  'x, y, z'
loop_
 _atom_site_type_symbol
 _atom_site_label
 _atom_site_symmetry_multiplicity
 _atom_site_fract_x
 _atom_site_fract_y
 _atom_site_fract_z
 _atom_site_occupancy
  Li  Li0  1  0.015755  0.250000  0.875937  1
  Li  Li1  1  0.984245  0.750000  0.124063  1
  Co  Co2  1  0.757259  0.750000  0.629877  1
  Co  Co3  1  0.242741  0.250000  0.370123  1
  S  S4  1  0.259943  0.750000  0.825866  1
  S  S5  1  0.750912  0.250000  0.556028  1
  S  S6  1  0.249088  0.750000  0.443972  1
  S  S7  1  0.740057  0.250000  0.174134  1
