# generated using pymatgen
data_Li3Co(BO3)2
_symmetry_space_group_name_H-M   'P 1'
_cell_length_a   5.16921004
_cell_length_b   8.85770381
_cell_length_c   10.98636992
_cell_angle_alpha   90.00000000
_cell_angle_beta   117.02903580
_cell_angle_gamma   90.00000000
_symmetry_Int_Tables_number   1
_chemical_formula_structural   Li3Co(BO3)2
_chemical_formula_sum   'Li12 Co4 B8 O24'
_cell_volume   448.09306722
_cell_formula_units_Z   4
loop_
 _symmetry_equiv_pos_site_id
 _symmetry_equiv_pos_as_xyz
  1  'x, y, z'
loop_
 _atom_site_type_symbol
 _atom_site_label
 _atom_site_symmetry_multiplicity
 _atom_site_fract_x
 _atom_site_fract_y
 _atom_site_fract_z
 _atom_site_occupancy
  Li  Li0  1  0.005553  0.977380  0.167595  1
  Li  Li1  1  0.950124  0.660801  0.117822  1
  Li  Li2  1  0.424584  0.989534  0.600763  1
  Li  Li3  1  0.049876  0.160801  0.382178  1
  Li  Li4  1  0.575416  0.489534  0.899237  1
  Li  Li5  1  0.994447  0.477380  0.332405  1
  Li  Li6  1  0.005553  0.522620  0.667595  1
  Li  Li7  1  0.424584  0.510466  0.100763  1
  Li  Li8  1  0.950124  0.839199  0.617822  1
  Li  Li9  1  0.575416  0.010466  0.399237  1
  Li  Li10  1  0.049876  0.339199  0.882178  1
  Li  Li11  1  0.994447  0.022620  0.832405  1
  Co  Co12  1  0.470976  0.333187  0.623777  1
  Co  Co13  1  0.529024  0.833187  0.876223  1
  Co  Co14  1  0.470976  0.166813  0.123777  1
  Co  Co15  1  0.529024  0.666813  0.376223  1
  B  B16  1  0.954527  0.323833  0.120711  1
  B  B17  1  0.466177  0.664661  0.629482  1
  B  B18  1  0.045473  0.823833  0.379289  1
  B  B19  1  0.533823  0.164661  0.870518  1
  B  B20  1  0.466177  0.835339  0.129482  1
  B  B21  1  0.954527  0.176167  0.620711  1
  B  B22  1  0.533823  0.335339  0.370518  1
  B  B23  1  0.045473  0.676167  0.879289  1
  O  O24  1  0.324217  0.329650  0.415679  1
  O  O25  1  0.805853  0.670583  0.904949  1
  O  O26  1  0.192424  0.953776  0.380855  1
  O  O27  1  0.651991  0.024539  0.861771  1
  O  O28  1  0.634688  0.291733  0.833011  1
  O  O29  1  0.133960  0.685070  0.350853  1
  O  O30  1  0.866040  0.185070  0.149147  1
  O  O31  1  0.365312  0.791733  0.666989  1
  O  O32  1  0.348009  0.524539  0.638229  1
  O  O33  1  0.807576  0.453776  0.119145  1
  O  O34  1  0.675783  0.829650  0.084321  1
  O  O35  1  0.194147  0.170583  0.595051  1
  O  O36  1  0.805853  0.829417  0.404949  1
  O  O37  1  0.324217  0.170350  0.915679  1
  O  O38  1  0.192424  0.546224  0.880855  1
  O  O39  1  0.651991  0.475461  0.361771  1
  O  O40  1  0.634688  0.208267  0.333011  1
  O  O41  1  0.133960  0.814930  0.850853  1
  O  O42  1  0.866040  0.314930  0.649147  1
  O  O43  1  0.365312  0.708267  0.166989  1
  O  O44  1  0.348009  0.975461  0.138229  1
  O  O45  1  0.807576  0.046224  0.619145  1
  O  O46  1  0.194147  0.329417  0.095051  1
  O  O47  1  0.675783  0.670350  0.584321  1
