# generated using pymatgen
data_LiMn2(BO3)2
_symmetry_space_group_name_H-M   'P 1'
_cell_length_a   5.29937995
_cell_length_b   10.38423583
_cell_length_c   13.98104392
_cell_angle_alpha   90.28109552
_cell_angle_beta   100.47225585
_cell_angle_gamma   91.69827990
_symmetry_Int_Tables_number   1
_chemical_formula_structural   LiMn2(BO3)2
_chemical_formula_sum   'Li6 Mn12 B12 O36'
_cell_volume   756.18773505
_cell_formula_units_Z   6
loop_
 _symmetry_equiv_pos_site_id
 _symmetry_equiv_pos_as_xyz
  1  'x, y, z'
loop_
 _atom_site_type_symbol
 _atom_site_label
 _atom_site_symmetry_multiplicity
 _atom_site_fract_x
 _atom_site_fract_y
 _atom_site_fract_z
 _atom_site_occupancy
  Li  Li0  1  0.838674  0.342280  0.001507  1
  Li  Li1  1  0.532293  0.319273  0.338216  1
  Li  Li2  1  0.535238  0.831659  0.326831  1
  Li  Li3  1  0.207271  0.337727  0.668599  1
  Li  Li4  1  0.174886  0.825798  0.661368  1
  Li  Li5  1  0.141593  0.657806  0.990712  1
  Mn  Mn6  1  0.959177  0.363320  0.214441  1
  Mn  Mn7  1  0.939573  0.114447  0.567024  1
  Mn  Mn8  1  0.720504  0.617620  0.112288  1
  Mn  Mn9  1  0.636824  0.369765  0.545797  1
  Mn  Mn10  1  0.712647  0.876515  0.773038  1
  Mn  Mn11  1  0.411164  0.865768  0.111084  1
  Mn  Mn12  1  0.568975  0.134702  0.872425  1
  Mn  Mn13  1  0.258611  0.106908  0.225211  1
  Mn  Mn14  1  0.381250  0.612233  0.433551  1
  Mn  Mn15  1  0.283651  0.384412  0.901196  1
  Mn  Mn16  1  0.094378  0.868353  0.456947  1
  Mn  Mn17  1  0.033813  0.624954  0.781667  1
  B  B18  1  0.956497  0.863265  0.232072  1
  B  B19  1  0.701396  0.129155  0.106336  1
  B  B20  1  0.941082  0.624802  0.551110  1
  B  B21  1  0.726422  0.380198  0.771543  1
  B  B22  1  0.384217  0.369858  0.119633  1
  B  B23  1  0.613058  0.865541  0.553165  1
  B  B24  1  0.393091  0.124887  0.454641  1
  B  B25  1  0.606881  0.622918  0.889618  1
  B  B26  1  0.272708  0.624285  0.211572  1
  B  B27  1  0.066393  0.363735  0.441204  1
  B  B28  1  0.268477  0.871956  0.881866  1
  B  B29  1  0.056106  0.140757  0.792398  1
  O  O30  1  0.874017  0.177907  0.189630  1
  O  O31  1  0.725736  0.164791  0.016509  1
  O  O32  1  0.001382  0.328595  0.531597  1
  O  O33  1  0.893864  0.360893  0.357190  1
  O  O34  1  0.886453  0.873383  0.320327  1
  O  O35  1  0.785236  0.815869  0.150649  1
  O  O36  1  0.978349  0.435811  0.782911  1
  O  O37  1  0.638821  0.411189  0.120548  1
  O  O38  1  0.872407  0.905146  0.558943  1
  O  O39  1  0.833730  0.073606  0.803677  1
  O  O40  1  0.501494  0.047961  0.127528  1
  O  O41  1  0.713208  0.551643  0.527401  1
  O  O42  1  0.784038  0.603185  0.971425  1
  O  O43  1  0.556784  0.183893  0.535743  1
  O  O44  1  0.436026  0.142588  0.364160  1
  O  O45  1  0.677035  0.672089  0.806029  1
  O  O46  1  0.430838  0.650303  0.296062  1
  O  O47  1  0.655326  0.327603  0.856496  1
  O  O48  1  0.329937  0.676158  0.123024  1
  O  O49  1  0.566796  0.377556  0.684917  1
  O  O50  1  0.324604  0.320262  0.206464  1
  O  O51  1  0.470775  0.827568  0.461994  1
  O  O52  1  0.201765  0.382143  0.039027  1
  O  O53  1  0.505206  0.867299  0.633495  1
  O  O54  1  0.322968  0.405023  0.442633  1
  O  O55  1  0.206292  0.902717  0.220796  1
  O  O56  1  0.460851  0.952535  0.859000  1
  O  O57  1  0.187656  0.050517  0.477198  1
  O  O58  1  0.047233  0.548921  0.202398  1
  O  O59  1  0.345939  0.587141  0.888019  1
  O  O60  1  0.219962  0.185648  0.877253  1
  O  O61  1  0.116871  0.163902  0.704200  1
  O  O62  1  0.035739  0.681483  0.472508  1
  O  O63  1  0.067904  0.644531  0.642976  1
  O  O64  1  0.110603  0.813771  0.797671  1
  O  O65  1  0.233673  0.841604  0.972025  1
