# generated using pymatgen
data_Li2Fe2(CO3)3
_symmetry_space_group_name_H-M   'P 1'
_cell_length_a   6.08327791
_cell_length_b   6.08327791
_cell_length_c   4.89103800
_cell_angle_alpha   90.00000000
_cell_angle_beta   90.00000000
_cell_angle_gamma   110.26665729
_symmetry_Int_Tables_number   1
_chemical_formula_structural   Li2Fe2(CO3)3
_chemical_formula_sum   'Li2 Fe2 C3 O9'
_cell_volume   169.79354263
_cell_formula_units_Z   1
loop_
 _symmetry_equiv_pos_site_id
 _symmetry_equiv_pos_as_xyz
  1  'x, y, z'
loop_
 _atom_site_type_symbol
 _atom_site_label
 _atom_site_symmetry_multiplicity
 _atom_site_fract_x
 _atom_site_fract_y
 _atom_site_fract_z
 _atom_site_occupancy
  Li  Li0  1  0.905072  0.905072  0.000000  1
  Li  Li1  1  0.627520  0.627520  0.500000  1
  Fe  Fe2  1  0.814508  0.253851  0.500000  1
  Fe  Fe3  1  0.253851  0.814508  0.500000  1
  C  C4  1  0.858250  0.450527  0.000000  1
  C  C5  1  0.450527  0.858250  0.000000  1
  C  C6  1  0.240428  0.240428  0.500000  1
  O  O7  1  0.882672  0.248858  0.000000  1
  O  O8  1  0.248858  0.882672  0.000000  1
  O  O9  1  0.844656  0.551480  0.230487  1
  O  O10  1  0.551480  0.844656  0.230487  1
  O  O11  1  0.440026  0.213187  0.500000  1
  O  O12  1  0.049318  0.049318  0.500000  1
  O  O13  1  0.213187  0.440026  0.500000  1
  O  O14  1  0.844656  0.551480  0.769513  1
  O  O15  1  0.551480  0.844656  0.769513  1
