# generated using pymatgen
data_Li4TiV3O10
_symmetry_space_group_name_H-M   'P 1'
_cell_length_a   6.71108323
_cell_length_b   6.71108323
_cell_length_c   4.60655600
_cell_angle_alpha   90.00000000
_cell_angle_beta   90.00000000
_cell_angle_gamma   90.00000000
_symmetry_Int_Tables_number   1
_chemical_formula_structural   Li4TiV3O10
_chemical_formula_sum   'Li4 Ti1 V3 O10'
_cell_volume   207.47300866
_cell_formula_units_Z   1
loop_
 _symmetry_equiv_pos_site_id
 _symmetry_equiv_pos_as_xyz
  1  'x, y, z'
loop_
 _atom_site_type_symbol
 _atom_site_label
 _atom_site_symmetry_multiplicity
 _atom_site_fract_x
 _atom_site_fract_y
 _atom_site_fract_z
 _atom_site_occupancy
  Li  Li0  1  0.750724  0.750724  0.000000  1
  Li  Li1  1  0.750724  0.249276  0.000000  1
  Li  Li2  1  0.249276  0.249276  0.000000  1
  Li  Li3  1  0.249276  0.750724  0.000000  1
  Ti  Ti4  1  0.500000  0.500000  0.500000  1
  V  V5  1  0.000000  0.500000  0.601403  1
  V  V6  1  0.500000  0.000000  0.398597  1
  V  V7  1  0.000000  0.000000  0.500000  1
  O  O8  1  0.780510  0.000000  0.268136  1
  O  O9  1  0.000000  0.500000  0.234362  1
  O  O10  1  0.000000  0.219490  0.731864  1
  O  O11  1  0.000000  0.780510  0.731864  1
  O  O12  1  0.219490  0.000000  0.268136  1
  O  O13  1  0.280553  0.500000  0.736172  1
  O  O14  1  0.500000  0.719447  0.263828  1
  O  O15  1  0.500000  0.280553  0.263828  1
  O  O16  1  0.500000  0.000000  0.765638  1
  O  O17  1  0.719447  0.500000  0.736172  1
