# generated using pymatgen
data_Li4Ti3Mn2Cu3O16
_symmetry_space_group_name_H-M   'P 1'
_cell_length_a   5.89934666
_cell_length_b   5.89934666
_cell_length_c   9.54627745
_cell_angle_alpha   88.06420307
_cell_angle_beta   91.93579693
_cell_angle_gamma   120.06809446
_symmetry_Int_Tables_number   1
_chemical_formula_structural   Li4Ti3Mn2Cu3O16
_chemical_formula_sum   'Li4 Ti3 Mn2 Cu3 O16'
_cell_volume   287.30535186
_cell_formula_units_Z   1
loop_
 _symmetry_equiv_pos_site_id
 _symmetry_equiv_pos_as_xyz
  1  'x, y, z'
loop_
 _atom_site_type_symbol
 _atom_site_label
 _atom_site_symmetry_multiplicity
 _atom_site_fract_x
 _atom_site_fract_y
 _atom_site_fract_z
 _atom_site_occupancy
  Li  Li0  1  0.332746  0.667254  0.102898  1
  Li  Li1  1  0.010752  0.989248  0.012837  1
  Li  Li2  1  0.007019  0.992981  0.505239  1
  Li  Li3  1  0.664502  0.335498  0.599097  1
  Ti  Ti4  1  0.165571  0.338991  0.786531  1
  Ti  Ti5  1  0.661009  0.834429  0.786531  1
  Ti  Ti6  1  0.829845  0.170155  0.285953  1
  Mn  Mn7  1  0.330702  0.669298  0.514465  1
  Mn  Mn8  1  0.664515  0.335485  0.017578  1
  Cu  Cu9  1  0.169868  0.830132  0.791730  1
  Cu  Cu10  1  0.342228  0.170405  0.289278  1
  Cu  Cu11  1  0.829595  0.657772  0.289278  1
  O  O12  1  0.156878  0.342783  0.402797  1
  O  O13  1  0.480299  0.519701  0.662656  1
  O  O14  1  0.336919  0.663081  0.894701  1
  O  O15  1  0.000057  0.999943  0.695594  1
  O  O16  1  0.004556  0.995444  0.202615  1
  O  O17  1  0.657217  0.843122  0.402797  1
  O  O18  1  0.042616  0.506846  0.647323  1
  O  O19  1  0.493154  0.957384  0.647323  1
  O  O20  1  0.829285  0.170715  0.892462  1
  O  O21  1  0.167761  0.832239  0.403657  1
  O  O22  1  0.533879  0.038292  0.148148  1
  O  O23  1  0.961708  0.466121  0.148148  1
  O  O24  1  0.667460  0.332540  0.392482  1
  O  O25  1  0.335569  0.187152  0.907653  1
  O  O26  1  0.525099  0.474901  0.152658  1
  O  O27  1  0.812848  0.664431  0.907653  1
