# generated using pymatgen
data_Li5Fe5(SbO6)2
_symmetry_space_group_name_H-M   'P 1'
_cell_length_a   5.35545895
_cell_length_b   5.35545895
_cell_length_c   10.26561408
_cell_angle_alpha   84.24270728
_cell_angle_beta   95.75729272
_cell_angle_gamma   60.24510265
_symmetry_Int_Tables_number   1
_chemical_formula_structural   Li5Fe5(SbO6)2
_chemical_formula_sum   'Li5 Fe5 Sb2 O12'
_cell_volume   250.45050955
_cell_formula_units_Z   1
loop_
 _symmetry_equiv_pos_site_id
 _symmetry_equiv_pos_as_xyz
  1  'x, y, z'
loop_
 _atom_site_type_symbol
 _atom_site_label
 _atom_site_symmetry_multiplicity
 _atom_site_fract_x
 _atom_site_fract_y
 _atom_site_fract_z
 _atom_site_occupancy
  Li  Li0  1  0.841966  0.325268  0.743736  1
  Li  Li1  1  0.671466  0.169723  0.255414  1
  Li  Li2  1  0.325268  0.841966  0.256264  1
  Li  Li3  1  0.169723  0.671466  0.744586  1
  Li  Li4  1  0.081472  0.081472  0.500000  1
  Fe  Fe5  1  0.917606  0.917606  0.000000  1
  Fe  Fe6  1  0.994413  0.502715  0.253583  1
  Fe  Fe7  1  0.502715  0.994413  0.746417  1
  Fe  Fe8  1  0.582650  0.582650  0.000000  1
  Fe  Fe9  1  0.414306  0.414306  0.500000  1
  Sb  Sb10  1  0.750289  0.750289  0.500000  1
  Sb  Sb11  1  0.249271  0.249271  0.000000  1
  O  O12  1  0.016689  0.790555  0.383975  1
  O  O13  1  0.790555  0.016689  0.616025  1
  O  O14  1  0.885941  0.614590  0.877622  1
  O  O15  1  0.614590  0.885941  0.122378  1
  O  O16  1  0.707815  0.486093  0.382112  1
  O  O17  1  0.486093  0.707815  0.617888  1
  O  O18  1  0.546076  0.268252  0.874720  1
  O  O19  1  0.268252  0.546076  0.125280  1
  O  O20  1  0.399035  0.108197  0.384966  1
  O  O21  1  0.108197  0.399035  0.615034  1
  O  O22  1  0.226128  0.949484  0.877361  1
  O  O23  1  0.949484  0.226128  0.122639  1
