# generated using pymatgen
data_Li2MnSO4F3
_symmetry_space_group_name_H-M   'P 1'
_cell_length_a   7.29394296
_cell_length_b   7.48034155
_cell_length_c   9.54927907
_cell_angle_alpha   90.00000000
_cell_angle_beta   90.00000000
_cell_angle_gamma   90.00000000
_symmetry_Int_Tables_number   1
_chemical_formula_structural   Li2MnSO4F3
_chemical_formula_sum   'Li8 Mn4 S4 O16 F12'
_cell_volume   521.01997812
_cell_formula_units_Z   4
loop_
 _symmetry_equiv_pos_site_id
 _symmetry_equiv_pos_as_xyz
  1  'x, y, z'
loop_
 _atom_site_type_symbol
 _atom_site_label
 _atom_site_symmetry_multiplicity
 _atom_site_fract_x
 _atom_site_fract_y
 _atom_site_fract_z
 _atom_site_occupancy
  Li  Li0  1  0.774039  0.158054  0.301437  1
  Li  Li1  1  0.774039  0.658054  0.198563  1
  Li  Li2  1  0.725961  0.158054  0.698563  1
  Li  Li3  1  0.725961  0.658054  0.801437  1
  Li  Li4  1  0.274039  0.341946  0.198563  1
  Li  Li5  1  0.274039  0.841946  0.301437  1
  Li  Li6  1  0.225961  0.341946  0.801437  1
  Li  Li7  1  0.225961  0.841946  0.698563  1
  Mn  Mn8  1  0.000000  0.500000  0.500000  1
  Mn  Mn9  1  0.000000  0.000000  0.000000  1
  Mn  Mn10  1  0.500000  0.500000  0.500000  1
  Mn  Mn11  1  0.500000  0.000000  0.000000  1
  S  S12  1  0.750000  0.333338  0.000000  1
  S  S13  1  0.750000  0.833338  0.500000  1
  S  S14  1  0.250000  0.166662  0.500000  1
  S  S15  1  0.250000  0.666662  0.000000  1
  O  O16  1  0.875855  0.210796  0.083587  1
  O  O17  1  0.875855  0.710796  0.416413  1
  O  O18  1  0.845646  0.441609  0.897543  1
  O  O19  1  0.845646  0.941609  0.602457  1
  O  O20  1  0.654354  0.441609  0.102457  1
  O  O21  1  0.654354  0.941609  0.397543  1
  O  O22  1  0.624145  0.210796  0.916413  1
  O  O23  1  0.624145  0.710796  0.583587  1
  O  O24  1  0.375855  0.289204  0.416413  1
  O  O25  1  0.375855  0.789204  0.083587  1
  O  O26  1  0.345646  0.058391  0.602457  1
  O  O27  1  0.345646  0.558391  0.897543  1
  O  O28  1  0.154354  0.058391  0.397543  1
  O  O29  1  0.154354  0.558391  0.102457  1
  O  O30  1  0.124145  0.289204  0.583587  1
  O  O31  1  0.124145  0.789204  0.916413  1
  F  F32  1  0.975453  0.092006  0.820822  1
  F  F33  1  0.975453  0.592006  0.679178  1
  F  F34  1  0.750000  0.336020  0.500000  1
  F  F35  1  0.750000  0.836020  0.000000  1
  F  F36  1  0.524547  0.092006  0.179178  1
  F  F37  1  0.524547  0.592006  0.320822  1
  F  F38  1  0.475453  0.407994  0.679178  1
  F  F39  1  0.475453  0.907994  0.820822  1
  F  F40  1  0.250000  0.163980  0.000000  1
  F  F41  1  0.250000  0.663980  0.500000  1
  F  F42  1  0.024547  0.407994  0.320822  1
  F  F43  1  0.024547  0.907994  0.179178  1
