# generated using pymatgen
data_Sm2Zr2O7
_symmetry_space_group_name_H-M   'P 1'
_cell_length_a   7.98392073
_cell_length_b   5.63867404
_cell_length_c   13.92435696
_cell_angle_alpha   90.00000000
_cell_angle_beta   98.44165048
_cell_angle_gamma   90.00000000
_symmetry_Int_Tables_number   1
_chemical_formula_structural   Sm2Zr2O7
_chemical_formula_sum   'Sm8 Zr8 O28'
_cell_volume   620.06537573
_cell_formula_units_Z   4
loop_
 _symmetry_equiv_pos_site_id
 _symmetry_equiv_pos_as_xyz
  1  'x, y, z'
loop_
 _atom_site_type_symbol
 _atom_site_label
 _atom_site_symmetry_multiplicity
 _atom_site_fract_x
 _atom_site_fract_y
 _atom_site_fract_z
 _atom_site_occupancy
  Sm  Sm0  1  0.861034  0.333645  0.438196  1
  Sm  Sm1  1  0.765477  0.774924  0.077502  1
  Sm  Sm2  1  0.714786  0.245566  0.869360  1
  Sm  Sm3  1  0.641681  0.759871  0.603526  1
  Sm  Sm4  1  0.358319  0.259871  0.396474  1
  Sm  Sm5  1  0.285214  0.745566  0.130640  1
  Sm  Sm6  1  0.234523  0.274924  0.922498  1
  Sm  Sm7  1  0.138966  0.833645  0.561804  1
  Zr  Zr8  1  0.925386  0.267028  0.680949  1
  Zr  Zr9  1  0.971344  0.763414  0.881858  1
  Zr  Zr10  1  0.588274  0.778170  0.325386  1
  Zr  Zr11  1  0.530516  0.264859  0.123224  1
  Zr  Zr12  1  0.469484  0.764859  0.876776  1
  Zr  Zr13  1  0.411726  0.278170  0.674614  1
  Zr  Zr14  1  0.028656  0.263414  0.118142  1
  Zr  Zr15  1  0.074614  0.767028  0.319051  1
  O  O16  1  0.920215  0.550585  0.585388  1
  O  O17  1  0.995336  0.425956  0.824503  1
  O  O18  1  0.828189  0.648075  0.317078  1
  O  O19  1  0.777611  0.368254  0.113305  1
  O  O20  1  0.856609  0.046399  0.566671  1
  O  O21  1  0.932107  0.045485  0.979521  1
  O  O22  1  0.864785  0.967191  0.770839  1
  O  O23  1  0.631347  0.102140  0.380555  1
  O  O24  1  0.578715  0.921784  0.174273  1
  O  O25  1  0.728373  0.645711  0.915029  1
  O  O26  1  0.675688  0.392994  0.700093  1
  O  O27  1  0.584726  0.575041  0.449649  1
  O  O28  1  0.444261  0.542128  0.021845  1
  O  O29  1  0.478051  0.473267  0.232090  1
  O  O30  1  0.521949  0.973267  0.767910  1
  O  O31  1  0.555739  0.042128  0.978155  1
  O  O32  1  0.415274  0.075041  0.550351  1
  O  O33  1  0.324312  0.892994  0.299907  1
  O  O34  1  0.271627  0.145711  0.084971  1
  O  O35  1  0.421285  0.421784  0.825727  1
  O  O36  1  0.368653  0.602140  0.619445  1
  O  O37  1  0.135215  0.467191  0.229161  1
  O  O38  1  0.067893  0.545485  0.020479  1
  O  O39  1  0.143391  0.546399  0.433329  1
  O  O40  1  0.222389  0.868254  0.886695  1
  O  O41  1  0.171811  0.148075  0.682922  1
  O  O42  1  0.004664  0.925956  0.175497  1
  O  O43  1  0.079785  0.050585  0.414612  1
