# generated using pymatgen
data_Li3Cr2CoO6
_symmetry_space_group_name_H-M   'P 1'
_cell_length_a   6.60542719
_cell_length_b   6.60542719
_cell_length_c   5.92981813
_cell_angle_alpha   77.06770695
_cell_angle_beta   102.93229305
_cell_angle_gamma   154.07576962
_symmetry_Int_Tables_number   1
_chemical_formula_structural   Li3Cr2CoO6
_chemical_formula_sum   'Li3 Cr2 Co1 O6'
_cell_volume   110.08808062
_cell_formula_units_Z   1
loop_
 _symmetry_equiv_pos_site_id
 _symmetry_equiv_pos_as_xyz
  1  'x, y, z'
loop_
 _atom_site_type_symbol
 _atom_site_label
 _atom_site_symmetry_multiplicity
 _atom_site_fract_x
 _atom_site_fract_y
 _atom_site_fract_z
 _atom_site_occupancy
  Li  Li0  1  0.163271  0.836729  0.829846  1
  Li  Li1  1  0.500000  0.500000  0.500000  1
  Li  Li2  1  0.836729  0.163271  0.170154  1
  Cr  Cr3  1  0.166243  0.833757  0.331651  1
  Cr  Cr4  1  0.833757  0.166243  0.668349  1
  Co  Co5  1  0.500000  0.500000  0.000000  1
  O  O6  1  0.661131  0.338869  0.095850  1
  O  O7  1  0.994992  0.005008  0.763230  1
  O  O8  1  0.328339  0.671661  0.431301  1
  O  O9  1  0.005008  0.994992  0.236770  1
  O  O10  1  0.338869  0.661131  0.904150  1
  O  O11  1  0.671661  0.328339  0.568699  1
