# generated using pymatgen
data_LiMnP3H8O13
_symmetry_space_group_name_H-M   'P 1'
_cell_length_a   7.36166159
_cell_length_b   7.82771577
_cell_length_c   10.13977367
_cell_angle_alpha   84.04535417
_cell_angle_beta   74.46874034
_cell_angle_gamma   76.64432096
_symmetry_Int_Tables_number   1
_chemical_formula_structural   LiMnP3H8O13
_chemical_formula_sum   'Li2 Mn2 P6 H16 O26'
_cell_volume   547.19555685
_cell_formula_units_Z   2
loop_
 _symmetry_equiv_pos_site_id
 _symmetry_equiv_pos_as_xyz
  1  'x, y, z'
loop_
 _atom_site_type_symbol
 _atom_site_label
 _atom_site_symmetry_multiplicity
 _atom_site_fract_x
 _atom_site_fract_y
 _atom_site_fract_z
 _atom_site_occupancy
  Li  Li0  1  0.804207  0.816730  0.763972  1
  Li  Li1  1  0.195793  0.183270  0.236028  1
  Mn  Mn2  1  0.000000  0.000000  0.000000  1
  Mn  Mn3  1  0.000000  0.500000  0.500000  1
  P  P4  1  0.331570  0.805879  0.743030  1
  P  P5  1  0.245215  0.805967  0.476533  1
  P  P6  1  0.591239  0.456872  0.728838  1
  P  P7  1  0.408761  0.543128  0.271162  1
  P  P8  1  0.754785  0.194033  0.523467  1
  P  P9  1  0.668430  0.194121  0.256970  1
  H  H10  1  0.372146  0.966513  0.961437  1
  H  H11  1  0.810172  0.824043  0.430338  1
  H  H12  1  0.316518  0.865258  0.101881  1
  H  H13  1  0.925474  0.735982  0.206907  1
  H  H14  1  0.688321  0.701286  0.397141  1
  H  H15  1  0.852431  0.652144  0.008158  1
  H  H16  1  0.653169  0.621491  0.004533  1
  H  H17  1  0.097049  0.641903  0.088005  1
  H  H18  1  0.902951  0.358097  0.911995  1
  H  H19  1  0.346831  0.378509  0.995467  1
  H  H20  1  0.147569  0.347856  0.991842  1
  H  H21  1  0.311679  0.298714  0.602859  1
  H  H22  1  0.074526  0.264018  0.793093  1
  H  H23  1  0.683482  0.134742  0.898119  1
  H  H24  1  0.189828  0.175957  0.569662  1
  H  H25  1  0.627854  0.033487  0.038563  1
  O  O26  1  0.474624  0.878474  0.789060  1
  O  O27  1  0.278538  0.980082  0.052676  1
  O  O28  1  0.194992  0.960064  0.385076  1
  O  O29  1  0.357833  0.857550  0.579578  1
  O  O30  1  0.120816  0.855481  0.814850  1
  O  O31  1  0.982382  0.739914  0.106292  1
  O  O32  1  0.820854  0.717858  0.382822  1
  O  O33  1  0.786526  0.612393  0.947585  1
  O  O34  1  0.754884  0.550245  0.671025  1
  O  O35  1  0.093874  0.707722  0.558615  1
  O  O36  1  0.426865  0.658874  0.391103  1
  O  O37  1  0.385891  0.592247  0.745872  1
  O  O38  1  0.413757  0.653310  0.140439  1
  O  O39  1  0.586243  0.346690  0.859561  1
  O  O40  1  0.614109  0.407753  0.254128  1
  O  O41  1  0.573135  0.341126  0.608897  1
  O  O42  1  0.906126  0.292278  0.441385  1
  O  O43  1  0.245116  0.449755  0.328975  1
  O  O44  1  0.213474  0.387607  0.052415  1
  O  O45  1  0.179146  0.282142  0.617178  1
  O  O46  1  0.017618  0.260086  0.893708  1
  O  O47  1  0.879184  0.144519  0.185150  1
  O  O48  1  0.642167  0.142450  0.420422  1
  O  O49  1  0.805008  0.039936  0.614924  1
  O  O50  1  0.721462  0.019918  0.947324  1
  O  O51  1  0.525376  0.121526  0.210940  1
