# generated using pymatgen
data_Bi24B2O39
_symmetry_space_group_name_H-M   'P 1'
_cell_length_a   8.73859582
_cell_length_b   8.88414541
_cell_length_c   14.25180562
_cell_angle_alpha   90.03399312
_cell_angle_beta   90.17125524
_cell_angle_gamma   109.73363643
_symmetry_Int_Tables_number   1
_chemical_formula_structural   Bi24B2O39
_chemical_formula_sum   'Bi24 B2 O39'
_cell_volume   1041.45376846
_cell_formula_units_Z   1
loop_
 _symmetry_equiv_pos_site_id
 _symmetry_equiv_pos_as_xyz
  1  'x, y, z'
loop_
 _atom_site_type_symbol
 _atom_site_label
 _atom_site_symmetry_multiplicity
 _atom_site_fract_x
 _atom_site_fract_y
 _atom_site_fract_z
 _atom_site_occupancy
  Bi  Bi0  1  0.614824  0.790964  0.917858  1
  Bi  Bi1  1  0.242927  0.408388  0.910810  1
  Bi  Bi2  1  0.188351  0.478515  0.638601  1
  Bi  Bi3  1  0.524408  0.826656  0.664584  1
  Bi  Bi4  1  0.329039  0.031435  0.835917  1
  Bi  Bi5  1  0.992251  0.657767  0.824262  1
  Bi  Bi6  1  0.241823  0.738539  0.427678  1
  Bi  Bi7  1  0.756652  0.231368  0.926874  1
  Bi  Bi8  1  0.580831  0.441820  0.749043  1
  Bi  Bi9  1  0.072694  0.940657  0.240195  1
  Bi  Bi10  1  0.084404  0.275083  0.415595  1
  Bi  Bi11  1  0.887153  0.727723  0.592062  1
  Bi  Bi12  1  0.730861  0.891840  0.409669  1
  Bi  Bi13  1  0.276800  0.084453  0.579679  1
  Bi  Bi14  1  0.948576  0.081881  0.757470  1
  Bi  Bi15  1  0.443908  0.566930  0.275970  1
  Bi  Bi16  1  0.734629  0.238421  0.572111  1
  Bi  Bi17  1  0.272572  0.743725  0.082443  1
  Bi  Bi18  1  0.010795  0.323457  0.161374  1
  Bi  Bi19  1  0.671810  0.988299  0.147887  1
  Bi  Bi20  1  0.828080  0.520813  0.342001  1
  Bi  Bi21  1  0.488026  0.149567  0.345414  1
  Bi  Bi22  1  0.360737  0.201501  0.085280  1
  Bi  Bi23  1  0.735123  0.564902  0.096677  1
  B  B24  1  0.988671  0.011662  0.003354  1
  B  B25  1  0.508267  0.509159  0.497715  1
  O  O26  1  0.318974  0.705146  0.941662  1
  O  O27  1  0.046569  0.912787  0.701831  1
  O  O28  1  0.991688  0.183115  0.003443  1
  O  O29  1  0.037730  0.432287  0.842117  1
  O  O30  1  0.587247  0.937761  0.806966  1
  O  O31  1  0.905977  0.928298  0.914603  1
  O  O32  1  0.163568  0.009812  0.007528  1
  O  O33  1  0.418339  0.549957  0.802776  1
  O  O34  1  0.212996  0.821233  0.563167  1
  O  O35  1  0.202663  0.204425  0.800874  1
  O  O36  1  0.500740  0.245916  0.887719  1
  O  O37  1  0.753959  0.528051  0.870333  1
  O  O38  1  0.024485  0.241303  0.624641  1
  O  O39  1  0.739469  0.994227  0.609247  1
  O  O40  1  0.103103  0.500490  0.497625  1
  O  O41  1  0.605172  0.003204  0.998708  1
  O  O42  1  0.697320  0.698384  0.700317  1
  O  O43  1  0.506181  0.677502  0.495224  1
  O  O44  1  0.405923  0.416757  0.579707  1
  O  O45  1  0.436450  0.082605  0.691819  1
  O  O46  1  0.544811  0.925500  0.325629  1
  O  O47  1  0.082123  0.438275  0.307846  1
  O  O48  1  0.938701  0.556767  0.681909  1
  O  O49  1  0.680839  0.506830  0.505565  1
  O  O50  1  0.431780  0.420418  0.405816  1
  O  O51  1  0.700985  0.697785  0.302738  1
  O  O52  1  0.501031  0.105823  0.498845  1
  O  O53  1  0.994463  0.739567  0.388767  1
  O  O54  1  0.242493  0.012724  0.370085  1
  O  O55  1  0.220900  0.487064  0.100274  1
  O  O56  1  0.517278  0.743932  0.126242  1
  O  O57  1  0.193732  0.197102  0.198774  1
  O  O58  1  0.818900  0.213386  0.435673  1
  O  O59  1  0.551452  0.422238  0.195882  1
  O  O60  1  0.897321  0.924460  0.090262  1
  O  O61  1  0.926558  0.577724  0.189411  1
  O  O62  1  0.417494  0.030034  0.168766  1
  O  O63  1  0.919142  0.048614  0.305914  1
  O  O64  1  0.747228  0.332265  0.060779  1
