# generated using pymatgen
data_Li3FeF6
_symmetry_space_group_name_H-M   'P 1'
_cell_length_a   5.07852418
_cell_length_b   8.59677155
_cell_length_c   9.82857784
_cell_angle_alpha   90.00000000
_cell_angle_beta   90.00000000
_cell_angle_gamma   90.00000000
_symmetry_Int_Tables_number   1
_chemical_formula_structural   Li3FeF6
_chemical_formula_sum   'Li12 Fe4 F24'
_cell_volume   429.10501684
_cell_formula_units_Z   4
loop_
 _symmetry_equiv_pos_site_id
 _symmetry_equiv_pos_as_xyz
  1  'x, y, z'
loop_
 _atom_site_type_symbol
 _atom_site_label
 _atom_site_symmetry_multiplicity
 _atom_site_fract_x
 _atom_site_fract_y
 _atom_site_fract_z
 _atom_site_occupancy
  Li  Li0  1  0.502094  0.544697  0.105746  1
  Li  Li1  1  0.991754  0.147456  0.125625  1
  Li  Li2  1  0.498034  0.953022  0.146202  1
  Li  Li3  1  0.998034  0.453022  0.353798  1
  Li  Li4  1  0.491754  0.647456  0.374375  1
  Li  Li5  1  0.002094  0.044697  0.394254  1
  Li  Li6  1  0.502094  0.955303  0.605746  1
  Li  Li7  1  0.991754  0.352544  0.625625  1
  Li  Li8  1  0.498034  0.546978  0.646202  1
  Li  Li9  1  0.998034  0.046978  0.853798  1
  Li  Li10  1  0.491754  0.852544  0.874375  1
  Li  Li11  1  0.002094  0.455303  0.894254  1
  Fe  Fe12  1  0.000238  0.759360  0.127697  1
  Fe  Fe13  1  0.500238  0.259360  0.372303  1
  Fe  Fe14  1  0.000238  0.740640  0.627697  1
  Fe  Fe15  1  0.500238  0.240640  0.872303  1
  F  F16  1  0.179901  0.914664  0.008893  1
  F  F17  1  0.675675  0.755124  0.021869  1
  F  F18  1  0.158151  0.591083  0.024560  1
  F  F19  1  0.854091  0.941190  0.226634  1
  F  F20  1  0.317225  0.768671  0.239021  1
  F  F21  1  0.815626  0.611992  0.248765  1
  F  F22  1  0.315626  0.111992  0.251235  1
  F  F23  1  0.817225  0.268671  0.260979  1
  F  F24  1  0.354091  0.441190  0.273366  1
  F  F25  1  0.658151  0.091083  0.475440  1
  F  F26  1  0.175675  0.255124  0.478131  1
  F  F27  1  0.679901  0.414664  0.491107  1
  F  F28  1  0.179901  0.585336  0.508893  1
  F  F29  1  0.675675  0.744876  0.521869  1
  F  F30  1  0.158151  0.908917  0.524560  1
  F  F31  1  0.854091  0.558810  0.726634  1
  F  F32  1  0.317225  0.731329  0.739021  1
  F  F33  1  0.815626  0.888008  0.748765  1
  F  F34  1  0.315626  0.388008  0.751235  1
  F  F35  1  0.817225  0.231329  0.760979  1
  F  F36  1  0.354091  0.058810  0.773366  1
  F  F37  1  0.658151  0.408917  0.975440  1
  F  F38  1  0.175675  0.244876  0.978131  1
  F  F39  1  0.679901  0.085336  0.991107  1
