# generated using pymatgen
data_NaLi5Mn2P2(CO7)2
_symmetry_space_group_name_H-M   'P 1'
_cell_length_a   6.64317606
_cell_length_b   8.64950594
_cell_length_c   10.01801554
_cell_angle_alpha   91.92029112
_cell_angle_beta   90.13944917
_cell_angle_gamma   90.35213949
_symmetry_Int_Tables_number   1
_chemical_formula_structural   NaLi5Mn2P2(CO7)2
_chemical_formula_sum   'Na2 Li10 Mn4 P4 C4 O28'
_cell_volume   575.30094023
_cell_formula_units_Z   2
loop_
 _symmetry_equiv_pos_site_id
 _symmetry_equiv_pos_as_xyz
  1  'x, y, z'
loop_
 _atom_site_type_symbol
 _atom_site_label
 _atom_site_symmetry_multiplicity
 _atom_site_fract_x
 _atom_site_fract_y
 _atom_site_fract_z
 _atom_site_occupancy
  Na  Na0  1  0.245298  0.913891  0.376124  1
  Na  Na1  1  0.500077  0.248178  0.375610  1
  Li  Li2  1  0.248566  0.920531  0.871630  1
  Li  Li3  1  0.025692  0.732882  0.616173  1
  Li  Li4  1  0.473810  0.733119  0.615759  1
  Li  Li5  1  0.025410  0.732054  0.110972  1
  Li  Li6  1  0.475236  0.734278  0.111632  1
  Li  Li7  1  0.523437  0.262842  0.883036  1
  Li  Li8  1  0.974288  0.264600  0.883945  1
  Li  Li9  1  0.972946  0.272153  0.388376  1
  Li  Li10  1  0.756172  0.083026  0.630949  1
  Li  Li11  1  0.762835  0.087657  0.125356  1
  Mn  Mn12  1  0.750997  0.650111  0.885707  1
  Mn  Mn13  1  0.747253  0.643038  0.389277  1
  Mn  Mn14  1  0.245254  0.354155  0.618965  1
  Mn  Mn15  1  0.248742  0.351675  0.108910  1
  P  P16  1  0.250859  0.595072  0.854771  1
  P  P17  1  0.242836  0.585567  0.357172  1
  P  P18  1  0.748919  0.409232  0.651255  1
  P  P19  1  0.754370  0.409294  0.142446  1
  C  C20  1  0.750319  0.962538  0.864276  1
  C  C21  1  0.759259  0.956199  0.361486  1
  C  C22  1  0.249460  0.047747  0.641866  1
  C  C23  1  0.250452  0.038698  0.127231  1
  O  O24  1  0.251191  0.898004  0.656732  1
  O  O25  1  0.249894  0.890493  0.145576  1
  O  O26  1  0.752743  0.919991  0.986504  1
  O  O27  1  0.750250  0.920122  0.486161  1
  O  O28  1  0.751023  0.859638  0.765822  1
  O  O29  1  0.744358  0.848664  0.267650  1
  O  O30  1  0.067317  0.689059  0.907437  1
  O  O31  1  0.435723  0.689739  0.907288  1
  O  O32  1  0.062468  0.683593  0.409863  1
  O  O33  1  0.432173  0.672061  0.413492  1
  O  O34  1  0.249202  0.588917  0.698083  1
  O  O35  1  0.752068  0.578888  0.602913  1
  O  O36  1  0.247427  0.582303  0.200509  1
  O  O37  1  0.750952  0.578438  0.094594  1
  O  O38  1  0.251837  0.424638  0.899914  1
  O  O39  1  0.756258  0.418057  0.807564  1
  O  O40  1  0.229577  0.416389  0.402697  1
  O  O41  1  0.767236  0.417815  0.298342  1
  O  O42  1  0.560247  0.316608  0.604690  1
  O  O43  1  0.928619  0.311607  0.596538  1
  O  O44  1  0.565876  0.313178  0.096897  1
  O  O45  1  0.933659  0.312904  0.085327  1
  O  O46  1  0.244103  0.139334  0.747077  1
  O  O47  1  0.251332  0.135409  0.229972  1
  O  O48  1  0.252421  0.106382  0.524873  1
  O  O49  1  0.249581  0.091588  0.008122  1
  O  O50  1  0.747519  0.108576  0.835087  1
  O  O51  1  0.782459  0.099070  0.327351  1
