# generated using pymatgen
data_Li7Fe3Co(PO4)6
_symmetry_space_group_name_H-M   'P 1'
_cell_length_a   8.79351215
_cell_length_b   8.79351215
_cell_length_c   8.79351215
_cell_angle_alpha   60.37681580
_cell_angle_beta   60.37681580
_cell_angle_gamma   60.37681580
_symmetry_Int_Tables_number   1
_chemical_formula_structural   Li7Fe3Co(PO4)6
_chemical_formula_sum   'Li7 Fe3 Co1 P6 O24'
_cell_volume   484.90631066
_cell_formula_units_Z   1
loop_
 _symmetry_equiv_pos_site_id
 _symmetry_equiv_pos_as_xyz
  1  'x, y, z'
loop_
 _atom_site_type_symbol
 _atom_site_label
 _atom_site_symmetry_multiplicity
 _atom_site_fract_x
 _atom_site_fract_y
 _atom_site_fract_z
 _atom_site_occupancy
  Li  Li0  1  0.276648  0.110468  0.770165  1
  Li  Li1  1  0.770165  0.276648  0.110468  1
  Li  Li2  1  0.845640  0.198968  0.658614  1
  Li  Li3  1  0.110468  0.770165  0.276648  1
  Li  Li4  1  0.198968  0.658614  0.845640  1
  Li  Li5  1  0.479643  0.479643  0.479643  1
  Li  Li6  1  0.658614  0.845640  0.198968  1
  Fe  Fe7  1  0.350542  0.350542  0.350542  1
  Fe  Fe8  1  0.147354  0.147354  0.147354  1
  Fe  Fe9  1  0.644749  0.644749  0.644749  1
  Co  Co10  1  0.847876  0.847876  0.847876  1
  P  P11  1  0.746886  0.045612  0.458651  1
  P  P12  1  0.953856  0.541271  0.251324  1
  P  P13  1  0.458651  0.746886  0.045612  1
  P  P14  1  0.541271  0.251324  0.953856  1
  P  P15  1  0.045612  0.458651  0.746886  1
  P  P16  1  0.251324  0.953856  0.541271  1
  O  O17  1  0.686576  0.887668  0.502507  1
  O  O18  1  0.928718  0.036600  0.284571  1
  O  O19  1  0.602842  0.241919  0.397885  1
  O  O20  1  0.887668  0.502507  0.686576  1
  O  O21  1  0.982449  0.355691  0.246575  1
  O  O22  1  0.963942  0.701945  0.065686  1
  O  O23  1  0.502507  0.686576  0.887668  1
  O  O24  1  0.772740  0.034529  0.623807  1
  O  O25  1  0.755243  0.602539  0.390736  1
  O  O26  1  0.284571  0.928718  0.036600  1
  O  O27  1  0.623807  0.772740  0.034529  1
  O  O28  1  0.397885  0.602842  0.241919  1
  O  O29  1  0.602539  0.390736  0.755243  1
  O  O30  1  0.355691  0.246575  0.982449  1
  O  O31  1  0.701945  0.065686  0.963942  1
  O  O32  1  0.241919  0.397885  0.602842  1
  O  O33  1  0.246575  0.982449  0.355691  1
  O  O34  1  0.517888  0.309903  0.107099  1
  O  O35  1  0.036600  0.284571  0.928718  1
  O  O36  1  0.034529  0.623807  0.772740  1
  O  O37  1  0.107099  0.517888  0.309903  1
  O  O38  1  0.390736  0.755243  0.602539  1
  O  O39  1  0.065686  0.963942  0.701945  1
  O  O40  1  0.309903  0.107099  0.517888  1
