# generated using pymatgen
data_Gd3Y5O12
_symmetry_space_group_name_H-M   'P 1'
_cell_length_a   9.31281724
_cell_length_b   9.31922624
_cell_length_c   9.31903610
_cell_angle_alpha   109.48172278
_cell_angle_beta   109.42975283
_cell_angle_gamma   109.44858164
_symmetry_Int_Tables_number   1
_chemical_formula_structural   Gd3Y5O12
_chemical_formula_sum   'Gd6 Y10 O24'
_cell_volume   623.01276731
_cell_formula_units_Z   2
loop_
 _symmetry_equiv_pos_site_id
 _symmetry_equiv_pos_as_xyz
  1  'x, y, z'
loop_
 _atom_site_type_symbol
 _atom_site_label
 _atom_site_symmetry_multiplicity
 _atom_site_fract_x
 _atom_site_fract_y
 _atom_site_fract_z
 _atom_site_occupancy
  Gd  Gd0  1  0.468069  0.250259  0.718858  1
  Gd  Gd1  1  0.533042  0.749871  0.282760  1
  Gd  Gd2  1  0.031586  0.749209  0.781309  1
  Gd  Gd3  1  0.750906  0.218293  0.467343  1
  Gd  Gd4  1  0.249326  0.282476  0.032101  1
  Gd  Gd5  1  0.281203  0.032169  0.249984  1
  Y  Y6  1  0.500783  0.999133  0.999275  1
  Y  Y7  1  0.716661  0.966513  0.750621  1
  Y  Y8  1  0.749412  0.717397  0.967307  1
  Y  Y9  1  0.249839  0.781629  0.532904  1
  Y  Y10  1  0.966308  0.250330  0.216430  1
  Y  Y11  1  0.498950  0.500969  0.500850  1
  Y  Y12  1  0.999967  0.999643  0.499064  1
  Y  Y13  1  0.217009  0.467025  0.749106  1
  Y  Y14  1  0.999755  0.499961  0.000595  1
  Y  Y15  1  0.784256  0.533640  0.250120  1
  O  O16  1  0.731339  0.459771  0.970686  1
  O  O17  1  0.510627  0.039788  0.771741  1
  O  O18  1  0.262570  0.030965  0.988393  1
  O  O19  1  0.457427  0.728201  0.490937  1
  O  O20  1  0.235984  0.227997  0.767663  1
  O  O21  1  0.043187  0.531978  0.271004  1
  O  O22  1  0.768046  0.738789  0.728341  1
  O  O23  1  0.989195  0.760662  0.529356  1
  O  O24  1  0.468864  0.512958  0.740688  1
  O  O25  1  0.728451  0.270532  0.235653  1
  O  O26  1  0.965203  0.229454  0.957837  1
  O  O27  1  0.227620  0.986919  0.458605  1
  O  O28  1  0.272787  0.728538  0.759996  1
  O  O29  1  0.773815  0.010541  0.544485  1
  O  O30  1  0.533974  0.489554  0.263326  1
  O  O31  1  0.028681  0.768679  0.041546  1
  O  O32  1  0.012229  0.239271  0.467578  1
  O  O33  1  0.228931  0.263220  0.273120  1
  O  O34  1  0.763395  0.772307  0.229592  1
  O  O35  1  0.959890  0.468213  0.731690  1
  O  O36  1  0.542135  0.274307  0.511298  1
  O  O37  1  0.739753  0.968358  0.011413  1
  O  O38  1  0.268930  0.541968  0.029595  1
  O  O39  1  0.489896  0.958513  0.226831  1
