# generated using pymatgen
data_K(WO3)4
_symmetry_space_group_name_H-M   'P 1'
_cell_length_a   7.51551781
_cell_length_b   7.51551781
_cell_length_c   15.45914930
_cell_angle_alpha   90.00000000
_cell_angle_beta   90.00000000
_cell_angle_gamma   120.00000000
_symmetry_Int_Tables_number   1
_chemical_formula_structural   K(WO3)4
_chemical_formula_sum   'K3 W12 O36'
_cell_volume   756.19541593
_cell_formula_units_Z   3
loop_
 _symmetry_equiv_pos_site_id
 _symmetry_equiv_pos_as_xyz
  1  'x, y, z'
loop_
 _atom_site_type_symbol
 _atom_site_label
 _atom_site_symmetry_multiplicity
 _atom_site_fract_x
 _atom_site_fract_y
 _atom_site_fract_z
 _atom_site_occupancy
  K  K0  1  0.000000  0.000000  0.250520  1
  K  K1  1  0.000000  0.000000  0.527302  1
  K  K2  1  0.000000  0.000000  0.804622  1
  W  W3  1  0.999904  0.499952  0.376364  1
  W  W4  1  0.999800  0.499900  0.876734  1
  W  W5  1  0.000079  0.500040  0.125565  1
  W  W6  1  0.999884  0.499942  0.626752  1
  W  W7  1  0.500100  0.499900  0.876734  1
  W  W8  1  0.500048  0.499952  0.376364  1
  W  W9  1  0.500058  0.499942  0.626752  1
  W  W10  1  0.499960  0.500040  0.125565  1
  W  W11  1  0.500058  0.000116  0.626752  1
  W  W12  1  0.499960  0.999921  0.125565  1
  W  W13  1  0.500100  0.000200  0.876734  1
  W  W14  1  0.500048  0.000096  0.376364  1
  O  O15  1  0.986076  0.493038  0.001471  1
  O  O16  1  0.985063  0.492531  0.500674  1
  O  O17  1  0.212273  0.787727  0.123425  1
  O  O18  1  0.210627  0.789373  0.620976  1
  O  O19  1  0.211411  0.788589  0.879002  1
  O  O20  1  0.210667  0.789333  0.381139  1
  O  O21  1  0.211411  0.422821  0.879002  1
  O  O22  1  0.210667  0.421335  0.381139  1
  O  O23  1  0.210627  0.421254  0.620976  1
  O  O24  1  0.212273  0.424545  0.123425  1
  O  O25  1  0.506962  0.013924  0.001471  1
  O  O26  1  0.507469  0.014937  0.500674  1
  O  O27  1  0.577179  0.788589  0.879002  1
  O  O28  1  0.578665  0.789333  0.381139  1
  O  O29  1  0.575455  0.787727  0.123425  1
  O  O30  1  0.578746  0.789373  0.620976  1
  O  O31  1  0.507469  0.492531  0.500674  1
  O  O32  1  0.506962  0.493038  0.001471  1
  O  O33  1  0.492671  0.507329  0.252083  1
  O  O34  1  0.492993  0.507007  0.750419  1
  O  O35  1  0.421341  0.210671  0.372074  1
  O  O36  1  0.422642  0.211321  0.870914  1
  O  O37  1  0.424077  0.212039  0.131784  1
  O  O38  1  0.421117  0.210558  0.629693  1
  O  O39  1  0.492671  0.985341  0.252083  1
  O  O40  1  0.492993  0.985986  0.750419  1
  O  O41  1  0.789329  0.578659  0.372074  1
  O  O42  1  0.788679  0.577358  0.870914  1
  O  O43  1  0.787961  0.575923  0.131784  1
  O  O44  1  0.789442  0.578883  0.629693  1
  O  O45  1  0.787961  0.212039  0.131784  1
  O  O46  1  0.789442  0.210558  0.629693  1
  O  O47  1  0.789329  0.210671  0.372074  1
  O  O48  1  0.788679  0.211321  0.870914  1
  O  O49  1  0.014659  0.507329  0.252083  1
  O  O50  1  0.014014  0.507007  0.750419  1
