# generated using pymatgen
data_Sr(CdGe)2
_symmetry_space_group_name_H-M   'P 1'
_cell_length_a   6.75066256
_cell_length_b   6.75066256
_cell_length_c   6.75066256
_cell_angle_alpha   140.35551416
_cell_angle_beta   140.35551416
_cell_angle_gamma   57.31389696
_symmetry_Int_Tables_number   1
_chemical_formula_structural   Sr(CdGe)2
_chemical_formula_sum   'Sr1 Cd2 Ge2'
_cell_volume   124.16903920
_cell_formula_units_Z   1
loop_
 _symmetry_equiv_pos_site_id
 _symmetry_equiv_pos_as_xyz
  1  'x, y, z'
loop_
 _atom_site_type_symbol
 _atom_site_label
 _atom_site_symmetry_multiplicity
 _atom_site_fract_x
 _atom_site_fract_y
 _atom_site_fract_z
 _atom_site_occupancy
  Sr  Sr0  1  0.000000  0.000000  0.000000  1
  Cd  Cd1  1  0.250000  0.750000  0.500000  1
  Cd  Cd2  1  0.750000  0.250000  0.500000  1
  Ge  Ge3  1  0.608113  0.608113  0.000000  1
  Ge  Ge4  1  0.391887  0.391887  0.000000  1
