# generated using pymatgen
data_Ni2P2O7
_symmetry_space_group_name_H-M   'P 1'
_cell_length_a   6.98844546
_cell_length_b   8.32036711
_cell_length_c   9.03959665
_cell_angle_alpha   90.00000000
_cell_angle_beta   113.78458209
_cell_angle_gamma   90.00000000
_symmetry_Int_Tables_number   1
_chemical_formula_structural   Ni2P2O7
_chemical_formula_sum   'Ni8 P8 O28'
_cell_volume   480.97842666
_cell_formula_units_Z   4
loop_
 _symmetry_equiv_pos_site_id
 _symmetry_equiv_pos_as_xyz
  1  'x, y, z'
loop_
 _atom_site_type_symbol
 _atom_site_label
 _atom_site_symmetry_multiplicity
 _atom_site_fract_x
 _atom_site_fract_y
 _atom_site_fract_z
 _atom_site_occupancy
  Ni  Ni0  1  0.305037  0.442588  0.179294  1
  Ni  Ni1  1  0.694963  0.557412  0.820706  1
  Ni  Ni2  1  0.694963  0.942588  0.320706  1
  Ni  Ni3  1  0.305037  0.057412  0.679294  1
  Ni  Ni4  1  0.769077  0.575640  0.390696  1
  Ni  Ni5  1  0.230923  0.424360  0.609304  1
  Ni  Ni6  1  0.230923  0.075640  0.109304  1
  Ni  Ni7  1  0.769077  0.924360  0.890696  1
  P  P8  1  0.059340  0.770580  0.242936  1
  P  P9  1  0.940660  0.229420  0.757064  1
  P  P10  1  0.940660  0.270580  0.257064  1
  P  P11  1  0.059340  0.729420  0.742936  1
  P  P12  1  0.528710  0.224985  0.466007  1
  P  P13  1  0.471290  0.775015  0.533993  1
  P  P14  1  0.471290  0.724985  0.033993  1
  P  P15  1  0.528710  0.275015  0.966007  1
  O  O16  1  0.749938  0.167124  0.595899  1
  O  O17  1  0.250062  0.832876  0.404101  1
  O  O18  1  0.250062  0.667124  0.904101  1
  O  O19  1  0.749938  0.332876  0.095899  1
  O  O20  1  0.623102  0.766831  0.449853  1
  O  O21  1  0.376898  0.233169  0.550147  1
  O  O22  1  0.376898  0.266831  0.050147  1
  O  O23  1  0.623102  0.733169  0.949853  1
  O  O24  1  0.121947  0.261897  0.202336  1
  O  O25  1  0.878053  0.738103  0.797664  1
  O  O26  1  0.878053  0.761897  0.297664  1
  O  O27  1  0.121947  0.238103  0.702336  1
  O  O28  1  0.550368  0.389469  0.397699  1
  O  O29  1  0.449632  0.610531  0.602301  1
  O  O30  1  0.449632  0.889469  0.102301  1
  O  O31  1  0.550368  0.110531  0.897699  1
  O  O32  1  0.022466  0.906648  0.119916  1
  O  O33  1  0.977534  0.093352  0.880084  1
  O  O34  1  0.977534  0.406648  0.380084  1
  O  O35  1  0.022466  0.593352  0.619916  1
  O  O36  1  0.477014  0.088787  0.341329  1
  O  O37  1  0.522986  0.911213  0.658671  1
  O  O38  1  0.522986  0.588787  0.158671  1
  O  O39  1  0.477014  0.411213  0.841329  1
  O  O40  1  0.114814  0.612045  0.190843  1
  O  O41  1  0.885186  0.387955  0.809157  1
  O  O42  1  0.885186  0.112045  0.309157  1
  O  O43  1  0.114814  0.887955  0.690843  1
