# generated using pymatgen
data_La3PO7
_symmetry_space_group_name_H-M   'P 1'
_cell_length_a   9.52870363
_cell_length_b   9.52870363
_cell_length_c   12.54082946
_cell_angle_alpha   77.16001959
_cell_angle_beta   102.83998041
_cell_angle_gamma   88.38814828
_symmetry_Int_Tables_number   1
_chemical_formula_structural   La3PO7
_chemical_formula_sum   'La18 P6 O42'
_cell_volume   1078.82159658
_cell_formula_units_Z   6
loop_
 _symmetry_equiv_pos_site_id
 _symmetry_equiv_pos_as_xyz
  1  'x, y, z'
loop_
 _atom_site_type_symbol
 _atom_site_label
 _atom_site_symmetry_multiplicity
 _atom_site_fract_x
 _atom_site_fract_y
 _atom_site_fract_z
 _atom_site_occupancy
  La  La0  1  0.147927  0.508149  0.946748  1
  La  La1  1  0.491851  0.852073  0.946748  1
  La  La2  1  0.190429  0.500013  0.618951  1
  La  La3  1  0.499987  0.809571  0.618951  1
  La  La4  1  0.186889  0.156386  0.837651  1
  La  La5  1  0.843614  0.813111  0.837651  1
  La  La6  1  0.505250  0.808342  0.280054  1
  La  La7  1  0.191658  0.494750  0.280054  1
  La  La8  1  0.141751  0.168160  0.501654  1
  La  La9  1  0.831840  0.858249  0.501654  1
  La  La10  1  0.145334  0.163065  0.164467  1
  La  La11  1  0.836935  0.854666  0.164467  1
  La  La12  1  0.844532  0.499784  0.703808  1
  La  La13  1  0.500216  0.155468  0.703808  1
  La  La14  1  0.480610  0.144494  0.391623  1
  La  La15  1  0.855506  0.519390  0.391623  1
  La  La16  1  0.491453  0.166564  0.079039  1
  La  La17  1  0.833436  0.508547  0.079039  1
  P  P18  1  0.173079  0.826921  0.715051  1
  P  P19  1  0.164545  0.835455  0.076126  1
  P  P20  1  0.505185  0.494815  0.506877  1
  P  P21  1  0.502926  0.497074  0.128140  1
  P  P22  1  0.836782  0.163218  0.657713  1
  P  P23  1  0.834766  0.165234  0.278054  1
  O  O24  1  0.077613  0.922387  0.604705  1
  O  O25  1  0.264640  0.922084  0.783468  1
  O  O26  1  0.077916  0.735360  0.783468  1
  O  O27  1  0.056248  0.943752  0.101687  1
  O  O28  1  0.279344  0.720656  0.685536  1
  O  O29  1  0.587191  0.906902  0.779580  1
  O  O30  1  0.093098  0.412808  0.779580  1
  O  O31  1  0.074301  0.737474  0.009856  1
  O  O32  1  0.262526  0.925699  0.009856  1
  O  O33  1  0.256721  0.743279  0.189375  1
  O  O34  1  0.109461  0.435235  0.446858  1
  O  O35  1  0.564765  0.890539  0.446858  1
  O  O36  1  0.402677  0.597323  0.402987  1
  O  O37  1  0.471988  0.528012  0.616049  1
  O  O38  1  0.587880  0.927475  0.113737  1
  O  O39  1  0.072525  0.412120  0.113737  1
  O  O40  1  0.259546  0.249241  0.668470  1
  O  O41  1  0.750759  0.740454  0.668470  1
  O  O42  1  0.396786  0.603214  0.027655  1
  O  O43  1  0.882238  0.549675  0.891499  1
  O  O44  1  0.450325  0.117762  0.891499  1
  O  O45  1  0.227605  0.228944  0.335670  1
  O  O46  1  0.771056  0.772395  0.335670  1
  O  O47  1  0.663261  0.523753  0.504729  1
  O  O48  1  0.476247  0.336739  0.504729  1
  O  O49  1  0.606839  0.581318  0.199424  1
  O  O50  1  0.418682  0.393161  0.199424  1
  O  O51  1  0.747272  0.758330  0.004019  1
  O  O52  1  0.241670  0.252728  0.004019  1
  O  O53  1  0.953435  0.614323  0.554664  1
  O  O54  1  0.385677  0.046565  0.554664  1
  O  O55  1  0.741506  0.258494  0.706864  1
  O  O56  1  0.594203  0.405797  0.072860  1
  O  O57  1  0.948648  0.615225  0.228249  1
  O  O58  1  0.384775  0.051352  0.228249  1
  O  O59  1  0.925049  0.262732  0.587179  1
  O  O60  1  0.737268  0.074951  0.587179  1
  O  O61  1  0.865953  0.320604  0.287602  1
  O  O62  1  0.679396  0.134047  0.287602  1
  O  O63  1  0.939742  0.060258  0.762843  1
  O  O64  1  0.857624  0.142376  0.163438  1
  O  O65  1  0.943979  0.056021  0.374360  1
