# generated using pymatgen
data_ZrH12C2(NF)6
_symmetry_space_group_name_H-M   'P 1'
_cell_length_a   8.29086927
_cell_length_b   8.39229358
_cell_length_c   10.06212875
_cell_angle_alpha   100.47051775
_cell_angle_beta   102.47003299
_cell_angle_gamma   115.66450783
_symmetry_Int_Tables_number   1
_chemical_formula_structural   ZrH12C2(NF)6
_chemical_formula_sum   'Zr2 H24 C4 N12 F12'
_cell_volume   585.25021489
_cell_formula_units_Z   2
loop_
 _symmetry_equiv_pos_site_id
 _symmetry_equiv_pos_as_xyz
  1  'x, y, z'
loop_
 _atom_site_type_symbol
 _atom_site_label
 _atom_site_symmetry_multiplicity
 _atom_site_fract_x
 _atom_site_fract_y
 _atom_site_fract_z
 _atom_site_occupancy
  Zr  Zr0  1  0.479497  0.142691  0.154745  1
  Zr  Zr1  1  0.520503  0.857309  0.845255  1
  H  H2  1  0.280240  0.012011  0.415795  1
  H  H3  1  0.719760  0.987989  0.584205  1
  H  H4  1  0.249450  0.923219  0.560124  1
  H  H5  1  0.750550  0.076781  0.439876  1
  H  H6  1  0.277716  0.320977  0.776046  1
  H  H7  1  0.722284  0.679023  0.223954  1
  H  H8  1  0.252848  0.100462  0.768836  1
  H  H9  1  0.747152  0.899538  0.231164  1
  H  H10  1  0.346014  0.663953  0.116271  1
  H  H11  1  0.653986  0.336047  0.883729  1
  H  H12  1  0.355357  0.460418  0.115886  1
  H  H13  1  0.644643  0.539582  0.884114  1
  H  H14  1  0.084769  0.197043  0.108911  1
  H  H15  1  0.915231  0.802957  0.891089  1
  H  H16  1  0.920001  0.232415  0.176754  1
  H  H17  1  0.079999  0.767585  0.823246  1
  H  H18  1  0.327539  0.310137  0.441361  1
  H  H19  1  0.672461  0.689863  0.558639  1
  H  H20  1  0.313225  0.435923  0.590473  1
  H  H21  1  0.686775  0.564077  0.409527  1
  H  H22  1  0.090195  0.485112  0.818641  1
  H  H23  1  0.909805  0.514888  0.181359  1
  H  H24  1  0.125473  0.708622  0.196313  1
  H  H25  1  0.874527  0.291378  0.803687  1
  C  C26  1  0.127089  0.463732  0.157743  1
  C  C27  1  0.872911  0.536268  0.842257  1
  C  C28  1  0.264478  0.175396  0.586440  1
  C  C29  1  0.735522  0.824604  0.413560  1
  N  N30  1  0.741881  0.977667  0.487225  1
  N  N31  1  0.258119  0.022333  0.512775  1
  N  N32  1  0.247135  0.192421  0.717414  1
  N  N33  1  0.752865  0.807579  0.282586  1
  N  N34  1  0.704669  0.459712  0.862593  1
  N  N35  1  0.295331  0.540288  0.137407  1
  N  N36  1  0.042286  0.285339  0.152601  1
  N  N37  1  0.957714  0.714661  0.847399  1
  N  N38  1  0.278064  0.308946  0.526574  1
  N  N39  1  0.721936  0.691054  0.473426  1
  N  N40  1  0.949884  0.428769  0.811169  1
  N  N41  1  0.050116  0.571231  0.188831  1
  F  F42  1  0.746168  0.870048  0.984945  1
  F  F43  1  0.253832  0.129952  0.015055  1
  F  F44  1  0.410456  0.862400  0.027597  1
  F  F45  1  0.589544  0.137600  0.972403  1
  F  F46  1  0.460777  0.298954  0.325986  1
  F  F47  1  0.539223  0.701046  0.674014  1
  F  F48  1  0.648039  0.421480  0.164637  1
  F  F49  1  0.351961  0.578520  0.835363  1
  F  F50  1  0.725193  0.153096  0.264526  1
  F  F51  1  0.274807  0.846904  0.735474  1
  F  F52  1  0.311491  0.948791  0.237050  1
  F  F53  1  0.688509  0.051209  0.762950  1
