# generated using pymatgen
data_Li2CoSiO4
_symmetry_space_group_name_H-M   'P 1'
_cell_length_a   5.08836008
_cell_length_b   6.31137401
_cell_length_c   10.77889125
_cell_angle_alpha   90.00000000
_cell_angle_beta   90.00000000
_cell_angle_gamma   90.00000000
_symmetry_Int_Tables_number   1
_chemical_formula_structural   Li2CoSiO4
_chemical_formula_sum   'Li8 Co4 Si4 O16'
_cell_volume   346.15917229
_cell_formula_units_Z   4
loop_
 _symmetry_equiv_pos_site_id
 _symmetry_equiv_pos_as_xyz
  1  'x, y, z'
loop_
 _atom_site_type_symbol
 _atom_site_label
 _atom_site_symmetry_multiplicity
 _atom_site_fract_x
 _atom_site_fract_y
 _atom_site_fract_z
 _atom_site_occupancy
  Li  Li0  1  0.796522  0.870814  0.574462  1
  Li  Li1  1  0.191034  0.120528  0.662110  1
  Li  Li2  1  0.691034  0.620528  0.837890  1
  Li  Li3  1  0.296522  0.370814  0.925538  1
  Li  Li4  1  0.703478  0.870814  0.074462  1
  Li  Li5  1  0.308966  0.120528  0.162110  1
  Li  Li6  1  0.808966  0.620528  0.337890  1
  Li  Li7  1  0.203478  0.370814  0.425538  1
  Co  Co8  1  0.689614  0.117645  0.834301  1
  Co  Co9  1  0.810386  0.117645  0.334301  1
  Co  Co10  1  0.189614  0.617645  0.665699  1
  Co  Co11  1  0.310386  0.617645  0.165699  1
  Si  Si12  1  0.689308  0.369016  0.587692  1
  Si  Si13  1  0.189308  0.869016  0.912308  1
  Si  Si14  1  0.810692  0.369016  0.087692  1
  Si  Si15  1  0.310692  0.869016  0.412308  1
  O  O16  1  0.197984  0.869268  0.555809  1
  O  O17  1  0.363661  0.368242  0.589162  1
  O  O18  1  0.792730  0.584168  0.661009  1
  O  O19  1  0.797183  0.153658  0.659546  1
  O  O20  1  0.297183  0.653658  0.840454  1
  O  O21  1  0.292730  0.084168  0.838991  1
  O  O22  1  0.863661  0.868242  0.910838  1
  O  O23  1  0.697984  0.369268  0.944191  1
  O  O24  1  0.302016  0.869268  0.055809  1
  O  O25  1  0.136339  0.368242  0.089162  1
  O  O26  1  0.707270  0.584168  0.161009  1
  O  O27  1  0.702817  0.153658  0.159546  1
  O  O28  1  0.202817  0.653658  0.340454  1
  O  O29  1  0.207270  0.084168  0.338991  1
  O  O30  1  0.636339  0.868242  0.410838  1
  O  O31  1  0.802016  0.369268  0.444191  1
