# generated using pymatgen
data_Ba3LiTi5Nb3O21
_symmetry_space_group_name_H-M   'P 1'
_cell_length_a   9.24076124
_cell_length_b   9.24076124
_cell_length_c   11.74593326
_cell_angle_alpha   90.00000000
_cell_angle_beta   90.00000000
_cell_angle_gamma   120.28878990
_symmetry_Int_Tables_number   1
_chemical_formula_structural   Ba3LiTi5Nb3O21
_chemical_formula_sum   'Ba6 Li2 Ti10 Nb6 O42'
_cell_volume   866.08890567
_cell_formula_units_Z   2
loop_
 _symmetry_equiv_pos_site_id
 _symmetry_equiv_pos_as_xyz
  1  'x, y, z'
loop_
 _atom_site_type_symbol
 _atom_site_label
 _atom_site_symmetry_multiplicity
 _atom_site_fract_x
 _atom_site_fract_y
 _atom_site_fract_z
 _atom_site_occupancy
  Ba  Ba0  1  0.404876  0.996763  0.750127  1
  Ba  Ba1  1  0.595124  0.003237  0.250127  1
  Ba  Ba2  1  0.996763  0.404876  0.750127  1
  Ba  Ba3  1  0.003237  0.595124  0.250127  1
  Ba  Ba4  1  0.402798  0.402798  0.251222  1
  Ba  Ba5  1  0.597202  0.597202  0.751222  1
  Li  Li6  1  0.994778  0.994778  0.754056  1
  Li  Li7  1  0.005222  0.005222  0.254056  1
  Ti  Ti8  1  0.251415  0.999950  0.089390  1
  Ti  Ti9  1  0.245935  0.995327  0.406680  1
  Ti  Ti10  1  0.748585  0.000050  0.589390  1
  Ti  Ti11  1  0.754065  0.004673  0.906680  1
  Ti  Ti12  1  0.995327  0.245935  0.406680  1
  Ti  Ti13  1  0.999950  0.251415  0.089390  1
  Ti  Ti14  1  0.248074  0.248074  0.915540  1
  Ti  Ti15  1  0.000050  0.748585  0.589390  1
  Ti  Ti16  1  0.004673  0.754065  0.906680  1
  Ti  Ti17  1  0.751926  0.751926  0.415540  1
  Nb  Nb18  1  0.666493  0.330596  0.997237  1
  Nb  Nb19  1  0.669404  0.333507  0.497237  1
  Nb  Nb20  1  0.245917  0.245917  0.590743  1
  Nb  Nb21  1  0.330596  0.666493  0.997237  1
  Nb  Nb22  1  0.333507  0.669404  0.497237  1
  Nb  Nb23  1  0.754083  0.754083  0.090743  1
  O  O24  1  0.202095  0.998637  0.926820  1
  O  O25  1  0.204822  0.001146  0.573632  1
  O  O26  1  0.202411  0.998535  0.249367  1
  O  O27  1  0.480660  0.166450  0.100949  1
  O  O28  1  0.478805  0.167041  0.401357  1
  O  O29  1  0.797589  0.001465  0.749367  1
  O  O30  1  0.797905  0.001363  0.426820  1
  O  O31  1  0.795178  0.998854  0.073632  1
  O  O32  1  0.479512  0.312952  0.899742  1
  O  O33  1  0.484937  0.316301  0.603840  1
  O  O34  1  0.686474  0.168527  0.895891  1
  O  O35  1  0.688157  0.168520  0.599747  1
  O  O36  1  0.831480  0.311843  0.099747  1
  O  O37  1  0.831473  0.313526  0.395891  1
  O  O38  1  0.687048  0.520488  0.399742  1
  O  O39  1  0.683699  0.515063  0.103840  1
  O  O40  1  0.998637  0.202095  0.926820  1
  O  O41  1  0.001146  0.204822  0.573632  1
  O  O42  1  0.998535  0.202411  0.249367  1
  O  O43  1  0.832959  0.521195  0.901357  1
  O  O44  1  0.833550  0.519340  0.600949  1
  O  O45  1  0.199975  0.199975  0.422530  1
  O  O46  1  0.203625  0.203625  0.074254  1
  O  O47  1  0.196787  0.196787  0.752107  1
  O  O48  1  0.166450  0.480660  0.100949  1
  O  O49  1  0.167041  0.478805  0.401357  1
  O  O50  1  0.001465  0.797589  0.749367  1
  O  O51  1  0.001363  0.797905  0.426820  1
  O  O52  1  0.998854  0.795178  0.073632  1
  O  O53  1  0.312952  0.479512  0.899742  1
  O  O54  1  0.316301  0.484937  0.603840  1
  O  O55  1  0.168520  0.688157  0.599747  1
  O  O56  1  0.168527  0.686474  0.895891  1
  O  O57  1  0.313526  0.831473  0.395891  1
  O  O58  1  0.311843  0.831480  0.099747  1
  O  O59  1  0.520488  0.687048  0.399742  1
  O  O60  1  0.515063  0.683699  0.103840  1
  O  O61  1  0.519340  0.833550  0.600949  1
  O  O62  1  0.521195  0.832959  0.901357  1
  O  O63  1  0.803213  0.803213  0.252107  1
  O  O64  1  0.796375  0.796375  0.574254  1
  O  O65  1  0.800025  0.800025  0.922530  1
