# generated using pymatgen
data_Li4Co3Sn2Sb3O16
_symmetry_space_group_name_H-M   'P 1'
_cell_length_a   6.22618148
_cell_length_b   6.22618148
_cell_length_c   9.92151405
_cell_angle_alpha   89.30751751
_cell_angle_beta   90.69248249
_cell_angle_gamma   120.45488332
_symmetry_Int_Tables_number   1
_chemical_formula_structural   Li4Co3Sn2Sb3O16
_chemical_formula_sum   'Li4 Co3 Sn2 Sb3 O16'
_cell_volume   331.51336951
_cell_formula_units_Z   1
loop_
 _symmetry_equiv_pos_site_id
 _symmetry_equiv_pos_as_xyz
  1  'x, y, z'
loop_
 _atom_site_type_symbol
 _atom_site_label
 _atom_site_symmetry_multiplicity
 _atom_site_fract_x
 _atom_site_fract_y
 _atom_site_fract_z
 _atom_site_occupancy
  Li  Li0  1  0.661903  0.338097  0.884724  1
  Li  Li1  1  0.988536  0.011464  0.983369  1
  Li  Li2  1  0.992430  0.007570  0.502559  1
  Li  Li3  1  0.325555  0.674445  0.406699  1
  Co  Co4  1  0.831333  0.168667  0.214219  1
  Co  Co5  1  0.174274  0.339579  0.711999  1
  Co  Co6  1  0.660421  0.825726  0.711999  1
  Sn  Sn7  1  0.677968  0.322032  0.503446  1
  Sn  Sn8  1  0.345157  0.654843  0.977551  1
  Sb  Sb9  1  0.337931  0.167823  0.216016  1
  Sb  Sb10  1  0.832177  0.662069  0.216016  1
  Sb  Sb11  1  0.171342  0.828658  0.714637  1
  O  O12  1  0.327456  0.150287  0.594166  1
  O  O13  1  0.515796  0.484204  0.339149  1
  O  O14  1  0.660013  0.339987  0.105244  1
  O  O15  1  0.003771  0.996229  0.315490  1
  O  O16  1  0.008527  0.991473  0.802310  1
  O  O17  1  0.849713  0.672544  0.594166  1
  O  O18  1  0.510236  0.039913  0.339412  1
  O  O19  1  0.960087  0.489764  0.339412  1
  O  O20  1  0.161507  0.838493  0.102918  1
  O  O21  1  0.842215  0.157785  0.596269  1
  O  O22  1  0.032103  0.527936  0.843299  1
  O  O23  1  0.472064  0.967897  0.843299  1
  O  O24  1  0.324249  0.675751  0.606366  1
  O  O25  1  0.166729  0.318247  0.101167  1
  O  O26  1  0.484347  0.515653  0.840725  1
  O  O27  1  0.681753  0.833271  0.101167  1
