# generated using pymatgen
data_Li4Cr3Co3(SbO8)2
_symmetry_space_group_name_H-M   'P 1'
_cell_length_a   5.85447625
_cell_length_b   5.85447625
_cell_length_c   9.54492684
_cell_angle_alpha   89.39861985
_cell_angle_beta   90.60138015
_cell_angle_gamma   119.71620295
_symmetry_Int_Tables_number   1
_chemical_formula_structural   Li4Cr3Co3(SbO8)2
_chemical_formula_sum   'Li4 Cr3 Co3 Sb2 O16'
_cell_volume   284.10718478
_cell_formula_units_Z   1
loop_
 _symmetry_equiv_pos_site_id
 _symmetry_equiv_pos_as_xyz
  1  'x, y, z'
loop_
 _atom_site_type_symbol
 _atom_site_label
 _atom_site_symmetry_multiplicity
 _atom_site_fract_x
 _atom_site_fract_y
 _atom_site_fract_z
 _atom_site_occupancy
  Li  Li0  1  0.329721  0.670279  0.898688  1
  Li  Li1  1  0.005751  0.994249  0.991834  1
  Li  Li2  1  0.004831  0.995169  0.494363  1
  Li  Li3  1  0.663913  0.336087  0.402960  1
  Cr  Cr4  1  0.660734  0.830338  0.214583  1
  Cr  Cr5  1  0.169662  0.339266  0.214583  1
  Cr  Cr6  1  0.830563  0.169437  0.714246  1
  Co  Co7  1  0.171484  0.828516  0.215091  1
  Co  Co8  1  0.829985  0.658551  0.714529  1
  Co  Co9  1  0.341449  0.170015  0.714529  1
  Sb  Sb10  1  0.332972  0.667028  0.490921  1
  Sb  Sb11  1  0.665288  0.334712  0.986783  1
  O  O12  1  0.675852  0.835196  0.596041  1
  O  O13  1  0.481948  0.518052  0.345266  1
  O  O14  1  0.329340  0.670660  0.107353  1
  O  O15  1  0.005982  0.994018  0.308279  1
  O  O16  1  0.006560  0.993440  0.805939  1
  O  O17  1  0.164804  0.324148  0.596041  1
  O  O18  1  0.475689  0.966264  0.341351  1
  O  O19  1  0.033736  0.524311  0.341351  1
  O  O20  1  0.836677  0.163323  0.092201  1
  O  O21  1  0.163912  0.836088  0.601861  1
  O  O22  1  0.963535  0.488549  0.840286  1
  O  O23  1  0.511451  0.036465  0.840286  1
  O  O24  1  0.661056  0.338944  0.611265  1
  O  O25  1  0.837820  0.671047  0.096815  1
  O  O26  1  0.516609  0.483391  0.833637  1
  O  O27  1  0.328953  0.162180  0.096815  1
