# generated using pymatgen
data_La2S2O
_symmetry_space_group_name_H-M   'P 1'
_cell_length_a   4.06835785
_cell_length_b   7.14076278
_cell_length_c   16.18558300
_cell_angle_alpha   90.00000000
_cell_angle_beta   90.00000000
_cell_angle_gamma   90.00000000
_symmetry_Int_Tables_number   1
_chemical_formula_structural   La2S2O
_chemical_formula_sum   'La8 S8 O4'
_cell_volume   470.21025780
_cell_formula_units_Z   4
loop_
 _symmetry_equiv_pos_site_id
 _symmetry_equiv_pos_as_xyz
  1  'x, y, z'
loop_
 _atom_site_type_symbol
 _atom_site_label
 _atom_site_symmetry_multiplicity
 _atom_site_fract_x
 _atom_site_fract_y
 _atom_site_fract_z
 _atom_site_occupancy
  La  La0  1  0.750000  0.207501  0.040985  1
  La  La1  1  0.750000  0.756102  0.168701  1
  La  La2  1  0.250000  0.256102  0.331299  1
  La  La3  1  0.250000  0.707501  0.459015  1
  La  La4  1  0.750000  0.292499  0.540985  1
  La  La5  1  0.750000  0.743898  0.668701  1
  La  La6  1  0.250000  0.243898  0.831299  1
  La  La7  1  0.250000  0.792499  0.959015  1
  S  S8  1  0.250000  0.514237  0.102499  1
  S  S9  1  0.250000  0.042617  0.176916  1
  S  S10  1  0.750000  0.542617  0.323084  1
  S  S11  1  0.750000  0.014237  0.397501  1
  S  S12  1  0.250000  0.985763  0.602499  1
  S  S13  1  0.250000  0.457383  0.676916  1
  S  S14  1  0.750000  0.957383  0.823084  1
  S  S15  1  0.750000  0.485763  0.897501  1
  O  O16  1  0.750000  0.867276  0.031801  1
  O  O17  1  0.250000  0.367276  0.468199  1
  O  O18  1  0.750000  0.632724  0.531801  1
  O  O19  1  0.250000  0.132724  0.968199  1
