# generated using pymatgen
data_Mn3(OF2)2
_symmetry_space_group_name_H-M   'P 1'
_cell_length_a   4.69759938
_cell_length_b   4.78806348
_cell_length_c   9.69136476
_cell_angle_alpha   90.00000000
_cell_angle_beta   90.00000000
_cell_angle_gamma   90.00000000
_symmetry_Int_Tables_number   1
_chemical_formula_structural   Mn3(OF2)2
_chemical_formula_sum   'Mn6 O4 F8'
_cell_volume   217.98209183
_cell_formula_units_Z   2
loop_
 _symmetry_equiv_pos_site_id
 _symmetry_equiv_pos_as_xyz
  1  'x, y, z'
loop_
 _atom_site_type_symbol
 _atom_site_label
 _atom_site_symmetry_multiplicity
 _atom_site_fract_x
 _atom_site_fract_y
 _atom_site_fract_z
 _atom_site_occupancy
  Mn  Mn0  1  0.996838  0.712850  0.826047  1
  Mn  Mn1  1  0.996838  0.712850  0.173953  1
  Mn  Mn2  1  0.027789  0.753224  0.500000  1
  Mn  Mn3  1  0.496838  0.287150  0.673953  1
  Mn  Mn4  1  0.527789  0.246776  0.000000  1
  Mn  Mn5  1  0.496838  0.287150  0.326047  1
  O  O6  1  0.194339  0.561422  0.330572  1
  O  O7  1  0.194339  0.561422  0.669428  1
  O  O8  1  0.694339  0.438578  0.830572  1
  O  O9  1  0.694339  0.438578  0.169428  1
  F  F10  1  0.191504  0.524982  0.000000  1
  F  F11  1  0.691504  0.475018  0.500000  1
  F  F12  1  0.291644  0.026662  0.840753  1
  F  F13  1  0.291644  0.026662  0.159247  1
  F  F14  1  0.315065  0.094738  0.500000  1
  F  F15  1  0.815065  0.905262  0.000000  1
  F  F16  1  0.791644  0.973338  0.340753  1
  F  F17  1  0.791644  0.973338  0.659247  1
