# generated using pymatgen
data_Na2CuH4(SO5)2
_symmetry_space_group_name_H-M   'P 1'
_cell_length_a   5.64092048
_cell_length_b   12.83261660
_cell_length_c   5.88073845
_cell_angle_alpha   90.00000000
_cell_angle_beta   109.72116779
_cell_angle_gamma   90.00000000
_symmetry_Int_Tables_number   1
_chemical_formula_structural   Na2CuH4(SO5)2
_chemical_formula_sum   'Na4 Cu2 H8 S4 O20'
_cell_volume   400.72488704
_cell_formula_units_Z   2
loop_
 _symmetry_equiv_pos_site_id
 _symmetry_equiv_pos_as_xyz
  1  'x, y, z'
loop_
 _atom_site_type_symbol
 _atom_site_label
 _atom_site_symmetry_multiplicity
 _atom_site_fract_x
 _atom_site_fract_y
 _atom_site_fract_z
 _atom_site_occupancy
  Na  Na0  1  0.288355  0.623540  0.430808  1
  Na  Na1  1  0.211645  0.123540  0.569192  1
  Na  Na2  1  0.711645  0.376460  0.569192  1
  Na  Na3  1  0.788355  0.876460  0.430808  1
  Cu  Cu4  1  0.500000  0.500000  0.000000  1
  Cu  Cu5  1  0.000000  0.000000  0.000000  1
  H  H6  1  0.515523  0.698987  0.071534  1
  H  H7  1  0.984477  0.198987  0.928466  1
  H  H8  1  0.484477  0.301013  0.928466  1
  H  H9  1  0.015523  0.801013  0.071534  1
  H  H10  1  0.716307  0.644625  0.297607  1
  H  H11  1  0.783693  0.144625  0.702393  1
  H  H12  1  0.283693  0.355375  0.702393  1
  H  H13  1  0.216307  0.855375  0.297607  1
  S  S14  1  0.954960  0.619260  0.760358  1
  S  S15  1  0.545040  0.119260  0.239642  1
  S  S16  1  0.045040  0.380740  0.239642  1
  S  S17  1  0.454960  0.880740  0.760358  1
  O  O18  1  0.014427  0.675597  0.991277  1
  O  O19  1  0.485573  0.175597  0.008723  1
  O  O20  1  0.985573  0.324403  0.008723  1
  O  O21  1  0.514427  0.824403  0.991277  1
  O  O22  1  0.718593  0.558301  0.706687  1
  O  O23  1  0.781407  0.058301  0.293313  1
  O  O24  1  0.281407  0.441699  0.293313  1
  O  O25  1  0.218593  0.941699  0.706687  1
  O  O26  1  0.167665  0.544685  0.768025  1
  O  O27  1  0.332335  0.044685  0.231975  1
  O  O28  1  0.832335  0.455315  0.231975  1
  O  O29  1  0.667665  0.955315  0.768025  1
  O  O30  1  0.934061  0.691546  0.554251  1
  O  O31  1  0.565939  0.191546  0.445749  1
  O  O32  1  0.065939  0.308454  0.445749  1
  O  O33  1  0.434061  0.808454  0.554251  1
  O  O34  1  0.546895  0.634022  0.171826  1
  O  O35  1  0.953105  0.134022  0.828174  1
  O  O36  1  0.453105  0.365978  0.828174  1
  O  O37  1  0.046895  0.865978  0.171826  1
