# generated using pymatgen
data_BaSr2I6
_symmetry_space_group_name_H-M   'P 1'
_cell_length_a   8.17047909
_cell_length_b   8.17047909
_cell_length_c   24.56628272
_cell_angle_alpha   90.00000000
_cell_angle_beta   90.00000000
_cell_angle_gamma   90.00000000
_symmetry_Int_Tables_number   1
_chemical_formula_structural   BaSr2I6
_chemical_formula_sum   'Ba4 Sr8 I24'
_cell_volume   1639.96466727
_cell_formula_units_Z   4
loop_
 _symmetry_equiv_pos_site_id
 _symmetry_equiv_pos_as_xyz
  1  'x, y, z'
loop_
 _atom_site_type_symbol
 _atom_site_label
 _atom_site_symmetry_multiplicity
 _atom_site_fract_x
 _atom_site_fract_y
 _atom_site_fract_z
 _atom_site_occupancy
  Ba  Ba0  1  0.000000  0.000000  0.000000  1
  Ba  Ba1  1  0.500000  0.000000  0.500000  1
  Ba  Ba2  1  0.000000  0.500000  0.500000  1
  Ba  Ba3  1  0.500000  0.500000  0.000000  1
  Sr  Sr4  1  0.500000  0.000000  0.168002  1
  Sr  Sr5  1  0.000000  0.000000  0.331282  1
  Sr  Sr6  1  0.000000  0.000000  0.668718  1
  Sr  Sr7  1  0.500000  0.000000  0.831998  1
  Sr  Sr8  1  0.500000  0.500000  0.331282  1
  Sr  Sr9  1  0.000000  0.500000  0.168002  1
  Sr  Sr10  1  0.000000  0.500000  0.831998  1
  Sr  Sr11  1  0.500000  0.500000  0.668718  1
  I  I12  1  0.241741  0.233591  0.586710  1
  I  I13  1  0.256490  0.234625  0.086760  1
  I  I14  1  0.765375  0.256490  0.913240  1
  I  I15  1  0.266409  0.258259  0.413290  1
  I  I16  1  0.734668  0.235218  0.250452  1
  I  I17  1  0.735218  0.234668  0.749548  1
  I  I18  1  0.235218  0.265332  0.749548  1
  I  I19  1  0.234668  0.264782  0.250452  1
  I  I20  1  0.265375  0.243510  0.913240  1
  I  I21  1  0.766409  0.241741  0.413290  1
  I  I22  1  0.756490  0.265375  0.086760  1
  I  I23  1  0.741741  0.266409  0.586710  1
  I  I24  1  0.258259  0.733591  0.586710  1
  I  I25  1  0.243510  0.734625  0.086760  1
  I  I26  1  0.734625  0.756490  0.913240  1
  I  I27  1  0.233591  0.758259  0.413290  1
  I  I28  1  0.765332  0.735218  0.250452  1
  I  I29  1  0.764782  0.734668  0.749548  1
  I  I30  1  0.264782  0.765332  0.749548  1
  I  I31  1  0.265332  0.764782  0.250452  1
  I  I32  1  0.733591  0.741741  0.413290  1
  I  I33  1  0.234625  0.743510  0.913240  1
  I  I34  1  0.743510  0.765375  0.086760  1
  I  I35  1  0.758259  0.766409  0.586710  1
