# generated using pymatgen
data_LiNiPO4
_symmetry_space_group_name_H-M   'P 1'
_cell_length_a   5.94769721
_cell_length_b   10.06334100
_cell_length_c   10.02602940
_cell_angle_alpha   90.00000000
_cell_angle_beta   94.16863307
_cell_angle_gamma   90.00000000
_symmetry_Int_Tables_number   1
_chemical_formula_structural   LiNiPO4
_chemical_formula_sum   'Li8 Ni8 P8 O32'
_cell_volume   598.50741023
_cell_formula_units_Z   8
loop_
 _symmetry_equiv_pos_site_id
 _symmetry_equiv_pos_as_xyz
  1  'x, y, z'
loop_
 _atom_site_type_symbol
 _atom_site_label
 _atom_site_symmetry_multiplicity
 _atom_site_fract_x
 _atom_site_fract_y
 _atom_site_fract_z
 _atom_site_occupancy
  Li  Li0  1  0.138176  0.905576  0.464457  1
  Li  Li1  1  0.138176  0.594424  0.964457  1
  Li  Li2  1  0.363998  0.434314  0.731463  1
  Li  Li3  1  0.363998  0.065686  0.231463  1
  Li  Li4  1  0.636002  0.934314  0.768537  1
  Li  Li5  1  0.636002  0.565686  0.268537  1
  Li  Li6  1  0.861824  0.405576  0.035543  1
  Li  Li7  1  0.861824  0.094424  0.535543  1
  Ni  Ni8  1  0.117075  0.168471  0.867898  1
  Ni  Ni9  1  0.117075  0.331529  0.367898  1
  Ni  Ni10  1  0.381310  0.708661  0.631244  1
  Ni  Ni11  1  0.381310  0.791339  0.131244  1
  Ni  Ni12  1  0.618690  0.208661  0.868756  1
  Ni  Ni13  1  0.618690  0.291339  0.368756  1
  Ni  Ni14  1  0.882925  0.668471  0.632102  1
  Ni  Ni15  1  0.882925  0.831529  0.132102  1
  P  P16  1  0.142654  0.891350  0.850898  1
  P  P17  1  0.142654  0.608650  0.350898  1
  P  P18  1  0.371593  0.143948  0.604231  1
  P  P19  1  0.371593  0.356052  0.104231  1
  P  P20  1  0.628407  0.643948  0.895769  1
  P  P21  1  0.628407  0.856052  0.395769  1
  P  P22  1  0.857346  0.391350  0.649102  1
  P  P23  1  0.857346  0.108650  0.149102  1
  O  O24  1  0.124609  0.805815  0.983376  1
  O  O25  1  0.060495  0.487178  0.665922  1
  O  O26  1  0.124609  0.694185  0.483376  1
  O  O27  1  0.060495  0.012822  0.165922  1
  O  O28  1  0.136576  0.790795  0.729529  1
  O  O29  1  0.164906  0.057763  0.582962  1
  O  O30  1  0.136576  0.709205  0.229529  1
  O  O31  1  0.164906  0.442237  0.082962  1
  O  O32  1  0.348438  0.233346  0.733801  1
  O  O33  1  0.358815  0.974238  0.861967  1
  O  O34  1  0.348438  0.266654  0.233801  1
  O  O35  1  0.358815  0.525762  0.361967  1
  O  O36  1  0.404878  0.570535  0.872458  1
  O  O37  1  0.378639  0.256293  0.983785  1
  O  O38  1  0.404878  0.929465  0.372458  1
  O  O39  1  0.378639  0.243707  0.483785  1
  O  O40  1  0.621361  0.756293  0.516215  1
  O  O41  1  0.595122  0.070535  0.627542  1
  O  O42  1  0.621361  0.743707  0.016215  1
  O  O43  1  0.595122  0.429465  0.127542  1
  O  O44  1  0.641185  0.474238  0.638033  1
  O  O45  1  0.651562  0.733346  0.766199  1
  O  O46  1  0.641185  0.025762  0.138033  1
  O  O47  1  0.651562  0.766654  0.266199  1
  O  O48  1  0.835094  0.557763  0.917038  1
  O  O49  1  0.863424  0.290795  0.770471  1
  O  O50  1  0.835094  0.942237  0.417038  1
  O  O51  1  0.863424  0.209205  0.270471  1
  O  O52  1  0.939505  0.987178  0.834078  1
  O  O53  1  0.875391  0.305815  0.516624  1
  O  O54  1  0.939505  0.512822  0.334078  1
  O  O55  1  0.875391  0.194185  0.016624  1
