# generated using pymatgen
data_Mn3Fe3(TeO8)2
_symmetry_space_group_name_H-M   'P 1'
_cell_length_a   5.99018461
_cell_length_b   6.01350616
_cell_length_c   9.24349927
_cell_angle_alpha   90.95682554
_cell_angle_beta   90.83703972
_cell_angle_gamma   119.61754364
_symmetry_Int_Tables_number   1
_chemical_formula_structural   Mn3Fe3(TeO8)2
_chemical_formula_sum   'Mn3 Fe3 Te2 O16'
_cell_volume   289.32438649
_cell_formula_units_Z   1
loop_
 _symmetry_equiv_pos_site_id
 _symmetry_equiv_pos_as_xyz
  1  'x, y, z'
loop_
 _atom_site_type_symbol
 _atom_site_label
 _atom_site_symmetry_multiplicity
 _atom_site_fract_x
 _atom_site_fract_y
 _atom_site_fract_z
 _atom_site_occupancy
  Mn  Mn0  1  0.344852  0.175028  0.210560  1
  Mn  Mn1  1  0.174283  0.343157  0.711707  1
  Mn  Mn2  1  0.168550  0.835077  0.704469  1
  Fe  Fe3  1  0.839479  0.173095  0.206349  1
  Fe  Fe4  1  0.837559  0.665317  0.209681  1
  Fe  Fe5  1  0.664997  0.838239  0.710446  1
  Te  Te6  1  0.666311  0.336886  0.486728  1
  Te  Te7  1  0.335700  0.666020  0.986945  1
  O  O8  1  0.823744  0.174816  0.600525  1
  O  O9  1  0.950788  0.475682  0.353559  1
  O  O10  1  0.655591  0.326405  0.106730  1
  O  O11  1  0.016647  0.010665  0.298399  1
  O  O12  1  0.014667  0.011945  0.797143  1
  O  O13  1  0.819321  0.653218  0.598840  1
  O  O14  1  0.508990  0.044023  0.342949  1
  O  O15  1  0.509179  0.468490  0.342387  1
  O  O16  1  0.653893  0.822732  0.098139  1
  O  O17  1  0.352212  0.188543  0.597961  1
  O  O18  1  0.470214  0.509894  0.842989  1
  O  O19  1  0.474689  0.949244  0.851297  1
  O  O20  1  0.318579  0.655699  0.610041  1
  O  O21  1  0.182488  0.350939  0.101052  1
  O  O22  1  0.040795  0.498514  0.847334  1
  O  O23  1  0.176475  0.826173  0.099487  1
