# generated using pymatgen
data_Li2CrCSO7
_symmetry_space_group_name_H-M   'P 1'
_cell_length_a   5.15187589
_cell_length_b   6.46016496
_cell_length_c   8.83615968
_cell_angle_alpha   90.00000000
_cell_angle_beta   92.58286616
_cell_angle_gamma   90.00000000
_symmetry_Int_Tables_number   1
_chemical_formula_structural   Li2CrCSO7
_chemical_formula_sum   'Li4 Cr2 C2 S2 O14'
_cell_volume   293.78602125
_cell_formula_units_Z   2
loop_
 _symmetry_equiv_pos_site_id
 _symmetry_equiv_pos_as_xyz
  1  'x, y, z'
loop_
 _atom_site_type_symbol
 _atom_site_label
 _atom_site_symmetry_multiplicity
 _atom_site_fract_x
 _atom_site_fract_y
 _atom_site_fract_z
 _atom_site_occupancy
  Li  Li0  1  0.772991  0.022557  0.191253  1
  Li  Li1  1  0.772991  0.477443  0.191253  1
  Li  Li2  1  0.227009  0.522557  0.808747  1
  Li  Li3  1  0.227009  0.977443  0.808747  1
  Cr  Cr4  1  0.236514  0.250000  0.358808  1
  Cr  Cr5  1  0.763486  0.750000  0.641192  1
  C  C6  1  0.277999  0.250000  0.059547  1
  C  C7  1  0.722001  0.750000  0.940453  1
  S  S8  1  0.291592  0.750000  0.421779  1
  S  S9  1  0.708408  0.250000  0.578221  1
  O  O10  1  0.739025  0.750000  0.085047  1
  O  O11  1  0.065567  0.250000  0.138964  1
  O  O12  1  0.498686  0.250000  0.137168  1
  O  O13  1  0.187869  0.932931  0.337913  1
  O  O14  1  0.187869  0.567069  0.337913  1
  O  O15  1  0.786743  0.250000  0.418250  1
  O  O16  1  0.583723  0.750000  0.422998  1
  O  O17  1  0.416277  0.250000  0.577002  1
  O  O18  1  0.213257  0.750000  0.581750  1
  O  O19  1  0.812131  0.432931  0.662087  1
  O  O20  1  0.812131  0.067069  0.662087  1
  O  O21  1  0.501314  0.750000  0.862832  1
  O  O22  1  0.934433  0.750000  0.861036  1
  O  O23  1  0.260975  0.250000  0.914953  1
