# generated using pymatgen
data_Mn6O5F7
_symmetry_space_group_name_H-M   'P 1'
_cell_length_a   4.72270275
_cell_length_b   5.70037070
_cell_length_c   15.63992087
_cell_angle_alpha   90.00000000
_cell_angle_beta   90.20806180
_cell_angle_gamma   90.00000000
_symmetry_Int_Tables_number   1
_chemical_formula_structural   Mn6O5F7
_chemical_formula_sum   'Mn12 O10 F14'
_cell_volume   421.04197932
_cell_formula_units_Z   2
loop_
 _symmetry_equiv_pos_site_id
 _symmetry_equiv_pos_as_xyz
  1  'x, y, z'
loop_
 _atom_site_type_symbol
 _atom_site_label
 _atom_site_symmetry_multiplicity
 _atom_site_fract_x
 _atom_site_fract_y
 _atom_site_fract_z
 _atom_site_occupancy
  Mn  Mn0  1  0.051054  0.169729  0.584103  1
  Mn  Mn1  1  0.971976  0.852031  0.750858  1
  Mn  Mn2  1  0.043588  0.160044  0.921673  1
  Mn  Mn3  1  0.971976  0.147969  0.250858  1
  Mn  Mn4  1  0.043588  0.839956  0.421673  1
  Mn  Mn5  1  0.051054  0.830271  0.084103  1
  Mn  Mn6  1  0.514828  0.364214  0.411776  1
  Mn  Mn7  1  0.476035  0.347492  0.077514  1
  Mn  Mn8  1  0.472247  0.349475  0.753911  1
  Mn  Mn9  1  0.514828  0.635786  0.911776  1
  Mn  Mn10  1  0.476035  0.652508  0.577514  1
  Mn  Mn11  1  0.472247  0.650525  0.253911  1
  O  O12  1  0.206976  0.110419  0.701910  1
  O  O13  1  0.239106  0.114587  0.024296  1
  O  O14  1  0.239106  0.885413  0.524296  1
  O  O15  1  0.206976  0.889581  0.201910  1
  O  O16  1  0.289604  0.383089  0.861698  1
  O  O17  1  0.304175  0.399425  0.519039  1
  O  O18  1  0.289604  0.616911  0.361698  1
  O  O19  1  0.304175  0.600575  0.019039  1
  O  O20  1  0.707297  0.616673  0.801469  1
  O  O21  1  0.707297  0.383327  0.301469  1
  F  F22  1  0.233360  0.116485  0.359250  1
  F  F23  1  0.233360  0.883515  0.859250  1
  F  F24  1  0.218200  0.613228  0.688482  1
  F  F25  1  0.218200  0.386772  0.188482  1
  F  F26  1  0.770677  0.378396  0.976959  1
  F  F27  1  0.700375  0.386476  0.642472  1
  F  F28  1  0.770677  0.621604  0.476959  1
  F  F29  1  0.700375  0.613524  0.142472  1
  F  F30  1  0.780376  0.116692  0.819133  1
  F  F31  1  0.786715  0.132441  0.469812  1
  F  F32  1  0.733409  0.883496  0.635645  1
  F  F33  1  0.786715  0.867559  0.969812  1
  F  F34  1  0.733409  0.116504  0.135645  1
  F  F35  1  0.780376  0.883308  0.319133  1
