# generated using pymatgen
data_HoTiO3
_symmetry_space_group_name_H-M   'P 1'
_cell_length_a   5.32805548
_cell_length_b   5.69245060
_cell_length_c   7.67449453
_cell_angle_alpha   90.00000000
_cell_angle_beta   90.00000000
_cell_angle_gamma   90.00000000
_symmetry_Int_Tables_number   1
_chemical_formula_structural   HoTiO3
_chemical_formula_sum   'Ho4 Ti4 O12'
_cell_volume   232.76505995
_cell_formula_units_Z   4
loop_
 _symmetry_equiv_pos_site_id
 _symmetry_equiv_pos_as_xyz
  1  'x, y, z'
loop_
 _atom_site_type_symbol
 _atom_site_label
 _atom_site_symmetry_multiplicity
 _atom_site_fract_x
 _atom_site_fract_y
 _atom_site_fract_z
 _atom_site_occupancy
  Ho  Ho0  1  0.480827  0.428089  0.750000  1
  Ho  Ho1  1  0.019173  0.928089  0.750000  1
  Ho  Ho2  1  0.980827  0.071911  0.250000  1
  Ho  Ho3  1  0.519173  0.571911  0.250000  1
  Ti  Ti4  1  0.500000  0.000000  0.000000  1
  Ti  Ti5  1  0.000000  0.500000  0.000000  1
  Ti  Ti6  1  0.000000  0.500000  0.500000  1
  Ti  Ti7  1  0.500000  0.000000  0.500000  1
  O  O8  1  0.378703  0.953744  0.250000  1
  O  O9  1  0.313217  0.695333  0.940629  1
  O  O10  1  0.313217  0.695333  0.559371  1
  O  O11  1  0.186783  0.195333  0.940629  1
  O  O12  1  0.186783  0.195333  0.559371  1
  O  O13  1  0.121297  0.453744  0.250000  1
  O  O14  1  0.878703  0.546256  0.750000  1
  O  O15  1  0.813217  0.804667  0.440629  1
  O  O16  1  0.813217  0.804667  0.059371  1
  O  O17  1  0.686783  0.304667  0.440629  1
  O  O18  1  0.686783  0.304667  0.059371  1
  O  O19  1  0.621297  0.046256  0.750000  1
