# generated using pymatgen
data_Na5Bi2P(CO4)4
_symmetry_space_group_name_H-M   'P 1'
_cell_length_a   10.46516859
_cell_length_b   10.43337850
_cell_length_c   10.34180482
_cell_angle_alpha   60.49280317
_cell_angle_beta   60.18670837
_cell_angle_gamma   59.32048846
_symmetry_Int_Tables_number   1
_chemical_formula_structural   Na5Bi2P(CO4)4
_chemical_formula_sum   'Na10 Bi4 P2 C8 O32'
_cell_volume   798.27988961
_cell_formula_units_Z   2
loop_
 _symmetry_equiv_pos_site_id
 _symmetry_equiv_pos_as_xyz
  1  'x, y, z'
loop_
 _atom_site_type_symbol
 _atom_site_label
 _atom_site_symmetry_multiplicity
 _atom_site_fract_x
 _atom_site_fract_y
 _atom_site_fract_z
 _atom_site_occupancy
  Na  Na0  1  0.556145  0.943855  0.556145  1
  Na  Na1  1  0.691232  0.308768  0.308768  1
  Na  Na2  1  0.309617  0.690383  0.309617  1
  Na  Na3  1  0.942583  0.942583  0.557417  1
  Na  Na4  1  0.944494  0.555506  0.555506  1
  Na  Na5  1  0.557417  0.557417  0.942583  1
  Na  Na6  1  0.308768  0.691232  0.691232  1
  Na  Na7  1  0.943855  0.556145  0.943855  1
  Na  Na8  1  0.555506  0.944494  0.944494  1
  Na  Na9  1  0.690383  0.309617  0.690383  1
  Bi  Bi10  1  0.130105  0.128278  0.117766  1
  Bi  Bi11  1  0.623851  0.117766  0.128278  1
  Bi  Bi12  1  0.117766  0.623851  0.130105  1
  Bi  Bi13  1  0.128278  0.130105  0.623851  1
  P  P14  1  0.750000  0.750000  0.750000  1
  P  P15  1  0.500000  0.500000  0.500000  1
  C  C16  1  0.343990  0.962987  0.345002  1
  C  C17  1  0.345002  0.348022  0.343990  1
  C  C18  1  0.962987  0.343990  0.348022  1
  C  C19  1  0.348022  0.345002  0.962987  1
  C  C20  1  0.905918  0.907210  0.293346  1
  C  C21  1  0.293346  0.893527  0.905918  1
  C  C22  1  0.893527  0.293346  0.907210  1
  C  C23  1  0.907210  0.905918  0.893527  1
  O  O24  1  0.917822  0.026270  0.292090  1
  O  O25  1  0.338872  0.960571  0.474680  1
  O  O26  1  0.474680  0.225876  0.338872  1
  O  O27  1  0.763819  0.292090  0.026270  1
  O  O28  1  0.219582  0.341911  0.466220  1
  O  O29  1  0.688901  0.689342  0.933451  1
  O  O30  1  0.933451  0.688306  0.688901  1
  O  O31  1  0.224431  0.958239  0.339831  1
  O  O32  1  0.339831  0.477499  0.224431  1
  O  O33  1  0.477499  0.339831  0.958239  1
  O  O34  1  0.958239  0.224431  0.477499  1
  O  O35  1  0.688306  0.933451  0.689342  1
  O  O36  1  0.689342  0.688901  0.688306  1
  O  O37  1  0.025097  0.774940  0.295283  1
  O  O38  1  0.295283  0.904680  0.025097  1
  O  O39  1  0.972287  0.466220  0.341911  1
  O  O40  1  0.292090  0.763819  0.917822  1
  O  O41  1  0.225876  0.474680  0.960571  1
  O  O42  1  0.960571  0.338872  0.225876  1
  O  O43  1  0.557871  0.558318  0.568124  1
  O  O44  1  0.568124  0.315687  0.557871  1
  O  O45  1  0.295273  0.010138  0.775580  1
  O  O46  1  0.775580  0.919008  0.295273  1
  O  O47  1  0.010138  0.295273  0.919008  1
  O  O48  1  0.919008  0.775580  0.010138  1
  O  O49  1  0.315687  0.568124  0.558318  1
  O  O50  1  0.558318  0.557871  0.315687  1
  O  O51  1  0.026270  0.917822  0.763819  1
  O  O52  1  0.466220  0.972287  0.219582  1
  O  O53  1  0.774940  0.025097  0.904680  1
  O  O54  1  0.904680  0.295283  0.774940  1
  O  O55  1  0.341911  0.219582  0.972287  1
