# generated using pymatgen
data_Li2CrO3
_symmetry_space_group_name_H-M   'P 1'
_cell_length_a   5.37486073
_cell_length_b   5.37486073
_cell_length_c   5.35454603
_cell_angle_alpha   67.29280654
_cell_angle_beta   112.70719346
_cell_angle_gamma   114.34611104
_symmetry_Int_Tables_number   1
_chemical_formula_structural   Li2CrO3
_chemical_formula_sum   'Li4 Cr2 O6'
_cell_volume   125.18148732
_cell_formula_units_Z   2
loop_
 _symmetry_equiv_pos_site_id
 _symmetry_equiv_pos_as_xyz
  1  'x, y, z'
loop_
 _atom_site_type_symbol
 _atom_site_label
 _atom_site_symmetry_multiplicity
 _atom_site_fract_x
 _atom_site_fract_y
 _atom_site_fract_z
 _atom_site_occupancy
  Li  Li0  1  0.261479  0.585779  0.923344  1
  Li  Li1  1  0.414221  0.738521  0.423344  1
  Li  Li2  1  0.585779  0.261479  0.576656  1
  Li  Li3  1  0.738521  0.414221  0.076656  1
  Cr  Cr4  1  0.914017  0.914017  0.250000  1
  Cr  Cr5  1  0.085983  0.085983  0.750000  1
  O  O6  1  0.215894  0.917271  0.564215  1
  O  O7  1  0.082729  0.784106  0.064215  1
  O  O8  1  0.610496  0.610496  0.250000  1
  O  O9  1  0.389504  0.389504  0.750000  1
  O  O10  1  0.917271  0.215894  0.935785  1
  O  O11  1  0.784106  0.082729  0.435785  1
