# generated using pymatgen
data_Mn2VNi3(PO4)6
_symmetry_space_group_name_H-M   'P 1'
_cell_length_a   8.55840770
_cell_length_b   8.55840770
_cell_length_c   8.55840770
_cell_angle_alpha   60.67422733
_cell_angle_beta   60.67422733
_cell_angle_gamma   60.67422733
_symmetry_Int_Tables_number   1
_chemical_formula_structural   Mn2VNi3(PO4)6
_chemical_formula_sum   'Mn2 V1 Ni3 P6 O24'
_cell_volume   450.01199618
_cell_formula_units_Z   1
loop_
 _symmetry_equiv_pos_site_id
 _symmetry_equiv_pos_as_xyz
  1  'x, y, z'
loop_
 _atom_site_type_symbol
 _atom_site_label
 _atom_site_symmetry_multiplicity
 _atom_site_fract_x
 _atom_site_fract_y
 _atom_site_fract_z
 _atom_site_occupancy
  Mn  Mn0  1  0.997501  0.997501  0.997501  1
  Mn  Mn1  1  0.498943  0.498943  0.498943  1
  V  V2  1  0.144708  0.144708  0.144708  1
  Ni  Ni3  1  0.642235  0.642235  0.642235  1
  Ni  Ni4  1  0.856072  0.856072  0.856072  1
  Ni  Ni5  1  0.357051  0.357051  0.357051  1
  P  P6  1  0.955917  0.251455  0.543593  1
  P  P7  1  0.543593  0.955917  0.251455  1
  P  P8  1  0.251455  0.543593  0.955917  1
  P  P9  1  0.750581  0.456879  0.044517  1
  P  P10  1  0.456879  0.044517  0.750581  1
  P  P11  1  0.044517  0.750581  0.456879  1
  O  O12  1  0.506584  0.107295  0.319575  1
  O  O13  1  0.319575  0.506584  0.107295  1
  O  O14  1  0.107295  0.319575  0.506584  1
  O  O15  1  0.942545  0.088969  0.735359  1
  O  O16  1  0.014155  0.179987  0.375965  1
  O  O17  1  0.761417  0.407550  0.543425  1
  O  O18  1  0.735359  0.942545  0.088968  1
  O  O19  1  0.543425  0.761417  0.407550  1
  O  O20  1  0.811943  0.611121  0.013455  1
  O  O21  1  0.407550  0.543425  0.761417  1
  O  O22  1  0.916573  0.255860  0.069445  1
  O  O23  1  0.611121  0.013455  0.811943  1
  O  O24  1  0.375965  0.014155  0.179987  1
  O  O25  1  0.088969  0.735359  0.942545  1
  O  O26  1  0.592447  0.437029  0.243673  1
  O  O27  1  0.179987  0.375965  0.014155  1
  O  O28  1  0.437029  0.243673  0.592447  1
  O  O29  1  0.255860  0.069445  0.916573  1
  O  O30  1  0.243673  0.592447  0.437029  1
  O  O31  1  0.013455  0.811943  0.611121  1
  O  O32  1  0.069445  0.916573  0.255860  1
  O  O33  1  0.889233  0.695578  0.481376  1
  O  O34  1  0.695578  0.481376  0.889233  1
  O  O35  1  0.481376  0.889233  0.695578  1
