# generated using pymatgen
data_V2Cr3Sb3O16
_symmetry_space_group_name_H-M   'P 1'
_cell_length_a   6.08712531
_cell_length_b   6.08712531
_cell_length_c   9.06046678
_cell_angle_alpha   89.76461575
_cell_angle_beta   90.23538425
_cell_angle_gamma   119.65168103
_symmetry_Int_Tables_number   1
_chemical_formula_structural   V2Cr3Sb3O16
_chemical_formula_sum   'V2 Cr3 Sb3 O16'
_cell_volume   291.75239922
_cell_formula_units_Z   1
loop_
 _symmetry_equiv_pos_site_id
 _symmetry_equiv_pos_as_xyz
  1  'x, y, z'
loop_
 _atom_site_type_symbol
 _atom_site_label
 _atom_site_symmetry_multiplicity
 _atom_site_fract_x
 _atom_site_fract_y
 _atom_site_fract_z
 _atom_site_occupancy
  V  V0  1  0.349623  0.650377  0.525417  1
  V  V1  1  0.672269  0.327731  0.000048  1
  Cr  Cr2  1  0.162069  0.336247  0.794685  1
  Cr  Cr3  1  0.663753  0.837931  0.794685  1
  Cr  Cr4  1  0.830049  0.169951  0.290948  1
  Sb  Sb5  1  0.166729  0.833271  0.788340  1
  Sb  Sb6  1  0.333567  0.169815  0.288021  1
  Sb  Sb7  1  0.830185  0.666433  0.288021  1
  O  O8  1  0.173484  0.336423  0.397734  1
  O  O9  1  0.474334  0.525666  0.660011  1
  O  O10  1  0.330332  0.669668  0.901224  1
  O  O11  1  0.998502  0.001498  0.690640  1
  O  O12  1  0.998033  0.001967  0.179344  1
  O  O13  1  0.663577  0.826516  0.397734  1
  O  O14  1  0.050713  0.523924  0.654768  1
  O  O15  1  0.476076  0.949287  0.654768  1
  O  O16  1  0.825850  0.174150  0.899196  1
  O  O17  1  0.167612  0.832388  0.397952  1
  O  O18  1  0.524736  0.053080  0.160028  1
  O  O19  1  0.946920  0.475264  0.160028  1
  O  O20  1  0.664494  0.335506  0.406413  1
  O  O21  1  0.346871  0.170090  0.899556  1
  O  O22  1  0.520132  0.479868  0.155219  1
  O  O23  1  0.829910  0.653129  0.899556  1
