# generated using pymatgen
data_Li2V3(CO3)6
_symmetry_space_group_name_H-M   'P 1'
_cell_length_a   4.80714004
_cell_length_b   6.08332432
_cell_length_c   12.18673035
_cell_angle_alpha   100.89506290
_cell_angle_beta   90.02526761
_cell_angle_gamma   113.24108044
_symmetry_Int_Tables_number   1
_chemical_formula_structural   Li2V3(CO3)6
_chemical_formula_sum   'Li2 V3 C6 O18'
_cell_volume   320.44590259
_cell_formula_units_Z   1
loop_
 _symmetry_equiv_pos_site_id
 _symmetry_equiv_pos_as_xyz
  1  'x, y, z'
loop_
 _atom_site_type_symbol
 _atom_site_label
 _atom_site_symmetry_multiplicity
 _atom_site_fract_x
 _atom_site_fract_y
 _atom_site_fract_z
 _atom_site_occupancy
  Li  Li0  1  0.928382  0.353587  0.771531  1
  Li  Li1  1  0.071618  0.646413  0.228469  1
  V  V2  1  0.338395  0.168464  0.162320  1
  V  V3  1  0.000000  0.500000  0.500000  1
  V  V4  1  0.661605  0.831536  0.837680  1
  C  C5  1  0.535394  0.578008  0.366166  1
  C  C6  1  0.208401  0.914838  0.698633  1
  C  C7  1  0.464606  0.421992  0.633834  1
  C  C8  1  0.878331  0.249359  0.032702  1
  C  C9  1  0.121669  0.750641  0.967298  1
  C  C10  1  0.791599  0.085162  0.301367  1
  O  O11  1  0.485194  0.942272  0.716169  1
  O  O12  1  0.514806  0.057728  0.283831  1
  O  O13  1  0.577092  0.344228  0.547658  1
  O  O14  1  0.616506  0.504544  0.731263  1
  O  O15  1  0.383494  0.495456  0.268737  1
  O  O16  1  0.066421  0.797584  0.598644  1
  O  O17  1  0.422908  0.655772  0.452342  1
  O  O18  1  0.071359  0.003536  0.772084  1
  O  O19  1  0.149012  0.259365  0.045792  1
  O  O20  1  0.186021  0.410783  0.625521  1
  O  O21  1  0.231960  0.656560  0.882327  1
  O  O22  1  0.928641  0.996464  0.227916  1
  O  O23  1  0.277146  0.841456  0.063381  1
  O  O24  1  0.933579  0.202416  0.401356  1
  O  O25  1  0.722854  0.158544  0.936619  1
  O  O26  1  0.768040  0.343440  0.117673  1
  O  O27  1  0.813979  0.589217  0.374479  1
  O  O28  1  0.850988  0.740635  0.954208  1
