# generated using pymatgen
data_Li3Fe8(BO3)8
_symmetry_space_group_name_H-M   'P 1'
_cell_length_a   5.29724530
_cell_length_b   9.07614233
_cell_length_c   10.18732842
_cell_angle_alpha   90.05138660
_cell_angle_beta   90.85425616
_cell_angle_gamma   90.07358294
_symmetry_Int_Tables_number   1
_chemical_formula_structural   Li3Fe8(BO3)8
_chemical_formula_sum   'Li3 Fe8 B8 O24'
_cell_volume   489.73695461
_cell_formula_units_Z   1
loop_
 _symmetry_equiv_pos_site_id
 _symmetry_equiv_pos_as_xyz
  1  'x, y, z'
loop_
 _atom_site_type_symbol
 _atom_site_label
 _atom_site_symmetry_multiplicity
 _atom_site_fract_x
 _atom_site_fract_y
 _atom_site_fract_z
 _atom_site_occupancy
  Li  Li0  1  0.347918  0.000423  0.904913  1
  Li  Li1  1  0.148399  0.491567  0.662746  1
  Li  Li2  1  0.147228  0.515511  0.172071  1
  Fe  Fe3  1  0.839921  0.169344  0.877796  1
  Fe  Fe4  1  0.161135  0.155710  0.622850  1
  Fe  Fe5  1  0.659651  0.326665  0.132804  1
  Fe  Fe6  1  0.354993  0.336446  0.382705  1
  Fe  Fe7  1  0.658458  0.674213  0.630609  1
  Fe  Fe8  1  0.834555  0.829679  0.370709  1
  Fe  Fe9  1  0.347496  0.658815  0.885884  1
  Fe  Fe10  1  0.165261  0.849570  0.133190  1
  B  B11  1  0.844950  0.161285  0.375384  1
  B  B12  1  0.668578  0.337626  0.635091  1
  B  B13  1  0.178320  0.180718  0.116242  1
  B  B14  1  0.332868  0.322043  0.871194  1
  B  B15  1  0.656228  0.656191  0.133489  1
  B  B16  1  0.328381  0.675266  0.379305  1
  B  B17  1  0.845967  0.841745  0.873590  1
  B  B18  1  0.163020  0.824525  0.628036  1
  O  O19  1  0.737541  0.026557  0.369286  1
  O  O20  1  0.926912  0.195929  0.071138  1
  O  O21  1  0.299395  0.051658  0.103417  1
  O  O22  1  0.810048  0.215277  0.678508  1
  O  O23  1  0.717183  0.282791  0.322960  1
  O  O24  1  0.206558  0.189007  0.833544  1
  O  O25  1  0.081348  0.184693  0.436199  1
  O  O26  1  0.571602  0.303076  0.928926  1
  O  O27  1  0.780548  0.472930  0.630680  1
  O  O28  1  0.414552  0.318451  0.599075  1
  O  O29  1  0.293214  0.309746  0.164340  1
  O  O30  1  0.783461  0.523189  0.129335  1
  O  O31  1  0.227827  0.453561  0.850204  1
  O  O32  1  0.713759  0.719659  0.824424  1
  O  O33  1  0.572775  0.694128  0.433705  1
  O  O34  1  0.230553  0.539083  0.363278  1
  O  O35  1  0.401938  0.663558  0.095582  1
  O  O36  1  0.921007  0.809041  0.575291  1
  O  O37  1  0.787007  0.780303  0.176636  1
  O  O38  1  0.293259  0.695614  0.662695  1
  O  O39  1  0.196224  0.801494  0.341682  1
  O  O40  1  0.715376  0.974700  0.878675  1
  O  O41  1  0.094488  0.833183  0.915085  1
  O  O42  1  0.265505  0.960654  0.648136  1
