# generated using pymatgen
data_Li2MnFe(BO3)2
_symmetry_space_group_name_H-M   'P 1'
_cell_length_a   8.25987388
_cell_length_b   3.16164602
_cell_length_c   16.52352564
_cell_angle_alpha   90.00000000
_cell_angle_beta   120.01453263
_cell_angle_gamma   90.00000000
_symmetry_Int_Tables_number   1
_chemical_formula_structural   Li2MnFe(BO3)2
_chemical_formula_sum   'Li6 Mn3 Fe3 B6 O18'
_cell_volume   373.64260749
_cell_formula_units_Z   3
loop_
 _symmetry_equiv_pos_site_id
 _symmetry_equiv_pos_as_xyz
  1  'x, y, z'
loop_
 _atom_site_type_symbol
 _atom_site_label
 _atom_site_symmetry_multiplicity
 _atom_site_fract_x
 _atom_site_fract_y
 _atom_site_fract_z
 _atom_site_occupancy
  Li  Li0  1  0.699085  0.500000  0.991449  1
  Li  Li1  1  0.019613  0.500000  0.358565  1
  Li  Li2  1  0.285509  0.500000  0.650285  1
  Li  Li3  1  0.698060  0.500000  0.491645  1
  Li  Li4  1  0.014518  0.500000  0.856978  1
  Li  Li5  1  0.283494  0.500000  0.151184  1
  Mn  Mn6  1  0.372830  0.000000  0.005830  1
  Mn  Mn7  1  0.640788  0.000000  0.314611  1
  Mn  Mn8  1  0.987910  0.000000  0.679760  1
  Fe  Fe9  1  0.366364  0.000000  0.504030  1
  Fe  Fe10  1  0.639966  0.000000  0.815986  1
  Fe  Fe11  1  0.992462  0.000000  0.179672  1
  B  B12  1  0.663368  0.500000  0.666095  1
  B  B13  1  0.997952  0.000000  0.999178  1
  B  B14  1  0.331180  0.500000  0.333259  1
  B  B15  1  0.669784  0.500000  0.167257  1
  B  B16  1  0.001972  0.000000  0.500869  1
  B  B17  1  0.335297  0.500000  0.833281  1
  O  O18  1  0.416673  0.500000  0.430387  1
  O  O19  1  0.743765  0.500000  0.763065  1
  O  O20  1  0.470177  0.500000  0.608518  1
  O  O21  1  0.137237  0.500000  0.278429  1
  O  O22  1  0.804080  0.000000  0.957802  1
  O  O23  1  0.781910  0.500000  0.126459  1
  O  O24  1  0.442875  0.500000  0.789987  1
  O  O25  1  0.082865  0.000000  0.444186  1
  O  O26  1  0.115974  0.000000  0.597484  1
  O  O27  1  0.421936  0.500000  0.930226  1
  O  O28  1  0.751299  0.500000  0.264201  1
  O  O29  1  0.475337  0.500000  0.111835  1
  O  O30  1  0.141573  0.500000  0.780211  1
  O  O31  1  0.808067  0.000000  0.460802  1
  O  O32  1  0.777186  0.500000  0.625998  1
  O  O33  1  0.439764  0.500000  0.290749  1
  O  O34  1  0.080076  0.000000  0.943325  1
  O  O35  1  0.109054  0.000000  0.096402  1
