# generated using pymatgen
data_Li2AlFeO4
_symmetry_space_group_name_H-M   'P 1'
_cell_length_a   5.33127368
_cell_length_b   5.96842228
_cell_length_c   10.90250787
_cell_angle_alpha   90.00000000
_cell_angle_beta   108.09777198
_cell_angle_gamma   90.00000000
_symmetry_Int_Tables_number   1
_chemical_formula_structural   Li2AlFeO4
_chemical_formula_sum   'Li8 Al4 Fe4 O16'
_cell_volume   329.74768682
_cell_formula_units_Z   4
loop_
 _symmetry_equiv_pos_site_id
 _symmetry_equiv_pos_as_xyz
  1  'x, y, z'
loop_
 _atom_site_type_symbol
 _atom_site_label
 _atom_site_symmetry_multiplicity
 _atom_site_fract_x
 _atom_site_fract_y
 _atom_site_fract_z
 _atom_site_occupancy
  Li  Li0  1  0.935631  0.338270  0.808119  1
  Li  Li1  1  0.935631  0.161730  0.308119  1
  Li  Li2  1  0.698302  0.156956  0.568015  1
  Li  Li3  1  0.698302  0.343044  0.068015  1
  Li  Li4  1  0.301698  0.656956  0.931985  1
  Li  Li5  1  0.301698  0.843044  0.431985  1
  Li  Li6  1  0.064369  0.838270  0.691881  1
  Li  Li7  1  0.064369  0.661730  0.191881  1
  Al  Al8  1  0.820867  0.830714  0.941789  1
  Al  Al9  1  0.820867  0.669286  0.441789  1
  Al  Al10  1  0.179133  0.330714  0.558211  1
  Al  Al11  1  0.179133  0.169286  0.058211  1
  Fe  Fe12  1  0.431523  0.173735  0.816739  1
  Fe  Fe13  1  0.568477  0.673735  0.683261  1
  Fe  Fe14  1  0.431523  0.326265  0.316739  1
  Fe  Fe15  1  0.568477  0.826265  0.183261  1
  O  O16  1  0.916080  0.677389  0.820569  1
  O  O17  1  0.916080  0.822611  0.320569  1
  O  O18  1  0.820606  0.140612  0.939886  1
  O  O19  1  0.820606  0.359388  0.439886  1
  O  O20  1  0.694024  0.814540  0.555758  1
  O  O21  1  0.540927  0.345060  0.686128  1
  O  O22  1  0.694024  0.685460  0.055758  1
  O  O23  1  0.540927  0.154940  0.186128  1
  O  O24  1  0.459073  0.845060  0.813872  1
  O  O25  1  0.305976  0.314540  0.944242  1
  O  O26  1  0.459073  0.654940  0.313872  1
  O  O27  1  0.305976  0.185460  0.444242  1
  O  O28  1  0.179394  0.640612  0.560114  1
  O  O29  1  0.179394  0.859388  0.060114  1
  O  O30  1  0.083920  0.177389  0.679431  1
  O  O31  1  0.083920  0.322611  0.179431  1
