# generated using pymatgen
data_Li2Cr(PO3)5
_symmetry_space_group_name_H-M   'P 1'
_cell_length_a   5.26929503
_cell_length_b   9.59063399
_cell_length_c   13.11705106
_cell_angle_alpha   90.00000000
_cell_angle_beta   108.69627770
_cell_angle_gamma   90.00000000
_symmetry_Int_Tables_number   1
_chemical_formula_structural   Li2Cr(PO3)5
_chemical_formula_sum   'Li4 Cr2 P10 O30'
_cell_volume   627.90218247
_cell_formula_units_Z   2
loop_
 _symmetry_equiv_pos_site_id
 _symmetry_equiv_pos_as_xyz
  1  'x, y, z'
loop_
 _atom_site_type_symbol
 _atom_site_label
 _atom_site_symmetry_multiplicity
 _atom_site_fract_x
 _atom_site_fract_y
 _atom_site_fract_z
 _atom_site_occupancy
  Li  Li0  1  0.935504  0.605583  0.063102  1
  Li  Li1  1  0.054805  0.398672  0.931705  1
  Li  Li2  1  0.935504  0.394417  0.563102  1
  Li  Li3  1  0.054805  0.601328  0.431705  1
  Cr  Cr4  1  0.009650  0.997358  0.003728  1
  Cr  Cr5  1  0.009650  0.002642  0.503728  1
  P  P6  1  0.473925  0.520135  0.858475  1
  P  P7  1  0.422081  0.181583  0.418080  1
  P  P8  1  0.594641  0.822790  0.587844  1
  P  P9  1  0.516887  0.522151  0.638231  1
  P  P10  1  0.013460  0.983320  0.753641  1
  P  P11  1  0.473925  0.479865  0.358475  1
  P  P12  1  0.594641  0.177210  0.087844  1
  P  P13  1  0.516887  0.477849  0.138231  1
  P  P14  1  0.013460  0.016680  0.253641  1
  P  P15  1  0.422081  0.818417  0.918080  1
  O  O16  1  0.754246  0.500701  0.932283  1
  O  O17  1  0.299924  0.145860  0.062189  1
  O  O18  1  0.720676  0.157330  0.447882  1
  O  O19  1  0.272758  0.116515  0.299963  1
  O  O20  1  0.645504  0.661043  0.601446  1
  O  O21  1  0.715022  0.407975  0.652592  1
  O  O22  1  0.972712  0.940799  0.347957  1
  O  O23  1  0.715022  0.592025  0.152592  1
  O  O24  1  0.645504  0.338957  0.101446  1
  O  O25  1  0.493685  0.582303  0.748402  1
  O  O26  1  0.236832  0.495734  0.063838  1
  O  O27  1  0.493685  0.417697  0.248402  1
  O  O28  1  0.050935  0.937389  0.160178  1
  O  O29  1  0.720676  0.842670  0.947882  1
  O  O30  1  0.272758  0.883485  0.799963  1
  O  O31  1  0.972712  0.059201  0.847957  1
  O  O32  1  0.273887  0.407022  0.842983  1
  O  O33  1  0.236832  0.504266  0.563838  1
  O  O34  1  0.728061  0.870054  0.507797  1
  O  O35  1  0.273887  0.592978  0.342983  1
  O  O36  1  0.760619  0.879214  0.707197  1
  O  O37  1  0.728061  0.129946  0.007797  1
  O  O38  1  0.351297  0.341172  0.398101  1
  O  O39  1  0.351297  0.658828  0.898101  1
  O  O40  1  0.754246  0.499299  0.432283  1
  O  O41  1  0.299924  0.854140  0.562189  1
  O  O42  1  0.760619  0.120786  0.207197  1
  O  O43  1  0.287490  0.135565  0.497987  1
  O  O44  1  0.050935  0.062611  0.660178  1
  O  O45  1  0.287490  0.864435  0.997987  1
