# generated using pymatgen
data_Na5Bi2P(CO4)4
_symmetry_space_group_name_H-M   'P 1'
_cell_length_a   10.43549107
_cell_length_b   10.43549107
_cell_length_c   10.25688903
_cell_angle_alpha   60.70188816
_cell_angle_beta   119.29811184
_cell_angle_gamma   88.59754189
_symmetry_Int_Tables_number   1
_chemical_formula_structural   Na5Bi2P(CO4)4
_chemical_formula_sum   'Na10 Bi4 P2 C8 O32'
_cell_volume   796.69387503
_cell_formula_units_Z   2
loop_
 _symmetry_equiv_pos_site_id
 _symmetry_equiv_pos_as_xyz
  1  'x, y, z'
loop_
 _atom_site_type_symbol
 _atom_site_label
 _atom_site_symmetry_multiplicity
 _atom_site_fract_x
 _atom_site_fract_y
 _atom_site_fract_z
 _atom_site_occupancy
  Na  Na0  1  0.071129  0.676901  0.635264  1
  Na  Na1  1  0.323470  0.928864  0.758920  1
  Na  Na2  1  0.323099  0.928871  0.135264  1
  Na  Na3  1  0.066059  0.066059  0.250000  1
  Na  Na4  1  0.071136  0.676530  0.258920  1
  Na  Na5  1  0.933941  0.933941  0.750000  1
  Na  Na6  1  0.928864  0.323470  0.741080  1
  Na  Na7  1  0.676901  0.071129  0.864736  1
  Na  Na8  1  0.676530  0.071136  0.241080  1
  Na  Na9  1  0.928871  0.323099  0.364736  1
  Bi  Bi10  1  0.500000  0.000000  0.500000  1
  Bi  Bi11  1  0.500000  0.500000  0.000000  1
  Bi  Bi12  1  0.500000  0.500000  0.500000  1
  Bi  Bi13  1  0.000000  0.500000  0.000000  1
  P  P14  1  0.876128  0.876128  0.250000  1
  P  P15  1  0.123872  0.123872  0.750000  1
  C  C16  1  0.279847  0.277314  0.059471  1
  C  C17  1  0.270250  0.667159  0.052085  1
  C  C18  1  0.277314  0.279847  0.440529  1
  C  C19  1  0.667159  0.270250  0.447915  1
  C  C20  1  0.332841  0.729750  0.552085  1
  C  C21  1  0.722686  0.720153  0.559471  1
  C  C22  1  0.720153  0.722686  0.940529  1
  C  C23  1  0.729750  0.332841  0.947915  1
  O  O24  1  0.329755  0.861383  0.537927  1
  O  O25  1  0.148781  0.396727  0.934457  1
  O  O26  1  0.282264  0.666727  0.931420  1
  O  O27  1  0.594565  0.713021  0.935119  1
  O  O28  1  0.138617  0.670245  0.037927  1
  O  O29  1  0.694756  0.944123  0.124972  1
  O  O30  1  0.938946  0.937795  0.125936  1
  O  O31  1  0.284597  0.146318  0.182730  1
  O  O32  1  0.386237  0.667313  0.182252  1
  O  O33  1  0.667313  0.386237  0.317748  1
  O  O34  1  0.146318  0.284597  0.317270  1
  O  O35  1  0.937795  0.938946  0.374064  1
  O  O36  1  0.944123  0.694756  0.375028  1
  O  O37  1  0.333273  0.717736  0.431420  1
  O  O38  1  0.603273  0.851219  0.434457  1
  O  O39  1  0.286979  0.405435  0.435119  1
  O  O40  1  0.713021  0.594565  0.564881  1
  O  O41  1  0.666727  0.282264  0.568580  1
  O  O42  1  0.396727  0.148781  0.565543  1
  O  O43  1  0.055877  0.305244  0.624972  1
  O  O44  1  0.062205  0.061054  0.625936  1
  O  O45  1  0.853682  0.715403  0.682730  1
  O  O46  1  0.332687  0.613763  0.682252  1
  O  O47  1  0.715403  0.853682  0.817270  1
  O  O48  1  0.613763  0.332687  0.817748  1
  O  O49  1  0.061054  0.062205  0.874064  1
  O  O50  1  0.305244  0.055877  0.875028  1
  O  O51  1  0.861383  0.329755  0.962073  1
  O  O52  1  0.405435  0.286979  0.064881  1
  O  O53  1  0.717736  0.333273  0.068580  1
  O  O54  1  0.851219  0.603273  0.065543  1
  O  O55  1  0.670245  0.138617  0.462073  1
