# generated using pymatgen
data_H3SNO3
_symmetry_space_group_name_H-M   'P 1'
_cell_length_a   8.26739872
_cell_length_b   8.35654992
_cell_length_c   9.55817483
_cell_angle_alpha   90.00000000
_cell_angle_beta   90.00000000
_cell_angle_gamma   90.00000000
_symmetry_Int_Tables_number   1
_chemical_formula_structural   H3SNO3
_chemical_formula_sum   'H24 S8 N8 O24'
_cell_volume   660.34495648
_cell_formula_units_Z   8
loop_
 _symmetry_equiv_pos_site_id
 _symmetry_equiv_pos_as_xyz
  1  'x, y, z'
loop_
 _atom_site_type_symbol
 _atom_site_label
 _atom_site_symmetry_multiplicity
 _atom_site_fract_x
 _atom_site_fract_y
 _atom_site_fract_z
 _atom_site_occupancy
  H  H0  1  0.986264  0.376448  0.409379  1
  H  H1  1  0.986264  0.123552  0.909379  1
  H  H2  1  0.086327  0.725955  0.387289  1
  H  H3  1  0.086327  0.774045  0.887289  1
  H  H4  1  0.074460  0.314233  0.037077  1
  H  H5  1  0.074460  0.185767  0.537077  1
  H  H6  1  0.425540  0.814233  0.037077  1
  H  H7  1  0.425540  0.685767  0.537077  1
  H  H8  1  0.413673  0.225955  0.387289  1
  H  H9  1  0.413673  0.274045  0.887289  1
  H  H10  1  0.513736  0.876448  0.409379  1
  H  H11  1  0.513736  0.623552  0.909379  1
  H  H12  1  0.486264  0.123552  0.590621  1
  H  H13  1  0.486264  0.376448  0.090621  1
  H  H14  1  0.586327  0.725955  0.112711  1
  H  H15  1  0.586327  0.774045  0.612711  1
  H  H16  1  0.574460  0.314233  0.462923  1
  H  H17  1  0.574460  0.185767  0.962923  1
  H  H18  1  0.925540  0.814233  0.462923  1
  H  H19  1  0.925540  0.685767  0.962923  1
  H  H20  1  0.913673  0.225955  0.112711  1
  H  H21  1  0.913673  0.274045  0.612711  1
  H  H22  1  0.013736  0.623552  0.590621  1
  H  H23  1  0.013736  0.876448  0.090621  1
  S  S24  1  0.144706  0.090988  0.155406  1
  S  S25  1  0.144706  0.409012  0.655406  1
  S  S26  1  0.355294  0.590988  0.155406  1
  S  S27  1  0.355294  0.909012  0.655406  1
  S  S28  1  0.644706  0.090988  0.344594  1
  S  S29  1  0.644706  0.409012  0.844594  1
  S  S30  1  0.855294  0.590988  0.344594  1
  S  S31  1  0.855294  0.909012  0.844594  1
  N  N32  1  0.019237  0.206198  0.057626  1
  N  N33  1  0.019237  0.293802  0.557626  1
  N  N34  1  0.480763  0.706198  0.057626  1
  N  N35  1  0.480763  0.793802  0.557626  1
  N  N36  1  0.519237  0.206198  0.442374  1
  N  N37  1  0.519237  0.293802  0.942374  1
  N  N38  1  0.980763  0.706198  0.442374  1
  N  N39  1  0.980763  0.793802  0.942374  1
  O  O40  1  0.034354  0.944711  0.182774  1
  O  O41  1  0.034354  0.555289  0.682774  1
  O  O42  1  0.222131  0.550384  0.064416  1
  O  O43  1  0.222131  0.949616  0.564416  1
  O  O44  1  0.178727  0.165256  0.287933  1
  O  O45  1  0.178727  0.334744  0.787933  1
  O  O46  1  0.321273  0.665256  0.287933  1
  O  O47  1  0.321273  0.834744  0.787933  1
  O  O48  1  0.277869  0.050384  0.064416  1
  O  O49  1  0.277869  0.449616  0.564416  1
  O  O50  1  0.465646  0.055289  0.682774  1
  O  O51  1  0.465646  0.444711  0.182774  1
  O  O52  1  0.534354  0.555289  0.817226  1
  O  O53  1  0.534354  0.944711  0.317226  1
  O  O54  1  0.722131  0.550384  0.435584  1
  O  O55  1  0.722131  0.949616  0.935584  1
  O  O56  1  0.678727  0.165256  0.212067  1
  O  O57  1  0.678727  0.334744  0.712067  1
  O  O58  1  0.821273  0.665256  0.212067  1
  O  O59  1  0.821273  0.834744  0.712067  1
  O  O60  1  0.777869  0.050384  0.435584  1
  O  O61  1  0.777869  0.449616  0.935584  1
  O  O62  1  0.965646  0.444711  0.317226  1
  O  O63  1  0.965646  0.055289  0.817226  1
