# generated using pymatgen
data_Li5CoO4
_symmetry_space_group_name_H-M   'P 1'
_cell_length_a   5.08305240
_cell_length_b   9.72075741
_cell_length_c   16.13645074
_cell_angle_alpha   90.00000000
_cell_angle_beta   90.00000000
_cell_angle_gamma   90.00000000
_symmetry_Int_Tables_number   1
_chemical_formula_structural   Li5CoO4
_chemical_formula_sum   'Li40 Co8 O32'
_cell_volume   797.32009231
_cell_formula_units_Z   8
loop_
 _symmetry_equiv_pos_site_id
 _symmetry_equiv_pos_as_xyz
  1  'x, y, z'
loop_
 _atom_site_type_symbol
 _atom_site_label
 _atom_site_symmetry_multiplicity
 _atom_site_fract_x
 _atom_site_fract_y
 _atom_site_fract_z
 _atom_site_occupancy
  Li  Li0  1  0.918868  0.940375  0.429696  1
  Li  Li1  1  0.581132  0.940375  0.929696  1
  Li  Li2  1  0.030322  0.956311  0.272842  1
  Li  Li3  1  0.469678  0.956311  0.772842  1
  Li  Li4  1  0.398862  0.804063  0.481438  1
  Li  Li5  1  0.101138  0.804063  0.981438  1
  Li  Li6  1  0.595368  0.814462  0.321280  1
  Li  Li7  1  0.904632  0.814462  0.821280  1
  Li  Li8  1  0.395236  0.808832  0.165816  1
  Li  Li9  1  0.104764  0.808832  0.665816  1
  Li  Li10  1  0.895236  0.691168  0.165816  1
  Li  Li11  1  0.604764  0.691168  0.665816  1
  Li  Li12  1  0.404632  0.685538  0.821280  1
  Li  Li13  1  0.095368  0.685538  0.321280  1
  Li  Li14  1  0.898862  0.695937  0.481438  1
  Li  Li15  1  0.601138  0.695937  0.981438  1
  Li  Li16  1  0.530322  0.543689  0.272842  1
  Li  Li17  1  0.969678  0.543689  0.772842  1
  Li  Li18  1  0.081132  0.559625  0.929696  1
  Li  Li19  1  0.418868  0.559625  0.429696  1
  Li  Li20  1  0.918868  0.440375  0.070304  1
  Li  Li21  1  0.581132  0.440375  0.570304  1
  Li  Li22  1  0.469678  0.456311  0.727158  1
  Li  Li23  1  0.030322  0.456311  0.227158  1
  Li  Li24  1  0.398862  0.304063  0.018562  1
  Li  Li25  1  0.101138  0.304063  0.518562  1
  Li  Li26  1  0.595368  0.314462  0.178720  1
  Li  Li27  1  0.904632  0.314462  0.678720  1
  Li  Li28  1  0.104764  0.308832  0.834184  1
  Li  Li29  1  0.395236  0.308832  0.334184  1
  Li  Li30  1  0.895236  0.191168  0.334184  1
  Li  Li31  1  0.604764  0.191168  0.834184  1
  Li  Li32  1  0.404632  0.185538  0.678720  1
  Li  Li33  1  0.095368  0.185538  0.178720  1
  Li  Li34  1  0.601138  0.195937  0.518562  1
  Li  Li35  1  0.898862  0.195937  0.018562  1
  Li  Li36  1  0.969678  0.043689  0.727158  1
  Li  Li37  1  0.530322  0.043689  0.227158  1
  Li  Li38  1  0.081132  0.059625  0.570304  1
  Li  Li39  1  0.418868  0.059625  0.070304  1
  Co  Co40  1  0.875296  0.952898  0.115941  1
  Co  Co41  1  0.624704  0.952898  0.615941  1
  Co  Co42  1  0.375296  0.547102  0.115941  1
  Co  Co43  1  0.124704  0.547102  0.615941  1
  Co  Co44  1  0.875296  0.452898  0.384059  1
  Co  Co45  1  0.624704  0.452898  0.884059  1
  Co  Co46  1  0.375296  0.047102  0.384059  1
  Co  Co47  1  0.124704  0.047102  0.884059  1
  O  O48  1  0.211931  0.977740  0.151656  1
  O  O49  1  0.288069  0.977740  0.651656  1
  O  O50  1  0.731893  0.853540  0.208593  1
  O  O51  1  0.768107  0.853540  0.708593  1
  O  O52  1  0.753198  0.865685  0.023639  1
  O  O53  1  0.746802  0.865685  0.523639  1
  O  O54  1  0.268615  0.861090  0.875103  1
  O  O55  1  0.231385  0.861090  0.375103  1
  O  O56  1  0.731385  0.638910  0.375103  1
  O  O57  1  0.768615  0.638910  0.875103  1
  O  O58  1  0.253198  0.634315  0.023639  1
  O  O59  1  0.246802  0.634315  0.523639  1
  O  O60  1  0.231893  0.646460  0.208593  1
  O  O61  1  0.268107  0.646460  0.708593  1
  O  O62  1  0.711931  0.522260  0.151656  1
  O  O63  1  0.788069  0.522260  0.651656  1
  O  O64  1  0.211931  0.477740  0.348344  1
  O  O65  1  0.288069  0.477740  0.848344  1
  O  O66  1  0.768107  0.353540  0.791407  1
  O  O67  1  0.731893  0.353540  0.291407  1
  O  O68  1  0.746802  0.365685  0.976361  1
  O  O69  1  0.753198  0.365685  0.476361  1
  O  O70  1  0.268615  0.361090  0.624897  1
  O  O71  1  0.231385  0.361090  0.124897  1
  O  O72  1  0.768615  0.138910  0.624897  1
  O  O73  1  0.731385  0.138910  0.124897  1
  O  O74  1  0.253198  0.134315  0.476361  1
  O  O75  1  0.246802  0.134315  0.976361  1
  O  O76  1  0.268107  0.146460  0.791407  1
  O  O77  1  0.231893  0.146460  0.291407  1
  O  O78  1  0.788069  0.022260  0.848344  1
  O  O79  1  0.711931  0.022260  0.348344  1
