# generated using pymatgen
data_Li4Mn3(CoO4)3
_symmetry_space_group_name_H-M   'P 1'
_cell_length_a   5.66705576
_cell_length_b   5.85458465
_cell_length_c   6.66126677
_cell_angle_alpha   105.03852939
_cell_angle_beta   102.57016763
_cell_angle_gamma   88.67317973
_symmetry_Int_Tables_number   1
_chemical_formula_structural   Li4Mn3(CoO4)3
_chemical_formula_sum   'Li4 Mn3 Co3 O12'
_cell_volume   208.19374257
_cell_formula_units_Z   1
loop_
 _symmetry_equiv_pos_site_id
 _symmetry_equiv_pos_as_xyz
  1  'x, y, z'
loop_
 _atom_site_type_symbol
 _atom_site_label
 _atom_site_symmetry_multiplicity
 _atom_site_fract_x
 _atom_site_fract_y
 _atom_site_fract_z
 _atom_site_occupancy
  Li  Li0  1  0.823957  0.351873  0.849339  1
  Li  Li1  1  0.500000  0.000000  0.500000  1
  Li  Li2  1  0.000000  0.000000  0.500000  1
  Li  Li3  1  0.176043  0.648127  0.150661  1
  Mn  Mn4  1  0.335226  0.828660  0.840039  1
  Mn  Mn5  1  0.664774  0.171340  0.159961  1
  Mn  Mn6  1  0.000000  0.500000  0.500000  1
  Co  Co7  1  0.834404  0.831961  0.839185  1
  Co  Co8  1  0.165596  0.168039  0.160815  1
  Co  Co9  1  0.500000  0.500000  0.500000  1
  O  O10  1  0.584287  0.061505  0.850653  1
  O  O11  1  0.081849  0.056931  0.850631  1
  O  O12  1  0.415713  0.938495  0.149347  1
  O  O13  1  0.743329  0.258128  0.475359  1
  O  O14  1  0.918151  0.943069  0.149369  1
  O  O15  1  0.244739  0.265234  0.467182  1
  O  O16  1  0.417421  0.398023  0.192380  1
  O  O17  1  0.755261  0.734766  0.532818  1
  O  O18  1  0.912045  0.387896  0.159944  1
  O  O19  1  0.256671  0.741872  0.524641  1
  O  O20  1  0.582579  0.601977  0.807620  1
  O  O21  1  0.087955  0.612104  0.840056  1
