# generated using pymatgen
data_Li(FeP)2
_symmetry_space_group_name_H-M   'P 1'
_cell_length_a   5.24704756
_cell_length_b   5.24704756
_cell_length_c   5.24704756
_cell_angle_alpha   137.98326130
_cell_angle_beta   137.98326130
_cell_angle_gamma   60.92863563
_symmetry_Int_Tables_number   1
_chemical_formula_structural   Li(FeP)2
_chemical_formula_sum   'Li1 Fe2 P2'
_cell_volume   64.01376399
_cell_formula_units_Z   1
loop_
 _symmetry_equiv_pos_site_id
 _symmetry_equiv_pos_as_xyz
  1  'x, y, z'
loop_
 _atom_site_type_symbol
 _atom_site_label
 _atom_site_symmetry_multiplicity
 _atom_site_fract_x
 _atom_site_fract_y
 _atom_site_fract_z
 _atom_site_occupancy
  Li  Li0  1  0.000000  0.000000  0.000000  1
  Fe  Fe1  1  0.250000  0.750000  0.500000  1
  Fe  Fe2  1  0.750000  0.250000  0.500000  1
  P  P3  1  0.373447  0.373447  0.000000  1
  P  P4  1  0.626553  0.626553  0.000000  1
