# generated using pymatgen
data_Li5Fe8(BO3)8
_symmetry_space_group_name_H-M   'P 1'
_cell_length_a   5.26757106
_cell_length_b   9.08061526
_cell_length_c   10.21422965
_cell_angle_alpha   89.99919445
_cell_angle_beta   88.65484550
_cell_angle_gamma   89.98004570
_symmetry_Int_Tables_number   1
_chemical_formula_structural   Li5Fe8(BO3)8
_chemical_formula_sum   'Li5 Fe8 B8 O24'
_cell_volume   488.44039055
_cell_formula_units_Z   1
loop_
 _symmetry_equiv_pos_site_id
 _symmetry_equiv_pos_as_xyz
  1  'x, y, z'
loop_
 _atom_site_type_symbol
 _atom_site_label
 _atom_site_symmetry_multiplicity
 _atom_site_fract_x
 _atom_site_fract_y
 _atom_site_fract_z
 _atom_site_occupancy
  Li  Li0  1  0.338833  0.985411  0.155696  1
  Li  Li1  1  0.656372  0.002335  0.880143  1
  Li  Li2  1  0.157889  0.505337  0.403467  1
  Li  Li3  1  0.844668  0.515571  0.662644  1
  Li  Li4  1  0.837246  0.494516  0.164591  1
  Fe  Fe5  1  0.159256  0.827046  0.875025  1
  Fe  Fe6  1  0.833922  0.846033  0.629047  1
  Fe  Fe7  1  0.334894  0.657632  0.127404  1
  Fe  Fe8  1  0.646901  0.679258  0.381397  1
  Fe  Fe9  1  0.347728  0.332560  0.629846  1
  Fe  Fe10  1  0.161208  0.163160  0.379995  1
  Fe  Fe11  1  0.657523  0.336341  0.880662  1
  Fe  Fe12  1  0.838906  0.156636  0.131911  1
  B  B13  1  0.150636  0.832356  0.374672  1
  B  B14  1  0.332468  0.658733  0.632269  1
  B  B15  1  0.830277  0.830282  0.118396  1
  B  B16  1  0.658024  0.669866  0.877895  1
  B  B17  1  0.335438  0.330232  0.131141  1
  B  B18  1  0.672801  0.332923  0.372223  1
  B  B19  1  0.164915  0.162704  0.882104  1
  B  B20  1  0.840856  0.174947  0.638572  1
  O  O21  1  0.264270  0.965321  0.347599  1
  O  O22  1  0.089690  0.831324  0.082249  1
  O  O23  1  0.690686  0.957680  0.108040  1
  O  O24  1  0.203445  0.781592  0.684426  1
  O  O25  1  0.280636  0.702307  0.340275  1
  O  O26  1  0.793272  0.799799  0.852062  1
  O  O27  1  0.912964  0.823496  0.431170  1
  O  O28  1  0.409050  0.682894  0.923098  1
  O  O29  1  0.195104  0.532777  0.605325  1
  O  O30  1  0.589668  0.664895  0.603023  1
  O  O31  1  0.720568  0.699611  0.162945  1
  O  O32  1  0.194881  0.455601  0.142975  1
  O  O33  1  0.768398  0.535462  0.859334  1
  O  O34  1  0.306429  0.284907  0.844304  1
  O  O35  1  0.416306  0.321159  0.410819  1
  O  O36  1  0.790236  0.468204  0.366030  1
  O  O37  1  0.590127  0.335082  0.083115  1
  O  O38  1  0.074675  0.185578  0.570355  1
  O  O39  1  0.231921  0.194425  0.169914  1
  O  O40  1  0.728349  0.310498  0.680464  1
  O  O41  1  0.807350  0.206458  0.335555  1
  O  O42  1  0.278534  0.026622  0.886673  1
  O  O43  1  0.907394  0.178885  0.917793  1
  O  O44  1  0.722854  0.048393  0.669316  1
