# generated using pymatgen
data_Li2SiNiO4
_symmetry_space_group_name_H-M   'P 1'
_cell_length_a   4.92331831
_cell_length_b   5.41772366
_cell_length_c   7.98053305
_cell_angle_alpha   90.00000000
_cell_angle_beta   127.50938178
_cell_angle_gamma   90.00000000
_symmetry_Int_Tables_number   1
_chemical_formula_structural   Li2SiNiO4
_chemical_formula_sum   'Li4 Si2 Ni2 O8'
_cell_volume   168.85687358
_cell_formula_units_Z   2
loop_
 _symmetry_equiv_pos_site_id
 _symmetry_equiv_pos_as_xyz
  1  'x, y, z'
loop_
 _atom_site_type_symbol
 _atom_site_label
 _atom_site_symmetry_multiplicity
 _atom_site_fract_x
 _atom_site_fract_y
 _atom_site_fract_z
 _atom_site_occupancy
  Li  Li0  1  0.245121  0.173756  0.749659  1
  Li  Li1  1  0.498592  0.337442  0.502754  1
  Li  Li2  1  0.245121  0.826244  0.249659  1
  Li  Li3  1  0.498592  0.662558  0.002754  1
  Si  Si4  1  0.009418  0.333624  0.002825  1
  Si  Si5  1  0.009418  0.666376  0.502825  1
  Ni  Ni6  1  0.748044  0.831624  0.754606  1
  Ni  Ni7  1  0.748044  0.168376  0.254606  1
  O  O8  1  0.901966  0.622978  0.000424  1
  O  O9  1  0.691789  0.186516  0.790136  1
  O  O10  1  0.115944  0.810445  0.719111  1
  O  O11  1  0.346022  0.670361  0.504109  1
  O  O12  1  0.901966  0.377022  0.500424  1
  O  O13  1  0.691789  0.813484  0.290136  1
  O  O14  1  0.115944  0.189555  0.219111  1
  O  O15  1  0.346022  0.329639  0.004109  1
