# generated using pymatgen
data_Sr2CaI6
_symmetry_space_group_name_H-M   'P 1'
_cell_length_a   7.41956812
_cell_length_b   8.22315046
_cell_length_c   27.45457329
_cell_angle_alpha   90.00000000
_cell_angle_beta   90.00000000
_cell_angle_gamma   90.00000000
_symmetry_Int_Tables_number   1
_chemical_formula_structural   Sr2CaI6
_chemical_formula_sum   'Sr8 Ca4 I24'
_cell_volume   1675.06460282
_cell_formula_units_Z   4
loop_
 _symmetry_equiv_pos_site_id
 _symmetry_equiv_pos_as_xyz
  1  'x, y, z'
loop_
 _atom_site_type_symbol
 _atom_site_label
 _atom_site_symmetry_multiplicity
 _atom_site_fract_x
 _atom_site_fract_y
 _atom_site_fract_z
 _atom_site_occupancy
  Sr  Sr0  1  0.000000  0.750000  0.046886  1
  Sr  Sr1  1  0.000000  0.250000  0.285853  1
  Sr  Sr2  1  0.000000  0.750000  0.714147  1
  Sr  Sr3  1  0.000000  0.250000  0.953114  1
  Sr  Sr4  1  0.500000  0.750000  0.214147  1
  Sr  Sr5  1  0.500000  0.750000  0.546886  1
  Sr  Sr6  1  0.500000  0.250000  0.785853  1
  Sr  Sr7  1  0.500000  0.250000  0.453114  1
  Ca  Ca8  1  0.000000  0.750000  0.380456  1
  Ca  Ca9  1  0.000000  0.250000  0.619544  1
  Ca  Ca10  1  0.500000  0.750000  0.880456  1
  Ca  Ca11  1  0.500000  0.250000  0.119544  1
  I  I12  1  0.751207  0.417646  0.040012  1
  I  I13  1  0.751207  0.917646  0.959988  1
  I  I14  1  0.738550  0.416194  0.201758  1
  I  I15  1  0.738550  0.916194  0.798242  1
  I  I16  1  0.763307  0.432824  0.372301  1
  I  I17  1  0.763307  0.932824  0.627699  1
  I  I18  1  0.736693  0.432824  0.872301  1
  I  I19  1  0.736693  0.932824  0.127699  1
  I  I20  1  0.761450  0.916194  0.298242  1
  I  I21  1  0.761450  0.416194  0.701758  1
  I  I22  1  0.748793  0.917646  0.459988  1
  I  I23  1  0.748793  0.417646  0.540012  1
  I  I24  1  0.251207  0.582354  0.459988  1
  I  I25  1  0.251207  0.082354  0.540012  1
  I  I26  1  0.238550  0.583806  0.298242  1
  I  I27  1  0.238550  0.083806  0.701758  1
  I  I28  1  0.263307  0.567176  0.127699  1
  I  I29  1  0.263307  0.067176  0.872301  1
  I  I30  1  0.236693  0.067176  0.372301  1
  I  I31  1  0.236693  0.567176  0.627699  1
  I  I32  1  0.261450  0.583806  0.798242  1
  I  I33  1  0.261450  0.083806  0.201758  1
  I  I34  1  0.248793  0.082354  0.040012  1
  I  I35  1  0.248793  0.582354  0.959988  1
