# generated using pymatgen
data_Li4Ti3V3(SnO8)2
_symmetry_space_group_name_H-M   'P 1'
_cell_length_a   6.01283596
_cell_length_b   6.01283596
_cell_length_c   9.85820445
_cell_angle_alpha   89.32181747
_cell_angle_beta   90.67818253
_cell_angle_gamma   120.01811849
_symmetry_Int_Tables_number   1
_chemical_formula_structural   Li4Ti3V3(SnO8)2
_chemical_formula_sum   'Li4 Ti3 V3 Sn2 O16'
_cell_volume   308.57965274
_cell_formula_units_Z   1
loop_
 _symmetry_equiv_pos_site_id
 _symmetry_equiv_pos_as_xyz
  1  'x, y, z'
loop_
 _atom_site_type_symbol
 _atom_site_label
 _atom_site_symmetry_multiplicity
 _atom_site_fract_x
 _atom_site_fract_y
 _atom_site_fract_z
 _atom_site_occupancy
  Li  Li0  1  0.334233  0.665767  0.104429  1
  Li  Li1  1  0.001897  0.998103  0.006805  1
  Li  Li2  1  0.997333  0.002667  0.508660  1
  Li  Li3  1  0.667446  0.332554  0.602450  1
  Ti  Ti4  1  0.166505  0.341714  0.784866  1
  Ti  Ti5  1  0.658286  0.833495  0.784866  1
  Ti  Ti6  1  0.829701  0.170299  0.282474  1
  V  V7  1  0.175578  0.824422  0.788095  1
  V  V8  1  0.340485  0.170734  0.286881  1
  V  V9  1  0.829266  0.659515  0.286881  1
  Sn  Sn10  1  0.330678  0.669322  0.506289  1
  Sn  Sn11  1  0.661686  0.338314  0.009745  1
  O  O12  1  0.155498  0.326680  0.398954  1
  O  O13  1  0.481469  0.518531  0.666301  1
  O  O14  1  0.348264  0.651736  0.897396  1
  O  O15  1  0.994544  0.005456  0.695285  1
  O  O16  1  0.995978  0.004022  0.191993  1
  O  O17  1  0.673320  0.844502  0.398954  1
  O  O18  1  0.036026  0.504902  0.656720  1
  O  O19  1  0.495098  0.963974  0.656720  1
  O  O20  1  0.834402  0.165598  0.896107  1
  O  O21  1  0.157091  0.842909  0.402844  1
  O  O22  1  0.526513  0.034792  0.160341  1
  O  O23  1  0.965208  0.473487  0.160341  1
  O  O24  1  0.673420  0.326580  0.393891  1
  O  O25  1  0.321189  0.169282  0.900726  1
  O  O26  1  0.517216  0.482784  0.162550  1
  O  O27  1  0.830718  0.678811  0.900726  1
