# generated using pymatgen
data_Li3Mn5FeO12
_symmetry_space_group_name_H-M   'P 1'
_cell_length_a   5.98447743
_cell_length_b   5.98447743
_cell_length_c   13.00963293
_cell_angle_alpha   77.91332356
_cell_angle_beta   102.08667644
_cell_angle_gamma   87.75045362
_symmetry_Int_Tables_number   1
_chemical_formula_structural   Li3Mn5FeO12
_chemical_formula_sum   'Li6 Mn10 Fe2 O24'
_cell_volume   443.81263415
_cell_formula_units_Z   2
loop_
 _symmetry_equiv_pos_site_id
 _symmetry_equiv_pos_as_xyz
  1  'x, y, z'
loop_
 _atom_site_type_symbol
 _atom_site_label
 _atom_site_symmetry_multiplicity
 _atom_site_fract_x
 _atom_site_fract_y
 _atom_site_fract_z
 _atom_site_occupancy
  Li  Li0  1  0.953127  0.282680  0.917268  1
  Li  Li1  1  0.384724  0.384724  0.750000  1
  Li  Li2  1  0.282680  0.953127  0.582732  1
  Li  Li3  1  0.717320  0.046873  0.417268  1
  Li  Li4  1  0.615276  0.615276  0.250000  1
  Li  Li5  1  0.046873  0.717320  0.082732  1
  Mn  Mn6  1  0.500000  0.000000  0.000000  1
  Mn  Mn7  1  0.166040  0.834964  0.832934  1
  Mn  Mn8  1  0.663177  0.832766  0.831808  1
  Mn  Mn9  1  0.834964  0.166040  0.667066  1
  Mn  Mn10  1  0.832766  0.663177  0.668192  1
  Mn  Mn11  1  0.000000  0.500000  0.500000  1
  Mn  Mn12  1  0.167234  0.336823  0.331808  1
  Mn  Mn13  1  0.165036  0.833960  0.332934  1
  Mn  Mn14  1  0.833960  0.165036  0.167066  1
  Mn  Mn15  1  0.336823  0.167234  0.168192  1
  Fe  Fe16  1  0.500000  0.500000  0.000000  1
  Fe  Fe17  1  0.500000  0.500000  0.500000  1
  O  O18  1  0.275049  0.771712  0.990644  1
  O  O19  1  0.721391  0.759443  0.990955  1
  O  O20  1  0.427498  0.618271  0.838380  1
  O  O21  1  0.442965  0.065095  0.844429  1
  O  O22  1  0.891003  0.603019  0.823165  1
  O  O23  1  0.900334  0.050540  0.825643  1
  O  O24  1  0.050540  0.900334  0.674357  1
  O  O25  1  0.603019  0.891003  0.676835  1
  O  O26  1  0.618271  0.427498  0.661620  1
  O  O27  1  0.065095  0.442965  0.655571  1
  O  O28  1  0.771712  0.275049  0.509356  1
  O  O29  1  0.759443  0.721391  0.509045  1
  O  O30  1  0.228288  0.724951  0.490644  1
  O  O31  1  0.240557  0.278609  0.490955  1
  O  O32  1  0.934905  0.557035  0.344429  1
  O  O33  1  0.381729  0.572502  0.338380  1
  O  O34  1  0.949460  0.099666  0.325643  1
  O  O35  1  0.396981  0.108997  0.323165  1
  O  O36  1  0.099666  0.949460  0.174357  1
  O  O37  1  0.108997  0.396981  0.176835  1
  O  O38  1  0.572502  0.381729  0.161620  1
  O  O39  1  0.557035  0.934905  0.155571  1
  O  O40  1  0.724951  0.228288  0.009356  1
  O  O41  1  0.278609  0.240557  0.009045  1
