# generated using pymatgen
data_CuH12N2(Cl2O)2
_symmetry_space_group_name_H-M   'P 1'
_cell_length_a   7.63911139
_cell_length_b   7.63911139
_cell_length_c   7.95921471
_cell_angle_alpha   90.00000000
_cell_angle_beta   90.00000000
_cell_angle_gamma   90.00000000
_symmetry_Int_Tables_number   1
_chemical_formula_structural   CuH12N2(Cl2O)2
_chemical_formula_sum   'Cu2 H24 N4 Cl8 O4'
_cell_volume   464.46811532
_cell_formula_units_Z   2
loop_
 _symmetry_equiv_pos_site_id
 _symmetry_equiv_pos_as_xyz
  1  'x, y, z'
loop_
 _atom_site_type_symbol
 _atom_site_label
 _atom_site_symmetry_multiplicity
 _atom_site_fract_x
 _atom_site_fract_y
 _atom_site_fract_z
 _atom_site_occupancy
  Cu  Cu0  1  0.500000  0.500000  0.500000  1
  Cu  Cu1  1  0.000000  0.000000  0.000000  1
  H  H2  1  0.425037  0.574963  0.176274  1
  H  H3  1  0.574963  0.425037  0.176274  1
  H  H4  1  0.074963  0.074963  0.676274  1
  H  H5  1  0.925037  0.925037  0.676274  1
  H  H6  1  0.574963  0.425037  0.823726  1
  H  H7  1  0.425037  0.574963  0.823726  1
  H  H8  1  0.925037  0.925037  0.323726  1
  H  H9  1  0.074963  0.074963  0.323726  1
  H  H10  1  0.085794  0.570254  0.324631  1
  H  H11  1  0.914206  0.429746  0.324631  1
  H  H12  1  0.414206  0.070254  0.824631  1
  H  H13  1  0.585794  0.929746  0.824631  1
  H  H14  1  0.914206  0.429746  0.675369  1
  H  H15  1  0.085794  0.570254  0.675369  1
  H  H16  1  0.585794  0.929746  0.175369  1
  H  H17  1  0.414206  0.070254  0.175369  1
  H  H18  1  0.570254  0.085794  0.324631  1
  H  H19  1  0.429746  0.914206  0.324631  1
  H  H20  1  0.070254  0.414206  0.824631  1
  H  H21  1  0.929746  0.585794  0.824631  1
  H  H22  1  0.429746  0.914206  0.675369  1
  H  H23  1  0.570254  0.085794  0.675369  1
  H  H24  1  0.929746  0.585794  0.175369  1
  H  H25  1  0.070254  0.414206  0.175369  1
  N  N26  1  0.000000  0.500000  0.250000  1
  N  N27  1  0.500000  0.000000  0.750000  1
  N  N28  1  0.000000  0.500000  0.750000  1
  N  N29  1  0.500000  0.000000  0.250000  1
  Cl  Cl30  1  0.288821  0.711179  0.500000  1
  Cl  Cl31  1  0.711179  0.288821  0.500000  1
  Cl  Cl32  1  0.211179  0.211179  0.000000  1
  Cl  Cl33  1  0.788821  0.788821  0.000000  1
  Cl  Cl34  1  0.283354  0.716646  0.000000  1
  Cl  Cl35  1  0.716646  0.283354  0.000000  1
  Cl  Cl36  1  0.216646  0.216646  0.500000  1
  Cl  Cl37  1  0.783354  0.783354  0.500000  1
  O  O38  1  0.500000  0.500000  0.249838  1
  O  O39  1  0.000000  0.000000  0.749838  1
  O  O40  1  0.500000  0.500000  0.750162  1
  O  O41  1  0.000000  0.000000  0.250162  1
