# generated using pymatgen
data_Mo2P3O13
_symmetry_space_group_name_H-M   'P 1'
_cell_length_a   9.08237762
_cell_length_b   9.08237762
_cell_length_c   8.95840632
_cell_angle_alpha   69.06195024
_cell_angle_beta   110.93804976
_cell_angle_gamma   74.22651915
_symmetry_Int_Tables_number   1
_chemical_formula_structural   Mo2P3O13
_chemical_formula_sum   'Mo4 P6 O26'
_cell_volume   573.01156403
_cell_formula_units_Z   2
loop_
 _symmetry_equiv_pos_site_id
 _symmetry_equiv_pos_as_xyz
  1  'x, y, z'
loop_
 _atom_site_type_symbol
 _atom_site_label
 _atom_site_symmetry_multiplicity
 _atom_site_fract_x
 _atom_site_fract_y
 _atom_site_fract_z
 _atom_site_occupancy
  Mo  Mo0  1  0.156735  0.666651  0.674797  1
  Mo  Mo1  1  0.666651  0.156735  0.825203  1
  Mo  Mo2  1  0.843265  0.333349  0.325203  1
  Mo  Mo3  1  0.333349  0.843265  0.174797  1
  P  P4  1  0.650213  0.762147  0.061670  1
  P  P5  1  0.349787  0.237853  0.938330  1
  P  P6  1  0.990409  0.990409  0.750000  1
  P  P7  1  0.009591  0.009591  0.250000  1
  P  P8  1  0.762147  0.650213  0.438330  1
  P  P9  1  0.237853  0.349787  0.561670  1
  O  O10  1  0.899508  0.649217  0.593118  1
  O  O11  1  0.941736  0.200255  0.218607  1
  O  O12  1  0.799745  0.058264  0.718607  1
  O  O13  1  0.743908  0.571025  0.100521  1
  O  O14  1  0.465388  0.799058  0.041227  1
  O  O15  1  0.256092  0.428975  0.899479  1
  O  O16  1  0.691949  0.344413  0.770490  1
  O  O17  1  0.428975  0.256092  0.600521  1
  O  O18  1  0.571025  0.743908  0.399479  1
  O  O19  1  0.885613  0.009397  0.079197  1
  O  O20  1  0.100492  0.350783  0.406882  1
  O  O21  1  0.308051  0.655587  0.229510  1
  O  O22  1  0.655587  0.308051  0.270490  1
  O  O23  1  0.238168  0.238168  0.750000  1
  O  O24  1  0.761832  0.761832  0.250000  1
  O  O25  1  0.534612  0.200942  0.958773  1
  O  O26  1  0.009397  0.885613  0.420803  1
  O  O27  1  0.058264  0.799745  0.781393  1
  O  O28  1  0.200942  0.534612  0.541227  1
  O  O29  1  0.344413  0.691949  0.729510  1
  O  O30  1  0.990603  0.114387  0.579197  1
  O  O31  1  0.114387  0.990603  0.920803  1
  O  O32  1  0.799058  0.465388  0.458773  1
  O  O33  1  0.649217  0.899508  0.906882  1
  O  O34  1  0.200255  0.941736  0.281393  1
  O  O35  1  0.350783  0.100492  0.093118  1
