# generated using pymatgen
data_Li2Cr3SnO8
_symmetry_space_group_name_H-M   'P 1'
_cell_length_a   8.50841148
_cell_length_b   8.50841148
_cell_length_c   8.61057168
_cell_angle_alpha   90.00000000
_cell_angle_beta   90.00000000
_cell_angle_gamma   90.00000000
_symmetry_Int_Tables_number   1
_chemical_formula_structural   Li2Cr3SnO8
_chemical_formula_sum   'Li8 Cr12 Sn4 O32'
_cell_volume   623.34568231
_cell_formula_units_Z   4
loop_
 _symmetry_equiv_pos_site_id
 _symmetry_equiv_pos_as_xyz
  1  'x, y, z'
loop_
 _atom_site_type_symbol
 _atom_site_label
 _atom_site_symmetry_multiplicity
 _atom_site_fract_x
 _atom_site_fract_y
 _atom_site_fract_z
 _atom_site_occupancy
  Li  Li0  1  0.749773  0.001219  0.626261  1
  Li  Li1  1  0.998781  0.250227  0.873739  1
  Li  Li2  1  0.001219  0.749773  0.373739  1
  Li  Li3  1  0.250227  0.998781  0.126261  1
  Li  Li4  1  0.249773  0.498781  0.623739  1
  Li  Li5  1  0.498781  0.249773  0.376261  1
  Li  Li6  1  0.501219  0.750227  0.876261  1
  Li  Li7  1  0.750227  0.501219  0.123739  1
  Cr  Cr8  1  0.865533  0.134467  0.250000  1
  Cr  Cr9  1  0.872805  0.380018  0.493290  1
  Cr  Cr10  1  0.880018  0.627195  0.743290  1
  Cr  Cr11  1  0.119982  0.372805  0.243290  1
  Cr  Cr12  1  0.127195  0.619982  0.993290  1
  Cr  Cr13  1  0.134467  0.865533  0.750000  1
  Cr  Cr14  1  0.365533  0.365533  0.000000  1
  Cr  Cr15  1  0.372805  0.119982  0.756710  1
  Cr  Cr16  1  0.380018  0.872805  0.506710  1
  Cr  Cr17  1  0.619982  0.127195  0.006710  1
  Cr  Cr18  1  0.627195  0.880018  0.256710  1
  Cr  Cr19  1  0.634467  0.634467  0.500000  1
  Sn  Sn20  1  0.875988  0.875988  0.000000  1
  Sn  Sn21  1  0.124012  0.124012  0.500000  1
  Sn  Sn22  1  0.375988  0.624012  0.250000  1
  Sn  Sn23  1  0.624012  0.375988  0.750000  1
  O  O24  1  0.857592  0.123190  0.017393  1
  O  O25  1  0.865963  0.900902  0.244578  1
  O  O26  1  0.856315  0.618874  0.509338  1
  O  O27  1  0.876810  0.142408  0.482607  1
  O  O28  1  0.868543  0.390169  0.730060  1
  O  O29  1  0.881126  0.356315  0.259338  1
  O  O30  1  0.890169  0.631457  0.980060  1
  O  O31  1  0.900902  0.865963  0.755422  1
  O  O32  1  0.099098  0.134037  0.255422  1
  O  O33  1  0.109831  0.368543  0.480060  1
  O  O34  1  0.118874  0.643685  0.759338  1
  O  O35  1  0.131457  0.609831  0.230060  1
  O  O36  1  0.123190  0.857592  0.982607  1
  O  O37  1  0.143685  0.381126  0.009338  1
  O  O38  1  0.134037  0.099098  0.744578  1
  O  O39  1  0.142408  0.876810  0.517393  1
  O  O40  1  0.357592  0.376810  0.232607  1
  O  O41  1  0.365963  0.599098  0.005422  1
  O  O42  1  0.356315  0.881126  0.740662  1
  O  O43  1  0.376810  0.357592  0.767393  1
  O  O44  1  0.368543  0.109831  0.519940  1
  O  O45  1  0.381126  0.143685  0.990662  1
  O  O46  1  0.390169  0.868543  0.269940  1
  O  O47  1  0.400902  0.634037  0.494578  1
  O  O48  1  0.599098  0.365963  0.994578  1
  O  O49  1  0.609831  0.131457  0.769940  1
  O  O50  1  0.618874  0.856315  0.490662  1
  O  O51  1  0.631457  0.890169  0.019940  1
  O  O52  1  0.623190  0.642408  0.267393  1
  O  O53  1  0.643685  0.118874  0.240662  1
  O  O54  1  0.634037  0.400902  0.505422  1
  O  O55  1  0.642408  0.623190  0.732607  1
