# generated using pymatgen
data_Li2Fe3SbO8
_symmetry_space_group_name_H-M   'P 1'
_cell_length_a   8.60719082
_cell_length_b   8.60719082
_cell_length_c   8.60719082
_cell_angle_alpha   90.00000000
_cell_angle_beta   90.00000000
_cell_angle_gamma   90.00000000
_symmetry_Int_Tables_number   1
_chemical_formula_structural   Li2Fe3SbO8
_chemical_formula_sum   'Li8 Fe12 Sb4 O32'
_cell_volume   637.65283359
_cell_formula_units_Z   4
loop_
 _symmetry_equiv_pos_site_id
 _symmetry_equiv_pos_as_xyz
  1  'x, y, z'
loop_
 _atom_site_type_symbol
 _atom_site_label
 _atom_site_symmetry_multiplicity
 _atom_site_fract_x
 _atom_site_fract_y
 _atom_site_fract_z
 _atom_site_occupancy
  Li  Li0  1  0.001557  0.001557  0.001557  1
  Li  Li1  1  0.248443  0.248443  0.248443  1
  Li  Li2  1  0.251557  0.751557  0.748443  1
  Li  Li3  1  0.498443  0.998443  0.501557  1
  Li  Li4  1  0.501557  0.498443  0.998443  1
  Li  Li5  1  0.748443  0.251557  0.751557  1
  Li  Li6  1  0.751557  0.748443  0.251557  1
  Li  Li7  1  0.998443  0.501557  0.498443  1
  Fe  Fe8  1  0.116336  0.133664  0.625000  1
  Fe  Fe9  1  0.125000  0.383664  0.866336  1
  Fe  Fe10  1  0.133664  0.625000  0.116336  1
  Fe  Fe11  1  0.366336  0.375000  0.616336  1
  Fe  Fe12  1  0.375000  0.616336  0.366336  1
  Fe  Fe13  1  0.383664  0.866336  0.125000  1
  Fe  Fe14  1  0.616336  0.366336  0.375000  1
  Fe  Fe15  1  0.625000  0.116336  0.133664  1
  Fe  Fe16  1  0.633664  0.875000  0.883664  1
  Fe  Fe17  1  0.866336  0.125000  0.383664  1
  Fe  Fe18  1  0.875000  0.883664  0.633664  1
  Fe  Fe19  1  0.883664  0.633664  0.875000  1
  Sb  Sb20  1  0.125000  0.875000  0.375000  1
  Sb  Sb21  1  0.375000  0.125000  0.875000  1
  Sb  Sb22  1  0.625000  0.625000  0.625000  1
  Sb  Sb23  1  0.875000  0.375000  0.125000  1
  O  O24  1  0.113764  0.109704  0.386330  1
  O  O25  1  0.113670  0.886236  0.609704  1
  O  O26  1  0.116459  0.616459  0.883541  1
  O  O27  1  0.140296  0.136236  0.863670  1
  O  O28  1  0.109704  0.386330  0.113764  1
  O  O29  1  0.133541  0.366459  0.633541  1
  O  O30  1  0.136330  0.640296  0.363764  1
  O  O31  1  0.136236  0.863670  0.140296  1
  O  O32  1  0.363764  0.136330  0.640296  1
  O  O33  1  0.363670  0.359704  0.863764  1
  O  O34  1  0.366459  0.633541  0.133541  1
  O  O35  1  0.390296  0.613670  0.613764  1
  O  O36  1  0.359704  0.863764  0.363670  1
  O  O37  1  0.383541  0.383541  0.383541  1
  O  O38  1  0.386330  0.113764  0.109704  1
  O  O39  1  0.386236  0.890296  0.886330  1
  O  O40  1  0.613764  0.390296  0.613670  1
  O  O41  1  0.613670  0.613764  0.390296  1
  O  O42  1  0.616459  0.883541  0.116459  1
  O  O43  1  0.640296  0.363764  0.136330  1
  O  O44  1  0.609704  0.113670  0.886236  1
  O  O45  1  0.633541  0.133541  0.366459  1
  O  O46  1  0.636330  0.859704  0.636236  1
  O  O47  1  0.636236  0.636330  0.859704  1
  O  O48  1  0.863764  0.363670  0.359704  1
  O  O49  1  0.863670  0.140296  0.136236  1
  O  O50  1  0.866459  0.866459  0.866459  1
  O  O51  1  0.890296  0.886330  0.386236  1
  O  O52  1  0.859704  0.636236  0.636330  1
  O  O53  1  0.883541  0.116459  0.616459  1
  O  O54  1  0.886330  0.386236  0.890296  1
  O  O55  1  0.886236  0.609704  0.113670  1
