# generated using pymatgen
data_Li4Mn3Nb2V3O16
_symmetry_space_group_name_H-M   'P 1'
_cell_length_a   5.92107472
_cell_length_b   6.09308671
_cell_length_c   9.80416081
_cell_angle_alpha   92.22315450
_cell_angle_beta   89.99851596
_cell_angle_gamma   118.94247589
_symmetry_Int_Tables_number   1
_chemical_formula_structural   Li4Mn3Nb2V3O16
_chemical_formula_sum   'Li4 Mn3 Nb2 V3 O16'
_cell_volume   309.23038531
_cell_formula_units_Z   1
loop_
 _symmetry_equiv_pos_site_id
 _symmetry_equiv_pos_as_xyz
  1  'x, y, z'
loop_
 _atom_site_type_symbol
 _atom_site_label
 _atom_site_symmetry_multiplicity
 _atom_site_fract_x
 _atom_site_fract_y
 _atom_site_fract_z
 _atom_site_occupancy
  Li  Li0  1  0.658797  0.315073  0.900136  1
  Li  Li1  1  0.997912  0.000671  0.990626  1
  Li  Li2  1  0.003338  0.009590  0.489209  1
  Li  Li3  1  0.332424  0.661400  0.402073  1
  Mn  Mn4  1  0.832348  0.666128  0.210286  1
  Mn  Mn5  1  0.168335  0.828448  0.715112  1
  Mn  Mn6  1  0.660096  0.829177  0.714851  1
  Nb  Nb7  1  0.667905  0.340171  0.494161  1
  Nb  Nb8  1  0.323152  0.647131  0.994958  1
  V  V9  1  0.345295  0.174613  0.214920  1
  V  V10  1  0.823734  0.175464  0.220784  1
  V  V11  1  0.170126  0.341902  0.718663  1
  O  O12  1  0.342103  0.186659  0.589347  1
  O  O13  1  0.528637  0.038585  0.344234  1
  O  O14  1  0.667982  0.303776  0.105973  1
  O  O15  1  0.003295  0.025479  0.301578  1
  O  O16  1  0.001474  0.003406  0.803032  1
  O  O17  1  0.844986  0.189358  0.590063  1
  O  O18  1  0.509686  0.467103  0.345841  1
  O  O19  1  0.960639  0.465709  0.346288  1
  O  O20  1  0.164739  0.337564  0.098849  1
  O  O21  1  0.840926  0.681508  0.590567  1
  O  O22  1  0.031144  0.504121  0.849902  1
  O  O23  1  0.471680  0.502554  0.851144  1
  O  O24  1  0.331520  0.662818  0.614285  1
  O  O25  1  0.179966  0.846198  0.087141  1
  O  O26  1  0.475597  0.951439  0.836552  1
  O  O27  1  0.661866  0.843957  0.087265  1
