# generated using pymatgen
data_LiFeSiO4
_symmetry_space_group_name_H-M   'P 1'
_cell_length_a   5.21636850
_cell_length_b   7.91448207
_cell_length_c   18.91125735
_cell_angle_alpha   90.00000000
_cell_angle_beta   90.00000000
_cell_angle_gamma   90.00000000
_symmetry_Int_Tables_number   1
_chemical_formula_structural   LiFeSiO4
_chemical_formula_sum   'Li8 Fe8 Si8 O32'
_cell_volume   780.74851688
_cell_formula_units_Z   8
loop_
 _symmetry_equiv_pos_site_id
 _symmetry_equiv_pos_as_xyz
  1  'x, y, z'
loop_
 _atom_site_type_symbol
 _atom_site_label
 _atom_site_symmetry_multiplicity
 _atom_site_fract_x
 _atom_site_fract_y
 _atom_site_fract_z
 _atom_site_occupancy
  Li  Li0  1  0.451199  0.450038  0.544133  1
  Li  Li1  1  0.451199  0.950038  0.955867  1
  Li  Li2  1  0.297593  0.914145  0.769918  1
  Li  Li3  1  0.297593  0.414145  0.730082  1
  Li  Li4  1  0.951199  0.049962  0.044133  1
  Li  Li5  1  0.951199  0.549962  0.455867  1
  Li  Li6  1  0.797593  0.085855  0.230082  1
  Li  Li7  1  0.797593  0.585855  0.269918  1
  Fe  Fe8  1  0.293387  0.522918  0.070189  1
  Fe  Fe9  1  0.293387  0.022918  0.429811  1
  Fe  Fe10  1  0.246645  0.344759  0.333524  1
  Fe  Fe11  1  0.246645  0.844759  0.166476  1
  Fe  Fe12  1  0.793387  0.977082  0.570189  1
  Fe  Fe13  1  0.793387  0.477082  0.929811  1
  Fe  Fe14  1  0.746645  0.155241  0.833524  1
  Fe  Fe15  1  0.746645  0.655241  0.666476  1
  Si  Si16  1  0.238997  0.181416  0.178477  1
  Si  Si17  1  0.238997  0.681416  0.321523  1
  Si  Si18  1  0.230422  0.273554  0.933545  1
  Si  Si19  1  0.230422  0.773554  0.566455  1
  Si  Si20  1  0.738997  0.818584  0.821523  1
  Si  Si21  1  0.738997  0.318584  0.678477  1
  Si  Si22  1  0.730422  0.226446  0.433545  1
  Si  Si23  1  0.730422  0.726446  0.066455  1
  O  O24  1  0.965898  0.455844  0.697199  1
  O  O25  1  0.965898  0.955844  0.802801  1
  O  O26  1  0.031937  0.695898  0.093586  1
  O  O27  1  0.031937  0.195898  0.406414  1
  O  O28  1  0.133423  0.941854  0.518529  1
  O  O29  1  0.133423  0.441854  0.981471  1
  O  O30  1  0.022818  0.302450  0.866994  1
  O  O31  1  0.022818  0.802450  0.633006  1
  O  O32  1  0.028263  0.046595  0.144039  1
  O  O33  1  0.028263  0.546595  0.355961  1
  O  O34  1  0.093374  0.754010  0.249818  1
  O  O35  1  0.093374  0.254010  0.250182  1
  O  O36  1  0.318180  0.335883  0.126924  1
  O  O37  1  0.318180  0.835883  0.373076  1
  O  O38  1  0.189951  0.602016  0.525090  1
  O  O39  1  0.189951  0.102016  0.974910  1
  O  O40  1  0.465898  0.044156  0.197199  1
  O  O41  1  0.465898  0.544156  0.302801  1
  O  O42  1  0.531937  0.304102  0.906414  1
  O  O43  1  0.531937  0.804102  0.593586  1
  O  O44  1  0.633423  0.058146  0.481471  1
  O  O45  1  0.633423  0.558146  0.018529  1
  O  O46  1  0.522818  0.197550  0.366994  1
  O  O47  1  0.522818  0.697550  0.133006  1
  O  O48  1  0.528263  0.953405  0.855961  1
  O  O49  1  0.528263  0.453405  0.644039  1
  O  O50  1  0.593374  0.745990  0.749818  1
  O  O51  1  0.593374  0.245990  0.750182  1
  O  O52  1  0.818180  0.664117  0.873076  1
  O  O53  1  0.818180  0.164117  0.626924  1
  O  O54  1  0.689951  0.397984  0.474910  1
  O  O55  1  0.689951  0.897984  0.025090  1
