# generated using pymatgen
data_LiH4SNO4
_symmetry_space_group_name_H-M   'P 1'
_cell_length_a   9.21163120
_cell_length_b   5.36801900
_cell_length_c   17.52049973
_cell_angle_alpha   90.00000000
_cell_angle_beta   90.12387291
_cell_angle_gamma   90.00000000
_symmetry_Int_Tables_number   1
_chemical_formula_structural   LiH4SNO4
_chemical_formula_sum   'Li8 H32 S8 N8 O32'
_cell_volume   866.35534784
_cell_formula_units_Z   8
loop_
 _symmetry_equiv_pos_site_id
 _symmetry_equiv_pos_as_xyz
  1  'x, y, z'
loop_
 _atom_site_type_symbol
 _atom_site_label
 _atom_site_symmetry_multiplicity
 _atom_site_fract_x
 _atom_site_fract_y
 _atom_site_fract_z
 _atom_site_occupancy
  Li  Li0  1  0.089177  0.233808  0.339116  1
  Li  Li1  1  0.910823  0.733808  0.160884  1
  Li  Li2  1  0.910823  0.766192  0.660884  1
  Li  Li3  1  0.089177  0.266192  0.839116  1
  Li  Li4  1  0.409577  0.274448  0.086392  1
  Li  Li5  1  0.590423  0.774448  0.413608  1
  Li  Li6  1  0.590423  0.725552  0.913608  1
  Li  Li7  1  0.409577  0.225552  0.586392  1
  H  H8  1  0.173303  0.680677  0.245600  1
  H  H9  1  0.826697  0.180677  0.254400  1
  H  H10  1  0.826697  0.319323  0.754400  1
  H  H11  1  0.173303  0.819323  0.745600  1
  H  H12  1  0.287314  0.910386  0.271776  1
  H  H13  1  0.712686  0.410386  0.228224  1
  H  H14  1  0.712686  0.089614  0.728224  1
  H  H15  1  0.287314  0.589614  0.771776  1
  H  H16  1  0.329921  0.615610  0.292527  1
  H  H17  1  0.670079  0.115610  0.207473  1
  H  H18  1  0.670079  0.384390  0.707473  1
  H  H19  1  0.329921  0.884390  0.792527  1
  H  H20  1  0.335760  0.708837  0.199704  1
  H  H21  1  0.664240  0.208837  0.300296  1
  H  H22  1  0.664240  0.291163  0.800296  1
  H  H23  1  0.335760  0.791163  0.699704  1
  H  H24  1  0.283911  0.638090  0.986331  1
  H  H25  1  0.716089  0.138090  0.513669  1
  H  H26  1  0.716089  0.361910  0.013669  1
  H  H27  1  0.283911  0.861910  0.486331  1
  H  H28  1  0.248294  0.902990  0.036149  1
  H  H29  1  0.751706  0.402990  0.463851  1
  H  H30  1  0.751706  0.097010  0.963851  1
  H  H31  1  0.248294  0.597010  0.536149  1
  H  H32  1  0.137381  0.658056  0.042553  1
  H  H33  1  0.862619  0.158056  0.457447  1
  H  H34  1  0.862619  0.341944  0.957447  1
  H  H35  1  0.137381  0.841944  0.542553  1
  H  H36  1  0.143715  0.830527  0.959948  1
  H  H37  1  0.856285  0.330527  0.540052  1
  H  H38  1  0.856285  0.169473  0.040052  1
  H  H39  1  0.143715  0.669473  0.459948  1
  S  S40  1  0.414638  0.261413  0.396750  1
  S  S41  1  0.585362  0.761413  0.103250  1
  S  S42  1  0.585362  0.738587  0.603250  1
  S  S43  1  0.414638  0.238587  0.896750  1
  S  S44  1  0.076187  0.231055  0.147344  1
  S  S45  1  0.923813  0.731055  0.352656  1
  S  S46  1  0.923813  0.768945  0.852656  1
  S  S47  1  0.076187  0.268945  0.647344  1
  N  N48  1  0.281295  0.728364  0.251660  1
  N  N49  1  0.718705  0.228364  0.248340  1
  N  N50  1  0.718705  0.271636  0.748340  1
  N  N51  1  0.281295  0.771636  0.751660  1
  N  N52  1  0.204041  0.758126  0.005564  1
  N  N53  1  0.795959  0.258126  0.494436  1
  N  N54  1  0.795959  0.241874  0.994436  1
  N  N55  1  0.204041  0.741874  0.505564  1
  O  O56  1  0.371217  0.217932  0.477153  1
  O  O57  1  0.628783  0.717932  0.022847  1
  O  O58  1  0.628783  0.782068  0.522847  1
  O  O59  1  0.371217  0.282068  0.977153  1
  O  O60  1  0.296321  0.174848  0.344876  1
  O  O61  1  0.703679  0.674848  0.155124  1
  O  O62  1  0.703679  0.825152  0.655124  1
  O  O63  1  0.296321  0.325152  0.844876  1
  O  O64  1  0.440124  0.532417  0.382840  1
  O  O65  1  0.559876  0.032417  0.117160  1
  O  O66  1  0.559876  0.467583  0.617160  1
  O  O67  1  0.440124  0.967583  0.882840  1
  O  O68  1  0.550334  0.118574  0.379679  1
  O  O69  1  0.449666  0.618574  0.120321  1
  O  O70  1  0.449666  0.881426  0.620321  1
  O  O71  1  0.550334  0.381426  0.879679  1
  O  O72  1  0.060248  0.234830  0.231000  1
  O  O73  1  0.939752  0.734830  0.269000  1
  O  O74  1  0.939752  0.765170  0.769000  1
  O  O75  1  0.060248  0.265170  0.731000  1
  O  O76  1  0.226050  0.156796  0.126106  1
  O  O77  1  0.773950  0.656796  0.373894  1
  O  O78  1  0.773950  0.843204  0.873894  1
  O  O79  1  0.226050  0.343204  0.626106  1
  O  O80  1  0.042057  0.484135  0.115752  1
  O  O81  1  0.957943  0.984135  0.384248  1
  O  O82  1  0.957943  0.515865  0.884248  1
  O  O83  1  0.042057  0.015865  0.615752  1
  O  O84  1  0.969952  0.048158  0.114040  1
  O  O85  1  0.030048  0.548158  0.385960  1
  O  O86  1  0.030048  0.951842  0.885960  1
  O  O87  1  0.969952  0.451842  0.614040  1
