# generated using pymatgen
data_Sr5Ta4O15
_symmetry_space_group_name_H-M   'P 1'
_cell_length_a   5.70889594
_cell_length_b   5.70889594
_cell_length_c   23.31537277
_cell_angle_alpha   90.00000000
_cell_angle_beta   90.00000000
_cell_angle_gamma   120.00000000
_symmetry_Int_Tables_number   1
_chemical_formula_structural   Sr5Ta4O15
_chemical_formula_sum   'Sr10 Ta8 O30'
_cell_volume   658.07781232
_cell_formula_units_Z   2
loop_
 _symmetry_equiv_pos_site_id
 _symmetry_equiv_pos_as_xyz
  1  'x, y, z'
loop_
 _atom_site_type_symbol
 _atom_site_label
 _atom_site_symmetry_multiplicity
 _atom_site_fract_x
 _atom_site_fract_y
 _atom_site_fract_z
 _atom_site_occupancy
  Sr  Sr0  1  0.333333  0.666667  0.638654  1
  Sr  Sr1  1  0.333333  0.666667  0.971927  1
  Sr  Sr2  1  0.000000  0.000000  0.750000  1
  Sr  Sr3  1  0.000000  0.000000  0.250000  1
  Sr  Sr4  1  0.333333  0.666667  0.471927  1
  Sr  Sr5  1  0.333333  0.666667  0.138654  1
  Sr  Sr6  1  0.666667  0.333333  0.528073  1
  Sr  Sr7  1  0.666667  0.333333  0.861346  1
  Sr  Sr8  1  0.666667  0.333333  0.028073  1
  Sr  Sr9  1  0.666667  0.333333  0.361346  1
  Ta  Ta10  1  0.333333  0.666667  0.801865  1
  Ta  Ta11  1  0.000000  0.000000  0.592768  1
  Ta  Ta12  1  0.000000  0.000000  0.907232  1
  Ta  Ta13  1  0.000000  0.000000  0.092768  1
  Ta  Ta14  1  0.000000  0.000000  0.407232  1
  Ta  Ta15  1  0.333333  0.666667  0.301865  1
  Ta  Ta16  1  0.666667  0.333333  0.698135  1
  Ta  Ta17  1  0.666667  0.333333  0.198135  1
  O  O18  1  0.101339  0.770224  0.055862  1
  O  O19  1  0.121971  0.790574  0.845584  1
  O  O20  1  0.000000  0.540307  0.250000  1
  O  O21  1  0.000000  0.459693  0.750000  1
  O  O22  1  0.209426  0.878029  0.345584  1
  O  O23  1  0.229776  0.898661  0.555862  1
  O  O24  1  0.101339  0.331115  0.555862  1
  O  O25  1  0.121971  0.331398  0.345584  1
  O  O26  1  0.209426  0.331398  0.845584  1
  O  O27  1  0.229776  0.331115  0.055862  1
  O  O28  1  0.331115  0.229776  0.444138  1
  O  O29  1  0.668885  0.898661  0.055862  1
  O  O30  1  0.668602  0.878029  0.845584  1
  O  O31  1  0.331398  0.209426  0.654416  1
  O  O32  1  0.459693  0.459693  0.250000  1
  O  O33  1  0.540307  0.540307  0.750000  1
  O  O34  1  0.668602  0.790574  0.345584  1
  O  O35  1  0.331398  0.121971  0.154416  1
  O  O36  1  0.331115  0.101339  0.944138  1
  O  O37  1  0.668885  0.770224  0.555862  1
  O  O38  1  0.770224  0.668885  0.944138  1
  O  O39  1  0.790574  0.668602  0.154416  1
  O  O40  1  0.459693  0.000000  0.750000  1
  O  O41  1  0.540307  0.000000  0.250000  1
  O  O42  1  0.878029  0.668602  0.654416  1
  O  O43  1  0.898661  0.668885  0.444138  1
  O  O44  1  0.770224  0.101339  0.444138  1
  O  O45  1  0.790574  0.121971  0.654416  1
  O  O46  1  0.878029  0.209426  0.154416  1
  O  O47  1  0.898661  0.229776  0.944138  1
