# generated using pymatgen
data_DyNbO4
_symmetry_space_group_name_H-M   'P 1'
_cell_length_a   6.17901252
_cell_length_b   6.17901252
_cell_length_c   6.17901252
_cell_angle_alpha   107.22993660
_cell_angle_beta   107.22993660
_cell_angle_gamma   114.05326407
_symmetry_Int_Tables_number   1
_chemical_formula_structural   DyNbO4
_chemical_formula_sum   'Dy2 Nb2 O8'
_cell_volume   180.72982936
_cell_formula_units_Z   2
loop_
 _symmetry_equiv_pos_site_id
 _symmetry_equiv_pos_as_xyz
  1  'x, y, z'
loop_
 _atom_site_type_symbol
 _atom_site_label
 _atom_site_symmetry_multiplicity
 _atom_site_fract_x
 _atom_site_fract_y
 _atom_site_fract_z
 _atom_site_occupancy
  Dy  Dy0  1  0.500000  0.500000  0.000000  1
  Dy  Dy1  1  0.750000  0.250000  0.500000  1
  Nb  Nb2  1  0.250000  0.750000  0.500000  1
  Nb  Nb3  1  1.000000  0.000000  0.000000  1
  O  O4  1  0.260927  0.567826  0.693101  1
  O  O5  1  0.432174  0.125276  0.693101  1
  O  O6  1  0.432174  0.739073  0.306899  1
  O  O7  1  0.874724  0.567826  0.306899  1
  O  O8  1  0.375276  0.182174  0.193101  1
  O  O9  1  0.817826  0.624724  0.806899  1
  O  O10  1  0.817826  0.010927  0.193101  1
  O  O11  1  0.989073  0.182174  0.806899  1
