# generated using pymatgen
data_Li3Cr3GaO8
_symmetry_space_group_name_H-M   'P 1'
_cell_length_a   5.18233796
_cell_length_b   5.91950415
_cell_length_c   10.63268305
_cell_angle_alpha   105.77394978
_cell_angle_beta   94.69765284
_cell_angle_gamma   107.14899312
_symmetry_Int_Tables_number   1
_chemical_formula_structural   Li3Cr3GaO8
_chemical_formula_sum   'Li6 Cr6 Ga2 O16'
_cell_volume   295.24453025
_cell_formula_units_Z   2
loop_
 _symmetry_equiv_pos_site_id
 _symmetry_equiv_pos_as_xyz
  1  'x, y, z'
loop_
 _atom_site_type_symbol
 _atom_site_label
 _atom_site_symmetry_multiplicity
 _atom_site_fract_x
 _atom_site_fract_y
 _atom_site_fract_z
 _atom_site_occupancy
  Li  Li0  1  0.994204  0.486485  0.001237  1
  Li  Li1  1  0.256542  0.874796  0.746836  1
  Li  Li2  1  0.495897  0.747204  0.501816  1
  Li  Li3  1  0.753513  0.628010  0.249098  1
  Li  Li4  1  0.996814  0.010559  0.003196  1
  Li  Li5  1  0.497181  0.250773  0.501221  1
  Cr  Cr6  1  0.616425  0.683579  0.874380  1
  Cr  Cr7  1  0.621792  0.189138  0.872773  1
  Cr  Cr8  1  0.125972  0.937889  0.374320  1
  Cr  Cr9  1  0.385156  0.816234  0.125466  1
  Cr  Cr10  1  0.887948  0.067720  0.625856  1
  Cr  Cr11  1  0.112828  0.433077  0.372718  1
  Ga  Ga12  1  0.872475  0.560973  0.625750  1
  Ga  Ga13  1  0.377951  0.306174  0.129058  1
  O  O14  1  0.338193  0.843550  0.938137  1
  O  O15  1  0.340727  0.355636  0.943027  1
  O  O16  1  0.596282  0.733166  0.690353  1
  O  O17  1  0.100443  0.970092  0.187292  1
  O  O18  1  0.602133  0.222687  0.685407  1
  O  O19  1  0.831512  0.596865  0.438611  1
  O  O20  1  0.094458  0.479329  0.192535  1
  O  O21  1  0.847666  0.106253  0.440984  1
  O  O22  1  0.168458  0.899629  0.560859  1
  O  O23  1  0.896322  0.534640  0.813528  1
  O  O24  1  0.893382  0.006539  0.816152  1
  O  O25  1  0.395040  0.756805  0.316149  1
  O  O26  1  0.166187  0.410878  0.548585  1
  O  O27  1  0.668026  0.652045  0.056913  1
  O  O28  1  0.399920  0.283912  0.313475  1
  O  O29  1  0.666648  0.155519  0.054150  1
