# generated using pymatgen
data_Li6Mn5FeO12
_symmetry_space_group_name_H-M   'P 1'
_cell_length_a   5.30821580
_cell_length_b   5.30821580
_cell_length_c   10.25008612
_cell_angle_alpha   89.19312601
_cell_angle_beta   90.80687399
_cell_angle_gamma   57.61344956
_symmetry_Int_Tables_number   1
_chemical_formula_structural   Li6Mn5FeO12
_chemical_formula_sum   'Li6 Mn5 Fe1 O12'
_cell_volume   243.78947242
_cell_formula_units_Z   1
loop_
 _symmetry_equiv_pos_site_id
 _symmetry_equiv_pos_as_xyz
  1  'x, y, z'
loop_
 _atom_site_type_symbol
 _atom_site_label
 _atom_site_symmetry_multiplicity
 _atom_site_fract_x
 _atom_site_fract_y
 _atom_site_fract_z
 _atom_site_occupancy
  Li  Li0  1  0.003880  0.665692  0.224544  1
  Li  Li1  1  0.331906  0.668094  0.775849  1
  Li  Li2  1  0.334308  0.996120  0.224544  1
  Li  Li3  1  0.668094  0.331906  0.224151  1
  Li  Li4  1  0.665692  0.003880  0.775456  1
  Li  Li5  1  0.996120  0.334308  0.775456  1
  Mn  Mn6  1  0.335319  0.335319  0.000000  1
  Mn  Mn7  1  0.166478  0.166478  0.500000  1
  Mn  Mn8  1  0.500000  0.500000  0.500000  1
  Mn  Mn9  1  0.664681  0.664681  0.000000  1
  Mn  Mn10  1  0.833522  0.833522  0.500000  1
  Fe  Fe11  1  0.000000  0.000000  0.000000  1
  O  O12  1  0.186191  0.813809  0.601890  1
  O  O13  1  0.148425  0.518960  0.398516  1
  O  O14  1  0.988457  0.332526  0.112343  1
  O  O15  1  0.321148  0.678852  0.117006  1
  O  O16  1  0.678852  0.321148  0.882994  1
  O  O17  1  0.332526  0.988457  0.887657  1
  O  O18  1  0.518960  0.148425  0.601484  1
  O  O19  1  0.481040  0.851575  0.398516  1
  O  O20  1  0.813809  0.186191  0.398110  1
  O  O21  1  0.667474  0.011543  0.112343  1
  O  O22  1  0.011543  0.667474  0.887657  1
  O  O23  1  0.851575  0.481040  0.601484  1
