# generated using pymatgen
data_LiFeOF2
_symmetry_space_group_name_H-M   'P 1'
_cell_length_a   5.29702861
_cell_length_b   8.95536070
_cell_length_c   9.86519723
_cell_angle_alpha   89.71953392
_cell_angle_beta   81.49254968
_cell_angle_gamma   89.89808555
_symmetry_Int_Tables_number   1
_chemical_formula_structural   LiFeOF2
_chemical_formula_sum   'Li8 Fe8 O8 F16'
_cell_volume   462.81831594
_cell_formula_units_Z   8
loop_
 _symmetry_equiv_pos_site_id
 _symmetry_equiv_pos_as_xyz
  1  'x, y, z'
loop_
 _atom_site_type_symbol
 _atom_site_label
 _atom_site_symmetry_multiplicity
 _atom_site_fract_x
 _atom_site_fract_y
 _atom_site_fract_z
 _atom_site_occupancy
  Li  Li0  1  0.802811  0.597747  0.802572  1
  Li  Li1  1  0.191200  0.899718  0.694359  1
  Li  Li2  1  0.299286  0.409052  0.805221  1
  Li  Li3  1  0.691252  0.083979  0.696887  1
  Li  Li4  1  0.317564  0.909312  0.318155  1
  Li  Li5  1  0.676067  0.594015  0.190194  1
  Li  Li6  1  0.824502  0.086109  0.316532  1
  Li  Li7  1  0.177525  0.410692  0.178394  1
  Fe  Fe8  1  0.762010  0.269869  0.983755  1
  Fe  Fe9  1  0.757740  0.906751  0.982853  1
  Fe  Fe10  1  0.258721  0.093843  0.980828  1
  Fe  Fe11  1  0.260358  0.733514  0.986163  1
  Fe  Fe12  1  0.259395  0.234028  0.507600  1
  Fe  Fe13  1  0.259637  0.598316  0.511563  1
  Fe  Fe14  1  0.736187  0.429439  0.502766  1
  Fe  Fe15  1  0.733682  0.758543  0.508964  1
  O  O16  1  0.120346  0.913884  0.900382  1
  O  O17  1  0.621627  0.090098  0.903137  1
  O  O18  1  0.600247  0.753599  0.899368  1
  O  O19  1  0.098287  0.247182  0.898704  1
  O  O20  1  0.400133  0.746263  0.610035  1
  O  O21  1  0.379718  0.406096  0.599867  1
  O  O22  1  0.893615  0.584362  0.599401  1
  O  O23  1  0.609592  0.584630  0.391986  1
  F  F24  1  0.122734  0.583931  0.875599  1
  F  F25  1  0.629114  0.413984  0.865480  1
  F  F26  1  0.870470  0.912832  0.625321  1
  F  F27  1  0.895929  0.250294  0.599636  1
  F  F28  1  0.363550  0.086729  0.630409  1
  F  F29  1  0.643539  0.913121  0.377889  1
  F  F30  1  0.109407  0.402539  0.384448  1
  F  F31  1  0.103586  0.748768  0.389105  1
  F  F32  1  0.151657  0.093117  0.377791  1
  F  F33  1  0.609954  0.248825  0.393299  1
  F  F34  1  0.898296  0.756902  0.110658  1
  F  F35  1  0.896233  0.080758  0.118709  1
  F  F36  1  0.342958  0.593626  0.128210  1
  F  F37  1  0.397449  0.247147  0.109370  1
  F  F38  1  0.391979  0.917607  0.117815  1
  F  F39  1  0.841641  0.408783  0.126576  1
