# generated using pymatgen
data_LiVSiO4
_symmetry_space_group_name_H-M   'P 1'
_cell_length_a   4.90239969
_cell_length_b   6.33172044
_cell_length_c   9.13640417
_cell_angle_alpha   90.00000000
_cell_angle_beta   90.00000000
_cell_angle_gamma   90.00000000
_symmetry_Int_Tables_number   1
_chemical_formula_structural   LiVSiO4
_chemical_formula_sum   'Li4 V4 Si4 O16'
_cell_volume   283.59968961
_cell_formula_units_Z   4
loop_
 _symmetry_equiv_pos_site_id
 _symmetry_equiv_pos_as_xyz
  1  'x, y, z'
loop_
 _atom_site_type_symbol
 _atom_site_label
 _atom_site_symmetry_multiplicity
 _atom_site_fract_x
 _atom_site_fract_y
 _atom_site_fract_z
 _atom_site_occupancy
  Li  Li0  1  0.024192  0.250000  0.165503  1
  Li  Li1  1  0.524192  0.750000  0.334497  1
  Li  Li2  1  0.475808  0.250000  0.665503  1
  Li  Li3  1  0.975808  0.750000  0.834497  1
  V  V4  1  0.500000  0.000000  0.000000  1
  V  V5  1  0.500000  0.500000  0.000000  1
  V  V6  1  0.000000  0.000000  0.500000  1
  V  V7  1  0.000000  0.500000  0.500000  1
  Si  Si8  1  0.023449  0.750000  0.178421  1
  Si  Si9  1  0.523449  0.250000  0.321579  1
  Si  Si10  1  0.476551  0.750000  0.678421  1
  Si  Si11  1  0.976551  0.250000  0.821579  1
  O  O12  1  0.697343  0.750000  0.124999  1
  O  O13  1  0.169992  0.964880  0.119031  1
  O  O14  1  0.169992  0.535120  0.119031  1
  O  O15  1  0.591259  0.250000  0.140840  1
  O  O16  1  0.091259  0.750000  0.359160  1
  O  O17  1  0.669992  0.035120  0.380969  1
  O  O18  1  0.669992  0.464880  0.380969  1
  O  O19  1  0.197343  0.250000  0.375001  1
  O  O20  1  0.802657  0.750000  0.624999  1
  O  O21  1  0.330008  0.964880  0.619031  1
  O  O22  1  0.330008  0.535120  0.619031  1
  O  O23  1  0.908741  0.250000  0.640840  1
  O  O24  1  0.408741  0.750000  0.859160  1
  O  O25  1  0.830008  0.464880  0.880969  1
  O  O26  1  0.830008  0.035120  0.880969  1
  O  O27  1  0.302657  0.250000  0.875001  1
