# generated using pymatgen
data_Li2CoO3
_symmetry_space_group_name_H-M   'P 1'
_cell_length_a   9.10554473
_cell_length_b   9.10554473
_cell_length_c   3.27154984
_cell_angle_alpha   90.00000000
_cell_angle_beta   90.00000000
_cell_angle_gamma   90.00000000
_symmetry_Int_Tables_number   1
_chemical_formula_structural   Li2CoO3
_chemical_formula_sum   'Li8 Co4 O12'
_cell_volume   271.24728825
_cell_formula_units_Z   4
loop_
 _symmetry_equiv_pos_site_id
 _symmetry_equiv_pos_as_xyz
  1  'x, y, z'
loop_
 _atom_site_type_symbol
 _atom_site_label
 _atom_site_symmetry_multiplicity
 _atom_site_fract_x
 _atom_site_fract_y
 _atom_site_fract_z
 _atom_site_occupancy
  Li  Li0  1  0.320010  0.111926  0.500000  1
  Li  Li1  1  0.611926  0.179990  0.000000  1
  Li  Li2  1  0.111926  0.320010  0.500000  1
  Li  Li3  1  0.820010  0.388074  0.000000  1
  Li  Li4  1  0.179990  0.611926  0.000000  1
  Li  Li5  1  0.888074  0.679990  0.500000  1
  Li  Li6  1  0.388074  0.820010  0.000000  1
  Li  Li7  1  0.679990  0.888074  0.500000  1
  Co  Co8  1  0.889711  0.110289  0.500000  1
  Co  Co9  1  0.389711  0.389711  0.000000  1
  Co  Co10  1  0.610289  0.610289  0.000000  1
  Co  Co11  1  0.110289  0.889711  0.500000  1
  O  O12  1  0.093541  0.093541  0.500000  1
  O  O13  1  0.699691  0.098261  0.500000  1
  O  O14  1  0.401739  0.199691  0.000000  1
  O  O15  1  0.901739  0.300309  0.500000  1
  O  O16  1  0.199691  0.401739  0.000000  1
  O  O17  1  0.593541  0.406459  0.000000  1
  O  O18  1  0.406459  0.593541  0.000000  1
  O  O19  1  0.800309  0.598261  0.000000  1
  O  O20  1  0.098261  0.699691  0.500000  1
  O  O21  1  0.598261  0.800309  0.000000  1
  O  O22  1  0.300309  0.901739  0.500000  1
  O  O23  1  0.906459  0.906459  0.500000  1
