# generated using pymatgen
data_Li2CoSnO4
_symmetry_space_group_name_H-M   'P 1'
_cell_length_a   5.26680592
_cell_length_b   3.09340173
_cell_length_c   5.36488791
_cell_angle_alpha   90.00000000
_cell_angle_beta   109.84588373
_cell_angle_gamma   90.00000000
_symmetry_Int_Tables_number   1
_chemical_formula_structural   Li2CoSnO4
_chemical_formula_sum   'Li2 Co1 Sn1 O4'
_cell_volume   82.21546416
_cell_formula_units_Z   1
loop_
 _symmetry_equiv_pos_site_id
 _symmetry_equiv_pos_as_xyz
  1  'x, y, z'
loop_
 _atom_site_type_symbol
 _atom_site_label
 _atom_site_symmetry_multiplicity
 _atom_site_fract_x
 _atom_site_fract_y
 _atom_site_fract_z
 _atom_site_occupancy
  Li  Li0  1  0.000000  0.000000  0.000000  1
  Li  Li1  1  0.000000  0.500000  0.500000  1
  Co  Co2  1  0.500000  0.000000  0.500000  1
  Sn  Sn3  1  0.500000  0.500000  0.000000  1
  O  O4  1  0.742955  0.000000  0.235778  1
  O  O5  1  0.724489  0.500000  0.749725  1
  O  O6  1  0.257045  0.000000  0.764222  1
  O  O7  1  0.275511  0.500000  0.250275  1
