# generated using pymatgen
data_Fe3(O2F)2
_symmetry_space_group_name_H-M   'P 1'
_cell_length_a   4.69479514
_cell_length_b   5.59838589
_cell_length_c   7.69033593
_cell_angle_alpha   85.45660520
_cell_angle_beta   88.84244532
_cell_angle_gamma   87.80648980
_symmetry_Int_Tables_number   1
_chemical_formula_structural   Fe3(O2F)2
_chemical_formula_sum   'Fe6 O8 F4'
_cell_volume   201.31449983
_cell_formula_units_Z   2
loop_
 _symmetry_equiv_pos_site_id
 _symmetry_equiv_pos_as_xyz
  1  'x, y, z'
loop_
 _atom_site_type_symbol
 _atom_site_label
 _atom_site_symmetry_multiplicity
 _atom_site_fract_x
 _atom_site_fract_y
 _atom_site_fract_z
 _atom_site_occupancy
  Fe  Fe0  1  0.491612  0.833805  0.667956  1
  Fe  Fe1  1  0.512269  0.496603  0.987176  1
  Fe  Fe2  1  0.533676  0.168737  0.344995  1
  Fe  Fe3  1  0.009489  0.334549  0.669125  1
  Fe  Fe4  1  0.949429  0.657171  0.325048  1
  Fe  Fe5  1  0.003348  0.003468  0.003355  1
  O  O6  1  0.818355  0.363877  0.442744  1
  O  O7  1  0.803626  0.711561  0.095910  1
  O  O8  1  0.696568  0.208680  0.105295  1
  O  O9  1  0.698806  0.542288  0.758085  1
  O  O10  1  0.687510  0.863644  0.444849  1
  O  O11  1  0.306655  0.128550  0.570644  1
  O  O12  1  0.302621  0.793789  0.891848  1
  O  O13  1  0.188429  0.293030  0.895245  1
  F  F14  1  0.799699  0.036982  0.768917  1
  F  F15  1  0.304234  0.469601  0.235142  1
  F  F16  1  0.196448  0.961213  0.239137  1
  F  F17  1  0.197226  0.632453  0.554529  1
