# generated using pymatgen
data_Fe13O15
_symmetry_space_group_name_H-M   'P 1'
_cell_length_a   5.30417619
_cell_length_b   6.88353691
_cell_length_c   9.06719198
_cell_angle_alpha   72.64091400
_cell_angle_beta   74.05742295
_cell_angle_gamma   83.68671551
_symmetry_Int_Tables_number   1
_chemical_formula_structural   Fe13O15
_chemical_formula_sum   'Fe13 O15'
_cell_volume   303.68337988
_cell_formula_units_Z   1
loop_
 _symmetry_equiv_pos_site_id
 _symmetry_equiv_pos_as_xyz
  1  'x, y, z'
loop_
 _atom_site_type_symbol
 _atom_site_label
 _atom_site_symmetry_multiplicity
 _atom_site_fract_x
 _atom_site_fract_y
 _atom_site_fract_z
 _atom_site_occupancy
  Fe  Fe0  1  0.252466  0.598327  0.438244  1
  Fe  Fe1  1  0.607663  0.586690  0.099106  1
  Fe  Fe2  1  0.802930  0.789975  0.294219  1
  Fe  Fe3  1  0.117293  0.774286  0.975341  1
  Fe  Fe4  1  0.460404  0.793074  0.637365  1
  Fe  Fe5  1  0.000000  0.000000  0.500000  1
  Fe  Fe6  1  0.882707  0.225714  0.024659  1
  Fe  Fe7  1  0.318036  0.018721  0.170616  1
  Fe  Fe8  1  0.539596  0.206926  0.362635  1
  Fe  Fe9  1  0.681964  0.981279  0.829384  1
  Fe  Fe10  1  0.197070  0.210025  0.705781  1
  Fe  Fe11  1  0.392337  0.413310  0.900894  1
  Fe  Fe12  1  0.747534  0.401673  0.561756  1
  O  O13  1  0.520277  0.716936  0.870826  1
  O  O14  1  0.720835  0.904685  0.067084  1
  O  O15  1  0.848376  0.717535  0.515215  1
  O  O16  1  0.071657  0.925101  0.735284  1
  O  O17  1  0.198393  0.733332  0.205325  1
  O  O18  1  0.412450  0.909484  0.389637  1
  O  O19  1  0.587550  0.090516  0.610363  1
  O  O20  1  0.279165  0.095315  0.932916  1
  O  O21  1  0.928343  0.074899  0.264716  1
  O  O22  1  0.479723  0.283064  0.129174  1
  O  O23  1  0.650655  0.512315  0.336170  1
  O  O24  1  0.801607  0.266668  0.794675  1
  O  O25  1  0.151624  0.282465  0.484785  1
  O  O26  1  0.349345  0.487685  0.663830  1
  O  O27  1  0.000000  0.500000  0.000000  1
