# generated using pymatgen
data_V(PO3)3
_symmetry_space_group_name_H-M   'P 1'
_cell_length_a   8.49120522
_cell_length_b   8.55803023
_cell_length_c   9.06102301
_cell_angle_alpha   90.00000000
_cell_angle_beta   90.00000000
_cell_angle_gamma   90.00000000
_symmetry_Int_Tables_number   1
_chemical_formula_structural   V(PO3)3
_chemical_formula_sum   'V4 P12 O36'
_cell_volume   658.44633820
_cell_formula_units_Z   4
loop_
 _symmetry_equiv_pos_site_id
 _symmetry_equiv_pos_as_xyz
  1  'x, y, z'
loop_
 _atom_site_type_symbol
 _atom_site_label
 _atom_site_symmetry_multiplicity
 _atom_site_fract_x
 _atom_site_fract_y
 _atom_site_fract_z
 _atom_site_occupancy
  V  V0  1  0.653509  0.629238  0.611065  1
  V  V1  1  0.846491  0.370762  0.111065  1
  V  V2  1  0.346491  0.129238  0.888935  1
  V  V3  1  0.153509  0.870762  0.388935  1
  P  P4  1  0.801439  0.687355  0.924947  1
  P  P5  1  0.026151  0.684052  0.678702  1
  P  P6  1  0.189122  0.530085  0.193884  1
  P  P7  1  0.310878  0.469915  0.693884  1
  P  P8  1  0.473849  0.315948  0.178702  1
  P  P9  1  0.698561  0.312645  0.424947  1
  P  P10  1  0.198561  0.187355  0.575053  1
  P  P11  1  0.973849  0.184052  0.821298  1
  P  P12  1  0.810878  0.030085  0.306116  1
  P  P13  1  0.689122  0.969915  0.806116  1
  P  P14  1  0.526151  0.815948  0.321298  1
  P  P15  1  0.301439  0.812645  0.075053  1
  O  O16  1  0.964358  0.734157  0.839515  1
  O  O17  1  0.616579  0.684675  0.392873  1
  O  O18  1  0.228787  0.639763  0.051051  1
  O  O19  1  0.840438  0.616012  0.071171  1
  O  O20  1  0.889314  0.621971  0.590624  1
  O  O21  1  0.148474  0.630642  0.324324  1
  O  O22  1  0.420400  0.598072  0.646621  1
  O  O23  1  0.694458  0.593148  0.826346  1
  O  O24  1  0.141629  0.545998  0.726623  1
  O  O25  1  0.358371  0.454002  0.226623  1
  O  O26  1  0.805542  0.406852  0.326346  1
  O  O27  1  0.079600  0.401928  0.146621  1
  O  O28  1  0.351526  0.369358  0.824324  1
  O  O29  1  0.610686  0.378029  0.090624  1
  O  O30  1  0.659562  0.383988  0.571171  1
  O  O31  1  0.271213  0.360237  0.551051  1
  O  O32  1  0.883421  0.315325  0.892873  1
  O  O33  1  0.535642  0.265843  0.339515  1
  O  O34  1  0.035642  0.234157  0.660485  1
  O  O35  1  0.383421  0.184675  0.107127  1
  O  O36  1  0.771213  0.139763  0.448949  1
  O  O37  1  0.159562  0.116012  0.428829  1
  O  O38  1  0.110686  0.121971  0.909376  1
  O  O39  1  0.851526  0.130642  0.175676  1
  O  O40  1  0.579600  0.098072  0.853379  1
  O  O41  1  0.305542  0.093148  0.673654  1
  O  O42  1  0.858371  0.045998  0.773377  1
  O  O43  1  0.641629  0.954002  0.273377  1
  O  O44  1  0.194458  0.906852  0.173654  1
  O  O45  1  0.920400  0.901928  0.353379  1
  O  O46  1  0.648474  0.869358  0.675676  1
  O  O47  1  0.389314  0.878029  0.409376  1
  O  O48  1  0.340438  0.883988  0.928829  1
  O  O49  1  0.728787  0.860237  0.948949  1
  O  O50  1  0.116579  0.815325  0.607127  1
  O  O51  1  0.464358  0.765843  0.160485  1
