# generated using pymatgen
data_Li2MnFeO4
_symmetry_space_group_name_H-M   'P 1'
_cell_length_a   5.10116392
_cell_length_b   3.04173115
_cell_length_c   5.14113317
_cell_angle_alpha   90.00000000
_cell_angle_beta   107.57334003
_cell_angle_gamma   90.00000000
_symmetry_Int_Tables_number   1
_chemical_formula_structural   Li2MnFeO4
_chemical_formula_sum   'Li2 Mn1 Fe1 O4'
_cell_volume   76.04887474
_cell_formula_units_Z   1
loop_
 _symmetry_equiv_pos_site_id
 _symmetry_equiv_pos_as_xyz
  1  'x, y, z'
loop_
 _atom_site_type_symbol
 _atom_site_label
 _atom_site_symmetry_multiplicity
 _atom_site_fract_x
 _atom_site_fract_y
 _atom_site_fract_z
 _atom_site_occupancy
  Li  Li0  1  0.000000  0.000000  0.000000  1
  Li  Li1  1  0.500000  0.500000  0.000000  1
  Mn  Mn2  1  0.000000  0.500000  0.500000  1
  Fe  Fe3  1  0.500000  0.000000  0.500000  1
  O  O4  1  0.747750  0.000000  0.263049  1
  O  O5  1  0.250260  0.500000  0.278815  1
  O  O6  1  0.252250  0.000000  0.736951  1
  O  O7  1  0.749740  0.500000  0.721185  1
