# generated using pymatgen
data_Li2Fe3CoO8
_symmetry_space_group_name_H-M   'P 1'
_cell_length_a   8.25131679
_cell_length_b   8.34687355
_cell_length_c   11.68807804
_cell_angle_alpha   90.00000000
_cell_angle_beta   134.92500929
_cell_angle_gamma   90.00000000
_symmetry_Int_Tables_number   1
_chemical_formula_structural   Li2Fe3CoO8
_chemical_formula_sum   'Li8 Fe12 Co4 O32'
_cell_volume   569.95803011
_cell_formula_units_Z   4
loop_
 _symmetry_equiv_pos_site_id
 _symmetry_equiv_pos_as_xyz
  1  'x, y, z'
loop_
 _atom_site_type_symbol
 _atom_site_label
 _atom_site_symmetry_multiplicity
 _atom_site_fract_x
 _atom_site_fract_y
 _atom_site_fract_z
 _atom_site_occupancy
  Li  Li0  1  0.995677  0.877983  0.873045  1
  Li  Li1  1  0.753042  0.752149  0.501775  1
  Li  Li2  1  0.252157  0.248602  0.002700  1
  Li  Li3  1  0.749290  0.122276  0.371360  1
  Li  Li4  1  0.250710  0.622276  0.628640  1
  Li  Li5  1  0.747843  0.748602  0.997300  1
  Li  Li6  1  0.246958  0.252149  0.498225  1
  Li  Li7  1  0.004323  0.377983  0.126955  1
  Fe  Fe8  1  0.250730  0.622055  0.127933  1
  Fe  Fe9  1  0.493177  0.378315  0.371153  1
  Fe  Fe10  1  0.750347  0.120933  0.625888  1
  Fe  Fe11  1  0.504960  0.877515  0.127195  1
  Fe  Fe12  1  0.247620  0.624474  0.871208  1
  Fe  Fe13  1  0.004830  0.376065  0.625115  1
  Fe  Fe14  1  0.995170  0.876065  0.374885  1
  Fe  Fe15  1  0.752380  0.124474  0.128792  1
  Fe  Fe16  1  0.495040  0.377515  0.872805  1
  Fe  Fe17  1  0.249653  0.620933  0.374112  1
  Fe  Fe18  1  0.506823  0.878315  0.628847  1
  Fe  Fe19  1  0.749270  0.122055  0.872067  1
  Co  Co20  1  0.750371  0.499696  0.751380  1
  Co  Co21  1  0.750460  0.499208  0.249199  1
  Co  Co22  1  0.249540  0.999208  0.750801  1
  Co  Co23  1  0.249629  0.999696  0.248620  1
  O  O24  1  0.963794  0.126436  0.861551  1
  O  O25  1  0.727615  0.891708  0.622224  1
  O  O26  1  0.476927  0.610988  0.362492  1
  O  O27  1  0.272482  0.395781  0.144855  1
  O  O28  1  0.507833  0.147382  0.386043  1
  O  O29  1  0.744563  0.364220  0.610113  1
  O  O30  1  0.031717  0.622718  0.895609  1
  O  O31  1  0.272565  0.858166  0.127673  1
  O  O32  1  0.986774  0.139496  0.625891  1
  O  O33  1  0.744854  0.377018  0.387132  1
  O  O34  1  0.475249  0.638268  0.113327  1
  O  O35  1  0.272356  0.860236  0.892944  1
  O  O36  1  0.017901  0.611249  0.645403  1
  O  O37  1  0.257991  0.382641  0.868847  1
  O  O38  1  0.517919  0.102900  0.122282  1
  O  O39  1  0.751008  0.873438  0.354889  1
  O  O40  1  0.248992  0.373438  0.645111  1
  O  O41  1  0.482081  0.602900  0.877718  1
  O  O42  1  0.742009  0.882641  0.131153  1
  O  O43  1  0.982099  0.111249  0.354597  1
  O  O44  1  0.727644  0.360236  0.107056  1
  O  O45  1  0.524751  0.138268  0.886673  1
  O  O46  1  0.255146  0.877018  0.612868  1
  O  O47  1  0.013226  0.639496  0.374109  1
  O  O48  1  0.727435  0.358166  0.872327  1
  O  O49  1  0.968283  0.122718  0.104391  1
  O  O50  1  0.255437  0.864220  0.389887  1
  O  O51  1  0.492167  0.647382  0.613957  1
  O  O52  1  0.727518  0.895781  0.855145  1
  O  O53  1  0.523073  0.110988  0.637508  1
  O  O54  1  0.272385  0.391708  0.377776  1
  O  O55  1  0.036206  0.626436  0.138449  1
