# generated using pymatgen
data_Li3TiV4O8
_symmetry_space_group_name_H-M   'P 1'
_cell_length_a   6.04265349
_cell_length_b   6.04265349
_cell_length_c   6.08503335
_cell_angle_alpha   60.21765016
_cell_angle_beta   119.78234984
_cell_angle_gamma   119.57192303
_symmetry_Int_Tables_number   1
_chemical_formula_structural   Li3TiV4O8
_chemical_formula_sum   'Li3 Ti1 V4 O8'
_cell_volume   158.13167502
_cell_formula_units_Z   1
loop_
 _symmetry_equiv_pos_site_id
 _symmetry_equiv_pos_as_xyz
  1  'x, y, z'
loop_
 _atom_site_type_symbol
 _atom_site_label
 _atom_site_symmetry_multiplicity
 _atom_site_fract_x
 _atom_site_fract_y
 _atom_site_fract_z
 _atom_site_occupancy
  Li  Li0  1  0.500000  0.000000  0.500000  1
  Li  Li1  1  0.000000  0.500000  0.500000  1
  Li  Li2  1  0.000000  0.000000  0.500000  1
  Ti  Ti3  1  0.500000  0.500000  0.000000  1
  V  V4  1  0.000000  0.000000  0.000000  1
  V  V5  1  0.000000  0.500000  0.000000  1
  V  V6  1  0.500000  0.000000  0.000000  1
  V  V7  1  0.500000  0.500000  0.500000  1
  O  O8  1  0.733660  0.266340  0.226159  1
  O  O9  1  0.734810  0.741169  0.234203  1
  O  O10  1  0.258831  0.265190  0.234203  1
  O  O11  1  0.266340  0.733660  0.773841  1
  O  O12  1  0.249912  0.750088  0.237957  1
  O  O13  1  0.265190  0.258831  0.765797  1
  O  O14  1  0.741169  0.734810  0.765797  1
  O  O15  1  0.750088  0.249912  0.762043  1
