# generated using pymatgen
data_VCoO4
_symmetry_space_group_name_H-M   'P 1'
_cell_length_a   4.98432212
_cell_length_b   4.98432212
_cell_length_c   5.86303345
_cell_angle_alpha   90.00000000
_cell_angle_beta   90.00000000
_cell_angle_gamma   112.93466753
_symmetry_Int_Tables_number   1
_chemical_formula_structural   VCoO4
_chemical_formula_sum   'V2 Co2 O8'
_cell_volume   134.14377663
_cell_formula_units_Z   2
loop_
 _symmetry_equiv_pos_site_id
 _symmetry_equiv_pos_as_xyz
  1  'x, y, z'
loop_
 _atom_site_type_symbol
 _atom_site_label
 _atom_site_symmetry_multiplicity
 _atom_site_fract_x
 _atom_site_fract_y
 _atom_site_fract_z
 _atom_site_occupancy
  V  V0  1  0.648027  0.351973  0.250000  1
  V  V1  1  0.351973  0.648027  0.750000  1
  Co  Co2  1  0.000000  0.000000  0.000000  1
  Co  Co3  1  0.000000  0.000000  0.500000  1
  O  O4  1  0.772886  0.227114  0.023728  1
  O  O5  1  0.772886  0.227114  0.476272  1
  O  O6  1  0.248001  0.210995  0.250000  1
  O  O7  1  0.210995  0.248001  0.750000  1
  O  O8  1  0.789005  0.751999  0.250000  1
  O  O9  1  0.751999  0.789005  0.750000  1
  O  O10  1  0.227114  0.772886  0.976272  1
  O  O11  1  0.227114  0.772886  0.523728  1
