# generated using pymatgen
data_Li10V(SiO5)2
_symmetry_space_group_name_H-M   'P 1'
_cell_length_a   15.31371145
_cell_length_b   15.31371145
_cell_length_c   5.14641472
_cell_angle_alpha   81.15592658
_cell_angle_beta   98.84407342
_cell_angle_gamma   156.88638297
_symmetry_Int_Tables_number   1
_chemical_formula_structural   Li10V(SiO5)2
_chemical_formula_sum   'Li20 V2 Si4 O20'
_cell_volume   467.89945629
_cell_formula_units_Z   2
loop_
 _symmetry_equiv_pos_site_id
 _symmetry_equiv_pos_as_xyz
  1  'x, y, z'
loop_
 _atom_site_type_symbol
 _atom_site_label
 _atom_site_symmetry_multiplicity
 _atom_site_fract_x
 _atom_site_fract_y
 _atom_site_fract_z
 _atom_site_occupancy
  Li  Li0  1  0.490375  0.509625  0.740007  1
  Li  Li1  1  0.216911  0.348987  0.111623  1
  Li  Li2  1  0.651013  0.783089  0.111623  1
  Li  Li3  1  0.868460  0.131540  0.221379  1
  Li  Li4  1  0.087144  0.351195  0.766377  1
  Li  Li5  1  0.648805  0.912856  0.766377  1
  Li  Li6  1  0.324289  0.675711  0.067649  1
  Li  Li7  1  0.046862  0.437867  0.399271  1
  Li  Li8  1  0.562133  0.953138  0.399271  1
  Li  Li9  1  0.268734  0.731266  0.674506  1
  Li  Li10  1  0.731266  0.268734  0.325494  1
  Li  Li11  1  0.437867  0.046862  0.600729  1
  Li  Li12  1  0.953138  0.562133  0.600729  1
  Li  Li13  1  0.675711  0.324289  0.932351  1
  Li  Li14  1  0.351195  0.087144  0.233623  1
  Li  Li15  1  0.912856  0.648805  0.233623  1
  Li  Li16  1  0.131540  0.868460  0.778621  1
  Li  Li17  1  0.783089  0.651013  0.888377  1
  Li  Li18  1  0.348987  0.216911  0.888377  1
  Li  Li19  1  0.509625  0.490375  0.259993  1
  V  V20  1  0.963555  0.036445  0.783494  1
  V  V21  1  0.036445  0.963555  0.216506  1
  Si  Si22  1  0.399205  0.600795  0.493001  1
  Si  Si23  1  0.780043  0.219957  0.871188  1
  Si  Si24  1  0.219957  0.780043  0.128812  1
  Si  Si25  1  0.600795  0.399205  0.506999  1
  O  O26  1  0.449177  0.550823  0.399406  1
  O  O27  1  0.908044  0.091956  0.937749  1
  O  O28  1  0.403804  0.596196  0.818607  1
  O  O29  1  0.151902  0.410818  0.378052  1
  O  O30  1  0.589182  0.848098  0.378052  1
  O  O31  1  0.581466  0.970201  0.782812  1
  O  O32  1  0.029799  0.418534  0.782812  1
  O  O33  1  0.785377  0.214623  0.194268  1
  O  O34  1  0.270595  0.729405  0.278870  1
  O  O35  1  0.729405  0.270595  0.721130  1
  O  O36  1  0.214623  0.785377  0.805732  1
  O  O37  1  0.418534  0.029799  0.217188  1
  O  O38  1  0.970201  0.581466  0.217188  1
  O  O39  1  0.410818  0.151902  0.621948  1
  O  O40  1  0.848098  0.589182  0.621948  1
  O  O41  1  0.596196  0.403804  0.181393  1
  O  O42  1  0.091956  0.908044  0.062251  1
  O  O43  1  0.550823  0.449177  0.600594  1
  O  O44  1  0.240386  0.240386  0.000000  1
  O  O45  1  0.759614  0.759614  0.000000  1
