# generated using pymatgen
data_LiCo2NiO6
_symmetry_space_group_name_H-M   'P 1'
_cell_length_a   2.86500455
_cell_length_b   5.85738474
_cell_length_c   6.46167204
_cell_angle_alpha   105.38874002
_cell_angle_beta   102.51921376
_cell_angle_gamma   88.16800289
_symmetry_Int_Tables_number   1
_chemical_formula_structural   LiCo2NiO6
_chemical_formula_sum   'Li1 Co2 Ni1 O6'
_cell_volume   102.02499312
_cell_formula_units_Z   1
loop_
 _symmetry_equiv_pos_site_id
 _symmetry_equiv_pos_as_xyz
  1  'x, y, z'
loop_
 _atom_site_type_symbol
 _atom_site_label
 _atom_site_symmetry_multiplicity
 _atom_site_fract_x
 _atom_site_fract_y
 _atom_site_fract_z
 _atom_site_occupancy
  Li  Li0  1  0.500000  0.500000  0.500000  1
  Co  Co1  1  0.819144  0.673423  0.160282  1
  Co  Co2  1  0.180856  0.326577  0.839718  1
  Ni  Ni3  1  0.500000  0.000000  0.500000  1
  O  O4  1  0.946206  0.756259  0.466358  1
  O  O5  1  0.053794  0.243741  0.533642  1
  O  O6  1  0.326424  0.454019  0.149773  1
  O  O7  1  0.321491  0.886588  0.184772  1
  O  O8  1  0.673576  0.545981  0.850227  1
  O  O9  1  0.678509  0.113412  0.815228  1
