# generated using pymatgen
data_LiCoP2O7
_symmetry_space_group_name_H-M   'P 1'
_cell_length_a   5.04269997
_cell_length_b   6.10958150
_cell_length_c   8.65601267
_cell_angle_alpha   71.17363045
_cell_angle_beta   86.72284031
_cell_angle_gamma   85.37397325
_symmetry_Int_Tables_number   1
_chemical_formula_structural   LiCoP2O7
_chemical_formula_sum   'Li2 Co2 P4 O14'
_cell_volume   251.45465645
_cell_formula_units_Z   2
loop_
 _symmetry_equiv_pos_site_id
 _symmetry_equiv_pos_as_xyz
  1  'x, y, z'
loop_
 _atom_site_type_symbol
 _atom_site_label
 _atom_site_symmetry_multiplicity
 _atom_site_fract_x
 _atom_site_fract_y
 _atom_site_fract_z
 _atom_site_occupancy
  Li  Li0  1  0.787437  0.190986  0.473788  1
  Li  Li1  1  0.212563  0.809014  0.526212  1
  Co  Co2  1  0.761770  0.553995  0.739901  1
  Co  Co3  1  0.238230  0.446005  0.260099  1
  P  P4  1  0.703202  0.740177  0.342161  1
  P  P5  1  0.783121  0.207138  0.132477  1
  P  P6  1  0.216879  0.792862  0.867523  1
  P  P7  1  0.296798  0.259823  0.657839  1
  O  O8  1  0.945746  0.791052  0.799531  1
  O  O9  1  0.898694  0.536253  0.335466  1
  O  O10  1  0.775339  0.832426  0.479298  1
  O  O11  1  0.750839  0.319545  0.952081  1
  O  O12  1  0.738005  0.936348  0.166812  1
  O  O13  1  0.586093  0.324600  0.643285  1
  O  O14  1  0.566953  0.287642  0.241016  1
  O  O15  1  0.433047  0.712358  0.758984  1
  O  O16  1  0.413907  0.675400  0.356715  1
  O  O17  1  0.261995  0.063652  0.833188  1
  O  O18  1  0.249161  0.680455  0.047919  1
  O  O19  1  0.224661  0.167574  0.520702  1
  O  O20  1  0.101306  0.463747  0.664534  1
  O  O21  1  0.054254  0.208948  0.200469  1
