# generated using pymatgen
data_Co2RuO4
_symmetry_space_group_name_H-M   'P 1'
_cell_length_a   6.10999040
_cell_length_b   6.10999040
_cell_length_c   10.07395573
_cell_angle_alpha   75.20472736
_cell_angle_beta   104.79527264
_cell_angle_gamma   119.65137530
_symmetry_Int_Tables_number   1
_chemical_formula_structural   Co2RuO4
_chemical_formula_sum   'Co8 Ru4 O16'
_cell_volume   312.24907644
_cell_formula_units_Z   4
loop_
 _symmetry_equiv_pos_site_id
 _symmetry_equiv_pos_as_xyz
  1  'x, y, z'
loop_
 _atom_site_type_symbol
 _atom_site_label
 _atom_site_symmetry_multiplicity
 _atom_site_fract_x
 _atom_site_fract_y
 _atom_site_fract_z
 _atom_site_occupancy
  Co  Co0  1  0.958917  0.593416  0.310393  1
  Co  Co1  1  0.000000  0.000000  0.500000  1
  Co  Co2  1  0.593416  0.958917  0.189607  1
  Co  Co3  1  0.500000  0.000000  0.500000  1
  Co  Co4  1  0.406584  0.041083  0.810393  1
  Co  Co5  1  0.041083  0.406584  0.689607  1
  Co  Co6  1  0.000000  0.000000  0.000000  1
  Co  Co7  1  0.000000  0.500000  0.000000  1
  Ru  Ru8  1  0.279065  0.279065  0.250000  1
  Ru  Ru9  1  0.500000  0.500000  0.500000  1
  Ru  Ru10  1  0.720935  0.720935  0.750000  1
  Ru  Ru11  1  0.500000  0.500000  0.000000  1
  O  O12  1  0.144198  0.382333  0.379583  1
  O  O13  1  0.158341  0.932340  0.371806  1
  O  O14  1  0.626743  0.373684  0.379378  1
  O  O15  1  0.362136  0.147573  0.607694  1
  O  O16  1  0.637864  0.852427  0.392306  1
  O  O17  1  0.373257  0.626316  0.620622  1
  O  O18  1  0.855802  0.617667  0.620417  1
  O  O19  1  0.841659  0.067660  0.628194  1
  O  O20  1  0.617667  0.855802  0.879583  1
  O  O21  1  0.626316  0.373257  0.879378  1
  O  O22  1  0.067660  0.841659  0.871806  1
  O  O23  1  0.852427  0.637864  0.107694  1
  O  O24  1  0.147573  0.362136  0.892306  1
  O  O25  1  0.932340  0.158341  0.128194  1
  O  O26  1  0.382333  0.144198  0.120417  1
  O  O27  1  0.373684  0.626743  0.120622  1
