# generated using pymatgen
data_Tm2(WO4)3
_symmetry_space_group_name_H-M   'P 1'
_cell_length_a   6.87344520
_cell_length_b   6.87344520
_cell_length_c   11.31645859
_cell_angle_alpha   79.27177560
_cell_angle_beta   100.72822440
_cell_angle_gamma   67.88640700
_symmetry_Int_Tables_number   1
_chemical_formula_structural   Tm2(WO4)3
_chemical_formula_sum   'Tm4 W6 O24'
_cell_volume   466.97360525
_cell_formula_units_Z   2
loop_
 _symmetry_equiv_pos_site_id
 _symmetry_equiv_pos_as_xyz
  1  'x, y, z'
loop_
 _atom_site_type_symbol
 _atom_site_label
 _atom_site_symmetry_multiplicity
 _atom_site_fract_x
 _atom_site_fract_y
 _atom_site_fract_z
 _atom_site_occupancy
  Tm  Tm0  1  0.712525  0.042731  0.408365  1
  Tm  Tm1  1  0.957269  0.287475  0.908365  1
  Tm  Tm2  1  0.042731  0.712525  0.091635  1
  Tm  Tm3  1  0.287475  0.957269  0.591635  1
  W  W4  1  0.539392  0.244548  0.050654  1
  W  W5  1  0.755452  0.460608  0.550654  1
  W  W6  1  0.131937  0.131937  0.250000  1
  W  W7  1  0.868063  0.868063  0.750000  1
  W  W8  1  0.244548  0.539392  0.449346  1
  W  W9  1  0.460608  0.755452  0.949346  1
  O  O10  1  0.546783  0.094118  0.204397  1
  O  O11  1  0.869338  0.210045  0.280547  1
  O  O12  1  0.077286  0.341594  0.103968  1
  O  O13  1  0.769726  0.670754  0.438302  1
  O  O14  1  0.820574  0.079574  0.038454  1
  O  O15  1  0.528571  0.393899  0.424539  1
  O  O16  1  0.905882  0.453217  0.704397  1
  O  O17  1  0.393899  0.528571  0.075461  1
  O  O18  1  0.079574  0.820574  0.461546  1
  O  O19  1  0.670754  0.769726  0.061698  1
  O  O20  1  0.341594  0.077286  0.396032  1
  O  O21  1  0.789955  0.130662  0.780547  1
  O  O22  1  0.210045  0.869338  0.219453  1
  O  O23  1  0.658406  0.922714  0.603967  1
  O  O24  1  0.329246  0.230274  0.938302  1
  O  O25  1  0.920426  0.179426  0.538454  1
  O  O26  1  0.606101  0.471429  0.924539  1
  O  O27  1  0.094118  0.546783  0.295603  1
  O  O28  1  0.471429  0.606101  0.575461  1
  O  O29  1  0.179426  0.920426  0.961546  1
  O  O30  1  0.230274  0.329246  0.561698  1
  O  O31  1  0.922714  0.658406  0.896032  1
  O  O32  1  0.130662  0.789955  0.719453  1
  O  O33  1  0.453217  0.905882  0.795603  1
