# generated using pymatgen
data_LiMnPCO7
_symmetry_space_group_name_H-M   'P 1'
_cell_length_a   9.48560411
_cell_length_b   6.24434450
_cell_length_c   10.20354878
_cell_angle_alpha   90.00000000
_cell_angle_beta   118.35456610
_cell_angle_gamma   90.00000000
_symmetry_Int_Tables_number   1
_chemical_formula_structural   LiMnPCO7
_chemical_formula_sum   'Li4 Mn4 P4 C4 O28'
_cell_volume   531.86122396
_cell_formula_units_Z   4
loop_
 _symmetry_equiv_pos_site_id
 _symmetry_equiv_pos_as_xyz
  1  'x, y, z'
loop_
 _atom_site_type_symbol
 _atom_site_label
 _atom_site_symmetry_multiplicity
 _atom_site_fract_x
 _atom_site_fract_y
 _atom_site_fract_z
 _atom_site_occupancy
  Li  Li0  1  0.261322  0.467998  0.504600  1
  Li  Li1  1  0.261322  0.032002  0.004600  1
  Li  Li2  1  0.738678  0.532002  0.495400  1
  Li  Li3  1  0.738678  0.967998  0.995400  1
  Mn  Mn4  1  0.329153  0.749348  0.311530  1
  Mn  Mn5  1  0.329153  0.750652  0.811530  1
  Mn  Mn6  1  0.670847  0.250652  0.688470  1
  Mn  Mn7  1  0.670847  0.249348  0.188470  1
  P  P8  1  0.424807  0.250389  0.323887  1
  P  P9  1  0.424807  0.249611  0.823887  1
  P  P10  1  0.575193  0.749611  0.676113  1
  P  P11  1  0.575193  0.750389  0.176113  1
  C  C12  1  0.047940  0.741605  0.628499  1
  C  C13  1  0.047940  0.758395  0.128499  1
  C  C14  1  0.952060  0.258395  0.371501  1
  C  C15  1  0.952060  0.241605  0.871501  1
  O  O16  1  0.102317  0.743792  0.273586  1
  O  O17  1  0.102317  0.756208  0.773586  1
  O  O18  1  0.093729  0.266601  0.466793  1
  O  O19  1  0.170374  0.735064  0.598645  1
  O  O20  1  0.093729  0.233399  0.966793  1
  O  O21  1  0.170374  0.764936  0.098645  1
  O  O22  1  0.324489  0.053748  0.318712  1
  O  O23  1  0.312332  0.440507  0.310684  1
  O  O24  1  0.312332  0.059493  0.810684  1
  O  O25  1  0.324489  0.446252  0.818712  1
  O  O26  1  0.414787  0.727751  0.530700  1
  O  O27  1  0.463049  0.259966  0.691031  1
  O  O28  1  0.414787  0.772249  0.030700  1
  O  O29  1  0.463049  0.240034  0.191031  1
  O  O30  1  0.536951  0.740034  0.308969  1
  O  O31  1  0.585213  0.272249  0.469300  1
  O  O32  1  0.536951  0.759966  0.808969  1
  O  O33  1  0.585213  0.227751  0.969300  1
  O  O34  1  0.675511  0.946252  0.681288  1
  O  O35  1  0.687668  0.559493  0.689316  1
  O  O36  1  0.675511  0.553748  0.181288  1
  O  O37  1  0.687668  0.940507  0.189316  1
  O  O38  1  0.829626  0.264936  0.401355  1
  O  O39  1  0.906271  0.733399  0.533207  1
  O  O40  1  0.829626  0.235064  0.901355  1
  O  O41  1  0.906271  0.766601  0.033207  1
  O  O42  1  0.897683  0.256208  0.726414  1
  O  O43  1  0.897683  0.243792  0.226414  1
