# generated using pymatgen
data_Li3CrSiO5
_symmetry_space_group_name_H-M   'P 1'
_cell_length_a   5.09717924
_cell_length_b   5.73268983
_cell_length_c   6.24905057
_cell_angle_alpha   76.33669266
_cell_angle_beta   76.03552084
_cell_angle_gamma   73.50802180
_symmetry_Int_Tables_number   1
_chemical_formula_structural   Li3CrSiO5
_chemical_formula_sum   'Li6 Cr2 Si2 O10'
_cell_volume   167.13126250
_cell_formula_units_Z   2
loop_
 _symmetry_equiv_pos_site_id
 _symmetry_equiv_pos_as_xyz
  1  'x, y, z'
loop_
 _atom_site_type_symbol
 _atom_site_label
 _atom_site_symmetry_multiplicity
 _atom_site_fract_x
 _atom_site_fract_y
 _atom_site_fract_z
 _atom_site_occupancy
  Li  Li0  1  0.510912  0.243197  0.994474  1
  Li  Li1  1  0.297377  0.447615  0.400833  1
  Li  Li2  1  0.313764  0.948591  0.396181  1
  Li  Li3  1  0.686236  0.051409  0.603819  1
  Li  Li4  1  0.702623  0.552385  0.599167  1
  Li  Li5  1  0.489088  0.756803  0.005526  1
  Cr  Cr6  1  0.900216  0.345210  0.213452  1
  Cr  Cr7  1  0.099784  0.654790  0.786548  1
  Si  Si8  1  0.897544  0.848945  0.215358  1
  Si  Si9  1  0.102456  0.151055  0.784642  1
  O  O10  1  0.644963  0.119878  0.282964  1
  O  O11  1  0.648043  0.667865  0.280853  1
  O  O12  1  0.157489  0.045077  0.094351  1
  O  O13  1  0.000911  0.757661  0.475124  1
  O  O14  1  0.159619  0.578296  0.107378  1
  O  O15  1  0.840381  0.421704  0.892622  1
  O  O16  1  0.999089  0.242339  0.524876  1
  O  O17  1  0.842511  0.954923  0.905649  1
  O  O18  1  0.351957  0.332135  0.719147  1
  O  O19  1  0.355037  0.880122  0.717036  1
