# generated using pymatgen
data_Na2MnPCO7
_symmetry_space_group_name_H-M   'P 1'
_cell_length_a   8.46916832
_cell_length_b   8.55478413
_cell_length_c   8.89358014
_cell_angle_alpha   90.51162580
_cell_angle_beta   91.34538226
_cell_angle_gamma   105.15370273
_symmetry_Int_Tables_number   1
_chemical_formula_structural   Na2MnPCO7
_chemical_formula_sum   'Na8 Mn4 P4 C4 O28'
_cell_volume   621.70403143
_cell_formula_units_Z   4
loop_
 _symmetry_equiv_pos_site_id
 _symmetry_equiv_pos_as_xyz
  1  'x, y, z'
loop_
 _atom_site_type_symbol
 _atom_site_label
 _atom_site_symmetry_multiplicity
 _atom_site_fract_x
 _atom_site_fract_y
 _atom_site_fract_z
 _atom_site_occupancy
  Na  Na0  1  0.617890  0.623937  0.759158  1
  Na  Na1  1  0.876881  0.369211  0.761412  1
  Na  Na2  1  0.383544  0.866042  0.743264  1
  Na  Na3  1  0.114938  0.132239  0.742774  1
  Na  Na4  1  0.870579  0.871336  0.244581  1
  Na  Na5  1  0.397317  0.377624  0.252179  1
  Na  Na6  1  0.109480  0.615580  0.248890  1
  Na  Na7  1  0.254591  0.992584  0.085194  1
  Mn  Mn8  1  0.515845  0.263694  0.646740  1
  Mn  Mn9  1  0.014063  0.765641  0.647418  1
  Mn  Mn10  1  0.482970  0.738757  0.349789  1
  Mn  Mn11  1  0.971615  0.232117  0.346743  1
  P  P12  1  0.732034  0.979893  0.579397  1
  P  P13  1  0.227472  0.478841  0.577366  1
  P  P14  1  0.772325  0.524669  0.420759  1
  P  P15  1  0.270106  0.022000  0.419332  1
  C  C16  1  0.993220  0.742238  0.930176  1
  C  C17  1  0.484350  0.236498  0.926970  1
  C  C18  1  0.508654  0.758753  0.071948  1
  C  C19  1  0.011680  0.256583  0.072375  1
  O  O20  1  0.508221  0.761123  0.931077  1
  O  O21  1  0.023829  0.263073  0.932371  1
  O  O22  1  0.596335  0.344071  0.853407  1
  O  O23  1  0.103171  0.849028  0.851815  1
  O  O24  1  0.888124  0.637656  0.848546  1
  O  O25  1  0.384631  0.130847  0.836285  1
  O  O26  1  0.857793  0.918786  0.676168  1
  O  O27  1  0.357989  0.422559  0.670971  1
  O  O28  1  0.675466  0.109324  0.669553  1
  O  O29  1  0.168717  0.607688  0.668242  1
  O  O30  1  0.578471  0.830665  0.546649  1
  O  O31  1  0.708629  0.454858  0.575779  1
  O  O32  1  0.201610  0.955308  0.572826  1
  O  O33  1  0.077008  0.327133  0.544705  1
  O  O34  1  0.920094  0.682222  0.454565  1
  O  O35  1  0.804619  0.043263  0.427031  1
  O  O36  1  0.295874  0.547925  0.424197  1
  O  O37  1  0.418100  0.173913  0.455401  1
  O  O38  1  0.843332  0.410191  0.327539  1
  O  O39  1  0.640361  0.580127  0.330703  1
  O  O40  1  0.323869  0.892299  0.326306  1
  O  O41  1  0.144432  0.077386  0.318985  1
  O  O42  1  0.612520  0.856145  0.161239  1
  O  O43  1  0.108999  0.357088  0.167964  1
  O  O44  1  0.899995  0.145497  0.140010  1
  O  O45  1  0.393665  0.653424  0.146502  1
  O  O46  1  0.001225  0.752435  0.071866  1
  O  O47  1  0.472993  0.235252  0.066114  1
