# generated using pymatgen
data_Li4MnP2O9
_symmetry_space_group_name_H-M   'P 1'
_cell_length_a   7.86443838
_cell_length_b   7.86443838
_cell_length_c   7.02544311
_cell_angle_alpha   89.32381804
_cell_angle_beta   90.67618196
_cell_angle_gamma   128.86829292
_symmetry_Int_Tables_number   1
_chemical_formula_structural   Li4MnP2O9
_chemical_formula_sum   'Li8 Mn2 P4 O18'
_cell_volume   338.28372596
_cell_formula_units_Z   2
loop_
 _symmetry_equiv_pos_site_id
 _symmetry_equiv_pos_as_xyz
  1  'x, y, z'
loop_
 _atom_site_type_symbol
 _atom_site_label
 _atom_site_symmetry_multiplicity
 _atom_site_fract_x
 _atom_site_fract_y
 _atom_site_fract_z
 _atom_site_occupancy
  Li  Li0  1  0.892230  0.107770  0.767447  1
  Li  Li1  1  0.366505  0.633495  0.289351  1
  Li  Li2  1  0.500000  0.000000  0.500000  1
  Li  Li3  1  0.000000  0.500000  0.500000  1
  Li  Li4  1  0.633495  0.366505  0.710649  1
  Li  Li5  1  0.107770  0.892230  0.232553  1
  Li  Li6  1  0.758906  0.758906  0.000000  1
  Li  Li7  1  0.241094  0.241094  0.000000  1
  Mn  Mn8  1  0.000000  0.500000  0.000000  1
  Mn  Mn9  1  0.500000  0.000000  0.000000  1
  P  P10  1  0.397235  0.602765  0.757310  1
  P  P11  1  0.875681  0.124319  0.291540  1
  P  P12  1  0.124319  0.875681  0.708460  1
  P  P13  1  0.602765  0.397235  0.242690  1
  O  O14  1  0.503890  0.496110  0.764364  1
  O  O15  1  0.969048  0.030952  0.186468  1
  O  O16  1  0.872771  0.127229  0.506880  1
  O  O17  1  0.559410  0.821052  0.876485  1
  O  O18  1  0.178948  0.440590  0.876485  1
  O  O19  1  0.345035  0.654965  0.565060  1
  O  O20  1  0.625839  0.990154  0.233786  1
  O  O21  1  0.009846  0.374161  0.233786  1
  O  O22  1  0.762491  0.237509  0.896421  1
  O  O23  1  0.237509  0.762491  0.103579  1
  O  O24  1  0.990154  0.625839  0.766214  1
  O  O25  1  0.374161  0.009846  0.766214  1
  O  O26  1  0.654965  0.345035  0.434940  1
  O  O27  1  0.821052  0.559410  0.123515  1
  O  O28  1  0.440590  0.178948  0.123515  1
  O  O29  1  0.127229  0.872771  0.493120  1
  O  O30  1  0.030952  0.969048  0.813532  1
  O  O31  1  0.496110  0.503890  0.235636  1
