# generated using pymatgen
data_CoRe2(H2O3)4
_symmetry_space_group_name_H-M   'P 1'
_cell_length_a   6.70516261
_cell_length_b   7.00843544
_cell_length_c   7.46522081
_cell_angle_alpha   64.62132272
_cell_angle_beta   69.06287933
_cell_angle_gamma   71.24649831
_symmetry_Int_Tables_number   1
_chemical_formula_structural   CoRe2(H2O3)4
_chemical_formula_sum   'Co1 Re2 H8 O12'
_cell_volume   290.07782197
_cell_formula_units_Z   1
loop_
 _symmetry_equiv_pos_site_id
 _symmetry_equiv_pos_as_xyz
  1  'x, y, z'
loop_
 _atom_site_type_symbol
 _atom_site_label
 _atom_site_symmetry_multiplicity
 _atom_site_fract_x
 _atom_site_fract_y
 _atom_site_fract_z
 _atom_site_occupancy
  Co  Co0  1  0.500000  0.000000  0.000000  1
  Re  Re1  1  0.084385  0.323536  0.291079  1
  Re  Re2  1  0.915615  0.676464  0.708921  1
  H  H3  1  0.389875  0.698007  0.357964  1
  H  H4  1  0.682548  0.012418  0.275619  1
  H  H5  1  0.376565  0.405740  0.750419  1
  H  H6  1  0.745923  0.199690  0.057338  1
  H  H7  1  0.254077  0.800310  0.942662  1
  H  H8  1  0.623435  0.594260  0.249581  1
  H  H9  1  0.317452  0.987582  0.724381  1
  H  H10  1  0.610125  0.301993  0.642036  1
  O  O11  1  0.207982  0.114859  0.190494  1
  O  O12  1  0.131949  0.569577  0.098794  1
  O  O13  1  0.197528  0.271268  0.489334  1
  O  O14  1  0.199210  0.669147  0.612841  1
  O  O15  1  0.678197  0.071888  0.132439  1
  O  O16  1  0.489623  0.700187  0.222786  1
  O  O17  1  0.510377  0.299813  0.777214  1
  O  O18  1  0.321803  0.928112  0.867561  1
  O  O19  1  0.800790  0.330853  0.387159  1
  O  O20  1  0.802472  0.728732  0.510666  1
  O  O21  1  0.868051  0.430423  0.901206  1
  O  O22  1  0.792018  0.885141  0.809506  1
