# generated using pymatgen
data_LiFe(SiO3)2
_symmetry_space_group_name_H-M   'P 1'
_cell_length_a   5.38113039
_cell_length_b   5.38113039
_cell_length_c   5.64024212
_cell_angle_alpha   90.00000000
_cell_angle_beta   90.00000000
_cell_angle_gamma   120.11154920
_symmetry_Int_Tables_number   1
_chemical_formula_structural   LiFe(SiO3)2
_chemical_formula_sum   'Li1 Fe1 Si2 O6'
_cell_volume   141.28177640
_cell_formula_units_Z   1
loop_
 _symmetry_equiv_pos_site_id
 _symmetry_equiv_pos_as_xyz
  1  'x, y, z'
loop_
 _atom_site_type_symbol
 _atom_site_label
 _atom_site_symmetry_multiplicity
 _atom_site_fract_x
 _atom_site_fract_y
 _atom_site_fract_z
 _atom_site_occupancy
  Li  Li0  1  0.000000  0.000000  0.000000  1
  Fe  Fe1  1  0.500000  0.500000  0.000000  1
  Si  Si2  1  0.000000  0.500000  0.336601  1
  Si  Si3  1  0.500000  0.000000  0.663399  1
  O  O4  1  0.367193  0.155048  0.829032  1
  O  O5  1  0.844952  0.632807  0.170968  1
  O  O6  1  0.759033  0.240967  0.500000  1
  O  O7  1  0.240967  0.759033  0.500000  1
  O  O8  1  0.155048  0.367193  0.170968  1
  O  O9  1  0.632807  0.844952  0.829032  1
