# generated using pymatgen
data_LiCr(PO3)3
_symmetry_space_group_name_H-M   'P 1'
_cell_length_a   5.53219171
_cell_length_b   10.72532234
_cell_length_c   11.66929648
_cell_angle_alpha   90.00000000
_cell_angle_beta   90.00000000
_cell_angle_gamma   90.00000000
_symmetry_Int_Tables_number   1
_chemical_formula_structural   LiCr(PO3)3
_chemical_formula_sum   'Li4 Cr4 P12 O36'
_cell_volume   692.39233102
_cell_formula_units_Z   4
loop_
 _symmetry_equiv_pos_site_id
 _symmetry_equiv_pos_as_xyz
  1  'x, y, z'
loop_
 _atom_site_type_symbol
 _atom_site_label
 _atom_site_symmetry_multiplicity
 _atom_site_fract_x
 _atom_site_fract_y
 _atom_site_fract_z
 _atom_site_occupancy
  Li  Li0  1  0.083669  0.116744  0.076863  1
  Li  Li1  1  0.583669  0.383256  0.923137  1
  Li  Li2  1  0.916331  0.616744  0.423137  1
  Li  Li3  1  0.416331  0.883256  0.576863  1
  Cr  Cr4  1  0.589217  0.031041  0.859153  1
  Cr  Cr5  1  0.089217  0.468959  0.140847  1
  Cr  Cr6  1  0.410783  0.531041  0.640847  1
  Cr  Cr7  1  0.910783  0.968959  0.359153  1
  P  P8  1  0.877854  0.075275  0.622917  1
  P  P9  1  0.373546  0.150190  0.365690  1
  P  P10  1  0.064721  0.198322  0.820663  1
  P  P11  1  0.564721  0.301678  0.179337  1
  P  P12  1  0.873546  0.349810  0.634310  1
  P  P13  1  0.377854  0.424725  0.377083  1
  P  P14  1  0.122146  0.575275  0.877083  1
  P  P15  1  0.626454  0.650190  0.134310  1
  P  P16  1  0.935279  0.698322  0.679337  1
  P  P17  1  0.435279  0.801678  0.320663  1
  P  P18  1  0.126454  0.849810  0.865690  1
  P  P19  1  0.622146  0.924725  0.122917  1
  O  O20  1  0.513548  0.009029  0.034449  1
  O  O21  1  0.644607  0.034873  0.679829  1
  O  O22  1  0.500199  0.059468  0.441115  1
  O  O23  1  0.083272  0.091917  0.721397  1
  O  O24  1  0.125981  0.120317  0.318084  1
  O  O25  1  0.825876  0.184473  0.883488  1
  O  O26  1  0.294033  0.198803  0.888106  1
  O  O27  1  0.551813  0.178043  0.257318  1
  O  O28  1  0.860461  0.214471  0.571951  1
  O  O29  1  0.360461  0.285529  0.428049  1
  O  O30  1  0.051813  0.321957  0.742682  1
  O  O31  1  0.794033  0.301197  0.111894  1
  O  O32  1  0.325876  0.315527  0.116512  1
  O  O33  1  0.625981  0.379683  0.681916  1
  O  O34  1  0.583272  0.408083  0.278603  1
  O  O35  1  0.000199  0.440532  0.558885  1
  O  O36  1  0.144607  0.465127  0.320171  1
  O  O37  1  0.013548  0.490971  0.965551  1
  O  O38  1  0.486452  0.509029  0.465551  1
  O  O39  1  0.355393  0.534873  0.820171  1
  O  O40  1  0.499801  0.559468  0.058885  1
  O  O41  1  0.916728  0.591917  0.778603  1
  O  O42  1  0.874019  0.620317  0.181916  1
  O  O43  1  0.174124  0.684473  0.616512  1
  O  O44  1  0.705967  0.698803  0.611894  1
  O  O45  1  0.448187  0.678043  0.242682  1
  O  O46  1  0.139539  0.714471  0.928049  1
  O  O47  1  0.639539  0.785529  0.071951  1
  O  O48  1  0.948187  0.821957  0.757318  1
  O  O49  1  0.205967  0.801197  0.388106  1
  O  O50  1  0.674124  0.815527  0.383488  1
  O  O51  1  0.374019  0.879683  0.818084  1
  O  O52  1  0.416728  0.908083  0.221397  1
  O  O53  1  0.999801  0.940532  0.941115  1
  O  O54  1  0.855393  0.965127  0.179829  1
  O  O55  1  0.986452  0.990971  0.534449  1
