# generated using pymatgen
data_Li2FeSiCO7
_symmetry_space_group_name_H-M   'P 1'
_cell_length_a   5.14280388
_cell_length_b   6.31706389
_cell_length_c   8.58907099
_cell_angle_alpha   90.00000000
_cell_angle_beta   92.76516848
_cell_angle_gamma   90.00000000
_symmetry_Int_Tables_number   1
_chemical_formula_structural   Li2FeSiCO7
_chemical_formula_sum   'Li4 Fe2 Si2 C2 O14'
_cell_volume   278.71186611
_cell_formula_units_Z   2
loop_
 _symmetry_equiv_pos_site_id
 _symmetry_equiv_pos_as_xyz
  1  'x, y, z'
loop_
 _atom_site_type_symbol
 _atom_site_label
 _atom_site_symmetry_multiplicity
 _atom_site_fract_x
 _atom_site_fract_y
 _atom_site_fract_z
 _atom_site_occupancy
  Li  Li0  1  0.782253  0.488524  0.226058  1
  Li  Li1  1  0.782253  0.011476  0.226058  1
  Li  Li2  1  0.217747  0.511476  0.773942  1
  Li  Li3  1  0.217747  0.988524  0.773942  1
  Fe  Fe4  1  0.204038  0.250000  0.349650  1
  Fe  Fe5  1  0.795962  0.750000  0.650350  1
  Si  Si6  1  0.290966  0.750000  0.432337  1
  Si  Si7  1  0.709034  0.250000  0.567663  1
  C  C8  1  0.273969  0.250000  0.053247  1
  C  C9  1  0.726031  0.750000  0.946753  1
  O  O10  1  0.715790  0.750000  0.094454  1
  O  O11  1  0.048587  0.250000  0.118687  1
  O  O12  1  0.476123  0.250000  0.149985  1
  O  O13  1  0.190608  0.950437  0.324892  1
  O  O14  1  0.190608  0.549563  0.324892  1
  O  O15  1  0.826784  0.250000  0.393484  1
  O  O16  1  0.613467  0.750000  0.454429  1
  O  O17  1  0.386533  0.250000  0.545571  1
  O  O18  1  0.173216  0.750000  0.606516  1
  O  O19  1  0.809392  0.450437  0.675108  1
  O  O20  1  0.809392  0.049563  0.675108  1
  O  O21  1  0.523877  0.750000  0.850015  1
  O  O22  1  0.951413  0.750000  0.881313  1
  O  O23  1  0.284210  0.250000  0.905546  1
