# generated using pymatgen
data_LiFe2OF3
_symmetry_space_group_name_H-M   'P 1'
_cell_length_a   6.22980597
_cell_length_b   6.27804007
_cell_length_c   8.62666477
_cell_angle_alpha   91.05598573
_cell_angle_beta   90.03994092
_cell_angle_gamma   90.19677511
_symmetry_Int_Tables_number   1
_chemical_formula_structural   LiFe2OF3
_chemical_formula_sum   'Li4 Fe8 O4 F12'
_cell_volume   337.33785073
_cell_formula_units_Z   4
loop_
 _symmetry_equiv_pos_site_id
 _symmetry_equiv_pos_as_xyz
  1  'x, y, z'
loop_
 _atom_site_type_symbol
 _atom_site_label
 _atom_site_symmetry_multiplicity
 _atom_site_fract_x
 _atom_site_fract_y
 _atom_site_fract_z
 _atom_site_occupancy
  Li  Li0  1  0.752033  0.992996  0.982296  1
  Li  Li1  1  0.268917  0.989075  0.505557  1
  Li  Li2  1  0.498354  0.253545  0.748415  1
  Li  Li3  1  0.000660  0.259365  0.746270  1
  Fe  Fe4  1  0.005941  0.750614  0.236163  1
  Fe  Fe5  1  0.506683  0.745557  0.272039  1
  Fe  Fe6  1  0.730730  0.760330  0.638541  1
  Fe  Fe7  1  0.213720  0.775846  0.872514  1
  Fe  Fe8  1  0.753060  0.505863  0.999471  1
  Fe  Fe9  1  0.262313  0.507301  0.509579  1
  Fe  Fe10  1  0.747318  0.287529  0.370012  1
  Fe  Fe11  1  0.243995  0.178645  0.121232  1
  O  O12  1  0.261699  0.946639  0.258795  1
  O  O13  1  0.475495  0.734339  0.515597  1
  O  O14  1  0.960930  0.751529  0.994197  1
  O  O15  1  0.754484  0.540129  0.245808  1
  F  F16  1  0.761230  0.008281  0.247945  1
  F  F17  1  0.510944  0.759278  0.985910  1
  F  F18  1  0.014212  0.753158  0.509526  1
  F  F19  1  0.253051  0.477745  0.239495  1
  F  F20  1  0.746760  0.468225  0.750998  1
  F  F21  1  0.247561  0.477891  0.756222  1
  F  F22  1  0.027413  0.273700  0.504373  1
  F  F23  1  0.982089  0.239778  0.989406  1
  F  F24  1  0.522683  0.246223  0.992395  1
  F  F25  1  0.489389  0.240846  0.508822  1
  F  F26  1  0.758971  0.036377  0.751654  1
  F  F27  1  0.249365  0.039195  0.746770  1
