# generated using pymatgen
data_LiMn(PO3)4
_symmetry_space_group_name_H-M   'P 1'
_cell_length_a   6.98936412
_cell_length_b   6.98936412
_cell_length_c   10.00334480
_cell_angle_alpha   89.03977302
_cell_angle_beta   90.96022698
_cell_angle_gamma   72.51364191
_symmetry_Int_Tables_number   1
_chemical_formula_structural   LiMn(PO3)4
_chemical_formula_sum   'Li2 Mn2 P8 O24'
_cell_volume   465.90592386
_cell_formula_units_Z   2
loop_
 _symmetry_equiv_pos_site_id
 _symmetry_equiv_pos_as_xyz
  1  'x, y, z'
loop_
 _atom_site_type_symbol
 _atom_site_label
 _atom_site_symmetry_multiplicity
 _atom_site_fract_x
 _atom_site_fract_y
 _atom_site_fract_z
 _atom_site_occupancy
  Li  Li0  1  0.147864  0.147864  0.750000  1
  Li  Li1  1  0.852136  0.852136  0.250000  1
  Mn  Mn2  1  0.882531  0.882531  0.750000  1
  Mn  Mn3  1  0.117469  0.117469  0.250000  1
  P  P4  1  0.284555  0.334429  0.022465  1
  P  P5  1  0.665571  0.715445  0.522465  1
  P  P6  1  0.270358  0.784478  0.959722  1
  P  P7  1  0.784478  0.270358  0.540278  1
  P  P8  1  0.215522  0.729642  0.459722  1
  P  P9  1  0.729642  0.215522  0.040278  1
  P  P10  1  0.334429  0.284555  0.477535  1
  P  P11  1  0.715445  0.665571  0.977535  1
  O  O12  1  0.267253  0.226210  0.899429  1
  O  O13  1  0.662006  0.858254  0.637463  1
  O  O14  1  0.146996  0.866947  0.832959  1
  O  O15  1  0.773790  0.732747  0.399429  1
  O  O16  1  0.769691  0.096675  0.916872  1
  O  O17  1  0.141746  0.337994  0.137463  1
  O  O18  1  0.563339  0.259720  0.512320  1
  O  O19  1  0.495307  0.744681  0.908649  1
  O  O20  1  0.744681  0.495307  0.591351  1
  O  O21  1  0.259720  0.563339  0.987680  1
  O  O22  1  0.133053  0.853004  0.332959  1
  O  O23  1  0.096675  0.769691  0.583128  1
  O  O24  1  0.903325  0.230309  0.416872  1
  O  O25  1  0.866947  0.146996  0.667041  1
  O  O26  1  0.740280  0.436661  0.012320  1
  O  O27  1  0.255319  0.504693  0.408649  1
  O  O28  1  0.504693  0.255319  0.091351  1
  O  O29  1  0.436661  0.740280  0.487680  1
  O  O30  1  0.858254  0.662006  0.862537  1
  O  O31  1  0.230309  0.903325  0.083128  1
  O  O32  1  0.226210  0.267253  0.600571  1
  O  O33  1  0.853004  0.133053  0.167041  1
  O  O34  1  0.337994  0.141746  0.362537  1
  O  O35  1  0.732747  0.773790  0.100571  1
