# generated using pymatgen
data_Li4Ti3V3(FeO8)2
_symmetry_space_group_name_H-M   'P 1'
_cell_length_a   5.90953476
_cell_length_b   5.94335015
_cell_length_c   9.63465919
_cell_angle_alpha   90.02401003
_cell_angle_beta   90.29833612
_cell_angle_gamma   119.69191850
_symmetry_Int_Tables_number   1
_chemical_formula_structural   Li4Ti3V3(FeO8)2
_chemical_formula_sum   'Li4 Ti3 V3 Fe2 O16'
_cell_volume   293.95645912
_cell_formula_units_Z   1
loop_
 _symmetry_equiv_pos_site_id
 _symmetry_equiv_pos_as_xyz
  1  'x, y, z'
loop_
 _atom_site_type_symbol
 _atom_site_label
 _atom_site_symmetry_multiplicity
 _atom_site_fract_x
 _atom_site_fract_y
 _atom_site_fract_z
 _atom_site_occupancy
  Li  Li0  1  0.668065  0.337051  0.894345  1
  Li  Li1  1  0.997228  0.996479  0.994488  1
  Li  Li2  1  0.001992  0.004503  0.497047  1
  Li  Li3  1  0.332857  0.665245  0.393808  1
  Ti  Ti4  1  0.340854  0.173247  0.216459  1
  Ti  Ti5  1  0.832849  0.173814  0.216511  1
  Ti  Ti6  1  0.170116  0.341930  0.721617  1
  V  V7  1  0.829933  0.660262  0.210519  1
  V  V8  1  0.658971  0.832675  0.709336  1
  V  V9  1  0.181351  0.836818  0.710572  1
  Fe  Fe10  1  0.670890  0.337410  0.493151  1
  Fe  Fe11  1  0.334170  0.669987  0.993062  1
  O  O12  1  0.331751  0.163536  0.602553  1
  O  O13  1  0.520100  0.037933  0.334921  1
  O  O14  1  0.654615  0.311201  0.101653  1
  O  O15  1  0.006042  0.010122  0.310638  1
  O  O16  1  0.010529  0.006935  0.808701  1
  O  O17  1  0.835144  0.164752  0.602434  1
  O  O18  1  0.513632  0.473287  0.338557  1
  O  O19  1  0.960932  0.472764  0.338141  1
  O  O20  1  0.162800  0.327498  0.101961  1
  O  O21  1  0.847990  0.679051  0.603666  1
  O  O22  1  0.037882  0.517408  0.836869  1
  O  O23  1  0.479266  0.519340  0.838107  1
  O  O24  1  0.314042  0.648127  0.599387  1
  O  O25  1  0.164732  0.837891  0.102271  1
  O  O26  1  0.468554  0.962087  0.835598  1
  O  O27  1  0.672411  0.838644  0.101470  1
