# generated using pymatgen
data_Li11Fe12(BO3)12
_symmetry_space_group_name_H-M   'P 1'
_cell_length_a   8.78132710
_cell_length_b   8.79244011
_cell_length_c   10.34020688
_cell_angle_alpha   99.11474982
_cell_angle_beta   99.14099506
_cell_angle_gamma   107.78807222
_symmetry_Int_Tables_number   1
_chemical_formula_structural   Li11Fe12(BO3)12
_chemical_formula_sum   'Li11 Fe12 B12 O36'
_cell_volume   732.12830848
_cell_formula_units_Z   1
loop_
 _symmetry_equiv_pos_site_id
 _symmetry_equiv_pos_as_xyz
  1  'x, y, z'
loop_
 _atom_site_type_symbol
 _atom_site_label
 _atom_site_symmetry_multiplicity
 _atom_site_fract_x
 _atom_site_fract_y
 _atom_site_fract_z
 _atom_site_occupancy
  Li  Li0  1  0.969697  0.983855  0.269584  1
  Li  Li1  1  0.312934  0.597849  0.293456  1
  Li  Li2  1  0.562967  0.846308  0.548384  1
  Li  Li3  1  0.059879  0.344795  0.044100  1
  Li  Li4  1  0.340329  0.042491  0.059957  1
  Li  Li5  1  0.842484  0.543854  0.557389  1
  Li  Li6  1  0.590090  0.292327  0.307403  1
  Li  Li7  1  0.473974  0.486511  0.772225  1
  Li  Li8  1  0.221736  0.235725  0.521764  1
  Li  Li9  1  0.814107  0.098804  0.795120  1
  Li  Li10  1  0.092174  0.794852  0.807439  1
  Fe  Fe11  1  0.688759  0.678306  0.313551  1
  Fe  Fe12  1  0.439493  0.432946  0.066415  1
  Fe  Fe13  1  0.939142  0.930104  0.566299  1
  Fe  Fe14  1  0.716949  0.097015  0.090850  1
  Fe  Fe15  1  0.978720  0.344477  0.339616  1
  Fe  Fe16  1  0.077753  0.726741  0.091929  1
  Fe  Fe17  1  0.333792  0.977018  0.344511  1
  Fe  Fe18  1  0.229126  0.597898  0.590065  1
  Fe  Fe19  1  0.481809  0.841589  0.841695  1
  Fe  Fe20  1  0.836697  0.482743  0.845695  1
  Fe  Fe21  1  0.587733  0.226618  0.594017  1
  Fe  Fe22  1  0.188014  0.181341  0.815596  1
  B  B23  1  0.789029  0.446205  0.124449  1
  B  B24  1  0.458127  0.792245  0.129501  1
  B  B25  1  0.293910  0.960131  0.626787  1
  B  B26  1  0.040731  0.707405  0.374776  1
  B  B27  1  0.499449  0.499986  0.499329  1
  B  B28  1  0.249488  0.250738  0.249763  1
  B  B29  1  0.748875  0.750957  0.744326  1
  B  B30  1  0.998571  0.008033  0.000082  1
  B  B31  1  0.957932  0.293220  0.624880  1
  B  B32  1  0.706621  0.036518  0.372035  1
  B  B33  1  0.544393  0.207618  0.880874  1
  B  B34  1  0.208888  0.542121  0.875167  1
  O  O35  1  0.884807  0.988940  0.080824  1
  O  O36  1  0.838054  0.559580  0.050492  1
  O  O37  1  0.503031  0.917316  0.057715  1
  O  O38  1  0.802621  0.939147  0.379552  1
  O  O39  1  0.540106  0.684009  0.138285  1
  O  O40  1  0.867177  0.325479  0.129264  1
  O  O41  1  0.666391  0.442336  0.194634  1
  O  O42  1  0.913860  0.695571  0.442182  1
  O  O43  1  0.327970  0.781972  0.191573  1
  O  O44  1  0.079134  0.825825  0.299489  1
  O  O45  1  0.988276  0.411423  0.548137  1
  O  O46  1  0.733703  0.149510  0.288508  1
  O  O47  1  0.262238  0.372461  0.177689  1
  O  O48  1  0.517275  0.626280  0.431562  1
  O  O49  1  0.771326  0.881083  0.679066  1
  O  O50  1  0.603543  0.408057  0.493506  1
  O  O51  1  0.354575  0.160283  0.244981  1
  O  O52  1  0.854901  0.660848  0.741749  1
  O  O53  1  0.129132  0.600409  0.382888  1
  O  O54  1  0.384066  0.855466  0.638486  1
  O  O55  1  0.166907  0.949130  0.693701  1
  O  O56  1  0.585702  0.026463  0.444146  1
  O  O57  1  0.834952  0.277871  0.696156  1
  O  O58  1  0.132934  0.217237  0.327671  1
  O  O59  1  0.378332  0.463074  0.572803  1
  O  O60  1  0.620468  0.709057  0.806673  1
  O  O61  1  0.331513  0.075683  0.548618  1
  O  O62  1  0.580229  0.317556  0.799038  1
  O  O63  1  0.241376  0.663577  0.801293  1
  O  O64  1  0.100697  0.913106  0.995923  1
  O  O65  1  0.050857  0.191329  0.628598  1
  O  O66  1  0.301647  0.439636  0.877822  1
  O  O67  1  0.639441  0.105396  0.899009  1
  O  O68  1  0.417386  0.196531  0.947046  1
  O  O69  1  0.085935  0.525413  0.945636  1
  O  O70  1  0.015761  0.127157  0.924125  1
