# generated using pymatgen
data_Na5Bi2As(CO4)4
_symmetry_space_group_name_H-M   'P 1'
_cell_length_a   10.53316043
_cell_length_b   10.50969607
_cell_length_c   10.41584419
_cell_angle_alpha   60.44362337
_cell_angle_beta   60.21931851
_cell_angle_gamma   59.33705812
_symmetry_Int_Tables_number   1
_chemical_formula_structural   Na5Bi2As(CO4)4
_chemical_formula_sum   'Na10 Bi4 As2 C8 O32'
_cell_volume   815.15142517
_cell_formula_units_Z   2
loop_
 _symmetry_equiv_pos_site_id
 _symmetry_equiv_pos_as_xyz
  1  'x, y, z'
loop_
 _atom_site_type_symbol
 _atom_site_label
 _atom_site_symmetry_multiplicity
 _atom_site_fract_x
 _atom_site_fract_y
 _atom_site_fract_z
 _atom_site_occupancy
  Na  Na0  1  0.821490  0.422558  0.568094  1
  Na  Na1  1  0.063393  0.682088  0.427361  1
  Na  Na2  1  0.682088  0.063393  0.827158  1
  Na  Na3  1  0.062142  0.681906  0.827442  1
  Na  Na4  1  0.822639  0.422842  0.186607  1
  Na  Na5  1  0.422558  0.821490  0.187858  1
  Na  Na6  1  0.422842  0.822639  0.567912  1
  Na  Na7  1  0.681283  0.681283  0.818717  1
  Na  Na8  1  0.681906  0.062142  0.428510  1
  Na  Na9  1  0.431283  0.431283  0.568717  1
  Bi  Bi10  1  0.753239  0.241871  0.003647  1
  Bi  Bi11  1  0.246353  0.248757  0.496761  1
  Bi  Bi12  1  0.241871  0.753239  0.001243  1
  Bi  Bi13  1  0.248757  0.246353  0.008129  1
  As  As14  1  0.874652  0.874652  0.625348  1
  As  As15  1  0.624652  0.624652  0.375348  1
  C  C16  1  0.475371  0.087081  0.217330  1
  C  C17  1  0.087081  0.475371  0.220218  1
  C  C18  1  0.469899  0.471122  0.221582  1
  C  C19  1  0.471122  0.469899  0.837397  1
  C  C20  1  0.032670  0.029782  0.774629  1
  C  C21  1  0.029782  0.032670  0.162919  1
  C  C22  1  0.028418  0.412603  0.780101  1
  C  C23  1  0.412603  0.028418  0.778878  1
  O  O24  1  0.901633  0.148139  0.783936  1
  O  O25  1  0.361706  0.078040  0.208478  1
  O  O26  1  0.078040  0.361706  0.351776  1
  O  O27  1  0.040951  0.414483  0.647895  1
  O  O28  1  0.083708  0.466064  0.101861  1
  O  O29  1  0.806575  0.805671  0.558889  1
  O  O30  1  0.805671  0.806575  0.828865  1
  O  O31  1  0.099473  0.598191  0.208401  1
  O  O32  1  0.598191  0.099473  0.093935  1
  O  O33  1  0.354072  0.458535  0.352246  1
  O  O34  1  0.458535  0.354072  0.835147  1
  O  O35  1  0.790621  0.074821  0.567130  1
  O  O36  1  0.074821  0.790621  0.567428  1
  O  O37  1  0.041522  0.898224  0.888294  1
  O  O38  1  0.898224  0.041522  0.171960  1
  O  O39  1  0.353330  0.602105  0.835517  1
  O  O40  1  0.148139  0.901633  0.166292  1
  O  O41  1  0.600580  0.455691  0.838869  1
  O  O42  1  0.455691  0.600580  0.104861  1
  O  O43  1  0.691111  0.421135  0.443425  1
  O  O44  1  0.421135  0.691111  0.444329  1
  O  O45  1  0.041599  0.156065  0.150527  1
  O  O46  1  0.156065  0.041599  0.651809  1
  O  O47  1  0.897754  0.414853  0.895928  1
  O  O48  1  0.414853  0.897754  0.791465  1
  O  O49  1  0.682572  0.682870  0.175179  1
  O  O50  1  0.682870  0.682572  0.459379  1
  O  O51  1  0.414483  0.040951  0.896670  1
  O  O52  1  0.466064  0.083708  0.348367  1
  O  O53  1  0.411131  0.145139  0.649420  1
  O  O54  1  0.145139  0.411131  0.794309  1
  O  O55  1  0.602105  0.353330  0.209049  1
