# generated using pymatgen
data_Li4V5Co3O16
_symmetry_space_group_name_H-M   'P 1'
_cell_length_a   5.91715961
_cell_length_b   5.91715961
_cell_length_c   9.57752475
_cell_angle_alpha   89.15614694
_cell_angle_beta   90.84385306
_cell_angle_gamma   119.86417049
_symmetry_Int_Tables_number   1
_chemical_formula_structural   Li4V5Co3O16
_chemical_formula_sum   'Li4 V5 Co3 O16'
_cell_volume   290.76383345
_cell_formula_units_Z   1
loop_
 _symmetry_equiv_pos_site_id
 _symmetry_equiv_pos_as_xyz
  1  'x, y, z'
loop_
 _atom_site_type_symbol
 _atom_site_label
 _atom_site_symmetry_multiplicity
 _atom_site_fract_x
 _atom_site_fract_y
 _atom_site_fract_z
 _atom_site_occupancy
  Li  Li0  1  0.338326  0.661674  0.901312  1
  Li  Li1  1  0.999500  0.000500  0.993684  1
  Li  Li2  1  0.999532  0.000468  0.487240  1
  Li  Li3  1  0.666983  0.333017  0.400218  1
  V  V4  1  0.841520  0.646599  0.719692  1
  V  V5  1  0.353221  0.646779  0.488088  1
  V  V6  1  0.178933  0.821067  0.229392  1
  V  V7  1  0.662083  0.337917  0.001518  1
  V  V8  1  0.353401  0.158480  0.719692  1
  Co  Co9  1  0.655282  0.835457  0.210321  1
  Co  Co10  1  0.164543  0.344718  0.210321  1
  Co  Co11  1  0.830344  0.169656  0.707503  1
  O  O12  1  0.653214  0.819707  0.589817  1
  O  O13  1  0.477091  0.522909  0.356007  1
  O  O14  1  0.316154  0.683846  0.104887  1
  O  O15  1  0.008533  0.991467  0.295212  1
  O  O16  1  0.005609  0.994391  0.802477  1
  O  O17  1  0.180293  0.346786  0.589817  1
  O  O18  1  0.466789  0.960702  0.354893  1
  O  O19  1  0.039298  0.533211  0.354893  1
  O  O20  1  0.823285  0.176715  0.080139  1
  O  O21  1  0.168091  0.831909  0.602516  1
  O  O22  1  0.960864  0.491742  0.844698  1
  O  O23  1  0.508258  0.039136  0.844698  1
  O  O24  1  0.653422  0.346578  0.603249  1
  O  O25  1  0.823092  0.645119  0.087813  1
  O  O26  1  0.523235  0.476765  0.839299  1
  O  O27  1  0.354881  0.176908  0.087813  1
