# generated using pymatgen
data_Li2Cr3FeO8
_symmetry_space_group_name_H-M   'P 1'
_cell_length_a   5.91876212
_cell_length_b   5.91876212
_cell_length_c   5.91876212
_cell_angle_alpha   60.22436923
_cell_angle_beta   60.22436923
_cell_angle_gamma   60.22436923
_symmetry_Int_Tables_number   1
_chemical_formula_structural   Li2Cr3FeO8
_chemical_formula_sum   'Li2 Cr3 Fe1 O8'
_cell_volume   147.35951696
_cell_formula_units_Z   1
loop_
 _symmetry_equiv_pos_site_id
 _symmetry_equiv_pos_as_xyz
  1  'x, y, z'
loop_
 _atom_site_type_symbol
 _atom_site_label
 _atom_site_symmetry_multiplicity
 _atom_site_fract_x
 _atom_site_fract_y
 _atom_site_fract_z
 _atom_site_occupancy
  Li  Li0  1  0.875314  0.875314  0.875314  1
  Li  Li1  1  0.124686  0.124686  0.124686  1
  Cr  Cr2  1  0.500000  1.000000  0.500000  1
  Cr  Cr3  1  0.500000  0.500000  0.000000  1
  Cr  Cr4  1  0.000000  0.500000  0.500000  1
  Fe  Fe5  1  0.500000  0.500000  0.500000  1
  O  O6  1  0.732569  0.732569  0.732569  1
  O  O7  1  0.286870  0.738548  0.738548  1
  O  O8  1  0.738548  0.738548  0.286870  1
  O  O9  1  0.738548  0.286870  0.738548  1
  O  O10  1  0.261452  0.713130  0.261452  1
  O  O11  1  0.261452  0.261452  0.713130  1
  O  O12  1  0.713130  0.261452  0.261452  1
  O  O13  1  0.267431  0.267431  0.267431  1
