# generated using pymatgen
data_Sm2TeO6
_symmetry_space_group_name_H-M   'P 1'
_cell_length_a   9.28465085
_cell_length_b   9.28465085
_cell_length_c   5.36946898
_cell_angle_alpha   90.00000000
_cell_angle_beta   90.00000000
_cell_angle_gamma   120.00000000
_symmetry_Int_Tables_number   1
_chemical_formula_structural   Sm2TeO6
_chemical_formula_sum   'Sm6 Te3 O18'
_cell_volume   400.86037021
_cell_formula_units_Z   3
loop_
 _symmetry_equiv_pos_site_id
 _symmetry_equiv_pos_as_xyz
  1  'x, y, z'
loop_
 _atom_site_type_symbol
 _atom_site_label
 _atom_site_symmetry_multiplicity
 _atom_site_fract_x
 _atom_site_fract_y
 _atom_site_fract_z
 _atom_site_occupancy
  Sm  Sm0  1  0.000000  0.613943  0.500000  1
  Sm  Sm1  1  0.000000  0.276375  0.000000  1
  Sm  Sm2  1  0.386057  0.386057  0.500000  1
  Sm  Sm3  1  0.276375  0.000000  0.000000  1
  Sm  Sm4  1  0.723625  0.723625  0.000000  1
  Sm  Sm5  1  0.613943  0.000000  0.500000  1
  Te  Te6  1  0.333333  0.666667  0.998907  1
  Te  Te7  1  0.000000  0.000000  0.500000  1
  Te  Te8  1  0.666667  0.333333  0.001093  1
  O  O9  1  0.071876  0.876125  0.292019  1
  O  O10  1  0.227010  0.759421  0.788664  1
  O  O11  1  0.136918  0.543009  0.208812  1
  O  O12  1  0.406091  0.863082  0.208812  1
  O  O13  1  0.240579  0.467589  0.788664  1
  O  O14  1  0.123875  0.195751  0.292019  1
  O  O15  1  0.195751  0.123875  0.707981  1
  O  O16  1  0.532411  0.772990  0.788664  1
  O  O17  1  0.456991  0.593909  0.208812  1
  O  O18  1  0.804249  0.928124  0.292019  1
  O  O19  1  0.467589  0.240579  0.211336  1
  O  O20  1  0.593909  0.456991  0.791188  1
  O  O21  1  0.543009  0.136918  0.791188  1
  O  O22  1  0.772990  0.532411  0.211336  1
  O  O23  1  0.928124  0.804249  0.707981  1
  O  O24  1  0.759421  0.227010  0.211336  1
  O  O25  1  0.863082  0.406091  0.791188  1
  O  O26  1  0.876125  0.071876  0.707981  1
