# generated using pymatgen
data_NaLi5Mn2P2(CO7)2
_symmetry_space_group_name_H-M   'P 1'
_cell_length_a   8.64053123
_cell_length_b   6.67553223
_cell_length_c   9.98658695
_cell_angle_alpha   90.00000000
_cell_angle_beta   92.41246192
_cell_angle_gamma   90.00000000
_symmetry_Int_Tables_number   1
_chemical_formula_structural   NaLi5Mn2P2(CO7)2
_chemical_formula_sum   'Na2 Li10 Mn4 P4 C4 O28'
_cell_volume   575.51724618
_cell_formula_units_Z   2
loop_
 _symmetry_equiv_pos_site_id
 _symmetry_equiv_pos_as_xyz
  1  'x, y, z'
loop_
 _atom_site_type_symbol
 _atom_site_label
 _atom_site_symmetry_multiplicity
 _atom_site_fract_x
 _atom_site_fract_y
 _atom_site_fract_z
 _atom_site_occupancy
  Na  Na0  1  0.248113  0.999168  0.374055  1
  Na  Na1  1  0.751887  0.499168  0.625945  1
  Li  Li2  1  0.086765  0.260854  0.126353  1
  Li  Li3  1  0.086590  0.243695  0.628836  1
  Li  Li4  1  0.269114  0.474477  0.386287  1
  Li  Li5  1  0.266070  0.024924  0.882157  1
  Li  Li6  1  0.265590  0.473886  0.882827  1
  Li  Li7  1  0.733930  0.524924  0.117843  1
  Li  Li8  1  0.734410  0.973886  0.117173  1
  Li  Li9  1  0.730886  0.974477  0.613713  1
  Li  Li10  1  0.913410  0.743695  0.371164  1
  Li  Li11  1  0.913235  0.760854  0.873647  1
  Mn  Mn12  1  0.350460  0.749539  0.109652  1
  Mn  Mn13  1  0.354473  0.744678  0.614720  1
  Mn  Mn14  1  0.645527  0.244678  0.385280  1
  Mn  Mn15  1  0.649540  0.249539  0.890348  1
  P  P16  1  0.407838  0.255320  0.142914  1
  P  P17  1  0.405895  0.243837  0.647105  1
  P  P18  1  0.594105  0.743837  0.352895  1
  P  P19  1  0.592162  0.755320  0.857086  1
  C  C20  1  0.038633  0.749105  0.134587  1
  C  C21  1  0.043765  0.759014  0.639037  1
  C  C22  1  0.956235  0.259014  0.360963  1
  C  C23  1  0.961367  0.249105  0.865413  1
  O  O24  1  0.099390  0.282146  0.328606  1
  O  O25  1  0.107164  0.247470  0.836632  1
  O  O26  1  0.081314  0.752209  0.012120  1
  O  O27  1  0.081478  0.754384  0.514795  1
  O  O28  1  0.142704  0.747395  0.232899  1
  O  O29  1  0.149645  0.739342  0.735169  1
  O  O30  1  0.311943  0.067769  0.097584  1
  O  O31  1  0.311424  0.434485  0.084966  1
  O  O32  1  0.303943  0.061300  0.605017  1
  O  O33  1  0.313686  0.428469  0.592274  1
  O  O34  1  0.418081  0.267666  0.299118  1
  O  O35  1  0.427680  0.732468  0.405572  1
  O  O36  1  0.420083  0.253963  0.804062  1
  O  O37  1  0.422872  0.752434  0.904349  1
  O  O38  1  0.577128  0.252434  0.095651  1
  O  O39  1  0.579917  0.753963  0.195938  1
  O  O40  1  0.572320  0.232468  0.594428  1
  O  O41  1  0.581919  0.767666  0.700882  1
  O  O42  1  0.696057  0.561300  0.394983  1
  O  O43  1  0.686314  0.928469  0.407726  1
  O  O44  1  0.688057  0.567769  0.902416  1
  O  O45  1  0.688576  0.934485  0.915034  1
  O  O46  1  0.850355  0.239342  0.264831  1
  O  O47  1  0.857296  0.247395  0.767101  1
  O  O48  1  0.918522  0.254384  0.485205  1
  O  O49  1  0.918686  0.252209  0.987880  1
  O  O50  1  0.892836  0.747470  0.163368  1
  O  O51  1  0.900610  0.782146  0.671394  1
