# generated using pymatgen
data_Ti2N2O
_symmetry_space_group_name_H-M   'P 1'
_cell_length_a   8.21096376
_cell_length_b   8.22249641
_cell_length_c   8.22237637
_cell_angle_alpha   109.60630486
_cell_angle_beta   109.31778634
_cell_angle_gamma   109.41158192
_symmetry_Int_Tables_number   1
_chemical_formula_structural   Ti2N2O
_chemical_formula_sum   'Ti16 N16 O8'
_cell_volume   427.74844378
_cell_formula_units_Z   8
loop_
 _symmetry_equiv_pos_site_id
 _symmetry_equiv_pos_as_xyz
  1  'x, y, z'
loop_
 _atom_site_type_symbol
 _atom_site_label
 _atom_site_symmetry_multiplicity
 _atom_site_fract_x
 _atom_site_fract_y
 _atom_site_fract_z
 _atom_site_occupancy
  Ti  Ti0  1  0.242262  0.953193  0.800162  1
  Ti  Ti1  1  0.011329  0.510041  0.000371  1
  Ti  Ti2  1  0.043240  0.798122  0.239942  1
  Ti  Ti3  1  0.456495  0.695209  0.763643  1
  Ti  Ti4  1  0.289335  0.746121  0.468838  1
  Ti  Ti5  1  0.784026  0.751781  0.959428  1
  Ti  Ti6  1  0.509782  0.007662  0.004962  1
  Ti  Ti7  1  0.997115  0.006103  0.490370  1
  Ti  Ti8  1  0.497683  0.498615  0.497539  1
  Ti  Ti9  1  0.253844  0.453135  0.291714  1
  Ti  Ti10  1  0.739987  0.537097  0.703151  1
  Ti  Ti11  1  0.715931  0.257251  0.536839  1
  Ti  Ti12  1  0.210753  0.244704  0.048452  1
  Ti  Ti13  1  0.549156  0.293558  0.245102  1
  Ti  Ti14  1  0.955054  0.216461  0.741384  1
  Ti  Ti15  1  0.752525  0.046941  0.206216  1
  N  N16  1  0.225882  0.733148  0.724398  1
  N  N17  1  0.223731  0.461851  0.552425  1
  N  N18  1  0.724612  0.773302  0.738567  1
  N  N19  1  0.459763  0.451275  0.772668  1
  N  N20  1  0.273357  0.047585  0.987823  1
  N  N21  1  0.235660  0.512341  0.041452  1
  N  N22  1  0.946482  0.987957  0.278697  1
  N  N23  1  0.734549  0.275640  0.777579  1
  N  N24  1  0.727493  0.952689  0.005753  1
  N  N25  1  0.541643  0.547479  0.226021  1
  N  N26  1  0.274418  0.222613  0.265940  1
  N  N27  1  0.774091  0.537485  0.450849  1
  N  N28  1  0.488117  0.037119  0.236663  1
  N  N29  1  0.989334  0.723481  0.049288  1
  N  N30  1  0.773304  0.265135  0.274023  1
  N  N31  1  0.957791  0.230053  0.494015  1
  O  O32  1  0.043141  0.766485  0.504909  1
  O  O33  1  0.508555  0.964985  0.759338  1
  O  O34  1  0.008255  0.272563  0.953797  1
  O  O35  1  0.055789  0.010517  0.723390  1
  O  O36  1  0.263216  0.724841  0.226719  1
  O  O37  1  0.551190  0.773752  0.455215  1
  O  O38  1  0.763437  0.486855  0.960361  1
  O  O39  1  0.447669  0.224854  0.541996  1
