# generated using pymatgen
data_LiVFeO4
_symmetry_space_group_name_H-M   'P 1'
_cell_length_a   5.99866599
_cell_length_b   5.99866599
_cell_length_c   5.99866599
_cell_angle_alpha   120.85289532
_cell_angle_beta   120.02742232
_cell_angle_gamma   89.24080487
_symmetry_Int_Tables_number   1
_chemical_formula_structural   LiVFeO4
_chemical_formula_sum   'Li2 V2 Fe2 O8'
_cell_volume   151.59331828
_cell_formula_units_Z   2
loop_
 _symmetry_equiv_pos_site_id
 _symmetry_equiv_pos_as_xyz
  1  'x, y, z'
loop_
 _atom_site_type_symbol
 _atom_site_label
 _atom_site_symmetry_multiplicity
 _atom_site_fract_x
 _atom_site_fract_y
 _atom_site_fract_z
 _atom_site_occupancy
  Li  Li0  1  0.869132  0.619132  0.750000  1
  Li  Li1  1  0.130868  0.380868  0.250000  1
  V  V2  1  0.500000  0.000000  0.500000  1
  V  V3  1  0.500000  0.500000  0.000000  1
  Fe  Fe4  1  0.000000  0.000000  0.500000  1
  Fe  Fe5  1  0.500000  0.000000  0.000000  1
  O  O6  1  0.731422  0.209992  0.478570  1
  O  O7  1  0.723624  0.755914  0.467710  1
  O  O8  1  0.288204  0.755914  0.032290  1
  O  O9  1  0.731422  0.752852  0.021430  1
  O  O10  1  0.268578  0.247148  0.978570  1
  O  O11  1  0.276376  0.244086  0.532290  1
  O  O12  1  0.711797  0.244086  0.967710  1
  O  O13  1  0.268578  0.790008  0.521430  1
