# generated using pymatgen
data_NaV(PO4)2
_symmetry_space_group_name_H-M   'P 1'
_cell_length_a   8.22011541
_cell_length_b   8.22011541
_cell_length_c   10.15724776
_cell_angle_alpha   90.00000000
_cell_angle_beta   90.00000000
_cell_angle_gamma   90.00000000
_symmetry_Int_Tables_number   1
_chemical_formula_structural   NaV(PO4)2
_chemical_formula_sum   'Na4 V4 P8 O32'
_cell_volume   686.32825144
_cell_formula_units_Z   4
loop_
 _symmetry_equiv_pos_site_id
 _symmetry_equiv_pos_as_xyz
  1  'x, y, z'
loop_
 _atom_site_type_symbol
 _atom_site_label
 _atom_site_symmetry_multiplicity
 _atom_site_fract_x
 _atom_site_fract_y
 _atom_site_fract_z
 _atom_site_occupancy
  Na  Na0  1  0.167703  0.167703  0.749093  1
  Na  Na1  1  0.332297  0.667703  0.249093  1
  Na  Na2  1  0.667703  0.332297  0.249093  1
  Na  Na3  1  0.832297  0.832297  0.749093  1
  V  V4  1  0.000000  0.500000  0.469882  1
  V  V5  1  0.000000  0.500000  0.969882  1
  V  V6  1  0.500000  0.000000  0.469882  1
  V  V7  1  0.500000  0.000000  0.969882  1
  P  P8  1  0.125152  0.874848  0.490753  1
  P  P9  1  0.134212  0.865788  0.995425  1
  P  P10  1  0.365788  0.365788  0.495425  1
  P  P11  1  0.374848  0.374848  0.990753  1
  P  P12  1  0.634212  0.634212  0.495425  1
  P  P13  1  0.625152  0.625152  0.990753  1
  P  P14  1  0.874848  0.125152  0.490753  1
  P  P15  1  0.865788  0.134212  0.995425  1
  O  O16  1  0.000000  0.500000  0.127297  1
  O  O17  1  0.000000  0.500000  0.627297  1
  O  O18  1  0.000000  0.000000  0.421956  1
  O  O19  1  0.000000  0.000000  0.947241  1
  O  O20  1  0.080164  0.709241  0.425982  1
  O  O21  1  0.074688  0.711382  0.919883  1
  O  O22  1  0.151406  0.848594  0.139783  1
  O  O23  1  0.117788  0.882212  0.637008  1
  O  O24  1  0.211382  0.425312  0.419883  1
  O  O25  1  0.209241  0.419836  0.925982  1
  O  O26  1  0.290759  0.919836  0.425982  1
  O  O27  1  0.288618  0.925312  0.919883  1
  O  O28  1  0.382212  0.382212  0.137008  1
  O  O29  1  0.348594  0.348594  0.639783  1
  O  O30  1  0.425312  0.211382  0.419883  1
  O  O31  1  0.419836  0.209241  0.925982  1
  O  O32  1  0.500000  0.000000  0.627297  1
  O  O33  1  0.500000  0.500000  0.447241  1
  O  O34  1  0.500000  0.000000  0.127297  1
  O  O35  1  0.500000  0.500000  0.921956  1
  O  O36  1  0.574688  0.788618  0.419883  1
  O  O37  1  0.580164  0.790759  0.925982  1
  O  O38  1  0.617788  0.617788  0.137008  1
  O  O39  1  0.651406  0.651406  0.639783  1
  O  O40  1  0.709241  0.080164  0.425982  1
  O  O41  1  0.711382  0.074688  0.919883  1
  O  O42  1  0.788618  0.574688  0.419883  1
  O  O43  1  0.790759  0.580164  0.925982  1
  O  O44  1  0.848594  0.151406  0.139783  1
  O  O45  1  0.882212  0.117788  0.637008  1
  O  O46  1  0.919836  0.290759  0.425982  1
  O  O47  1  0.925312  0.288618  0.919883  1
