# generated using pymatgen
data_Ag2Hg3
_symmetry_space_group_name_H-M   'P 1'
_cell_length_a   8.93220587
_cell_length_b   8.95583782
_cell_length_c   14.60412779
_cell_angle_alpha   90.35920860
_cell_angle_beta   90.55386685
_cell_angle_gamma   109.79762549
_symmetry_Int_Tables_number   1
_chemical_formula_structural   Ag2Hg3
_chemical_formula_sum   'Ag20 Hg30'
_cell_volume   1099.10454969
_cell_formula_units_Z   10
loop_
 _symmetry_equiv_pos_site_id
 _symmetry_equiv_pos_as_xyz
  1  'x, y, z'
loop_
 _atom_site_type_symbol
 _atom_site_label
 _atom_site_symmetry_multiplicity
 _atom_site_fract_x
 _atom_site_fract_y
 _atom_site_fract_z
 _atom_site_occupancy
  Ag  Ag0  1  0.004005  0.668697  0.999826  1
  Ag  Ag1  1  0.813385  0.181484  0.825894  1
  Ag  Ag2  1  0.645817  0.640958  0.002216  1
  Ag  Ag3  1  0.357190  0.358162  0.999421  1
  Ag  Ag4  1  0.682961  0.325873  0.675605  1
  Ag  Ag5  1  0.663724  0.991955  0.001791  1
  Ag  Ag6  1  0.171441  0.169435  0.834157  1
  Ag  Ag7  1  0.496164  0.163098  0.504147  1
  Ag  Ag8  1  0.666171  0.669420  0.670642  1
  Ag  Ag9  1  0.855180  0.854352  0.500498  1
  Ag  Ag10  1  0.141332  0.144404  0.498558  1
  Ag  Ag11  1  0.179293  0.821084  0.822702  1
  Ag  Ag12  1  0.327888  0.678346  0.678300  1
  Ag  Ag13  1  0.667450  0.306721  0.320922  1
  Ag  Ag14  1  0.825144  0.182831  0.174338  1
  Ag  Ag15  1  0.165158  0.502350  0.501779  1
  Ag  Ag16  1  0.665408  0.671291  0.332752  1
  Ag  Ag17  1  0.166802  0.165505  0.170421  1
  Ag  Ag18  1  0.318957  0.678019  0.320546  1
  Ag  Ag19  1  0.179169  0.824548  0.176386  1
  Hg  Hg20  1  0.000176  0.230875  0.999223  1
  Hg  Hg21  1  0.791663  0.520915  0.839011  1
  Hg  Hg22  1  0.878478  0.880163  0.880607  1
  Hg  Hg23  1  0.373333  0.073789  0.703914  1
  Hg  Hg24  1  0.982072  0.611683  0.653767  1
  Hg  Hg25  1  0.448762  0.475442  0.816451  1
  Hg  Hg26  1  0.352286  0.718111  0.983394  1
  Hg  Hg27  1  0.825949  0.188110  0.465701  1
  Hg  Hg28  1  0.998047  0.949740  0.683347  1
  Hg  Hg29  1  0.542089  0.878078  0.817989  1
  Hg  Hg30  1  0.114430  0.479979  0.845389  1
  Hg  Hg31  1  0.731574  0.497363  0.497214  1
  Hg  Hg32  1  0.256355  0.014762  0.993009  1
  Hg  Hg33  1  0.383912  0.387683  0.613859  1
  Hg  Hg34  1  0.020546  0.288847  0.659786  1
  Hg  Hg35  1  0.000571  0.679264  0.367308  1
  Hg  Hg36  1  0.673685  0.000927  0.633247  1
  Hg  Hg37  1  0.316872  0.020896  0.338459  1
  Hg  Hg38  1  0.506074  0.749880  0.490184  1
  Hg  Hg39  1  0.380816  0.380832  0.382768  1
  Hg  Hg40  1  0.852407  0.539235  0.180092  1
  Hg  Hg41  1  0.483582  0.113043  0.158596  1
  Hg  Hg42  1  0.923841  0.987239  0.316219  1
  Hg  Hg43  1  0.491873  0.452801  0.182971  1
  Hg  Hg44  1  0.221793  0.854584  0.526409  1
  Hg  Hg45  1  0.685161  0.322641  0.004569  1
  Hg  Hg46  1  0.048614  0.358430  0.317464  1
  Hg  Hg47  1  0.889967  0.883375  0.115189  1
  Hg  Hg48  1  0.545549  0.810057  0.177480  1
  Hg  Hg49  1  0.174800  0.501745  0.132389  1
