# generated using pymatgen
data_LiV(PO3)3
_symmetry_space_group_name_H-M   'P 1'
_cell_length_a   5.36107859
_cell_length_b   10.74898431
_cell_length_c   12.02187653
_cell_angle_alpha   90.00000000
_cell_angle_beta   90.00000000
_cell_angle_gamma   90.00000000
_symmetry_Int_Tables_number   1
_chemical_formula_structural   LiV(PO3)3
_chemical_formula_sum   'Li4 V4 P12 O36'
_cell_volume   692.77445597
_cell_formula_units_Z   4
loop_
 _symmetry_equiv_pos_site_id
 _symmetry_equiv_pos_as_xyz
  1  'x, y, z'
loop_
 _atom_site_type_symbol
 _atom_site_label
 _atom_site_symmetry_multiplicity
 _atom_site_fract_x
 _atom_site_fract_y
 _atom_site_fract_z
 _atom_site_occupancy
  Li  Li0  1  0.109600  0.112444  0.086734  1
  Li  Li1  1  0.609600  0.387556  0.913266  1
  Li  Li2  1  0.890400  0.612444  0.413266  1
  Li  Li3  1  0.390400  0.887556  0.586734  1
  V  V4  1  0.597910  0.034641  0.869292  1
  V  V5  1  0.097910  0.465359  0.130708  1
  V  V6  1  0.402090  0.534641  0.630708  1
  V  V7  1  0.902090  0.965359  0.369292  1
  P  P8  1  0.881780  0.073480  0.626061  1
  P  P9  1  0.399108  0.152861  0.361558  1
  P  P10  1  0.082320  0.194894  0.821519  1
  P  P11  1  0.582320  0.305106  0.178481  1
  P  P12  1  0.899108  0.347139  0.638442  1
  P  P13  1  0.381780  0.426520  0.373939  1
  P  P14  1  0.118220  0.573480  0.873939  1
  P  P15  1  0.600892  0.652861  0.138442  1
  P  P16  1  0.917680  0.694894  0.678481  1
  P  P17  1  0.417680  0.805106  0.321519  1
  P  P18  1  0.100892  0.847139  0.861558  1
  P  P19  1  0.618220  0.926520  0.126061  1
  O  O20  1  0.492790  0.011893  0.043743  1
  O  O21  1  0.634104  0.036760  0.676159  1
  O  O22  1  0.552984  0.063400  0.428370  1
  O  O23  1  0.080006  0.087391  0.727495  1
  O  O24  1  0.141061  0.117948  0.324340  1
  O  O25  1  0.850127  0.191984  0.892858  1
  O  O26  1  0.331311  0.187848  0.877858  1
  O  O27  1  0.572032  0.182117  0.253453  1
  O  O28  1  0.885518  0.213463  0.575957  1
  O  O29  1  0.385518  0.286537  0.424043  1
  O  O30  1  0.072032  0.317883  0.746547  1
  O  O31  1  0.831311  0.312152  0.122142  1
  O  O32  1  0.350127  0.308016  0.107142  1
  O  O33  1  0.641061  0.382052  0.675660  1
  O  O34  1  0.580006  0.412609  0.272505  1
  O  O35  1  0.052984  0.436600  0.571630  1
  O  O36  1  0.134104  0.463240  0.323841  1
  O  O37  1  0.992790  0.488107  0.956257  1
  O  O38  1  0.507210  0.511893  0.456257  1
  O  O39  1  0.365896  0.536760  0.823841  1
  O  O40  1  0.447016  0.563400  0.071630  1
  O  O41  1  0.919994  0.587391  0.772505  1
  O  O42  1  0.858939  0.617948  0.175660  1
  O  O43  1  0.149873  0.691984  0.607142  1
  O  O44  1  0.668689  0.687848  0.622142  1
  O  O45  1  0.427968  0.682117  0.246547  1
  O  O46  1  0.114482  0.713463  0.924043  1
  O  O47  1  0.614482  0.786537  0.075957  1
  O  O48  1  0.927968  0.817883  0.753453  1
  O  O49  1  0.168689  0.812152  0.377858  1
  O  O50  1  0.649873  0.808016  0.392858  1
  O  O51  1  0.358939  0.882052  0.824340  1
  O  O52  1  0.419994  0.912609  0.227495  1
  O  O53  1  0.947016  0.936600  0.928370  1
  O  O54  1  0.865896  0.963240  0.176159  1
  O  O55  1  0.007210  0.988107  0.543743  1
