# generated using pymatgen
data_CaBe3O4
_symmetry_space_group_name_H-M   'P 1'
_cell_length_a   4.57656132
_cell_length_b   4.57656132
_cell_length_c   8.78688632
_cell_angle_alpha   90.00000000
_cell_angle_beta   90.00000000
_cell_angle_gamma   120.00000000
_symmetry_Int_Tables_number   1
_chemical_formula_structural   CaBe3O4
_chemical_formula_sum   'Ca2 Be6 O8'
_cell_volume   159.38381240
_cell_formula_units_Z   2
loop_
 _symmetry_equiv_pos_site_id
 _symmetry_equiv_pos_as_xyz
  1  'x, y, z'
loop_
 _atom_site_type_symbol
 _atom_site_label
 _atom_site_symmetry_multiplicity
 _atom_site_fract_x
 _atom_site_fract_y
 _atom_site_fract_z
 _atom_site_occupancy
  Ca  Ca0  1  0.333333  0.666667  0.750000  1
  Ca  Ca1  1  0.666667  0.333333  0.250000  1
  Be  Be2  1  0.333333  0.666667  0.070754  1
  Be  Be3  1  0.000000  0.000000  0.500000  1
  Be  Be4  1  0.000000  0.000000  0.000000  1
  Be  Be5  1  0.333333  0.666667  0.429246  1
  Be  Be6  1  0.666667  0.333333  0.570754  1
  Be  Be7  1  0.666667  0.333333  0.929246  1
  O  O8  1  0.000000  0.665165  0.500000  1
  O  O9  1  0.000000  0.665165  0.000000  1
  O  O10  1  0.333333  0.666667  0.250000  1
  O  O11  1  0.334835  0.334835  0.500000  1
  O  O12  1  0.334835  0.334835  0.000000  1
  O  O13  1  0.666667  0.333333  0.750000  1
  O  O14  1  0.665165  0.000000  0.500000  1
  O  O15  1  0.665165  0.000000  0.000000  1
