# generated using pymatgen
data_DyYO3
_symmetry_space_group_name_H-M   'P 1'
_cell_length_a   6.44561666
_cell_length_b   6.44561666
_cell_length_c   12.80003879
_cell_angle_alpha   90.00000000
_cell_angle_beta   90.00000000
_cell_angle_gamma   120.00000000
_symmetry_Int_Tables_number   1
_chemical_formula_structural   DyYO3
_chemical_formula_sum   'Dy6 Y6 O18'
_cell_volume   460.54371957
_cell_formula_units_Z   6
loop_
 _symmetry_equiv_pos_site_id
 _symmetry_equiv_pos_as_xyz
  1  'x, y, z'
loop_
 _atom_site_type_symbol
 _atom_site_label
 _atom_site_symmetry_multiplicity
 _atom_site_fract_x
 _atom_site_fract_y
 _atom_site_fract_z
 _atom_site_occupancy
  Dy  Dy0  1  0.000000  0.666839  0.501388  1
  Dy  Dy1  1  0.000000  0.333161  0.001388  1
  Dy  Dy2  1  0.333161  0.333161  0.501388  1
  Dy  Dy3  1  0.666839  0.666839  0.001388  1
  Dy  Dy4  1  0.333161  0.000000  0.001388  1
  Dy  Dy5  1  0.666839  0.000000  0.501388  1
  Y  Y6  1  0.333333  0.666667  0.236765  1
  Y  Y7  1  0.000000  0.000000  0.269918  1
  Y  Y8  1  0.000000  0.000000  0.769918  1
  Y  Y9  1  0.333333  0.666667  0.736765  1
  Y  Y10  1  0.666667  0.333333  0.736765  1
  Y  Y11  1  0.666667  0.333333  0.236765  1
  O  O12  1  0.000000  0.694004  0.675417  1
  O  O13  1  0.000000  0.636449  0.329020  1
  O  O14  1  0.000000  0.363551  0.829020  1
  O  O15  1  0.000000  0.305996  0.175417  1
  O  O16  1  0.333333  0.666667  0.030031  1
  O  O17  1  0.000000  0.000000  0.466630  1
  O  O18  1  0.000000  0.000000  0.966630  1
  O  O19  1  0.333333  0.666667  0.530031  1
  O  O20  1  0.305996  0.305996  0.675417  1
  O  O21  1  0.363551  0.363551  0.329020  1
  O  O22  1  0.305996  0.000000  0.175417  1
  O  O23  1  0.636449  0.636449  0.829020  1
  O  O24  1  0.694004  0.694004  0.175417  1
  O  O25  1  0.363551  0.000000  0.829020  1
  O  O26  1  0.666667  0.333333  0.530031  1
  O  O27  1  0.666667  0.333333  0.030031  1
  O  O28  1  0.636449  0.000000  0.329020  1
  O  O29  1  0.694004  0.000000  0.675417  1
