# generated using pymatgen
data_LiCo2(PO4)3
_symmetry_space_group_name_H-M   'P 1'
_cell_length_a   8.39170154
_cell_length_b   8.40822169
_cell_length_c   8.97552182
_cell_angle_alpha   90.24854269
_cell_angle_beta   117.76115031
_cell_angle_gamma   119.87769442
_symmetry_Int_Tables_number   1
_chemical_formula_structural   LiCo2(PO4)3
_chemical_formula_sum   'Li2 Co4 P6 O24'
_cell_volume   462.29512535
_cell_formula_units_Z   2
loop_
 _symmetry_equiv_pos_site_id
 _symmetry_equiv_pos_as_xyz
  1  'x, y, z'
loop_
 _atom_site_type_symbol
 _atom_site_label
 _atom_site_symmetry_multiplicity
 _atom_site_fract_x
 _atom_site_fract_y
 _atom_site_fract_z
 _atom_site_occupancy
  Li  Li0  1  0.185086  0.263271  0.861696  1
  Li  Li1  1  0.814914  0.736729  0.138304  1
  Co  Co2  1  0.714178  0.853405  0.571353  1
  Co  Co3  1  0.297956  0.663418  0.943373  1
  Co  Co4  1  0.702044  0.336582  0.056627  1
  Co  Co5  1  0.285822  0.146595  0.428647  1
  P  P6  1  0.500052  0.537668  0.750710  1
  P  P7  1  0.789343  0.251877  0.749906  1
  P  P8  1  0.213983  0.964458  0.749366  1
  P  P9  1  0.786017  0.035542  0.250634  1
  P  P10  1  0.210657  0.748123  0.250094  1
  P  P11  1  0.499948  0.462332  0.249290  1
  O  O12  1  0.319219  0.463977  0.082855  1
  O  O13  1  0.628252  0.833954  0.108209  1
  O  O14  1  0.264375  0.776598  0.103479  1
  O  O15  1  0.327053  0.505880  0.792064  1
  O  O16  1  0.611196  0.737156  0.726934  1
  O  O17  1  0.387628  0.377113  0.583377  1
  O  O18  1  0.862324  0.118401  0.735887  1
  O  O19  1  0.970394  0.464302  0.798200  1
  O  O20  1  0.293936  0.832111  0.802464  1
  O  O21  1  0.810428  0.011056  0.429047  1
  O  O22  1  0.011591  0.120831  0.277133  1
  O  O23  1  0.422019  0.807169  0.423513  1
  O  O24  1  0.577981  0.192831  0.576487  1
  O  O25  1  0.988409  0.879169  0.722867  1
  O  O26  1  0.189572  0.988944  0.570953  1
  O  O27  1  0.706064  0.167889  0.197536  1
  O  O28  1  0.029606  0.535698  0.201800  1
  O  O29  1  0.137676  0.881599  0.264113  1
  O  O30  1  0.612372  0.622887  0.416623  1
  O  O31  1  0.388804  0.262844  0.273066  1
  O  O32  1  0.672947  0.494120  0.207936  1
  O  O33  1  0.735625  0.223402  0.896521  1
  O  O34  1  0.371748  0.166046  0.891791  1
  O  O35  1  0.680781  0.536023  0.917145  1
