# generated using pymatgen
data_Na3LiMnBPO7
_symmetry_space_group_name_H-M   'P 1'
_cell_length_a   5.27888998
_cell_length_b   6.90662948
_cell_length_c   9.50343172
_cell_angle_alpha   90.00000000
_cell_angle_beta   92.32177678
_cell_angle_gamma   90.00000000
_symmetry_Int_Tables_number   1
_chemical_formula_structural   Na3LiMnBPO7
_chemical_formula_sum   'Na6 Li2 Mn2 B2 P2 O14'
_cell_volume   346.20437793
_cell_formula_units_Z   2
loop_
 _symmetry_equiv_pos_site_id
 _symmetry_equiv_pos_as_xyz
  1  'x, y, z'
loop_
 _atom_site_type_symbol
 _atom_site_label
 _atom_site_symmetry_multiplicity
 _atom_site_fract_x
 _atom_site_fract_y
 _atom_site_fract_z
 _atom_site_occupancy
  Na  Na0  1  0.245777  0.750000  0.571691  1
  Na  Na1  1  0.765302  0.013161  0.720528  1
  Na  Na2  1  0.765302  0.486839  0.720528  1
  Na  Na3  1  0.234698  0.513161  0.279472  1
  Na  Na4  1  0.234698  0.986839  0.279472  1
  Na  Na5  1  0.754223  0.250000  0.428309  1
  Li  Li6  1  0.000000  0.000000  0.000000  1
  Li  Li7  1  0.000000  0.500000  0.000000  1
  Mn  Mn8  1  0.270280  0.250000  0.821607  1
  Mn  Mn9  1  0.729720  0.750000  0.178393  1
  B  B10  1  0.269695  0.250000  0.556707  1
  B  B11  1  0.730305  0.750000  0.443293  1
  P  P12  1  0.313872  0.750000  0.921048  1
  P  P13  1  0.686128  0.250000  0.078952  1
  O  O14  1  0.713359  0.750000  0.586258  1
  O  O15  1  0.040242  0.250000  0.626171  1
  O  O16  1  0.488882  0.250000  0.646484  1
  O  O17  1  0.218268  0.932761  0.837632  1
  O  O18  1  0.218268  0.567239  0.837632  1
  O  O19  1  0.830264  0.250000  0.935797  1
  O  O20  1  0.604195  0.750000  0.949366  1
  O  O21  1  0.395805  0.250000  0.050634  1
  O  O22  1  0.169736  0.750000  0.064203  1
  O  O23  1  0.781732  0.432761  0.162368  1
  O  O24  1  0.781732  0.067239  0.162368  1
  O  O25  1  0.511118  0.750000  0.353516  1
  O  O26  1  0.959758  0.750000  0.373829  1
  O  O27  1  0.286641  0.250000  0.413742  1
