# generated using pymatgen
data_LiSn(PO3)3
_symmetry_space_group_name_H-M   'P 1'
_cell_length_a   5.61287474
_cell_length_b   10.91386365
_cell_length_c   12.66435931
_cell_angle_alpha   90.00000000
_cell_angle_beta   90.00000000
_cell_angle_gamma   90.00000000
_symmetry_Int_Tables_number   1
_chemical_formula_structural   LiSn(PO3)3
_chemical_formula_sum   'Li4 Sn4 P12 O36'
_cell_volume   775.79521716
_cell_formula_units_Z   4
loop_
 _symmetry_equiv_pos_site_id
 _symmetry_equiv_pos_as_xyz
  1  'x, y, z'
loop_
 _atom_site_type_symbol
 _atom_site_label
 _atom_site_symmetry_multiplicity
 _atom_site_fract_x
 _atom_site_fract_y
 _atom_site_fract_z
 _atom_site_occupancy
  Li  Li0  1  0.132298  0.104643  0.097308  1
  Li  Li1  1  0.632298  0.395357  0.902692  1
  Li  Li2  1  0.867702  0.604643  0.402692  1
  Li  Li3  1  0.367702  0.895357  0.597308  1
  Sn  Sn4  1  0.583183  0.028469  0.867798  1
  Sn  Sn5  1  0.083183  0.471531  0.132202  1
  Sn  Sn6  1  0.416817  0.528469  0.632202  1
  Sn  Sn7  1  0.916817  0.971531  0.367798  1
  P  P8  1  0.894765  0.071653  0.631182  1
  P  P9  1  0.397753  0.159406  0.358175  1
  P  P10  1  0.077810  0.206154  0.819253  1
  P  P11  1  0.577810  0.293846  0.180747  1
  P  P12  1  0.897753  0.340594  0.641825  1
  P  P13  1  0.394765  0.428347  0.368818  1
  P  P14  1  0.105235  0.571653  0.868818  1
  P  P15  1  0.602247  0.659406  0.141825  1
  P  P16  1  0.922190  0.706154  0.680747  1
  P  P17  1  0.422190  0.793846  0.319253  1
  P  P18  1  0.102247  0.840594  0.858175  1
  P  P19  1  0.605235  0.928347  0.131182  1
  O  O20  1  0.455157  0.007935  0.059793  1
  O  O21  1  0.647186  0.030031  0.659489  1
  O  O22  1  0.499262  0.065157  0.430572  1
  O  O23  1  0.049702  0.089961  0.739116  1
  O  O24  1  0.160222  0.137953  0.305297  1
  O  O25  1  0.857660  0.218887  0.886645  1
  O  O26  1  0.315803  0.194047  0.872444  1
  O  O27  1  0.595124  0.183255  0.265128  1
  O  O28  1  0.896701  0.208671  0.582063  1
  O  O29  1  0.396701  0.291329  0.417937  1
  O  O30  1  0.095124  0.316745  0.734872  1
  O  O31  1  0.815803  0.305953  0.127556  1
  O  O32  1  0.357660  0.281113  0.113355  1
  O  O33  1  0.660222  0.362047  0.694703  1
  O  O34  1  0.549702  0.410039  0.260884  1
  O  O35  1  0.999262  0.434843  0.569428  1
  O  O36  1  0.147186  0.469969  0.340511  1
  O  O37  1  0.955157  0.492065  0.940207  1
  O  O38  1  0.544843  0.507935  0.440207  1
  O  O39  1  0.352814  0.530031  0.840511  1
  O  O40  1  0.500738  0.565157  0.069428  1
  O  O41  1  0.950298  0.589961  0.760884  1
  O  O42  1  0.839778  0.637953  0.194703  1
  O  O43  1  0.142340  0.718887  0.613355  1
  O  O44  1  0.684197  0.694047  0.627556  1
  O  O45  1  0.404876  0.683255  0.234872  1
  O  O46  1  0.103299  0.708671  0.917937  1
  O  O47  1  0.603299  0.791329  0.082063  1
  O  O48  1  0.904876  0.816745  0.765128  1
  O  O49  1  0.184197  0.805953  0.372444  1
  O  O50  1  0.642340  0.781113  0.386645  1
  O  O51  1  0.339778  0.862047  0.805297  1
  O  O52  1  0.450298  0.910039  0.239116  1
  O  O53  1  0.000738  0.934843  0.930572  1
  O  O54  1  0.852814  0.969969  0.159489  1
  O  O55  1  0.044843  0.992065  0.559793  1
