# generated using pymatgen
data_Li4CrO5
_symmetry_space_group_name_H-M   'P 1'
_cell_length_a   5.25965434
_cell_length_b   5.25965434
_cell_length_c   7.91609101
_cell_angle_alpha   83.51996044
_cell_angle_beta   96.48003956
_cell_angle_gamma   112.67936111
_symmetry_Int_Tables_number   1
_chemical_formula_structural   Li4CrO5
_chemical_formula_sum   'Li8 Cr2 O10'
_cell_volume   200.19145959
_cell_formula_units_Z   2
loop_
 _symmetry_equiv_pos_site_id
 _symmetry_equiv_pos_as_xyz
  1  'x, y, z'
loop_
 _atom_site_type_symbol
 _atom_site_label
 _atom_site_symmetry_multiplicity
 _atom_site_fract_x
 _atom_site_fract_y
 _atom_site_fract_z
 _atom_site_occupancy
  Li  Li0  1  0.637095  0.034961  0.352018  1
  Li  Li1  1  0.965039  0.362905  0.852018  1
  Li  Li2  1  0.780001  0.566405  0.444486  1
  Li  Li3  1  0.433595  0.219999  0.944486  1
  Li  Li4  1  0.566405  0.780001  0.055514  1
  Li  Li5  1  0.219999  0.433595  0.555514  1
  Li  Li6  1  0.034961  0.637095  0.147982  1
  Li  Li7  1  0.362905  0.965039  0.647982  1
  Cr  Cr8  1  0.171347  0.171347  0.250000  1
  Cr  Cr9  1  0.828653  0.828653  0.750000  1
  O  O10  1  0.989238  0.353252  0.340582  1
  O  O11  1  0.646748  0.010762  0.840582  1
  O  O12  1  0.409588  0.232253  0.427527  1
  O  O13  1  0.767747  0.590412  0.927527  1
  O  O14  1  0.871322  0.871322  0.250000  1
  O  O15  1  0.128678  0.128678  0.750000  1
  O  O16  1  0.232253  0.409588  0.072473  1
  O  O17  1  0.590412  0.767747  0.572473  1
  O  O18  1  0.353252  0.989238  0.159418  1
  O  O19  1  0.010762  0.646748  0.659418  1
