# generated using pymatgen
data_Li2Co3SnO8
_symmetry_space_group_name_H-M   'P 1'
_cell_length_a   5.95811798
_cell_length_b   5.95811798
_cell_length_c   5.95811798
_cell_angle_alpha   57.87875659
_cell_angle_beta   57.87875659
_cell_angle_gamma   57.87875659
_symmetry_Int_Tables_number   1
_chemical_formula_structural   Li2Co3SnO8
_chemical_formula_sum   'Li2 Co3 Sn1 O8'
_cell_volume   142.27680808
_cell_formula_units_Z   1
loop_
 _symmetry_equiv_pos_site_id
 _symmetry_equiv_pos_as_xyz
  1  'x, y, z'
loop_
 _atom_site_type_symbol
 _atom_site_label
 _atom_site_symmetry_multiplicity
 _atom_site_fract_x
 _atom_site_fract_y
 _atom_site_fract_z
 _atom_site_occupancy
  Li  Li0  1  0.115197  0.115197  0.115197  1
  Li  Li1  1  0.884803  0.884803  0.884803  1
  Co  Co2  1  0.500000  0.500000  0.000000  1
  Co  Co3  1  0.000000  0.500000  0.500000  1
  Co  Co4  1  0.500000  0.000000  0.500000  1
  Sn  Sn5  1  0.500000  0.500000  0.500000  1
  O  O6  1  0.712035  0.251874  0.251874  1
  O  O7  1  0.251874  0.251874  0.712035  1
  O  O8  1  0.730352  0.730352  0.730352  1
  O  O9  1  0.251874  0.712035  0.251874  1
  O  O10  1  0.748126  0.287965  0.748126  1
  O  O11  1  0.269648  0.269648  0.269648  1
  O  O12  1  0.748126  0.748126  0.287965  1
  O  O13  1  0.287965  0.748126  0.748126  1
