# generated using pymatgen
data_LiFe(PO3)3
_symmetry_space_group_name_H-M   'P 1'
_cell_length_a   5.20853749
_cell_length_b   12.08291666
_cell_length_c   12.53166860
_cell_angle_alpha   90.00000000
_cell_angle_beta   90.00000000
_cell_angle_gamma   90.00000000
_symmetry_Int_Tables_number   1
_chemical_formula_structural   LiFe(PO3)3
_chemical_formula_sum   'Li4 Fe4 P12 O36'
_cell_volume   788.67209710
_cell_formula_units_Z   4
loop_
 _symmetry_equiv_pos_site_id
 _symmetry_equiv_pos_as_xyz
  1  'x, y, z'
loop_
 _atom_site_type_symbol
 _atom_site_label
 _atom_site_symmetry_multiplicity
 _atom_site_fract_x
 _atom_site_fract_y
 _atom_site_fract_z
 _atom_site_occupancy
  Li  Li0  1  0.050677  0.098285  0.250000  1
  Li  Li1  1  0.050677  0.401715  0.750000  1
  Li  Li2  1  0.949323  0.598285  0.250000  1
  Li  Li3  1  0.949323  0.901715  0.750000  1
  Fe  Fe4  1  0.000000  0.000000  0.000000  1
  Fe  Fe5  1  0.000000  0.500000  0.000000  1
  Fe  Fe6  1  0.000000  0.000000  0.500000  1
  Fe  Fe7  1  0.000000  0.500000  0.500000  1
  P  P8  1  0.227131  0.750000  0.000000  1
  P  P9  1  0.227131  0.750000  0.500000  1
  P  P10  1  0.497351  0.076409  0.634278  1
  P  P11  1  0.497351  0.423591  0.134278  1
  P  P12  1  0.497351  0.076409  0.865722  1
  P  P13  1  0.497351  0.423591  0.365722  1
  P  P14  1  0.502649  0.576409  0.634278  1
  P  P15  1  0.502649  0.923591  0.134278  1
  P  P16  1  0.502649  0.923591  0.365722  1
  P  P17  1  0.502649  0.576409  0.865722  1
  P  P18  1  0.772869  0.250000  0.000000  1
  P  P19  1  0.772869  0.250000  0.500000  1
  O  O20  1  0.084006  0.670522  0.071135  1
  O  O21  1  0.084006  0.670522  0.428865  1
  O  O22  1  0.084006  0.829478  0.571135  1
  O  O23  1  0.084006  0.829478  0.928865  1
  O  O24  1  0.214148  0.446138  0.126031  1
  O  O25  1  0.214148  0.053862  0.626031  1
  O  O26  1  0.214148  0.446138  0.373969  1
  O  O27  1  0.214148  0.053862  0.873969  1
  O  O28  1  0.315982  0.017237  0.386871  1
  O  O29  1  0.315982  0.017237  0.113129  1
  O  O30  1  0.315982  0.482763  0.886871  1
  O  O31  1  0.315982  0.482763  0.613129  1
  O  O32  1  0.445548  0.872911  0.250000  1
  O  O33  1  0.445548  0.627089  0.750000  1
  O  O34  1  0.439563  0.683787  0.567707  1
  O  O35  1  0.439563  0.816213  0.067707  1
  O  O36  1  0.439563  0.683787  0.932293  1
  O  O37  1  0.439563  0.816213  0.432293  1
  O  O38  1  0.560437  0.183787  0.567707  1
  O  O39  1  0.560437  0.316213  0.067707  1
  O  O40  1  0.560437  0.316213  0.432293  1
  O  O41  1  0.560437  0.183787  0.932293  1
  O  O42  1  0.554452  0.127089  0.750000  1
  O  O43  1  0.554452  0.372911  0.250000  1
  O  O44  1  0.684018  0.517237  0.386871  1
  O  O45  1  0.684018  0.982763  0.613129  1
  O  O46  1  0.684018  0.517237  0.113129  1
  O  O47  1  0.684018  0.982763  0.886871  1
  O  O48  1  0.785852  0.553862  0.873969  1
  O  O49  1  0.785852  0.553862  0.626031  1
  O  O50  1  0.785852  0.946138  0.373969  1
  O  O51  1  0.785852  0.946138  0.126031  1
  O  O52  1  0.915994  0.170522  0.428865  1
  O  O53  1  0.915994  0.329478  0.571135  1
  O  O54  1  0.915994  0.170522  0.071135  1
  O  O55  1  0.915994  0.329478  0.928865  1
