# generated using pymatgen
data_NbSb3O8
_symmetry_space_group_name_H-M   'P 1'
_cell_length_a   4.97231090
_cell_length_b   5.59148585
_cell_length_c   23.90823789
_cell_angle_alpha   90.11138608
_cell_angle_beta   90.00648406
_cell_angle_gamma   90.08233540
_symmetry_Int_Tables_number   1
_chemical_formula_structural   NbSb3O8
_chemical_formula_sum   'Nb4 Sb12 O32'
_cell_volume   664.70937146
_cell_formula_units_Z   4
loop_
 _symmetry_equiv_pos_site_id
 _symmetry_equiv_pos_as_xyz
  1  'x, y, z'
loop_
 _atom_site_type_symbol
 _atom_site_label
 _atom_site_symmetry_multiplicity
 _atom_site_fract_x
 _atom_site_fract_y
 _atom_site_fract_z
 _atom_site_occupancy
  Nb  Nb0  1  0.002791  0.130953  0.036229  1
  Nb  Nb1  1  0.491912  0.387623  0.285570  1
  Nb  Nb2  1  0.997768  0.868964  0.786333  1
  Nb  Nb3  1  0.006546  0.887136  0.285640  1
  Sb  Sb4  1  0.543871  0.024292  0.660120  1
  Sb  Sb5  1  0.546729  0.029068  0.160822  1
  Sb  Sb6  1  0.999557  0.132802  0.535705  1
  Sb  Sb7  1  0.495497  0.368752  0.784222  1
  Sb  Sb8  1  0.046481  0.472559  0.909638  1
  Sb  Sb9  1  0.044386  0.475769  0.410644  1
  Sb  Sb10  1  0.957428  0.529167  0.660209  1
  Sb  Sb11  1  0.950403  0.527054  0.159675  1
  Sb  Sb12  1  0.499927  0.632637  0.535520  1
  Sb  Sb13  1  0.505130  0.630707  0.034341  1
  Sb  Sb14  1  0.455189  0.974879  0.910704  1
  Sb  Sb15  1  0.455372  0.976599  0.410619  1
  O  O16  1  0.295944  0.079016  0.757065  1
  O  O17  1  0.297338  0.069756  0.256248  1
  O  O18  1  0.786731  0.142514  0.809506  1
  O  O19  1  0.784472  0.134926  0.310157  1
  O  O20  1  0.162660  0.152957  0.456357  1
  O  O21  1  0.166910  0.153176  0.955590  1
  O  O22  1  0.842485  0.182085  0.612353  1
  O  O23  1  0.840001  0.183898  0.112083  1
  O  O24  1  0.342309  0.316196  0.861984  1
  O  O25  1  0.335278  0.314055  0.362247  1
  O  O26  1  0.667327  0.347612  0.705549  1
  O  O27  1  0.668989  0.346955  0.206580  1
  O  O28  1  0.289775  0.355672  0.563709  1
  O  O29  1  0.287865  0.359824  0.061607  1
  O  O30  1  0.791525  0.418424  0.005674  1
  O  O31  1  0.793853  0.418235  0.504935  1
  O  O32  1  0.208819  0.580947  0.755599  1
  O  O33  1  0.203071  0.570315  0.256417  1
  O  O34  1  0.715836  0.635110  0.310234  1
  O  O35  1  0.712479  0.640356  0.811587  1
  O  O36  1  0.334290  0.652117  0.955992  1
  O  O37  1  0.337129  0.652883  0.456263  1
  O  O38  1  0.656908  0.682190  0.611966  1
  O  O39  1  0.657108  0.684434  0.112151  1
  O  O40  1  0.161028  0.816729  0.862350  1
  O  O41  1  0.164728  0.814424  0.362172  1
  O  O42  1  0.832082  0.846776  0.705784  1
  O  O43  1  0.830528  0.846860  0.206005  1
  O  O44  1  0.209900  0.855674  0.563603  1
  O  O45  1  0.213790  0.857941  0.059397  1
  O  O46  1  0.705855  0.918408  0.504911  1
  O  O47  1  0.704001  0.920577  0.007132  1
