# generated using pymatgen
data_In2Bi2O7
_symmetry_space_group_name_H-M   'P 1'
_cell_length_a   8.11132449
_cell_length_b   5.56102534
_cell_length_c   14.01653869
_cell_angle_alpha   90.00000000
_cell_angle_beta   99.06068597
_cell_angle_gamma   90.00000000
_symmetry_Int_Tables_number   1
_chemical_formula_structural   In2Bi2O7
_chemical_formula_sum   'In8 Bi8 O28'
_cell_volume   624.35882037
_cell_formula_units_Z   4
loop_
 _symmetry_equiv_pos_site_id
 _symmetry_equiv_pos_as_xyz
  1  'x, y, z'
loop_
 _atom_site_type_symbol
 _atom_site_label
 _atom_site_symmetry_multiplicity
 _atom_site_fract_x
 _atom_site_fract_y
 _atom_site_fract_z
 _atom_site_occupancy
  In  In0  1  0.931948  0.273727  0.186017  1
  In  In1  1  0.978825  0.760809  0.386663  1
  In  In2  1  0.606918  0.763994  0.827540  1
  In  In3  1  0.540424  0.248123  0.623178  1
  In  In4  1  0.459576  0.748123  0.376822  1
  In  In5  1  0.393082  0.263994  0.172460  1
  In  In6  1  0.021175  0.260809  0.613337  1
  In  In7  1  0.068052  0.773727  0.813983  1
  Bi  Bi8  1  0.833606  0.327273  0.951742  1
  Bi  Bi9  1  0.766405  0.762309  0.578727  1
  Bi  Bi10  1  0.699378  0.224726  0.356010  1
  Bi  Bi11  1  0.620457  0.780250  0.123358  1
  Bi  Bi12  1  0.379543  0.280250  0.876642  1
  Bi  Bi13  1  0.300622  0.724726  0.643990  1
  Bi  Bi14  1  0.233595  0.262309  0.421273  1
  Bi  Bi15  1  0.166394  0.827273  0.048258  1
  O  O16  1  0.960943  0.562851  0.073656  1
  O  O17  1  0.032059  0.437662  0.316007  1
  O  O18  1  0.846286  0.585048  0.841346  1
  O  O19  1  0.781331  0.395350  0.630917  1
  O  O20  1  0.800953  0.091377  0.063986  1
  O  O21  1  0.917443  0.096663  0.466378  1
  O  O22  1  0.847327  0.983329  0.273381  1
  O  O23  1  0.637561  0.124445  0.868714  1
  O  O24  1  0.583787  0.892243  0.676211  1
  O  O25  1  0.728015  0.590852  0.410733  1
  O  O26  1  0.672835  0.408253  0.207647  1
  O  O27  1  0.600107  0.549808  0.961247  1
  O  O28  1  0.439049  0.565735  0.535327  1
  O  O29  1  0.476840  0.467663  0.741587  1
  O  O30  1  0.523160  0.967663  0.258413  1
  O  O31  1  0.560951  0.065735  0.464673  1
  O  O32  1  0.399893  0.049808  0.038753  1
  O  O33  1  0.327165  0.908253  0.792353  1
  O  O34  1  0.271985  0.090852  0.589267  1
  O  O35  1  0.416213  0.392243  0.323789  1
  O  O36  1  0.362439  0.624445  0.131286  1
  O  O37  1  0.152673  0.483329  0.726619  1
  O  O38  1  0.082557  0.596663  0.533622  1
  O  O39  1  0.199047  0.591377  0.936014  1
  O  O40  1  0.218669  0.895350  0.369083  1
  O  O41  1  0.153714  0.085048  0.158654  1
  O  O42  1  0.967941  0.937662  0.683993  1
  O  O43  1  0.039057  0.062851  0.926344  1
