# generated using pymatgen
data_Li2MnV(PO4)3
_symmetry_space_group_name_H-M   'P 1'
_cell_length_a   8.25838592
_cell_length_b   8.32925926
_cell_length_c   8.98137107
_cell_angle_alpha   117.61709519
_cell_angle_beta   88.78438134
_cell_angle_gamma   119.43473015
_symmetry_Int_Tables_number   1
_chemical_formula_structural   Li2MnV(PO4)3
_chemical_formula_sum   'Li4 Mn2 V2 P6 O24'
_cell_volume   459.34289078
_cell_formula_units_Z   2
loop_
 _symmetry_equiv_pos_site_id
 _symmetry_equiv_pos_as_xyz
  1  'x, y, z'
loop_
 _atom_site_type_symbol
 _atom_site_label
 _atom_site_symmetry_multiplicity
 _atom_site_fract_x
 _atom_site_fract_y
 _atom_site_fract_z
 _atom_site_occupancy
  Li  Li0  1  0.440727  0.257241  0.375200  1
  Li  Li1  1  0.259294  0.072599  0.865902  1
  Li  Li2  1  0.696419  0.740120  0.884687  1
  Li  Li3  1  0.939811  0.309972  0.878634  1
  Mn  Mn4  1  0.854106  0.151089  0.563887  1
  Mn  Mn5  1  0.139355  0.845232  0.430008  1
  V  V6  1  0.345109  0.653034  0.048180  1
  V  V7  1  0.657665  0.345701  0.963674  1
  P  P8  1  0.741943  0.543005  0.248654  1
  P  P9  1  0.038816  0.252469  0.251080  1
  P  P10  1  0.456533  0.953833  0.253812  1
  P  P11  1  0.543622  0.038584  0.754324  1
  P  P12  1  0.964768  0.747261  0.748196  1
  P  P13  1  0.264997  0.469726  0.752896  1
  O  O14  1  0.775744  0.520118  0.101338  1
  O  O15  1  0.872121  0.742773  0.262531  1
  O  O16  1  0.521683  0.513411  0.193748  1
  O  O17  1  0.164622  0.470633  0.185580  1
  O  O18  1  0.847357  0.213387  0.100151  1
  O  O19  1  0.482204  0.157923  0.099012  1
  O  O20  1  0.755256  0.370328  0.418667  1
  O  O21  1  0.148887  0.130822  0.281481  1
  O  O22  1  0.004004  0.209782  0.421938  1
  O  O23  1  0.463435  0.818981  0.182391  1
  O  O24  1  0.249185  0.880559  0.262224  1
  O  O25  1  0.610638  0.978682  0.418122  1
  O  O26  1  0.400203  0.031211  0.578719  1
  O  O27  1  0.756622  0.128171  0.742877  1
  O  O28  1  0.520740  0.169015  0.818600  1
  O  O29  1  0.987641  0.784668  0.574982  1
  O  O30  1  0.868867  0.874275  0.733884  1
  O  O31  1  0.227874  0.622785  0.578007  1
  O  O32  1  0.521732  0.831883  0.893079  1
  O  O33  1  0.164651  0.795425  0.885712  1
  O  O34  1  0.835962  0.526170  0.817335  1
  O  O35  1  0.482711  0.494355  0.819837  1
  O  O36  1  0.136511  0.261699  0.745784  1
  O  O37  1  0.214471  0.489553  0.893791  1
