# generated using pymatgen
data_Na2Ca3B5H2S2ClO18
_symmetry_space_group_name_H-M   'P 1'
_cell_length_a   6.46870664
_cell_length_b   6.46870664
_cell_length_c   18.98177341
_cell_angle_alpha   87.50657074
_cell_angle_beta   92.49342926
_cell_angle_gamma   104.53099346
_symmetry_Int_Tables_number   1
_chemical_formula_structural   Na2Ca3B5H2S2ClO18
_chemical_formula_sum   'Na4 Ca6 B10 H4 S4 Cl2 O36'
_cell_volume   767.70498788
_cell_formula_units_Z   2
loop_
 _symmetry_equiv_pos_site_id
 _symmetry_equiv_pos_as_xyz
  1  'x, y, z'
loop_
 _atom_site_type_symbol
 _atom_site_label
 _atom_site_symmetry_multiplicity
 _atom_site_fract_x
 _atom_site_fract_y
 _atom_site_fract_z
 _atom_site_occupancy
  Na  Na0  1  0.118163  0.419398  0.921897  1
  Na  Na1  1  0.419398  0.118163  0.578103  1
  Na  Na2  1  0.881837  0.580602  0.078103  1
  Na  Na3  1  0.580602  0.881837  0.421897  1
  Ca  Ca4  1  0.389965  0.389965  0.750000  1
  Ca  Ca5  1  0.610035  0.610035  0.250000  1
  Ca  Ca6  1  0.827681  0.654180  0.597082  1
  Ca  Ca7  1  0.654180  0.827681  0.902918  1
  Ca  Ca8  1  0.172319  0.345820  0.402918  1
  Ca  Ca9  1  0.345820  0.172319  0.097082  1
  B  B10  1  0.153653  0.814288  0.818127  1
  B  B11  1  0.814288  0.153653  0.681873  1
  B  B12  1  0.846347  0.185712  0.181873  1
  B  B13  1  0.185712  0.846347  0.318127  1
  B  B14  1  0.968892  0.493772  0.748459  1
  B  B15  1  0.493772  0.968892  0.751541  1
  B  B16  1  0.031108  0.506228  0.251541  1
  B  B17  1  0.506228  0.031108  0.248459  1
  B  B18  1  0.810728  0.810728  0.750000  1
  B  B19  1  0.189272  0.189272  0.250000  1
  H  H20  1  0.880499  0.193797  0.575722  1
  H  H21  1  0.193797  0.880499  0.924278  1
  H  H22  1  0.119501  0.806203  0.424278  1
  H  H23  1  0.806203  0.119501  0.075722  1
  S  S24  1  0.339153  0.616050  0.577309  1
  S  S25  1  0.616050  0.339153  0.922691  1
  S  S26  1  0.660847  0.383950  0.422691  1
  S  S27  1  0.383950  0.660847  0.077309  1
  Cl  Cl28  1  0.000000  0.000000  0.000000  1
  Cl  Cl29  1  1.000000  0.000000  0.500000  1
  O  O30  1  0.440217  0.469919  0.624527  1
  O  O31  1  0.469919  0.440217  0.875473  1
  O  O32  1  0.559783  0.530081  0.375473  1
  O  O33  1  0.530081  0.559783  0.124527  1
  O  O34  1  0.217194  0.493961  0.519316  1
  O  O35  1  0.493961  0.217194  0.980684  1
  O  O36  1  0.782806  0.506039  0.480684  1
  O  O37  1  0.506039  0.782806  0.019316  1
  O  O38  1  0.202850  0.710443  0.620667  1
  O  O39  1  0.710443  0.202850  0.879333  1
  O  O40  1  0.797150  0.289557  0.379333  1
  O  O41  1  0.289557  0.797150  0.120667  1
  O  O42  1  0.520170  0.790289  0.550240  1
  O  O43  1  0.790289  0.520170  0.949760  1
  O  O44  1  0.479830  0.209711  0.449760  1
  O  O45  1  0.209711  0.479830  0.050240  1
  O  O46  1  0.982623  0.300475  0.725559  1
  O  O47  1  0.300475  0.982623  0.774441  1
  O  O48  1  0.017377  0.699525  0.274441  1
  O  O49  1  0.699525  0.017377  0.225559  1
  O  O50  1  0.141319  0.595957  0.789873  1
  O  O51  1  0.595957  0.141319  0.710127  1
  O  O52  1  0.858681  0.404043  0.210127  1
  O  O53  1  0.404043  0.858681  0.289873  1
  O  O54  1  0.943614  0.858620  0.814646  1
  O  O55  1  0.858620  0.943614  0.685354  1
  O  O56  1  0.056386  0.141380  0.185354  1
  O  O57  1  0.141380  0.056386  0.314646  1
  O  O58  1  0.802087  0.584698  0.728408  1
  O  O59  1  0.584698  0.802087  0.771592  1
  O  O60  1  0.197913  0.415302  0.271592  1
  O  O61  1  0.415302  0.197913  0.228408  1
  O  O62  1  0.249675  0.801352  0.889750  1
  O  O63  1  0.801352  0.249675  0.610250  1
  O  O64  1  0.750325  0.198648  0.110250  1
  O  O65  1  0.198648  0.750325  0.389750  1
