# generated using pymatgen
data_RbMn4O8
_symmetry_space_group_name_H-M   'P 1'
_cell_length_a   7.19340344
_cell_length_b   7.19340344
_cell_length_c   9.96948799
_cell_angle_alpha   46.98898902
_cell_angle_beta   133.01101098
_cell_angle_gamma   155.88781412
_symmetry_Int_Tables_number   1
_chemical_formula_structural   RbMn4O8
_chemical_formula_sum   'Rb1 Mn4 O8'
_cell_volume   151.01269483
_cell_formula_units_Z   1
loop_
 _symmetry_equiv_pos_site_id
 _symmetry_equiv_pos_as_xyz
  1  'x, y, z'
loop_
 _atom_site_type_symbol
 _atom_site_label
 _atom_site_symmetry_multiplicity
 _atom_site_fract_x
 _atom_site_fract_y
 _atom_site_fract_z
 _atom_site_occupancy
  Rb  Rb0  1  0.500000  0.500000  0.000000  1
  Mn  Mn1  1  0.350031  0.649969  0.516613  1
  Mn  Mn2  1  0.162740  0.837260  0.815490  1
  Mn  Mn3  1  0.837260  0.162740  0.184510  1
  Mn  Mn4  1  0.649969  0.350031  0.483387  1
  O  O5  1  0.541934  0.458066  0.718406  1
  O  O6  1  0.158640  0.841360  0.359340  1
  O  O7  1  0.157533  0.842467  0.615939  1
  O  O8  1  0.208375  0.791625  0.057379  1
  O  O9  1  0.791625  0.208375  0.942621  1
  O  O10  1  0.842467  0.157533  0.384061  1
  O  O11  1  0.841360  0.158640  0.640660  1
  O  O12  1  0.458066  0.541934  0.281594  1
