# generated using pymatgen
data_LiMn2(PO3)5
_symmetry_space_group_name_H-M   'P 1'
_cell_length_a   7.29628030
_cell_length_b   7.29628030
_cell_length_c   12.92298923
_cell_angle_alpha   86.31920289
_cell_angle_beta   93.68079711
_cell_angle_gamma   65.53144883
_symmetry_Int_Tables_number   1
_chemical_formula_structural   LiMn2(PO3)5
_chemical_formula_sum   'Li2 Mn4 P10 O30'
_cell_volume   621.75651537
_cell_formula_units_Z   2
loop_
 _symmetry_equiv_pos_site_id
 _symmetry_equiv_pos_as_xyz
  1  'x, y, z'
loop_
 _atom_site_type_symbol
 _atom_site_label
 _atom_site_symmetry_multiplicity
 _atom_site_fract_x
 _atom_site_fract_y
 _atom_site_fract_z
 _atom_site_occupancy
  Li  Li0  1  0.122954  0.044277  0.212195  1
  Li  Li1  1  0.955723  0.877046  0.712195  1
  Mn  Mn2  1  0.779596  0.688756  0.236671  1
  Mn  Mn3  1  0.311244  0.220404  0.736671  1
  Mn  Mn4  1  0.212330  0.721502  0.409489  1
  Mn  Mn5  1  0.278498  0.787670  0.909489  1
  P  P6  1  0.356699  0.020539  0.496702  1
  P  P7  1  0.686052  0.399869  0.438434  1
  P  P8  1  0.619274  0.159640  0.160136  1
  P  P9  1  0.979461  0.643301  0.996702  1
  P  P10  1  0.600131  0.313948  0.938434  1
  P  P11  1  0.840360  0.380726  0.660136  1
  P  P12  1  0.805350  0.933536  0.465834  1
  P  P13  1  0.066464  0.194650  0.965834  1
  P  P14  1  0.238754  0.545837  0.193689  1
  P  P15  1  0.454163  0.761246  0.693689  1
  O  O16  1  0.824589  0.149842  0.184433  1
  O  O17  1  0.850158  0.175411  0.684433  1
  O  O18  1  0.734422  0.488453  0.342326  1
  O  O19  1  0.511547  0.265578  0.842326  1
  O  O20  1  0.781193  0.159136  0.438579  1
  O  O21  1  0.840864  0.218807  0.938579  1
  O  O22  1  0.557217  0.191357  0.035056  1
  O  O23  1  0.808643  0.442783  0.535056  1
  O  O24  1  0.566252  0.992294  0.202850  1
  O  O25  1  0.007706  0.433748  0.702850  1
  O  O26  1  0.800616  0.703480  0.057859  1
  O  O27  1  0.296520  0.199384  0.557859  1
  O  O28  1  0.161836  0.066788  0.065729  1
  O  O29  1  0.467472  0.467660  0.457866  1
  O  O30  1  0.933212  0.838164  0.565729  1
  O  O31  1  0.457906  0.369629  0.198712  1
  O  O32  1  0.532340  0.532528  0.957866  1
  O  O33  1  0.630371  0.542094  0.698712  1
  O  O34  1  0.896859  0.817796  0.373523  1
  O  O35  1  0.182204  0.103141  0.873523  1
  O  O36  1  0.582655  0.947107  0.462975  1
  O  O37  1  0.052893  0.417345  0.962975  1
  O  O38  1  0.089083  0.471613  0.232975  1
  O  O39  1  0.528387  0.910917  0.732975  1
  O  O40  1  0.180076  0.622065  0.070703  1
  O  O41  1  0.377935  0.819924  0.570703  1
  O  O42  1  0.254766  0.719736  0.245928  1
  O  O43  1  0.280264  0.745234  0.745928  1
  O  O44  1  0.230744  0.011000  0.401537  1
  O  O45  1  0.989000  0.769256  0.901537  1
