# generated using pymatgen
data_Zr2(PO4)3
_symmetry_space_group_name_H-M   'P 1'
_cell_length_a   9.06872092
_cell_length_b   9.11602211
_cell_length_c   15.51918328
_cell_angle_alpha   90.00000000
_cell_angle_beta   125.19550306
_cell_angle_gamma   90.00000000
_symmetry_Int_Tables_number   1
_chemical_formula_structural   Zr2(PO4)3
_chemical_formula_sum   'Zr8 P12 O48'
_cell_volume   1048.43952700
_cell_formula_units_Z   4
loop_
 _symmetry_equiv_pos_site_id
 _symmetry_equiv_pos_as_xyz
  1  'x, y, z'
loop_
 _atom_site_type_symbol
 _atom_site_label
 _atom_site_symmetry_multiplicity
 _atom_site_fract_x
 _atom_site_fract_y
 _atom_site_fract_z
 _atom_site_occupancy
  Zr  Zr0  1  0.630298  0.470603  0.880067  1
  Zr  Zr1  1  0.131855  0.536580  0.381286  1
  Zr  Zr2  1  0.369702  0.970603  0.619933  1
  Zr  Zr3  1  0.868145  0.036580  0.118714  1
  Zr  Zr4  1  0.131855  0.963420  0.881286  1
  Zr  Zr5  1  0.630298  0.029397  0.380067  1
  Zr  Zr6  1  0.868145  0.463420  0.618714  1
  Zr  Zr7  1  0.369702  0.529397  0.119933  1
  P  P8  1  0.462653  0.250938  0.493732  1
  P  P9  1  0.748846  0.114748  0.856274  1
  P  P10  1  0.030717  0.395900  0.142275  1
  P  P11  1  0.969283  0.895900  0.357725  1
  P  P12  1  0.251154  0.614748  0.643726  1
  P  P13  1  0.537347  0.750938  0.006268  1
  P  P14  1  0.462653  0.249062  0.993732  1
  P  P15  1  0.748846  0.385252  0.356274  1
  P  P16  1  0.030717  0.104100  0.642275  1
  P  P17  1  0.969283  0.604100  0.857725  1
  P  P18  1  0.251154  0.885252  0.143726  1
  P  P19  1  0.537347  0.749062  0.506268  1
  O  O20  1  0.804461  0.598454  0.862812  1
  O  O21  1  0.369582  0.653519  0.432547  1
  O  O22  1  0.514965  0.833288  0.584270  1
  O  O23  1  0.093503  0.918657  0.152635  1
  O  O24  1  0.442082  0.143292  0.562510  1
  O  O25  1  0.703993  0.279942  0.837287  1
  O  O26  1  0.802431  0.070993  0.966352  1
  O  O27  1  0.293198  0.347919  0.431267  1
  O  O28  1  0.061856  0.499313  0.229831  1
  O  O29  1  0.582456  0.023824  0.772296  1
  O  O30  1  0.006159  0.236665  0.165281  1
  O  O31  1  0.861233  0.445036  0.036064  1
  O  O32  1  0.417544  0.523824  0.727704  1
  O  O33  1  0.138767  0.945036  0.463936  1
  O  O34  1  0.993841  0.736665  0.334719  1
  O  O35  1  0.938144  0.999313  0.270169  1
  O  O36  1  0.197569  0.570993  0.533648  1
  O  O37  1  0.706802  0.847919  0.068733  1
  O  O38  1  0.296007  0.779942  0.662713  1
  O  O39  1  0.557918  0.643292  0.937490  1
  O  O40  1  0.485035  0.333288  0.915730  1
  O  O41  1  0.906497  0.418657  0.347365  1
  O  O42  1  0.195539  0.098454  0.637188  1
  O  O43  1  0.630418  0.153519  0.067453  1
  O  O44  1  0.369582  0.846481  0.932547  1
  O  O45  1  0.804461  0.901546  0.362812  1
  O  O46  1  0.093503  0.581343  0.652635  1
  O  O47  1  0.514965  0.666712  0.084270  1
  O  O48  1  0.442082  0.356708  0.062510  1
  O  O49  1  0.703993  0.220058  0.337287  1
  O  O50  1  0.293198  0.152081  0.931267  1
  O  O51  1  0.802431  0.429007  0.466352  1
  O  O52  1  0.061856  0.000687  0.729831  1
  O  O53  1  0.006159  0.263335  0.665281  1
  O  O54  1  0.861233  0.054964  0.536064  1
  O  O55  1  0.582456  0.476176  0.272296  1
  O  O56  1  0.138767  0.554964  0.963936  1
  O  O57  1  0.993841  0.763335  0.834719  1
  O  O58  1  0.417544  0.976176  0.227704  1
  O  O59  1  0.938144  0.500687  0.770169  1
  O  O60  1  0.706802  0.652081  0.568733  1
  O  O61  1  0.197569  0.929007  0.033648  1
  O  O62  1  0.296007  0.720058  0.162713  1
  O  O63  1  0.557918  0.856708  0.437490  1
  O  O64  1  0.906497  0.081343  0.847365  1
  O  O65  1  0.485035  0.166712  0.415730  1
  O  O66  1  0.630418  0.346481  0.567453  1
  O  O67  1  0.195539  0.401546  0.137188  1
