# generated using pymatgen
data_Na5Bi2As(CO4)4
_symmetry_space_group_name_H-M   'P 1'
_cell_length_a   10.46862639
_cell_length_b   10.46996593
_cell_length_c   18.11417646
_cell_angle_alpha   73.98442723
_cell_angle_beta   73.21239280
_cell_angle_gamma   60.22533663
_symmetry_Int_Tables_number   1
_chemical_formula_structural   Na5Bi2As(CO4)4
_chemical_formula_sum   'Na20 Bi8 As4 C16 O64'
_cell_volume   1628.77661782
_cell_formula_units_Z   4
loop_
 _symmetry_equiv_pos_site_id
 _symmetry_equiv_pos_as_xyz
  1  'x, y, z'
loop_
 _atom_site_type_symbol
 _atom_site_label
 _atom_site_symmetry_multiplicity
 _atom_site_fract_x
 _atom_site_fract_y
 _atom_site_fract_z
 _atom_site_occupancy
  Na  Na0  1  0.410744  0.910099  0.160539  1
  Na  Na1  1  0.397987  0.284675  0.033874  1
  Na  Na2  1  0.283869  0.784806  0.534363  1
  Na  Na3  1  0.782296  0.286761  0.034482  1
  Na  Na4  1  0.714226  0.607725  0.464144  1
  Na  Na5  1  0.410823  0.517524  0.161134  1
  Na  Na6  1  0.209301  0.105675  0.962786  1
  Na  Na7  1  0.105675  0.214526  0.464827  1
  Na  Na8  1  0.019203  0.910097  0.160318  1
  Na  Na9  1  0.513128  0.411193  0.658113  1
  Na  Na10  1  0.090409  0.591002  0.340601  1
  Na  Na11  1  0.916274  0.405167  0.660147  1
  Na  Na12  1  0.477284  0.591051  0.340786  1
  Na  Na13  1  0.590244  0.475702  0.842086  1
  Na  Na14  1  0.897723  0.784664  0.533815  1
  Na  Na15  1  0.201637  0.727424  0.964375  1
  Na  Na16  1  0.714952  0.214094  0.464617  1
  Na  Na17  1  0.909717  0.022967  0.662831  1
  Na  Na18  1  0.608133  0.719250  0.965967  1
  Na  Na19  1  0.589478  0.092213  0.840562  1
  Bi  Bi20  1  0.995474  0.510115  0.999481  1
  Bi  Bi21  1  0.247926  0.242506  0.253028  1
  Bi  Bi22  1  0.496311  0.009251  0.499362  1
  Bi  Bi23  1  0.756906  0.242442  0.252115  1
  Bi  Bi24  1  0.244849  0.754614  0.752023  1
  Bi  Bi25  1  0.753202  0.746380  0.750594  1
  Bi  Bi26  1  0.750276  0.755347  0.245236  1
  Bi  Bi27  1  0.245303  0.250397  0.748222  1
  As  As28  1  0.187638  0.687250  0.437522  1
  As  As29  1  0.313264  0.811985  0.062469  1
  As  As30  1  0.688753  0.186189  0.937162  1
  As  As31  1  0.810754  0.314213  0.562545  1
  C  C32  1  0.083290  0.198897  0.135924  1
  C  C33  1  0.087991  0.577617  0.140566  1
  C  C34  1  0.421065  0.918213  0.361132  1
  C  C35  1  0.609634  0.112755  0.169556  1
  C  C36  1  0.110280  0.610931  0.669723  1
  C  C37  1  0.418765  0.301629  0.358993  1
  C  C38  1  0.800833  0.917054  0.360215  1
  C  C39  1  0.301802  0.419420  0.860355  1
  C  C40  1  0.195108  0.078884  0.637617  1
  C  C41  1  0.693785  0.578169  0.140813  1
  C  C42  1  0.582309  0.696938  0.638808  1
  C  C43  1  0.587416  0.077883  0.640754  1
  C  C44  1  0.885460  0.395370  0.332594  1
  C  C45  1  0.394248  0.888371  0.832580  1
  C  C46  1  0.916648  0.422229  0.860343  1
  C  C47  1  0.917128  0.800119  0.860034  1
  O  O48  1  0.132464  0.264896  0.070534  1
  O  O49  1  0.073584  0.599286  0.466447  1
  O  O50  1  0.230751  0.702239  0.336471  1
  O  O51  1  0.157672  0.138732  0.192687  1
  O  O52  1  0.039724  0.629304  0.074896  1
  O  O53  1  0.359969  0.599774  0.466707  1
  O  O54  1  0.086762  0.847238  0.480401  1
  O  O55  1  0.989726  0.358952  0.798702  1
  O  O56  1  0.480636  0.123502  0.167995  1
  O  O57  1  0.489980  0.846478  0.301742  1
  O  O58  1  0.210721  0.454259  0.148107  1
  O  O59  1  0.301658  0.044613  0.356163  1
  O  O60  1  0.226617  0.482079  0.675195  1
  O  O61  1  0.726705  0.984618  0.173811  1
  O  O62  1  0.017112  0.380005  0.333172  1
  O  O63  1  0.413680  0.644706  0.027209  1
  O  O64  1  0.144281  0.913690  0.030707  1
  O  O65  1  0.472287  0.863139  0.426613  1
  O  O66  1  0.621489  0.232499  0.167139  1
  O  O67  1  0.121874  0.731153  0.667510  1
  O  O68  1  0.346461  0.363703  0.300797  1
  O  O69  1  0.809500  0.790968  0.355334  1
  O  O70  1  0.308669  0.296053  0.852854  1
  O  O71  1  0.411852  0.914885  0.028917  1
  O  O72  1  0.281355  0.776434  0.163241  1
  O  O73  1  0.959405  0.190254  0.143629  1
  O  O74  1  0.458839  0.688429  0.645824  1
  O  O75  1  0.261376  0.027997  0.571177  1
  O  O76  1  0.758984  0.527368  0.074480  1
  O  O77  1  0.854061  0.988155  0.299521  1
  O  O78  1  0.367239  0.231878  0.421410  1
  O  O79  1  0.360492  0.491645  0.802352  1
  O  O80  1  0.633419  0.762540  0.574129  1
  O  O81  1  0.636466  0.504753  0.198675  1
  O  O82  1  0.136083  0.005695  0.694284  1
  O  O83  1  0.044544  0.797276  0.856722  1
  O  O84  1  0.738645  0.971022  0.425694  1
  O  O85  1  0.237719  0.470836  0.926419  1
  O  O86  1  0.541710  0.309294  0.354249  1
  O  O87  1  0.573749  0.099189  0.966952  1
  O  O88  1  0.705274  0.229995  0.836274  1
  O  O89  1  0.185458  0.202395  0.645607  1
  O  O90  1  0.683440  0.702778  0.147985  1
  O  O91  1  0.655160  0.636684  0.696834  1
  O  O92  1  0.870105  0.279029  0.333991  1
  O  O93  1  0.540589  0.128988  0.574629  1
  O  O94  1  0.379030  0.771316  0.833024  1
  O  O95  1  0.584128  0.358761  0.972082  1
  O  O96  1  0.850207  0.097366  0.973648  1
  O  O97  1  0.982076  0.622816  0.666721  1
  O  O98  1  0.711231  0.954768  0.647894  1
  O  O99  1  0.280030  0.018594  0.832299  1
  O  O100  1  0.770510  0.526269  0.332501  1
  O  O101  1  0.788918  0.542193  0.856610  1
  O  O102  1  0.525543  0.871654  0.834270  1
  O  O103  1  0.513121  0.151224  0.699240  1
  O  O104  1  0.014400  0.651924  0.199043  1
  O  O105  1  0.912480  0.144332  0.530073  1
  O  O106  1  0.644669  0.414510  0.527735  1
  O  O107  1  0.968764  0.368593  0.925309  1
  O  O108  1  0.846427  0.867083  0.801279  1
  O  O109  1  0.912166  0.414380  0.528885  1
  O  O110  1  0.773996  0.283600  0.663323  1
  O  O111  1  0.860947  0.732967  0.921745  1
