# generated using pymatgen
data_Mg16Si8HO32
_symmetry_space_group_name_H-M   'P 1'
_cell_length_a   6.08826718
_cell_length_b   9.67200226
_cell_length_c   10.39206143
_cell_angle_alpha   89.86356296
_cell_angle_beta   89.84780025
_cell_angle_gamma   89.95801512
_symmetry_Int_Tables_number   1
_chemical_formula_structural   Mg16Si8HO32
_chemical_formula_sum   'Mg16 Si8 H1 O32'
_cell_volume   611.94010907
_cell_formula_units_Z   1
loop_
 _symmetry_equiv_pos_site_id
 _symmetry_equiv_pos_as_xyz
  1  'x, y, z'
loop_
 _atom_site_type_symbol
 _atom_site_label
 _atom_site_symmetry_multiplicity
 _atom_site_fract_x
 _atom_site_fract_y
 _atom_site_fract_z
 _atom_site_occupancy
  Mg  Mg0  1  0.000306  0.001285  0.000732  1
  Mg  Mg1  1  0.003411  0.243203  0.498202  1
  Mg  Mg2  1  0.499047  0.000955  0.000578  1
  Mg  Mg3  1  0.491134  0.238247  0.488819  1
  Mg  Mg4  1  0.248782  0.497218  0.276478  1
  Mg  Mg5  1  0.749740  0.241899  0.219085  1
  Mg  Mg6  1  0.749847  0.004753  0.722700  1
  Mg  Mg7  1  0.252918  0.253551  0.777675  1
  Mg  Mg8  1  0.001284  0.499562  0.003294  1
  Mg  Mg9  1  0.001094  0.752302  0.498859  1
  Mg  Mg10  1  0.499243  0.499804  0.001667  1
  Mg  Mg11  1  0.499492  0.751138  0.498791  1
  Mg  Mg12  1  0.248538  0.992989  0.275979  1
  Mg  Mg13  1  0.748656  0.748078  0.221304  1
  Mg  Mg14  1  0.771095  0.515454  0.741549  1
  Mg  Mg15  1  0.246382  0.756472  0.780839  1
  Si  Si16  1  0.250251  0.213727  0.095331  1
  Si  Si17  1  0.747819  0.468277  0.394405  1
  Si  Si18  1  0.750790  0.286492  0.904623  1
  Si  Si19  1  0.249182  0.033125  0.596991  1
  Si  Si20  1  0.249105  0.713682  0.095487  1
  Si  Si21  1  0.750250  0.962933  0.405172  1
  Si  Si22  1  0.749577  0.789456  0.907242  1
  Si  Si23  1  0.246152  0.534716  0.591565  1
  H  H24  1  0.593202  0.450378  0.588120  1
  O  O25  1  0.249474  0.383785  0.093985  1
  O  O26  1  0.751213  0.133976  0.406707  1
  O  O27  1  0.750230  0.117042  0.906514  1
  O  O28  1  0.247968  0.364229  0.588057  1
  O  O29  1  0.245082  0.102511  0.447910  1
  O  O30  1  0.749969  0.359596  0.051482  1
  O  O31  1  0.729532  0.401047  0.553486  1
  O  O32  1  0.251070  0.140871  0.948741  1
  O  O33  1  0.033763  0.139235  0.163756  1
  O  O34  1  0.967936  0.386793  0.344559  1
  O  O35  1  0.537201  0.363243  0.835136  1
  O  O36  1  0.466423  0.110671  0.660873  1
  O  O37  1  0.968349  0.363118  0.836982  1
  O  O38  1  0.034030  0.111279  0.663957  1
  O  O39  1  0.465332  0.138612  0.164352  1
  O  O40  1  0.533051  0.387063  0.334917  1
  O  O41  1  0.249070  0.883317  0.093356  1
  O  O42  1  0.748708  0.635915  0.404013  1
  O  O43  1  0.751431  0.619182  0.912052  1
  O  O44  1  0.251363  0.863248  0.596663  1
  O  O45  1  0.246191  0.611352  0.446881  1
  O  O46  1  0.748599  0.862656  0.052855  1
  O  O47  1  0.751325  0.890279  0.552018  1
  O  O48  1  0.250009  0.640234  0.948864  1
  O  O49  1  0.032584  0.638027  0.164103  1
  O  O50  1  0.964966  0.888258  0.335761  1
  O  O51  1  0.533340  0.860230  0.836341  1
  O  O52  1  0.478167  0.597143  0.654971  1
  O  O53  1  0.965810  0.862601  0.837886  1
  O  O54  1  0.039623  0.612491  0.665683  1
  O  O55  1  0.464927  0.638825  0.164466  1
  O  O56  1  0.533138  0.889704  0.337605  1
