# generated using pymatgen
data_Li4V2Fe3Ni3O16
_symmetry_space_group_name_H-M   'P 1'
_cell_length_a   5.85884687
_cell_length_b   5.85884687
_cell_length_c   9.49299895
_cell_angle_alpha   87.84873142
_cell_angle_beta   92.15126858
_cell_angle_gamma   120.03243702
_symmetry_Int_Tables_number   1
_chemical_formula_structural   Li4V2Fe3Ni3O16
_chemical_formula_sum   'Li4 V2 Fe3 Ni3 O16'
_cell_volume   281.84354242
_cell_formula_units_Z   1
loop_
 _symmetry_equiv_pos_site_id
 _symmetry_equiv_pos_as_xyz
  1  'x, y, z'
loop_
 _atom_site_type_symbol
 _atom_site_label
 _atom_site_symmetry_multiplicity
 _atom_site_fract_x
 _atom_site_fract_y
 _atom_site_fract_z
 _atom_site_occupancy
  Li  Li0  1  0.670769  0.329231  0.101954  1
  Li  Li1  1  0.996600  0.003400  0.009912  1
  Li  Li2  1  0.002730  0.997270  0.506246  1
  Li  Li3  1  0.333666  0.666334  0.595755  1
  V  V4  1  0.674969  0.325031  0.507399  1
  V  V5  1  0.350075  0.649925  0.010306  1
  Fe  Fe6  1  0.834485  0.655670  0.783450  1
  Fe  Fe7  1  0.344330  0.165515  0.783450  1
  Fe  Fe8  1  0.170123  0.829877  0.281090  1
  Ni  Ni9  1  0.828946  0.171054  0.785535  1
  Ni  Ni10  1  0.656507  0.825894  0.287096  1
  Ni  Ni11  1  0.174106  0.343493  0.287096  1
  O  O12  1  0.821767  0.661222  0.404715  1
  O  O13  1  0.515651  0.484349  0.659528  1
  O  O14  1  0.667229  0.332771  0.895498  1
  O  O15  1  0.998590  0.001410  0.696508  1
  O  O16  1  0.988782  0.011218  0.200234  1
  O  O17  1  0.338778  0.178233  0.404715  1
  O  O18  1  0.957085  0.490642  0.643259  1
  O  O19  1  0.509358  0.042915  0.643259  1
  O  O20  1  0.169959  0.830041  0.912187  1
  O  O21  1  0.820196  0.179804  0.415182  1
  O  O22  1  0.485530  0.957655  0.159529  1
  O  O23  1  0.042345  0.514470  0.159529  1
  O  O24  1  0.340819  0.659181  0.389615  1
  O  O25  1  0.650372  0.824324  0.911181  1
  O  O26  1  0.482116  0.517884  0.146811  1
  O  O27  1  0.175676  0.349628  0.911181  1
