# generated using pymatgen
data_LiFeSi3O8
_symmetry_space_group_name_H-M   'P 1'
_cell_length_a   7.10227537
_cell_length_b   7.68264083
_cell_length_c   7.72669113
_cell_angle_alpha   118.04204719
_cell_angle_beta   108.96343642
_cell_angle_gamma   97.52624933
_symmetry_Int_Tables_number   1
_chemical_formula_structural   LiFeSi3O8
_chemical_formula_sum   'Li2 Fe2 Si6 O16'
_cell_volume   330.95258956
_cell_formula_units_Z   2
loop_
 _symmetry_equiv_pos_site_id
 _symmetry_equiv_pos_as_xyz
  1  'x, y, z'
loop_
 _atom_site_type_symbol
 _atom_site_label
 _atom_site_symmetry_multiplicity
 _atom_site_fract_x
 _atom_site_fract_y
 _atom_site_fract_z
 _atom_site_occupancy
  Li  Li0  1  0.125077  0.987180  0.266056  1
  Li  Li1  1  0.874923  0.012820  0.733944  1
  Fe  Fe2  1  0.642010  0.761185  0.457489  1
  Fe  Fe3  1  0.357990  0.238815  0.542511  1
  Si  Si4  1  0.705258  0.211437  0.227584  1
  Si  Si5  1  0.795216  0.293945  0.850672  1
  Si  Si6  1  0.761440  0.643828  0.151192  1
  Si  Si7  1  0.238560  0.356172  0.848808  1
  Si  Si8  1  0.204784  0.706055  0.149328  1
  Si  Si9  1  0.294742  0.788563  0.772416  1
  O  O10  1  0.808194  0.167043  0.100201  1
  O  O11  1  0.740953  0.703223  0.309355  1
  O  O12  1  0.449640  0.272536  0.081600  1
  O  O13  1  0.339813  0.815719  0.289779  1
  O  O14  1  0.954990  0.757250  0.088603  1
  O  O15  1  0.751587  0.004037  0.461362  1
  O  O16  1  0.813839  0.395828  0.269126  1
  O  O17  1  0.715775  0.531613  0.735384  1
  O  O18  1  0.284225  0.468387  0.264616  1
  O  O19  1  0.186161  0.604172  0.730874  1
  O  O20  1  0.248413  0.995963  0.538638  1
  O  O21  1  0.045010  0.242750  0.911397  1
  O  O22  1  0.660187  0.184281  0.710221  1
  O  O23  1  0.550360  0.727464  0.918400  1
  O  O24  1  0.259047  0.296777  0.690645  1
  O  O25  1  0.191806  0.832957  0.899799  1
