# generated using pymatgen
data_Li3Ni2(CO3)4
_symmetry_space_group_name_H-M   'P 1'
_cell_length_a   5.22867198
_cell_length_b   6.26995535
_cell_length_c   7.70789439
_cell_angle_alpha   90.27419917
_cell_angle_beta   90.24060775
_cell_angle_gamma   114.52032572
_symmetry_Int_Tables_number   1
_chemical_formula_structural   Li3Ni2(CO3)4
_chemical_formula_sum   'Li3 Ni2 C4 O12'
_cell_volume   229.89485600
_cell_formula_units_Z   1
loop_
 _symmetry_equiv_pos_site_id
 _symmetry_equiv_pos_as_xyz
  1  'x, y, z'
loop_
 _atom_site_type_symbol
 _atom_site_label
 _atom_site_symmetry_multiplicity
 _atom_site_fract_x
 _atom_site_fract_y
 _atom_site_fract_z
 _atom_site_occupancy
  Li  Li0  1  0.303037  0.688255  0.061028  1
  Li  Li1  1  0.694882  0.315251  0.934338  1
  Li  Li2  1  0.805445  0.189847  0.444083  1
  Ni  Ni3  1  0.994506  0.998335  0.003843  1
  Ni  Ni4  1  0.498729  0.507699  0.499188  1
  C  C5  1  0.738049  0.882911  0.741027  1
  C  C6  1  0.226650  0.374170  0.763131  1
  C  C7  1  0.765226  0.615477  0.233092  1
  C  C8  1  0.272325  0.122268  0.261518  1
  O  O9  1  0.620106  0.915716  0.882405  1
  O  O10  1  0.622443  0.848094  0.593159  1
  O  O11  1  0.516863  0.614932  0.243009  1
  O  O12  1  0.991316  0.901389  0.766235  1
  O  O13  1  0.900314  0.655715  0.086270  1
  O  O14  1  0.868203  0.569448  0.371460  1
  O  O15  1  0.110265  0.392445  0.620073  1
  O  O16  1  0.095611  0.340689  0.911010  1
  O  O17  1  0.014785  0.103281  0.247325  1
  O  O18  1  0.486016  0.400922  0.755557  1
  O  O19  1  0.410567  0.172930  0.401189  1
  O  O20  1  0.373697  0.080469  0.116282  1
