# generated using pymatgen
data_CuH4SeO5
_symmetry_space_group_name_H-M   'P 1'
_cell_length_a   6.66805077
_cell_length_b   7.49033096
_cell_length_c   9.31907804
_cell_angle_alpha   90.00000000
_cell_angle_beta   90.00000000
_cell_angle_gamma   90.00000000
_symmetry_Int_Tables_number   1
_chemical_formula_structural   CuH4SeO5
_chemical_formula_sum   'Cu4 H16 Se4 O20'
_cell_volume   465.44980628
_cell_formula_units_Z   4
loop_
 _symmetry_equiv_pos_site_id
 _symmetry_equiv_pos_as_xyz
  1  'x, y, z'
loop_
 _atom_site_type_symbol
 _atom_site_label
 _atom_site_symmetry_multiplicity
 _atom_site_fract_x
 _atom_site_fract_y
 _atom_site_fract_z
 _atom_site_occupancy
  Cu  Cu0  1  0.771354  0.033363  0.398929  1
  Cu  Cu1  1  0.228646  0.533363  0.101071  1
  Cu  Cu2  1  0.271354  0.466637  0.601071  1
  Cu  Cu3  1  0.728646  0.966637  0.898929  1
  H  H4  1  0.683543  0.370285  0.461568  1
  H  H5  1  0.316457  0.870285  0.038432  1
  H  H6  1  0.183543  0.129715  0.538432  1
  H  H7  1  0.816457  0.629715  0.961568  1
  H  H8  1  0.871019  0.307186  0.558426  1
  H  H9  1  0.128981  0.807186  0.941574  1
  H  H10  1  0.371019  0.192814  0.441574  1
  H  H11  1  0.628981  0.692814  0.058426  1
  H  H12  1  0.013622  0.945426  0.153156  1
  H  H13  1  0.986378  0.445426  0.346844  1
  H  H14  1  0.513622  0.554574  0.846844  1
  H  H15  1  0.486378  0.054574  0.653156  1
  H  H16  1  0.074941  0.142355  0.182819  1
  H  H17  1  0.925059  0.642355  0.317181  1
  H  H18  1  0.574941  0.357645  0.817181  1
  H  H19  1  0.425059  0.857645  0.682819  1
  Se  Se20  1  0.478793  0.703791  0.360828  1
  Se  Se21  1  0.521207  0.203791  0.139172  1
  Se  Se22  1  0.978793  0.796209  0.639172  1
  Se  Se23  1  0.021207  0.296209  0.860828  1
  O  O24  1  0.726470  0.776932  0.361194  1
  O  O25  1  0.273530  0.276932  0.138806  1
  O  O26  1  0.226470  0.723068  0.638806  1
  O  O27  1  0.773530  0.223068  0.861194  1
  O  O28  1  0.499023  0.517459  0.471359  1
  O  O29  1  0.500977  0.017459  0.028641  1
  O  O30  1  0.999023  0.982541  0.528641  1
  O  O31  1  0.000977  0.482541  0.971359  1
  O  O32  1  0.484540  0.603220  0.191237  1
  O  O33  1  0.515460  0.103220  0.308763  1
  O  O34  1  0.984540  0.896780  0.808763  1
  O  O35  1  0.015460  0.396780  0.691237  1
  O  O36  1  0.804709  0.289259  0.462771  1
  O  O37  1  0.195291  0.789259  0.037229  1
  O  O38  1  0.304709  0.210741  0.537229  1
  O  O39  1  0.695291  0.710741  0.962771  1
  O  O40  1  0.958288  0.058667  0.189921  1
  O  O41  1  0.041712  0.558667  0.310079  1
  O  O42  1  0.458288  0.441333  0.810079  1
  O  O43  1  0.541712  0.941333  0.689921  1
