# generated using pymatgen
data_LaDyO3
_symmetry_space_group_name_H-M   'P 1'
_cell_length_a   5.94160542
_cell_length_b   6.12789961
_cell_length_c   8.57697611
_cell_angle_alpha   90.00000000
_cell_angle_beta   90.00000000
_cell_angle_gamma   90.00000000
_symmetry_Int_Tables_number   1
_chemical_formula_structural   LaDyO3
_chemical_formula_sum   'La4 Dy4 O12'
_cell_volume   312.28393947
_cell_formula_units_Z   4
loop_
 _symmetry_equiv_pos_site_id
 _symmetry_equiv_pos_as_xyz
  1  'x, y, z'
loop_
 _atom_site_type_symbol
 _atom_site_label
 _atom_site_symmetry_multiplicity
 _atom_site_fract_x
 _atom_site_fract_y
 _atom_site_fract_z
 _atom_site_occupancy
  La  La0  1  0.509875  0.956033  0.486755  1
  La  La1  1  0.009875  0.543967  0.986755  1
  La  La2  1  0.990125  0.456033  0.486755  1
  La  La3  1  0.490125  0.043967  0.986755  1
  Dy  Dy4  1  0.999884  0.994974  0.741818  1
  Dy  Dy5  1  0.499884  0.505026  0.241818  1
  Dy  Dy6  1  0.500116  0.494974  0.741818  1
  Dy  Dy7  1  0.000116  0.005026  0.241818  1
  O  O8  1  0.872931  0.936131  0.994006  1
  O  O9  1  0.323041  0.827352  0.184813  1
  O  O10  1  0.306829  0.798304  0.816406  1
  O  O11  1  0.806829  0.701696  0.316406  1
  O  O12  1  0.823041  0.672648  0.684813  1
  O  O13  1  0.372931  0.563869  0.494006  1
  O  O14  1  0.627069  0.436131  0.994006  1
  O  O15  1  0.176959  0.327352  0.184813  1
  O  O16  1  0.193171  0.298304  0.816406  1
  O  O17  1  0.693171  0.201696  0.316406  1
  O  O18  1  0.676959  0.172648  0.684813  1
  O  O19  1  0.127069  0.063869  0.494006  1
