# generated using pymatgen
data_Mn3(OF2)2
_symmetry_space_group_name_H-M   'P 1'
_cell_length_a   4.83727817
_cell_length_b   5.78563523
_cell_length_c   7.94437053
_cell_angle_alpha   85.65385363
_cell_angle_beta   86.54238133
_cell_angle_gamma   85.30911212
_symmetry_Int_Tables_number   1
_chemical_formula_structural   Mn3(OF2)2
_chemical_formula_sum   'Mn6 O4 F8'
_cell_volume   220.62718292
_cell_formula_units_Z   2
loop_
 _symmetry_equiv_pos_site_id
 _symmetry_equiv_pos_as_xyz
  1  'x, y, z'
loop_
 _atom_site_type_symbol
 _atom_site_label
 _atom_site_symmetry_multiplicity
 _atom_site_fract_x
 _atom_site_fract_y
 _atom_site_fract_z
 _atom_site_occupancy
  Mn  Mn0  1  0.515166  0.153351  0.832675  1
  Mn  Mn1  1  0.500000  0.500000  0.500000  1
  Mn  Mn2  1  0.484834  0.846649  0.167325  1
  Mn  Mn3  1  0.000000  0.000000  0.500000  1
  Mn  Mn4  1  0.018708  0.321966  0.158531  1
  Mn  Mn5  1  0.981292  0.678034  0.841469  1
  O  O6  1  0.687422  0.870396  0.942378  1
  O  O7  1  0.698565  0.200007  0.602940  1
  O  O8  1  0.301435  0.799993  0.397060  1
  O  O9  1  0.312578  0.129604  0.057622  1
  F  F10  1  0.812997  0.039657  0.272567  1
  F  F11  1  0.804632  0.700266  0.601245  1
  F  F12  1  0.804797  0.375389  0.934233  1
  F  F13  1  0.703195  0.537794  0.257861  1
  F  F14  1  0.296805  0.462206  0.742139  1
  F  F15  1  0.195368  0.299734  0.398755  1
  F  F16  1  0.195203  0.624611  0.065767  1
  F  F17  1  0.187003  0.960343  0.727433  1
