# generated using pymatgen
data_Li(NiO2)2
_symmetry_space_group_name_H-M   'P 1'
_cell_length_a   2.83450247
_cell_length_b   4.88599260
_cell_length_c   5.11031178
_cell_angle_alpha   108.68082823
_cell_angle_beta   90.27105191
_cell_angle_gamma   92.32327451
_symmetry_Int_Tables_number   1
_chemical_formula_structural   Li(NiO2)2
_chemical_formula_sum   'Li1 Ni2 O4'
_cell_volume   66.97911423
_cell_formula_units_Z   1
loop_
 _symmetry_equiv_pos_site_id
 _symmetry_equiv_pos_as_xyz
  1  'x, y, z'
loop_
 _atom_site_type_symbol
 _atom_site_label
 _atom_site_symmetry_multiplicity
 _atom_site_fract_x
 _atom_site_fract_y
 _atom_site_fract_z
 _atom_site_occupancy
  Li  Li0  1  0.500000  0.000000  0.500000  1
  Ni  Ni1  1  0.500000  0.500000  0.000000  1
  Ni  Ni2  1  0.000000  0.000000  0.000000  1
  O  O3  1  0.484849  0.778824  0.801285  1
  O  O4  1  0.033369  0.245475  0.786992  1
  O  O5  1  0.966631  0.754525  0.213008  1
  O  O6  1  0.515151  0.221176  0.198715  1
