# generated using pymatgen
data_Tl2Sn2S5
_symmetry_space_group_name_H-M   'P 1'
_cell_length_a   6.93455869
_cell_length_b   6.93455869
_cell_length_c   11.63268500
_cell_angle_alpha   75.08568217
_cell_angle_beta   104.91431783
_cell_angle_gamma   109.79084186
_symmetry_Int_Tables_number   1
_chemical_formula_structural   Tl2Sn2S5
_chemical_formula_sum   'Tl4 Sn4 S10'
_cell_volume   499.62744044
_cell_formula_units_Z   2
loop_
 _symmetry_equiv_pos_site_id
 _symmetry_equiv_pos_as_xyz
  1  'x, y, z'
loop_
 _atom_site_type_symbol
 _atom_site_label
 _atom_site_symmetry_multiplicity
 _atom_site_fract_x
 _atom_site_fract_y
 _atom_site_fract_z
 _atom_site_occupancy
  Tl  Tl0  1  0.103565  0.539008  0.682839  1
  Tl  Tl1  1  0.539008  0.103565  0.817161  1
  Tl  Tl2  1  0.896435  0.460992  0.317161  1
  Tl  Tl3  1  0.460992  0.896435  0.182839  1
  Sn  Sn4  1  0.940042  0.750911  0.942044  1
  Sn  Sn5  1  0.750911  0.940042  0.557956  1
  Sn  Sn6  1  0.059958  0.249089  0.057956  1
  Sn  Sn7  1  0.249089  0.059958  0.442044  1
  S  S8  1  0.314939  0.314939  0.250000  1
  S  S9  1  0.685061  0.685061  0.750000  1
  S  S10  1  0.125138  0.148452  0.885359  1
  S  S11  1  0.148452  0.125138  0.614641  1
  S  S12  1  0.874862  0.851548  0.114641  1
  S  S13  1  0.851548  0.874862  0.385359  1
  S  S14  1  0.750927  0.358642  0.037802  1
  S  S15  1  0.358642  0.750927  0.462198  1
  S  S16  1  0.641358  0.249073  0.537802  1
  S  S17  1  0.249073  0.641358  0.962198  1
