# generated using pymatgen
data_Li2MnV2(PO4)3
_symmetry_space_group_name_H-M   'P 1'
_cell_length_a   8.63518647
_cell_length_b   8.63518647
_cell_length_c   8.55595920
_cell_angle_alpha   63.07424852
_cell_angle_beta   116.92575148
_cell_angle_gamma   117.59668733
_symmetry_Int_Tables_number   1
_chemical_formula_structural   Li2MnV2(PO4)3
_chemical_formula_sum   'Li4 Mn2 V4 P6 O24'
_cell_volume   479.66740485
_cell_formula_units_Z   2
loop_
 _symmetry_equiv_pos_site_id
 _symmetry_equiv_pos_as_xyz
  1  'x, y, z'
loop_
 _atom_site_type_symbol
 _atom_site_label
 _atom_site_symmetry_multiplicity
 _atom_site_fract_x
 _atom_site_fract_y
 _atom_site_fract_z
 _atom_site_occupancy
  Li  Li0  1  0.858767  0.858767  0.000000  1
  Li  Li1  1  0.152831  0.152831  0.500000  1
  Li  Li2  1  0.751601  0.347519  0.902797  1
  Li  Li3  1  0.347519  0.751601  0.097203  1
  Mn  Mn4  1  0.000018  0.492327  0.262846  1
  Mn  Mn5  1  0.492327  0.000018  0.737154  1
  V  V6  1  0.854420  0.644501  0.395490  1
  V  V7  1  0.644501  0.854420  0.604510  1
  V  V8  1  0.351610  0.151230  0.897225  1
  V  V9  1  0.151230  0.351610  0.102775  1
  P  P10  1  0.252165  0.942571  0.308996  1
  P  P11  1  0.942571  0.252165  0.691004  1
  P  P12  1  0.558109  0.558109  0.000000  1
  P  P13  1  0.458451  0.458451  0.500000  1
  P  P14  1  0.041247  0.751704  0.799951  1
  P  P15  1  0.751704  0.041247  0.200049  1
  O  O16  1  0.690481  0.985346  0.364463  1
  O  O17  1  0.500325  0.608676  0.574529  1
  O  O18  1  0.086179  0.755580  0.317431  1
  O  O19  1  0.893873  0.816122  0.783183  1
  O  O20  1  0.195658  0.097404  0.286907  1
  O  O21  1  0.406303  0.917583  0.499434  1
  O  O22  1  0.917583  0.406303  0.500566  1
  O  O23  1  0.755580  0.086179  0.682569  1
  O  O24  1  0.608676  0.500325  0.425471  1
  O  O25  1  0.584377  0.753966  0.848375  1
  O  O26  1  0.263342  0.438513  0.350463  1
  O  O27  1  0.985346  0.690481  0.635537  1
  O  O28  1  0.969089  0.309995  0.848753  1
  O  O29  1  0.753966  0.584377  0.151625  1
  O  O30  1  0.438513  0.263342  0.649537  1
  O  O31  1  0.404081  0.533491  0.059373  1
  O  O32  1  0.235726  0.903981  0.811645  1
  O  O33  1  0.066522  0.597318  0.990985  1
  O  O34  1  0.597318  0.066522  0.009015  1
  O  O35  1  0.816122  0.893873  0.216817  1
  O  O36  1  0.097404  0.195658  0.713093  1
  O  O37  1  0.903981  0.235726  0.188355  1
  O  O38  1  0.533491  0.404081  0.940627  1
  O  O39  1  0.309995  0.969089  0.151247  1
