# generated using pymatgen
data_LiVF4
_symmetry_space_group_name_H-M   'P 1'
_cell_length_a   7.85421712
_cell_length_b   8.61115261
_cell_length_c   10.25190477
_cell_angle_alpha   90.00000000
_cell_angle_beta   90.00000000
_cell_angle_gamma   90.00000000
_symmetry_Int_Tables_number   1
_chemical_formula_structural   LiVF4
_chemical_formula_sum   'Li8 V8 F32'
_cell_volume   693.37591519
_cell_formula_units_Z   8
loop_
 _symmetry_equiv_pos_site_id
 _symmetry_equiv_pos_as_xyz
  1  'x, y, z'
loop_
 _atom_site_type_symbol
 _atom_site_label
 _atom_site_symmetry_multiplicity
 _atom_site_fract_x
 _atom_site_fract_y
 _atom_site_fract_z
 _atom_site_occupancy
  Li  Li0  1  0.708789  0.250000  0.551967  1
  Li  Li1  1  0.743862  0.250000  0.952601  1
  Li  Li2  1  0.756138  0.750000  0.452601  1
  Li  Li3  1  0.791211  0.750000  0.051967  1
  Li  Li4  1  0.208789  0.250000  0.948033  1
  Li  Li5  1  0.243862  0.250000  0.547399  1
  Li  Li6  1  0.256138  0.750000  0.047399  1
  Li  Li7  1  0.291211  0.750000  0.448033  1
  V  V8  1  0.639177  0.060591  0.248873  1
  V  V9  1  0.639177  0.439409  0.248873  1
  V  V10  1  0.860823  0.560591  0.748873  1
  V  V11  1  0.860823  0.939409  0.748873  1
  V  V12  1  0.139177  0.060591  0.251127  1
  V  V13  1  0.139177  0.439409  0.251127  1
  V  V14  1  0.360823  0.560591  0.751127  1
  V  V15  1  0.360823  0.939409  0.751127  1
  F  F16  1  0.609628  0.567163  0.763498  1
  F  F17  1  0.609628  0.932837  0.763498  1
  F  F18  1  0.633556  0.250000  0.373578  1
  F  F19  1  0.627142  0.587101  0.387792  1
  F  F20  1  0.627142  0.912899  0.387792  1
  F  F21  1  0.648088  0.250000  0.122801  1
  F  F22  1  0.660001  0.583674  0.110657  1
  F  F23  1  0.660001  0.916326  0.110657  1
  F  F24  1  0.839999  0.083674  0.610657  1
  F  F25  1  0.839999  0.416326  0.610657  1
  F  F26  1  0.851912  0.750000  0.622801  1
  F  F27  1  0.872858  0.087101  0.887792  1
  F  F28  1  0.872858  0.412899  0.887792  1
  F  F29  1  0.866444  0.750000  0.873578  1
  F  F30  1  0.890372  0.067163  0.263498  1
  F  F31  1  0.890372  0.432837  0.263498  1
  F  F32  1  0.109628  0.567163  0.736502  1
  F  F33  1  0.109628  0.932837  0.736502  1
  F  F34  1  0.133556  0.250000  0.126422  1
  F  F35  1  0.127142  0.587101  0.112208  1
  F  F36  1  0.127142  0.912899  0.112208  1
  F  F37  1  0.148088  0.250000  0.377199  1
  F  F38  1  0.160001  0.583674  0.389343  1
  F  F39  1  0.160001  0.916326  0.389343  1
  F  F40  1  0.339999  0.083674  0.889343  1
  F  F41  1  0.339999  0.416326  0.889343  1
  F  F42  1  0.351912  0.750000  0.877199  1
  F  F43  1  0.372858  0.087101  0.612208  1
  F  F44  1  0.372858  0.412899  0.612208  1
  F  F45  1  0.366444  0.750000  0.626422  1
  F  F46  1  0.390372  0.067163  0.236502  1
  F  F47  1  0.390372  0.432837  0.236502  1
