# generated using pymatgen
data_LiNi(PO3)3
_symmetry_space_group_name_H-M   'P 1'
_cell_length_a   9.35777955
_cell_length_b   9.43299841
_cell_length_c   9.60279090
_cell_angle_alpha   108.91327120
_cell_angle_beta   104.68258800
_cell_angle_gamma   110.22963080
_symmetry_Int_Tables_number   1
_chemical_formula_structural   LiNi(PO3)3
_chemical_formula_sum   'Li4 Ni4 P12 O36'
_cell_volume   685.66383227
_cell_formula_units_Z   4
loop_
 _symmetry_equiv_pos_site_id
 _symmetry_equiv_pos_as_xyz
  1  'x, y, z'
loop_
 _atom_site_type_symbol
 _atom_site_label
 _atom_site_symmetry_multiplicity
 _atom_site_fract_x
 _atom_site_fract_y
 _atom_site_fract_z
 _atom_site_occupancy
  Li  Li0  1  0.233164  0.771361  0.734694  1
  Li  Li1  1  0.926099  0.695619  0.784264  1
  Li  Li2  1  0.073901  0.304381  0.215736  1
  Li  Li3  1  0.766836  0.228639  0.265306  1
  Ni  Ni4  1  0.666232  0.064681  0.492134  1
  Ni  Ni5  1  0.620622  0.828032  0.691171  1
  Ni  Ni6  1  0.379378  0.171968  0.308829  1
  Ni  Ni7  1  0.333768  0.935319  0.507866  1
  P  P8  1  0.196157  0.082540  0.920032  1
  P  P9  1  0.521418  0.144689  0.894518  1
  P  P10  1  0.007329  0.395540  0.645370  1
  P  P11  1  0.952010  0.213712  0.844548  1
  P  P12  1  0.583597  0.340275  0.709764  1
  P  P13  1  0.325968  0.431486  0.591291  1
  P  P14  1  0.674032  0.568514  0.408709  1
  P  P15  1  0.416403  0.659725  0.290236  1
  P  P16  1  0.047990  0.786288  0.155452  1
  P  P17  1  0.992671  0.604460  0.354630  1
  P  P18  1  0.478582  0.855311  0.105482  1
  P  P19  1  0.803843  0.917460  0.079968  1
  O  O20  1  0.056452  0.733134  0.997954  1
  O  O21  1  0.369332  0.180650  0.907562  1
  O  O22  1  0.104609  0.174037  0.845788  1
  O  O23  1  0.008803  0.370637  0.802787  1
  O  O24  1  0.617213  0.300093  0.859466  1
  O  O25  1  0.370031  0.833390  0.952246  1
  O  O26  1  0.110468  0.900833  0.801554  1
  O  O27  1  0.035412  0.568702  0.675085  1
  O  O28  1  0.164181  0.370633  0.627050  1
  O  O29  1  0.433639  0.383605  0.713050  1
  O  O30  1  0.790638  0.064133  0.698001  1
  O  O31  1  0.774553  0.862637  0.904802  1
  O  O32  1  0.732615  0.479357  0.730109  1
  O  O33  1  0.508913  0.169423  0.551083  1
  O  O34  1  0.408251  0.619489  0.647414  1
  O  O35  1  0.457205  0.980058  0.740349  1
  O  O36  1  0.283332  0.310886  0.421628  1
  O  O37  1  0.148155  0.752672  0.497566  1
  O  O38  1  0.851845  0.247328  0.502434  1
  O  O39  1  0.716668  0.689114  0.578372  1
  O  O40  1  0.542795  0.019942  0.259651  1
  O  O41  1  0.591749  0.380511  0.352586  1
  O  O42  1  0.491087  0.830577  0.448917  1
  O  O43  1  0.267385  0.520643  0.269891  1
  O  O44  1  0.225447  0.137363  0.095198  1
  O  O45  1  0.209362  0.935867  0.301999  1
  O  O46  1  0.566361  0.616395  0.286950  1
  O  O47  1  0.835819  0.629367  0.372950  1
  O  O48  1  0.964588  0.431298  0.324915  1
  O  O49  1  0.889532  0.099167  0.198446  1
  O  O50  1  0.629969  0.166610  0.047754  1
  O  O51  1  0.382787  0.699907  0.140534  1
  O  O52  1  0.991197  0.629363  0.197213  1
  O  O53  1  0.895391  0.825963  0.154212  1
  O  O54  1  0.630668  0.819350  0.092438  1
  O  O55  1  0.943548  0.266866  0.002046  1
