# generated using pymatgen
data_Li3Mn2NiO6
_symmetry_space_group_name_H-M   'P 1'
_cell_length_a   6.50985987
_cell_length_b   6.50985987
_cell_length_c   5.94785271
_cell_angle_alpha   76.30279099
_cell_angle_beta   103.69720901
_cell_angle_gamma   153.49881465
_symmetry_Int_Tables_number   1
_chemical_formula_structural   Li3Mn2NiO6
_chemical_formula_sum   'Li3 Mn2 Ni1 O6'
_cell_volume   109.09439630
_cell_formula_units_Z   1
loop_
 _symmetry_equiv_pos_site_id
 _symmetry_equiv_pos_as_xyz
  1  'x, y, z'
loop_
 _atom_site_type_symbol
 _atom_site_label
 _atom_site_symmetry_multiplicity
 _atom_site_fract_x
 _atom_site_fract_y
 _atom_site_fract_z
 _atom_site_occupancy
  Li  Li0  1  0.000000  0.000000  0.000000  1
  Li  Li1  1  0.336099  0.663901  0.665383  1
  Li  Li2  1  0.663901  0.336099  0.334617  1
  Mn  Mn3  1  0.335283  0.664717  0.172198  1
  Mn  Mn4  1  0.664717  0.335283  0.827802  1
  Ni  Ni5  1  0.000000  0.000000  0.500000  1
  O  O6  1  0.831827  0.168173  0.395766  1
  O  O7  1  0.175106  0.824894  0.070371  1
  O  O8  1  0.168173  0.831827  0.604234  1
  O  O9  1  0.510817  0.489183  0.751660  1
  O  O10  1  0.489183  0.510817  0.248340  1
  O  O11  1  0.824894  0.175106  0.929629  1
