# generated using pymatgen
data_Li2MnAsCO7
_symmetry_space_group_name_H-M   'P 1'
_cell_length_a   5.22300845
_cell_length_b   6.50854477
_cell_length_c   8.71349470
_cell_angle_alpha   90.00000000
_cell_angle_beta   93.34298059
_cell_angle_gamma   90.00000000
_symmetry_Int_Tables_number   1
_chemical_formula_structural   Li2MnAsCO7
_chemical_formula_sum   'Li4 Mn2 As2 C2 O14'
_cell_volume   295.70410395
_cell_formula_units_Z   2
loop_
 _symmetry_equiv_pos_site_id
 _symmetry_equiv_pos_as_xyz
  1  'x, y, z'
loop_
 _atom_site_type_symbol
 _atom_site_label
 _atom_site_symmetry_multiplicity
 _atom_site_fract_x
 _atom_site_fract_y
 _atom_site_fract_z
 _atom_site_occupancy
  Li  Li0  1  0.782452  0.486430  0.713086  1
  Li  Li1  1  0.782452  0.013570  0.713086  1
  Li  Li2  1  0.217548  0.513570  0.286914  1
  Li  Li3  1  0.217548  0.986430  0.286914  1
  Mn  Mn4  1  0.218561  0.250000  0.842884  1
  Mn  Mn5  1  0.781439  0.750000  0.157116  1
  As  As6  1  0.292668  0.750000  0.927946  1
  As  As7  1  0.707332  0.250000  0.072054  1
  C  C8  1  0.281961  0.250000  0.553372  1
  C  C9  1  0.718039  0.750000  0.446628  1
  O  O10  1  0.726948  0.750000  0.592500  1
  O  O11  1  0.064183  0.250000  0.627080  1
  O  O12  1  0.488973  0.250000  0.642116  1
  O  O13  1  0.182073  0.953325  0.818936  1
  O  O14  1  0.182073  0.546675  0.818936  1
  O  O15  1  0.811415  0.250000  0.890032  1
  O  O16  1  0.626609  0.750000  0.946372  1
  O  O17  1  0.373391  0.250000  0.053628  1
  O  O18  1  0.188585  0.750000  0.109968  1
  O  O19  1  0.817927  0.453325  0.181064  1
  O  O20  1  0.817927  0.046675  0.181064  1
  O  O21  1  0.511027  0.750000  0.357884  1
  O  O22  1  0.935817  0.750000  0.372920  1
  O  O23  1  0.273052  0.250000  0.407500  1
