# generated using pymatgen
data_Rb2Be2O3
_symmetry_space_group_name_H-M   'P 1'
_cell_length_a   7.57761160
_cell_length_b   7.57761160
_cell_length_c   7.39162642
_cell_angle_alpha   90.00000000
_cell_angle_beta   90.00000000
_cell_angle_gamma   90.00000000
_symmetry_Int_Tables_number   1
_chemical_formula_structural   Rb2Be2O3
_chemical_formula_sum   'Rb8 Be8 O12'
_cell_volume   424.42864933
_cell_formula_units_Z   4
loop_
 _symmetry_equiv_pos_site_id
 _symmetry_equiv_pos_as_xyz
  1  'x, y, z'
loop_
 _atom_site_type_symbol
 _atom_site_label
 _atom_site_symmetry_multiplicity
 _atom_site_fract_x
 _atom_site_fract_y
 _atom_site_fract_z
 _atom_site_occupancy
  Rb  Rb0  1  0.253798  0.495877  0.363039  1
  Rb  Rb1  1  0.504123  0.746202  0.136961  1
  Rb  Rb2  1  0.004123  0.753798  0.613039  1
  Rb  Rb3  1  0.753798  0.004123  0.386961  1
  Rb  Rb4  1  0.246202  0.995877  0.886961  1
  Rb  Rb5  1  0.995877  0.246202  0.113039  1
  Rb  Rb6  1  0.495877  0.253798  0.636961  1
  Rb  Rb7  1  0.746202  0.504123  0.863039  1
  Be  Be8  1  0.219577  0.532545  0.841929  1
  Be  Be9  1  0.467455  0.780423  0.658071  1
  Be  Be10  1  0.967455  0.719577  0.091929  1
  Be  Be11  1  0.719577  0.967455  0.908071  1
  Be  Be12  1  0.280423  0.032545  0.408071  1
  Be  Be13  1  0.032545  0.280423  0.591929  1
  Be  Be14  1  0.532545  0.219577  0.158071  1
  Be  Be15  1  0.780423  0.467455  0.341929  1
  O  O16  1  0.866707  0.371612  0.506272  1
  O  O17  1  0.887419  0.887419  0.000000  1
  O  O18  1  0.871612  0.633293  0.256272  1
  O  O19  1  0.371612  0.866707  0.493728  1
  O  O20  1  0.387419  0.612581  0.750000  1
  O  O21  1  0.366707  0.128388  0.243728  1
  O  O22  1  0.633293  0.871612  0.743728  1
  O  O23  1  0.612581  0.387419  0.250000  1
  O  O24  1  0.628388  0.133293  0.993728  1
  O  O25  1  0.128388  0.366707  0.756272  1
  O  O26  1  0.112581  0.112581  0.500000  1
  O  O27  1  0.133293  0.628388  0.006272  1
