# generated using pymatgen
data_Na2LiVPO6
_symmetry_space_group_name_H-M   'P 1'
_cell_length_a   5.97118600
_cell_length_b   12.59234413
_cell_length_c   8.11571606
_cell_angle_alpha   90.00000000
_cell_angle_beta   113.39027971
_cell_angle_gamma   90.00000000
_symmetry_Int_Tables_number   1
_chemical_formula_structural   Na2LiVPO6
_chemical_formula_sum   'Na8 Li4 V4 P4 O24'
_cell_volume   560.08312281
_cell_formula_units_Z   4
loop_
 _symmetry_equiv_pos_site_id
 _symmetry_equiv_pos_as_xyz
  1  'x, y, z'
loop_
 _atom_site_type_symbol
 _atom_site_label
 _atom_site_symmetry_multiplicity
 _atom_site_fract_x
 _atom_site_fract_y
 _atom_site_fract_z
 _atom_site_occupancy
  Na  Na0  1  0.705377  0.907594  0.568173  1
  Na  Na1  1  0.294623  0.407594  0.931827  1
  Na  Na2  1  0.643664  0.663751  0.452997  1
  Na  Na3  1  0.356336  0.163751  0.047003  1
  Na  Na4  1  0.643664  0.836249  0.952997  1
  Na  Na5  1  0.356336  0.336249  0.547003  1
  Na  Na6  1  0.705377  0.592406  0.068173  1
  Na  Na7  1  0.294623  0.092406  0.431827  1
  Li  Li8  1  0.799847  0.476129  0.750877  1
  Li  Li9  1  0.200153  0.976129  0.749123  1
  Li  Li10  1  0.799847  0.023871  0.250877  1
  Li  Li11  1  0.200153  0.523871  0.249123  1
  V  V12  1  0.913564  0.215579  0.604020  1
  V  V13  1  0.086436  0.715579  0.895980  1
  V  V14  1  0.913564  0.284421  0.104020  1
  V  V15  1  0.086436  0.784421  0.395980  1
  P  P16  1  0.275815  0.903735  0.182047  1
  P  P17  1  0.275815  0.596265  0.682047  1
  P  P18  1  0.724185  0.403735  0.317953  1
  P  P19  1  0.724185  0.096265  0.817953  1
  O  O20  1  0.807635  0.763185  0.751619  1
  O  O21  1  0.082509  0.622690  0.053091  1
  O  O22  1  0.978386  0.064480  0.824317  1
  O  O23  1  0.372064  0.816423  0.334579  1
  O  O24  1  0.021614  0.564480  0.675683  1
  O  O25  1  0.261897  0.852698  0.002605  1
  O  O26  1  0.460016  0.996319  0.233575  1
  O  O27  1  0.192365  0.263185  0.748381  1
  O  O28  1  0.082509  0.877310  0.553091  1
  O  O29  1  0.539984  0.496319  0.266425  1
  O  O30  1  0.738103  0.352698  0.497395  1
  O  O31  1  0.372064  0.683577  0.834579  1
  O  O32  1  0.627936  0.316423  0.165421  1
  O  O33  1  0.261897  0.647302  0.502605  1
  O  O34  1  0.460016  0.503681  0.733575  1
  O  O35  1  0.917491  0.122690  0.446909  1
  O  O36  1  0.807635  0.736815  0.251619  1
  O  O37  1  0.539984  0.003681  0.766425  1
  O  O38  1  0.738103  0.147302  0.997395  1
  O  O39  1  0.978386  0.435520  0.324317  1
  O  O40  1  0.627936  0.183577  0.665421  1
  O  O41  1  0.021614  0.935520  0.175683  1
  O  O42  1  0.917491  0.377310  0.946909  1
  O  O43  1  0.192365  0.236815  0.248381  1
