# generated using pymatgen
data_LiVSiO4
_symmetry_space_group_name_H-M   'P 1'
_cell_length_a   5.14574267
_cell_length_b   10.31654470
_cell_length_c   8.49165796
_cell_angle_alpha   90.00000000
_cell_angle_beta   125.60610818
_cell_angle_gamma   90.00000000
_symmetry_Int_Tables_number   1
_chemical_formula_structural   LiVSiO4
_chemical_formula_sum   'Li4 V4 Si4 O16'
_cell_volume   366.51017657
_cell_formula_units_Z   4
loop_
 _symmetry_equiv_pos_site_id
 _symmetry_equiv_pos_as_xyz
  1  'x, y, z'
loop_
 _atom_site_type_symbol
 _atom_site_label
 _atom_site_symmetry_multiplicity
 _atom_site_fract_x
 _atom_site_fract_y
 _atom_site_fract_z
 _atom_site_occupancy
  Li  Li0  1  0.703897  0.858461  0.504428  1
  Li  Li1  1  0.296103  0.358461  0.995572  1
  Li  Li2  1  0.703897  0.641539  0.004428  1
  Li  Li3  1  0.296103  0.141539  0.495572  1
  V  V4  1  0.197371  0.825950  0.007339  1
  V  V5  1  0.802629  0.325950  0.492661  1
  V  V6  1  0.197371  0.674050  0.507339  1
  V  V7  1  0.802629  0.174050  0.992661  1
  Si  Si8  1  0.462484  0.593801  0.265597  1
  Si  Si9  1  0.537516  0.093801  0.234403  1
  Si  Si10  1  0.462484  0.906199  0.765597  1
  Si  Si11  1  0.537516  0.406199  0.734403  1
  O  O12  1  0.847276  0.374223  0.730175  1
  O  O13  1  0.227676  0.173760  0.054673  1
  O  O14  1  0.622235  0.151933  0.440750  1
  O  O15  1  0.470039  0.938233  0.226296  1
  O  O16  1  0.529961  0.438233  0.273704  1
  O  O17  1  0.377765  0.651933  0.059250  1
  O  O18  1  0.772324  0.673760  0.445327  1
  O  O19  1  0.152724  0.874223  0.769825  1
  O  O20  1  0.847276  0.125777  0.230175  1
  O  O21  1  0.227676  0.326240  0.554673  1
  O  O22  1  0.622235  0.348067  0.940750  1
  O  O23  1  0.470039  0.561767  0.726296  1
  O  O24  1  0.529961  0.061767  0.773704  1
  O  O25  1  0.377765  0.848067  0.559250  1
  O  O26  1  0.772324  0.826240  0.945327  1
  O  O27  1  0.152724  0.625777  0.269825  1
