# generated using pymatgen
data_Na2(NiO2)7
_symmetry_space_group_name_H-M   'P 1'
_cell_length_a   4.84406114
_cell_length_b   6.50572675
_cell_length_c   9.01526959
_cell_angle_alpha   99.80471546
_cell_angle_beta   94.73478965
_cell_angle_gamma   103.70902596
_symmetry_Int_Tables_number   1
_chemical_formula_structural   Na2(NiO2)7
_chemical_formula_sum   'Na2 Ni7 O14'
_cell_volume   269.73256090
_cell_formula_units_Z   1
loop_
 _symmetry_equiv_pos_site_id
 _symmetry_equiv_pos_as_xyz
  1  'x, y, z'
loop_
 _atom_site_type_symbol
 _atom_site_label
 _atom_site_symmetry_multiplicity
 _atom_site_fract_x
 _atom_site_fract_y
 _atom_site_fract_z
 _atom_site_occupancy
  Na  Na0  1  0.136230  0.779804  0.786511  1
  Na  Na1  1  0.863770  0.220196  0.213489  1
  Ni  Ni2  1  0.567419  0.143476  0.641404  1
  Ni  Ni3  1  0.432581  0.856524  0.358596  1
  Ni  Ni4  1  0.136350  0.281667  0.784745  1
  Ni  Ni5  1  0.289681  0.573934  0.072886  1
  Ni  Ni6  1  0.000000  0.000000  0.500000  1
  Ni  Ni7  1  0.863650  0.718333  0.215255  1
  Ni  Ni8  1  0.710319  0.426066  0.927114  1
  O  O9  1  0.699897  0.120052  0.447912  1
  O  O10  1  0.420599  0.143478  0.824422  1
  O  O11  1  0.401125  0.543549  0.871537  1
  O  O12  1  0.598875  0.456451  0.128463  1
  O  O13  1  0.579401  0.856522  0.175578  1
  O  O14  1  0.266861  0.263515  0.591679  1
  O  O15  1  0.300103  0.879948  0.552088  1
  O  O16  1  0.868649  0.019188  0.691284  1
  O  O17  1  0.837414  0.404324  0.730684  1
  O  O18  1  0.162586  0.595676  0.269316  1
  O  O19  1  0.131351  0.980812  0.308716  1
  O  O20  1  0.733139  0.736485  0.408321  1
  O  O21  1  0.999043  0.291608  0.971862  1
  O  O22  1  0.000957  0.708392  0.028138  1
