# generated using pymatgen
data_Li4Mn3Ni2Sn3O16
_symmetry_space_group_name_H-M   'P 1'
_cell_length_a   6.04393673
_cell_length_b   6.04393673
_cell_length_c   9.69790648
_cell_angle_alpha   89.60850564
_cell_angle_beta   90.39149436
_cell_angle_gamma   120.01015526
_symmetry_Int_Tables_number   1
_chemical_formula_structural   Li4Mn3Ni2Sn3O16
_chemical_formula_sum   'Li4 Mn3 Ni2 Sn3 O16'
_cell_volume   306.75416959
_cell_formula_units_Z   1
loop_
 _symmetry_equiv_pos_site_id
 _symmetry_equiv_pos_as_xyz
  1  'x, y, z'
loop_
 _atom_site_type_symbol
 _atom_site_label
 _atom_site_symmetry_multiplicity
 _atom_site_fract_x
 _atom_site_fract_y
 _atom_site_fract_z
 _atom_site_occupancy
  Li  Li0  1  0.673314  0.326686  0.117964  1
  Li  Li1  1  0.984319  0.015681  0.004441  1
  Li  Li2  1  0.988214  0.011786  0.497424  1
  Li  Li3  1  0.338436  0.661564  0.608178  1
  Mn  Mn4  1  0.831555  0.168445  0.783252  1
  Mn  Mn5  1  0.662454  0.829966  0.284887  1
  Mn  Mn6  1  0.170034  0.337546  0.284887  1
  Ni  Ni7  1  0.667454  0.332546  0.507780  1
  Ni  Ni8  1  0.335594  0.664406  0.014107  1
  Sn  Sn9  1  0.832631  0.661330  0.785607  1
  Sn  Sn10  1  0.338670  0.167369  0.785607  1
  Sn  Sn11  1  0.169628  0.830372  0.286024  1
  O  O12  1  0.832386  0.686074  0.397499  1
  O  O13  1  0.518416  0.481584  0.657608  1
  O  O14  1  0.679123  0.320877  0.900630  1
  O  O15  1  0.989790  0.010210  0.681252  1
  O  O16  1  0.989531  0.010469  0.188139  1
  O  O17  1  0.313926  0.167614  0.397499  1
  O  O18  1  0.967605  0.470410  0.663709  1
  O  O19  1  0.529590  0.032395  0.663709  1
  O  O20  1  0.156285  0.843715  0.908099  1
  O  O21  1  0.839652  0.160348  0.387123  1
  O  O22  1  0.494838  0.961024  0.165835  1
  O  O23  1  0.038976  0.505162  0.165835  1
  O  O24  1  0.345759  0.654241  0.393601  1
  O  O25  1  0.679604  0.851344  0.894633  1
  O  O26  1  0.482808  0.517192  0.172206  1
  O  O27  1  0.148656  0.320396  0.894633  1
