# generated using pymatgen
data_Li5Co2Cu3O10
_symmetry_space_group_name_H-M   'P 1'
_cell_length_a   4.99223484
_cell_length_b   5.30205138
_cell_length_c   7.52896919
_cell_angle_alpha   104.63758333
_cell_angle_beta   102.99192612
_cell_angle_gamma   104.49852706
_symmetry_Int_Tables_number   1
_chemical_formula_structural   Li5Co2Cu3O10
_chemical_formula_sum   'Li5 Co2 Cu3 O10'
_cell_volume   177.62936919
_cell_formula_units_Z   1
loop_
 _symmetry_equiv_pos_site_id
 _symmetry_equiv_pos_as_xyz
  1  'x, y, z'
loop_
 _atom_site_type_symbol
 _atom_site_label
 _atom_site_symmetry_multiplicity
 _atom_site_fract_x
 _atom_site_fract_y
 _atom_site_fract_z
 _atom_site_occupancy
  Li  Li0  1  0.206463  0.896109  0.397321  1
  Li  Li1  1  0.395780  0.286697  0.789474  1
  Li  Li2  1  0.500000  0.500000  0.500000  1
  Li  Li3  1  0.604220  0.713303  0.210526  1
  Li  Li4  1  0.793537  0.103891  0.602679  1
  Co  Co5  1  0.102595  0.672632  0.692048  1
  Co  Co6  1  0.897405  0.327368  0.307952  1
  Cu  Cu7  1  0.000000  0.500000  0.000000  1
  Cu  Cu8  1  0.695644  0.890612  0.899724  1
  Cu  Cu9  1  0.304356  0.109388  0.100276  1
  O  O10  1  0.058174  0.019915  0.835920  1
  O  O11  1  0.344362  0.668932  0.929120  1
  O  O12  1  0.131550  0.336918  0.548787  1
  O  O13  1  0.210131  0.519077  0.246845  1
  O  O14  1  0.442355  0.878853  0.664471  1
  O  O15  1  0.557645  0.121147  0.335529  1
  O  O16  1  0.789869  0.480923  0.753155  1
  O  O17  1  0.868450  0.663082  0.451213  1
  O  O18  1  0.655638  0.331068  0.070880  1
  O  O19  1  0.941826  0.980085  0.164080  1
