# generated using pymatgen
data_Li4Co3Cu2Sb3O16
_symmetry_space_group_name_H-M   'P 1'
_cell_length_a   6.02431189
_cell_length_b   6.02431189
_cell_length_c   9.77810551
_cell_angle_alpha   88.28328750
_cell_angle_beta   91.71671250
_cell_angle_gamma   120.63809248
_symmetry_Int_Tables_number   1
_chemical_formula_structural   Li4Co3Cu2Sb3O16
_chemical_formula_sum   'Li4 Co3 Cu2 Sb3 O16'
_cell_volume   305.15001302
_cell_formula_units_Z   1
loop_
 _symmetry_equiv_pos_site_id
 _symmetry_equiv_pos_as_xyz
  1  'x, y, z'
loop_
 _atom_site_type_symbol
 _atom_site_label
 _atom_site_symmetry_multiplicity
 _atom_site_fract_x
 _atom_site_fract_y
 _atom_site_fract_z
 _atom_site_occupancy
  Li  Li0  1  0.679890  0.320110  0.883608  1
  Li  Li1  1  0.965847  0.034153  0.986623  1
  Li  Li2  1  0.991738  0.008262  0.504005  1
  Li  Li3  1  0.325149  0.674851  0.398465  1
  Co  Co4  1  0.822283  0.177717  0.216762  1
  Co  Co5  1  0.186107  0.326274  0.714027  1
  Co  Co6  1  0.673726  0.813893  0.714027  1
  Cu  Cu7  1  0.675991  0.324009  0.504516  1
  Cu  Cu8  1  0.352336  0.647664  0.982276  1
  Sb  Sb9  1  0.323946  0.172364  0.214997  1
  Sb  Sb10  1  0.827636  0.676054  0.214997  1
  Sb  Sb11  1  0.182861  0.817139  0.715519  1
  O  O12  1  0.328713  0.153818  0.603817  1
  O  O13  1  0.502586  0.497414  0.331059  1
  O  O14  1  0.648210  0.351790  0.097458  1
  O  O15  1  0.998256  0.001744  0.320985  1
  O  O16  1  0.013899  0.986101  0.810709  1
  O  O17  1  0.846182  0.671287  0.603817  1
  O  O18  1  0.494246  0.034325  0.336684  1
  O  O19  1  0.965675  0.505754  0.336684  1
  O  O20  1  0.141469  0.858531  0.099901  1
  O  O21  1  0.852672  0.147328  0.616694  1
  O  O22  1  0.058280  0.494549  0.835278  1
  O  O23  1  0.505451  0.941720  0.835278  1
  O  O24  1  0.345782  0.654218  0.609456  1
  O  O25  1  0.154329  0.328043  0.101279  1
  O  O26  1  0.500101  0.499899  0.812025  1
  O  O27  1  0.671957  0.845671  0.101279  1
