# generated using pymatgen
data_Sn2N2O
_symmetry_space_group_name_H-M   'P 1'
_cell_length_a   8.81891502
_cell_length_b   8.82843879
_cell_length_c   8.83230581
_cell_angle_alpha   109.39634248
_cell_angle_beta   109.31908508
_cell_angle_gamma   109.22343047
_symmetry_Int_Tables_number   1
_chemical_formula_structural   Sn2N2O
_chemical_formula_sum   'Sn16 N16 O8'
_cell_volume   532.43858191
_cell_formula_units_Z   8
loop_
 _symmetry_equiv_pos_site_id
 _symmetry_equiv_pos_as_xyz
  1  'x, y, z'
loop_
 _atom_site_type_symbol
 _atom_site_label
 _atom_site_symmetry_multiplicity
 _atom_site_fract_x
 _atom_site_fract_y
 _atom_site_fract_z
 _atom_site_occupancy
  Sn  Sn0  1  0.974828  0.224090  0.261857  1
  Sn  Sn1  1  0.990497  0.996812  0.490257  1
  Sn  Sn2  1  0.730892  0.756980  0.976344  1
  Sn  Sn3  1  0.778900  0.240296  0.529520  1
  Sn  Sn4  1  0.252858  0.532915  0.785641  1
  Sn  Sn5  1  0.252772  0.030969  0.280335  1
  Sn  Sn6  1  0.537386  0.286010  0.752219  1
  Sn  Sn7  1  0.514067  0.504569  0.501335  1
  Sn  Sn8  1  0.488547  0.990672  0.990673  1
  Sn  Sn9  1  0.006769  0.504762  0.010660  1
  Sn  Sn10  1  0.466126  0.715526  0.249762  1
  Sn  Sn11  1  0.750319  0.472487  0.209554  1
  Sn  Sn12  1  0.736941  0.953963  0.705469  1
  Sn  Sn13  1  0.208984  0.735400  0.463472  1
  Sn  Sn14  1  0.295320  0.255975  0.031059  1
  Sn  Sn15  1  0.033350  0.785758  0.749789  1
  N  N16  1  0.041028  0.278532  0.542651  1
  N  N17  1  0.538997  0.262688  0.500258  1
  N  N18  1  0.225375  0.455431  0.991211  1
  N  N19  1  0.515842  0.770604  0.038651  1
  N  N20  1  0.996108  0.451500  0.232638  1
  N  N21  1  0.724713  0.962592  0.459320  1
  N  N22  1  0.500372  0.222929  0.950880  1
  N  N23  1  0.778601  0.738318  0.744439  1
  N  N24  1  0.234432  0.775074  0.235148  1
  N  N25  1  0.260302  0.002229  0.036077  1
  N  N26  1  0.771839  0.541617  0.996389  1
  N  N27  1  0.457546  0.726845  0.508415  1
  N  N28  1  0.260080  0.753958  0.726711  1
  N  N29  1  0.972383  0.971064  0.228457  1
  N  N30  1  0.958739  0.736371  0.462524  1
  N  N31  1  0.545715  0.501593  0.269729  1
  O  O32  1  0.447719  0.481953  0.717340  1
  O  O33  1  0.039115  0.052917  0.771725  1
  O  O34  1  0.717872  0.219782  0.266564  1
  O  O35  1  0.772823  0.224465  0.778229  1
  O  O36  1  0.736932  0.018533  0.961182  1
  O  O37  1  0.976168  0.530795  0.764040  1
  O  O38  1  0.271678  0.047499  0.552045  1
  O  O39  1  0.237064  0.285526  0.277435  1
