# generated using pymatgen
data_Li4Cr3CoO8
_symmetry_space_group_name_H-M   'P 1'
_cell_length_a   5.10410057
_cell_length_b   7.73938775
_cell_length_c   7.75831134
_cell_angle_alpha   81.85878845
_cell_angle_beta   83.81208336
_cell_angle_gamma   71.00916744
_symmetry_Int_Tables_number   1
_chemical_formula_structural   Li4Cr3CoO8
_chemical_formula_sum   'Li8 Cr6 Co2 O16'
_cell_volume   286.24788304
_cell_formula_units_Z   2
loop_
 _symmetry_equiv_pos_site_id
 _symmetry_equiv_pos_as_xyz
  1  'x, y, z'
loop_
 _atom_site_type_symbol
 _atom_site_label
 _atom_site_symmetry_multiplicity
 _atom_site_fract_x
 _atom_site_fract_y
 _atom_site_fract_z
 _atom_site_occupancy
  Li  Li0  1  0.000000  0.000000  0.000000  1
  Li  Li1  1  0.002103  0.749035  0.751046  1
  Li  Li2  1  0.001830  0.874964  0.374135  1
  Li  Li3  1  0.001639  0.375607  0.870689  1
  Li  Li4  1  0.000000  0.500000  0.500000  1
  Li  Li5  1  0.998361  0.624393  0.129311  1
  Li  Li6  1  0.998170  0.125036  0.625865  1
  Li  Li7  1  0.997897  0.250965  0.248954  1
  Cr  Cr8  1  0.499987  0.685293  0.938248  1
  Cr  Cr9  1  0.499969  0.808405  0.562061  1
  Cr  Cr10  1  0.499650  0.935492  0.188562  1
  Cr  Cr11  1  0.500350  0.064508  0.811438  1
  Cr  Cr12  1  0.500031  0.191595  0.437939  1
  Cr  Cr13  1  0.500013  0.314707  0.061752  1
  Co  Co14  1  0.499922  0.438239  0.685995  1
  Co  Co15  1  0.500078  0.561761  0.314005  1
  O  O16  1  0.727366  0.848207  0.969476  1
  O  O17  1  0.272910  0.901022  0.780286  1
  O  O18  1  0.727458  0.972873  0.593858  1
  O  O19  1  0.275833  0.524948  0.899759  1
  O  O20  1  0.722761  0.594212  0.719562  1
  O  O21  1  0.723010  0.718952  0.344578  1
  O  O22  1  0.281384  0.643187  0.528645  1
  O  O23  1  0.723984  0.229117  0.840676  1
  O  O24  1  0.718616  0.356813  0.471355  1
  O  O25  1  0.276016  0.770883  0.159324  1
  O  O26  1  0.276990  0.281048  0.655422  1
  O  O27  1  0.724167  0.475052  0.100241  1
  O  O28  1  0.277239  0.405788  0.280438  1
  O  O29  1  0.727090  0.098978  0.219714  1
  O  O30  1  0.272542  0.027127  0.406142  1
  O  O31  1  0.272634  0.151793  0.030524  1
