# generated using pymatgen
data_KTiF4
_symmetry_space_group_name_H-M   'P 1'
_cell_length_a   7.83083137
_cell_length_b   7.83083137
_cell_length_c   4.01223537
_cell_angle_alpha   75.73654404
_cell_angle_beta   104.26345596
_cell_angle_gamma   112.49397908
_symmetry_Int_Tables_number   1
_chemical_formula_structural   KTiF4
_chemical_formula_sum   'K2 Ti2 F8'
_cell_volume   217.10942007
_cell_formula_units_Z   2
loop_
 _symmetry_equiv_pos_site_id
 _symmetry_equiv_pos_as_xyz
  1  'x, y, z'
loop_
 _atom_site_type_symbol
 _atom_site_label
 _atom_site_symmetry_multiplicity
 _atom_site_fract_x
 _atom_site_fract_y
 _atom_site_fract_z
 _atom_site_occupancy
  K  K0  1  0.307788  0.692212  0.313671  1
  K  K1  1  0.692212  0.307788  0.686329  1
  Ti  Ti2  1  0.810716  0.810716  0.000000  1
  Ti  Ti3  1  0.189284  0.189284  0.000000  1
  F  F4  1  0.899121  0.100879  0.901666  1
  F  F5  1  0.799758  0.556125  0.117756  1
  F  F6  1  0.443875  0.200242  0.117756  1
  F  F7  1  0.804655  0.804655  0.500000  1
  F  F8  1  0.195345  0.195345  0.500000  1
  F  F9  1  0.556125  0.799758  0.882244  1
  F  F10  1  0.200242  0.443875  0.882244  1
  F  F11  1  0.100879  0.899121  0.098334  1
