# generated using pymatgen
data_Li3Mn(CuO3)2
_symmetry_space_group_name_H-M   'P 1'
_cell_length_a   6.69303392
_cell_length_b   6.69303392
_cell_length_c   5.85666521
_cell_angle_alpha   77.88531426
_cell_angle_beta   102.11468574
_cell_angle_gamma   155.12233933
_symmetry_Int_Tables_number   1
_chemical_formula_structural   Li3Mn(CuO3)2
_chemical_formula_sum   'Li3 Mn1 Cu2 O6'
_cell_volume   107.79085177
_cell_formula_units_Z   1
loop_
 _symmetry_equiv_pos_site_id
 _symmetry_equiv_pos_as_xyz
  1  'x, y, z'
loop_
 _atom_site_type_symbol
 _atom_site_label
 _atom_site_symmetry_multiplicity
 _atom_site_fract_x
 _atom_site_fract_y
 _atom_site_fract_z
 _atom_site_occupancy
  Li  Li0  1  0.500000  0.500000  0.500000  1
  Li  Li1  1  0.169900  0.830100  0.832824  1
  Li  Li2  1  0.830100  0.169900  0.167176  1
  Mn  Mn3  1  0.500000  0.500000  0.000000  1
  Cu  Cu4  1  0.170772  0.829228  0.342054  1
  Cu  Cu5  1  0.829228  0.170772  0.657946  1
  O  O6  1  0.653934  0.346066  0.091811  1
  O  O7  1  0.334553  0.665447  0.427787  1
  O  O8  1  0.346066  0.653934  0.908189  1
  O  O9  1  0.007057  0.992943  0.782300  1
  O  O10  1  0.992943  0.007057  0.217700  1
  O  O11  1  0.665447  0.334553  0.572213  1
