# generated using pymatgen
data_La2HfO5
_symmetry_space_group_name_H-M   'P 1'
_cell_length_a   6.37043535
_cell_length_b   6.37043535
_cell_length_c   11.19526971
_cell_angle_alpha   90.00000000
_cell_angle_beta   90.00000000
_cell_angle_gamma   141.23576787
_symmetry_Int_Tables_number   1
_chemical_formula_structural   La2HfO5
_chemical_formula_sum   'La4 Hf2 O10'
_cell_volume   284.46471416
_cell_formula_units_Z   2
loop_
 _symmetry_equiv_pos_site_id
 _symmetry_equiv_pos_as_xyz
  1  'x, y, z'
loop_
 _atom_site_type_symbol
 _atom_site_label
 _atom_site_symmetry_multiplicity
 _atom_site_fract_x
 _atom_site_fract_y
 _atom_site_fract_z
 _atom_site_occupancy
  La  La0  1  0.861590  0.138410  0.571465  1
  La  La1  1  0.861590  0.138410  0.928535  1
  La  La2  1  0.138410  0.861590  0.071465  1
  La  La3  1  0.138410  0.861590  0.428535  1
  Hf  Hf4  1  0.829580  0.170420  0.250000  1
  Hf  Hf5  1  0.170420  0.829580  0.750000  1
  O  O6  1  0.949092  0.050908  0.120442  1
  O  O7  1  0.717190  0.282810  0.402802  1
  O  O8  1  0.949092  0.050908  0.379558  1
  O  O9  1  0.717190  0.282810  0.097198  1
  O  O10  1  0.716991  0.283009  0.750000  1
  O  O11  1  0.283009  0.716991  0.250000  1
  O  O12  1  0.050908  0.949092  0.620442  1
  O  O13  1  0.050908  0.949092  0.879558  1
  O  O14  1  0.282810  0.717190  0.597198  1
  O  O15  1  0.282810  0.717190  0.902802  1
