# generated using pymatgen
data_MgVFeMo3O14
_symmetry_space_group_name_H-M   'P 1'
_cell_length_a   8.42557843
_cell_length_b   9.11228754
_cell_length_c   8.73589635
_cell_angle_alpha   90.00000000
_cell_angle_beta   112.53324577
_cell_angle_gamma   90.00000000
_symmetry_Int_Tables_number   1
_chemical_formula_structural   MgVFeMo3O14
_chemical_formula_sum   'Mg2 V2 Fe2 Mo6 O28'
_cell_volume   619.50596498
_cell_formula_units_Z   2
loop_
 _symmetry_equiv_pos_site_id
 _symmetry_equiv_pos_as_xyz
  1  'x, y, z'
loop_
 _atom_site_type_symbol
 _atom_site_label
 _atom_site_symmetry_multiplicity
 _atom_site_fract_x
 _atom_site_fract_y
 _atom_site_fract_z
 _atom_site_occupancy
  Mg  Mg0  1  0.753920  0.995947  0.570883  1
  Mg  Mg1  1  0.246080  0.495947  0.429117  1
  V  V2  1  0.115557  0.142980  0.908771  1
  V  V3  1  0.884443  0.642980  0.091229  1
  Fe  Fe4  1  0.238873  0.500743  0.061337  1
  Fe  Fe5  1  0.761127  0.000743  0.938663  1
  Mo  Mo6  1  0.045089  0.118148  0.357129  1
  Mo  Mo7  1  0.954911  0.618148  0.642871  1
  Mo  Mo8  1  0.617194  0.359204  0.402287  1
  Mo  Mo9  1  0.550146  0.382752  0.859995  1
  Mo  Mo10  1  0.382806  0.859204  0.597713  1
  Mo  Mo11  1  0.449854  0.882752  0.140005  1
  O  O12  1  0.237038  0.990892  0.435182  1
  O  O13  1  0.113106  0.301243  0.392691  1
  O  O14  1  0.190666  0.167961  0.763392  1
  O  O15  1  0.099329  0.572367  0.550474  1
  O  O16  1  0.126782  0.308875  0.009485  1
  O  O17  1  0.900671  0.072367  0.449526  1
  O  O18  1  0.058957  0.589118  0.860308  1
  O  O19  1  0.886894  0.801243  0.607309  1
  O  O20  1  0.099758  0.573167  0.189751  1
  O  O21  1  0.704732  0.329310  0.255963  1
  O  O22  1  0.900242  0.073167  0.810249  1
  O  O23  1  0.762962  0.490892  0.564818  1
  O  O24  1  0.941043  0.089118  0.139692  1
  O  O25  1  0.873218  0.808875  0.990515  1
  O  O26  1  0.613046  0.189387  0.495654  1
  O  O27  1  0.552949  0.907947  0.357722  1
  O  O28  1  0.734785  0.511423  0.936357  1
  O  O29  1  0.600713  0.929799  0.705536  1
  O  O30  1  0.809334  0.667961  0.236608  1
  O  O31  1  0.399287  0.429799  0.294464  1
  O  O32  1  0.625590  0.198041  0.899421  1
  O  O33  1  0.447051  0.407947  0.642278  1
  O  O34  1  0.597188  0.930697  0.046241  1
  O  O35  1  0.386954  0.689387  0.504346  1
  O  O36  1  0.402812  0.430697  0.953759  1
  O  O37  1  0.295268  0.829310  0.744037  1
  O  O38  1  0.374410  0.698041  0.100579  1
  O  O39  1  0.265215  0.011423  0.063643  1
