# generated using pymatgen
data_LiNiOF2
_symmetry_space_group_name_H-M   'P 1'
_cell_length_a   4.95966406
_cell_length_b   4.90999525
_cell_length_c   9.35770291
_cell_angle_alpha   90.00000000
_cell_angle_beta   120.09392820
_cell_angle_gamma   90.00000000
_symmetry_Int_Tables_number   1
_chemical_formula_structural   LiNiOF2
_chemical_formula_sum   'Li4 Ni4 O4 F8'
_cell_volume   197.16117006
_cell_formula_units_Z   4
loop_
 _symmetry_equiv_pos_site_id
 _symmetry_equiv_pos_as_xyz
  1  'x, y, z'
loop_
 _atom_site_type_symbol
 _atom_site_label
 _atom_site_symmetry_multiplicity
 _atom_site_fract_x
 _atom_site_fract_y
 _atom_site_fract_z
 _atom_site_occupancy
  Li  Li0  1  0.776880  0.968234  0.743781  1
  Li  Li1  1  0.223120  0.468234  0.756219  1
  Li  Li2  1  0.776880  0.531766  0.243781  1
  Li  Li3  1  0.223120  0.031766  0.256219  1
  Ni  Ni4  1  0.500000  0.500000  0.500000  1
  Ni  Ni5  1  0.000000  0.500000  0.000000  1
  Ni  Ni6  1  0.000000  0.000000  0.500000  1
  Ni  Ni7  1  0.500000  0.000000  0.000000  1
  O  O8  1  0.561650  0.898056  0.462942  1
  O  O9  1  0.438350  0.398056  0.037058  1
  O  O10  1  0.561650  0.601944  0.962942  1
  O  O11  1  0.438350  0.101944  0.537058  1
  F  F12  1  0.144731  0.415325  0.245083  1
  F  F13  1  0.229458  0.856646  0.083304  1
  F  F14  1  0.770542  0.356646  0.416696  1
  F  F15  1  0.855269  0.915325  0.254917  1
  F  F16  1  0.144731  0.084675  0.745083  1
  F  F17  1  0.229458  0.643354  0.583304  1
  F  F18  1  0.770542  0.143354  0.916696  1
  F  F19  1  0.855269  0.584675  0.754917  1
