# generated using pymatgen
data_Co6O5F7
_symmetry_space_group_name_H-M   'P 1'
_cell_length_a   4.55021354
_cell_length_b   5.46778738
_cell_length_c   7.62441467
_cell_angle_alpha   92.95324692
_cell_angle_beta   91.35862521
_cell_angle_gamma   90.56053814
_symmetry_Int_Tables_number   1
_chemical_formula_structural   Co6O5F7
_chemical_formula_sum   'Co6 O5 F7'
_cell_volume   189.37569773
_cell_formula_units_Z   1
loop_
 _symmetry_equiv_pos_site_id
 _symmetry_equiv_pos_as_xyz
  1  'x, y, z'
loop_
 _atom_site_type_symbol
 _atom_site_label
 _atom_site_symmetry_multiplicity
 _atom_site_fract_x
 _atom_site_fract_y
 _atom_site_fract_z
 _atom_site_occupancy
  Co  Co0  1  0.554263  0.483620  0.992452  1
  Co  Co1  1  0.479590  0.181313  0.659248  1
  Co  Co2  1  0.458402  0.837152  0.340140  1
  Co  Co3  1  0.009220  0.318329  0.327849  1
  Co  Co4  1  0.018882  0.659554  0.659689  1
  Co  Co5  1  0.998811  0.011887  0.014248  1
  O  O6  1  0.201808  0.364613  0.551425  1
  O  O7  1  0.183962  0.042436  0.230466  1
  O  O8  1  0.292004  0.881270  0.579288  1
  O  O9  1  0.689223  0.466388  0.757642  1
  O  O10  1  0.811376  0.290579  0.104685  1
  F  F11  1  0.196921  0.711356  0.917529  1
  F  F12  1  0.298899  0.520469  0.224800  1
  F  F13  1  0.288582  0.203013  0.906191  1
  F  F14  1  0.719747  0.127051  0.432856  1
  F  F15  1  0.701681  0.803851  0.100119  1
  F  F16  1  0.790940  0.977941  0.782144  1
  F  F17  1  0.805688  0.619179  0.419233  1
