# generated using pymatgen
data_Li3MnV3O8
_symmetry_space_group_name_H-M   'P 1'
_cell_length_a   5.98551477
_cell_length_b   5.98551477
_cell_length_c   5.98551477
_cell_angle_alpha   59.69769110
_cell_angle_beta   59.69769110
_cell_angle_gamma   59.69769110
_symmetry_Int_Tables_number   1
_chemical_formula_structural   Li3MnV3O8
_chemical_formula_sum   'Li3 Mn1 V3 O8'
_cell_volume   150.59027657
_cell_formula_units_Z   1
loop_
 _symmetry_equiv_pos_site_id
 _symmetry_equiv_pos_as_xyz
  1  'x, y, z'
loop_
 _atom_site_type_symbol
 _atom_site_label
 _atom_site_symmetry_multiplicity
 _atom_site_fract_x
 _atom_site_fract_y
 _atom_site_fract_z
 _atom_site_occupancy
  Li  Li0  1  0.000000  0.000000  0.500000  1
  Li  Li1  1  0.500000  0.000000  1.000000  1
  Li  Li2  1  0.000000  0.500000  0.000000  1
  Mn  Mn3  1  0.000000  0.000000  0.000000  1
  V  V4  1  0.500000  0.500000  0.000000  1
  V  V5  1  0.000000  0.500000  0.500000  1
  V  V6  1  0.500000  0.000000  0.500000  1
  O  O7  1  0.257667  0.257667  0.257667  1
  O  O8  1  0.769621  0.769621  0.245950  1
  O  O9  1  0.245950  0.769621  0.769621  1
  O  O10  1  0.742333  0.742333  0.742333  1
  O  O11  1  0.769621  0.245950  0.769621  1
  O  O12  1  0.230379  0.230379  0.754050  1
  O  O13  1  0.754050  0.230379  0.230379  1
  O  O14  1  0.230379  0.754050  0.230379  1
