# generated using pymatgen
data_Bi12O16F5
_symmetry_space_group_name_H-M   'P 1'
_cell_length_a   13.84749030
_cell_length_b   13.84749030
_cell_length_c   10.44098998
_cell_angle_alpha   79.15816467
_cell_angle_beta   100.84183533
_cell_angle_gamma   164.19386411
_symmetry_Int_Tables_number   1
_chemical_formula_structural   Bi12O16F5
_chemical_formula_sum   'Bi12 O16 F5'
_cell_volume   535.41266987
_cell_formula_units_Z   1
loop_
 _symmetry_equiv_pos_site_id
 _symmetry_equiv_pos_as_xyz
  1  'x, y, z'
loop_
 _atom_site_type_symbol
 _atom_site_label
 _atom_site_symmetry_multiplicity
 _atom_site_fract_x
 _atom_site_fract_y
 _atom_site_fract_z
 _atom_site_occupancy
  Bi  Bi0  1  0.682904  0.317358  0.065292  1
  Bi  Bi1  1  0.930275  0.058398  0.074350  1
  Bi  Bi2  1  0.548206  0.438444  0.234553  1
  Bi  Bi3  1  0.809523  0.176462  0.248880  1
  Bi  Bi4  1  0.416531  0.554731  0.393457  1
  Bi  Bi5  1  0.659542  0.273601  0.439315  1
  Bi  Bi6  1  0.273601  0.659542  0.560685  1
  Bi  Bi7  1  0.554731  0.416531  0.606543  1
  Bi  Bi8  1  0.176462  0.809523  0.751120  1
  Bi  Bi9  1  0.438444  0.548206  0.765447  1
  Bi  Bi10  1  0.058398  0.930275  0.925650  1
  Bi  Bi11  1  0.317358  0.682904  0.934708  1
  O  O12  1  0.844940  0.154922  0.040067  1
  O  O13  1  0.592077  0.399179  0.069616  1
  O  O14  1  0.031231  0.975366  0.125945  1
  O  O15  1  0.281434  0.710742  0.120558  1
  O  O16  1  0.457543  0.525467  0.217806  1
  O  O17  1  0.889933  0.086742  0.290518  1
  O  O18  1  0.337379  0.645737  0.381715  1
  O  O19  1  0.770851  0.217420  0.448619  1
  O  O20  1  0.217420  0.770851  0.551381  1
  O  O21  1  0.645737  0.337379  0.618285  1
  O  O22  1  0.086742  0.889934  0.709482  1
  O  O23  1  0.525467  0.457543  0.782194  1
  O  O24  1  0.710742  0.281434  0.879442  1
  O  O25  1  0.975366  0.031231  0.874055  1
  O  O26  1  0.399179  0.592077  0.930384  1
  O  O27  1  0.154922  0.844940  0.959933  1
  F  F28  1  0.236406  0.832836  0.268375  1
  F  F29  1  0.151470  0.933182  0.369213  1
  F  F30  1  0.994367  0.994367  0.500000  1
  F  F31  1  0.933182  0.151470  0.630787  1
  F  F32  1  0.832836  0.236406  0.731625  1
