# generated using pymatgen
data_Li7Ni(O2F)2
_symmetry_space_group_name_H-M   'P 1'
_cell_length_a   5.35613720
_cell_length_b   5.63707417
_cell_length_c   10.07127839
_cell_angle_alpha   105.81951502
_cell_angle_beta   85.88190950
_cell_angle_gamma   115.99099337
_symmetry_Int_Tables_number   1
_chemical_formula_structural   Li7Ni(O2F)2
_chemical_formula_sum   'Li14 Ni2 O8 F4'
_cell_volume   262.57587188
_cell_formula_units_Z   2
loop_
 _symmetry_equiv_pos_site_id
 _symmetry_equiv_pos_as_xyz
  1  'x, y, z'
loop_
 _atom_site_type_symbol
 _atom_site_label
 _atom_site_symmetry_multiplicity
 _atom_site_fract_x
 _atom_site_fract_y
 _atom_site_fract_z
 _atom_site_occupancy
  Li  Li0  1  0.057107  0.963195  0.773047  1
  Li  Li1  1  0.473745  0.378103  0.254045  1
  Li  Li2  1  0.542280  0.056700  0.615679  1
  Li  Li3  1  0.966027  0.427454  0.884943  1
  Li  Li4  1  0.048435  0.782966  0.557769  1
  Li  Li5  1  0.517093  0.279999  0.037913  1
  Li  Li6  1  0.956330  0.651578  0.323229  1
  Li  Li7  1  0.484211  0.761317  0.939423  1
  Li  Li8  1  0.980343  0.225451  0.472933  1
  Li  Li9  1  0.981845  0.505108  0.107374  1
  Li  Li10  1  0.495036  0.970229  0.383580  1
  Li  Li11  1  0.467481  0.536065  0.720984  1
  Li  Li12  1  0.987694  0.096730  0.248810  1
  Li  Li13  1  0.503247  0.850859  0.163275  1
  Ni  Ni14  1  0.002493  0.960010  0.042872  1
  Ni  Ni15  1  0.511085  0.506264  0.491643  1
  O  O16  1  0.261658  0.175647  0.602378  1
  O  O17  1  0.280248  0.036611  0.197740  1
  O  O18  1  0.171463  0.806302  0.971027  1
  O  O19  1  0.667487  0.319539  0.434629  1
  O  O20  1  0.695716  0.630460  0.107745  1
  O  O21  1  0.342361  0.690241  0.537352  1
  O  O22  1  0.820405  0.164367  0.062211  1
  O  O23  1  0.778793  0.840440  0.391977  1
  F  F24  1  0.854599  0.601148  0.721217  1
  F  F25  1  0.296885  0.390517  0.889433  1
  F  F26  1  0.697146  0.946019  0.786544  1
  F  F27  1  0.158790  0.446682  0.280225  1
