# generated using pymatgen
data_V3O5F
_symmetry_space_group_name_H-M   'P 1'
_cell_length_a   4.69111994
_cell_length_b   5.55330649
_cell_length_c   7.50442193
_cell_angle_alpha   96.10259906
_cell_angle_beta   90.26773492
_cell_angle_gamma   90.29246621
_symmetry_Int_Tables_number   1
_chemical_formula_structural   V3O5F
_chemical_formula_sum   'V6 O10 F2'
_cell_volume   194.38632012
_cell_formula_units_Z   2
loop_
 _symmetry_equiv_pos_site_id
 _symmetry_equiv_pos_as_xyz
  1  'x, y, z'
loop_
 _atom_site_type_symbol
 _atom_site_label
 _atom_site_symmetry_multiplicity
 _atom_site_fract_x
 _atom_site_fract_y
 _atom_site_fract_z
 _atom_site_occupancy
  V  V0  1  0.468305  0.848152  0.344648  1
  V  V1  1  0.497414  0.483017  0.995183  1
  V  V2  1  0.502306  0.166879  0.662773  1
  V  V3  1  0.008118  0.318949  0.326967  1
  V  V4  1  0.007437  0.673538  0.685773  1
  V  V5  1  0.017060  0.008233  0.991327  1
  O  O6  1  0.179324  0.372632  0.556820  1
  O  O7  1  0.205262  0.691697  0.898859  1
  O  O8  1  0.200939  0.035440  0.234955  1
  O  O9  1  0.303501  0.201268  0.901245  1
  O  O10  1  0.319163  0.542391  0.229871  1
  O  O11  1  0.288870  0.860685  0.565033  1
  O  O12  1  0.697155  0.117714  0.419982  1
  O  O13  1  0.699973  0.476313  0.780742  1
  O  O14  1  0.798149  0.959043  0.758473  1
  O  O15  1  0.808894  0.308246  0.109589  1
  F  F16  1  0.703234  0.802095  0.102715  1
  F  F17  1  0.794897  0.633708  0.435049  1
