# generated using pymatgen
data_Mn3SbO8
_symmetry_space_group_name_H-M   'P 1'
_cell_length_a   5.91032772
_cell_length_b   5.91032772
_cell_length_c   9.30089339
_cell_angle_alpha   90.00000000
_cell_angle_beta   90.00000000
_cell_angle_gamma   120.00000000
_symmetry_Int_Tables_number   1
_chemical_formula_structural   Mn3SbO8
_chemical_formula_sum   'Mn6 Sb2 O16'
_cell_volume   281.37041013
_cell_formula_units_Z   2
loop_
 _symmetry_equiv_pos_site_id
 _symmetry_equiv_pos_as_xyz
  1  'x, y, z'
loop_
 _atom_site_type_symbol
 _atom_site_label
 _atom_site_symmetry_multiplicity
 _atom_site_fract_x
 _atom_site_fract_y
 _atom_site_fract_z
 _atom_site_occupancy
  Mn  Mn0  1  0.167489  0.832511  0.211213  1
  Mn  Mn1  1  0.167489  0.334978  0.211213  1
  Mn  Mn2  1  0.665022  0.832511  0.211213  1
  Mn  Mn3  1  0.334978  0.167489  0.711213  1
  Mn  Mn4  1  0.832511  0.665022  0.711213  1
  Mn  Mn5  1  0.832511  0.167489  0.711213  1
  Sb  Sb6  1  0.333333  0.666667  0.489253  1
  Sb  Sb7  1  0.666667  0.333333  0.989253  1
  O  O8  1  0.166329  0.833671  0.599620  1
  O  O9  1  0.037547  0.518773  0.339571  1
  O  O10  1  0.333333  0.666667  0.111999  1
  O  O11  1  0.000000  0.000000  0.305991  1
  O  O12  1  0.000000  0.000000  0.805991  1
  O  O13  1  0.166329  0.332658  0.599620  1
  O  O14  1  0.481227  0.962453  0.339571  1
  O  O15  1  0.481227  0.518773  0.339571  1
  O  O16  1  0.332658  0.166329  0.099620  1
  O  O17  1  0.667342  0.833671  0.599620  1
  O  O18  1  0.518773  0.481227  0.839571  1
  O  O19  1  0.518773  0.037547  0.839571  1
  O  O20  1  0.666667  0.333333  0.611999  1
  O  O21  1  0.833671  0.667342  0.099620  1
  O  O22  1  0.962453  0.481227  0.839571  1
  O  O23  1  0.833671  0.166329  0.099620  1
