# generated using pymatgen
data_KVH2SO7
_symmetry_space_group_name_H-M   'P 1'
_cell_length_a   4.72160363
_cell_length_b   10.86869624
_cell_length_c   11.66718166
_cell_angle_alpha   90.00000000
_cell_angle_beta   90.00000000
_cell_angle_gamma   90.00000000
_symmetry_Int_Tables_number   1
_chemical_formula_structural   KVH2SO7
_chemical_formula_sum   'K4 V4 H8 S4 O28'
_cell_volume   598.73264383
_cell_formula_units_Z   4
loop_
 _symmetry_equiv_pos_site_id
 _symmetry_equiv_pos_as_xyz
  1  'x, y, z'
loop_
 _atom_site_type_symbol
 _atom_site_label
 _atom_site_symmetry_multiplicity
 _atom_site_fract_x
 _atom_site_fract_y
 _atom_site_fract_z
 _atom_site_occupancy
  K  K0  1  0.793947  0.590086  0.912007  1
  K  K1  1  0.706053  0.409914  0.412007  1
  K  K2  1  0.293947  0.909914  0.087993  1
  K  K3  1  0.206053  0.090086  0.587993  1
  V  V4  1  0.833833  0.793148  0.599991  1
  V  V5  1  0.666167  0.206852  0.099991  1
  V  V6  1  0.333833  0.706852  0.400009  1
  V  V7  1  0.166167  0.293148  0.900009  1
  H  H8  1  0.904027  0.541763  0.651222  1
  H  H9  1  0.595973  0.458237  0.151222  1
  H  H10  1  0.404027  0.958237  0.348778  1
  H  H11  1  0.095973  0.041763  0.848778  1
  H  H12  1  0.777456  0.082802  0.834718  1
  H  H13  1  0.722544  0.917198  0.334718  1
  H  H14  1  0.277456  0.417198  0.165282  1
  H  H15  1  0.222544  0.582802  0.665282  1
  S  S16  1  0.864775  0.669752  0.199442  1
  S  S17  1  0.635225  0.330248  0.699442  1
  S  S18  1  0.364775  0.830248  0.800558  1
  S  S19  1  0.135225  0.169752  0.300558  1
  O  O20  1  0.873741  0.302489  0.012630  1
  O  O21  1  0.626259  0.697511  0.512630  1
  O  O22  1  0.373741  0.197511  0.987370  1
  O  O23  1  0.126259  0.802489  0.487370  1
  O  O24  1  0.299349  0.429640  0.920054  1
  O  O25  1  0.200651  0.570360  0.420054  1
  O  O26  1  0.799349  0.070360  0.079946  1
  O  O27  1  0.700651  0.929640  0.579946  1
  O  O28  1  0.963912  0.550785  0.153619  1
  O  O29  1  0.536088  0.449215  0.653619  1
  O  O30  1  0.463912  0.949215  0.846381  1
  O  O31  1  0.036088  0.050785  0.346381  1
  O  O32  1  0.250665  0.750769  0.890725  1
  O  O33  1  0.249335  0.249231  0.390725  1
  O  O34  1  0.750665  0.749231  0.109275  1
  O  O35  1  0.749335  0.250769  0.609275  1
  O  O36  1  0.850753  0.358807  0.790555  1
  O  O37  1  0.649247  0.641193  0.290555  1
  O  O38  1  0.350753  0.141193  0.209445  1
  O  O39  1  0.149247  0.858807  0.709445  1
  O  O40  1  0.108245  0.741116  0.254836  1
  O  O41  1  0.391755  0.258884  0.754836  1
  O  O42  1  0.608245  0.758884  0.745164  1
  O  O43  1  0.891755  0.241116  0.245164  1
  O  O44  1  0.973690  0.111758  0.829595  1
  O  O45  1  0.526310  0.888242  0.329595  1
  O  O46  1  0.473690  0.388242  0.170405  1
  O  O47  1  0.026310  0.611758  0.670405  1
