# generated using pymatgen
data_Ti5Mn(PO4)6
_symmetry_space_group_name_H-M   'P 1'
_cell_length_a   8.48757420
_cell_length_b   8.48757420
_cell_length_c   8.48757420
_cell_angle_alpha   62.02662807
_cell_angle_beta   62.02662807
_cell_angle_gamma   62.02662807
_symmetry_Int_Tables_number   1
_chemical_formula_structural   Ti5Mn(PO4)6
_chemical_formula_sum   'Ti5 Mn1 P6 O24'
_cell_volume   451.94526153
_cell_formula_units_Z   1
loop_
 _symmetry_equiv_pos_site_id
 _symmetry_equiv_pos_as_xyz
  1  'x, y, z'
loop_
 _atom_site_type_symbol
 _atom_site_label
 _atom_site_symmetry_multiplicity
 _atom_site_fract_x
 _atom_site_fract_y
 _atom_site_fract_z
 _atom_site_occupancy
  Ti  Ti0  1  0.999925  0.999925  0.999925  1
  Ti  Ti1  1  0.499976  0.499976  0.499976  1
  Ti  Ti2  1  0.858318  0.858318  0.858318  1
  Ti  Ti3  1  0.644782  0.644782  0.644782  1
  Ti  Ti4  1  0.356817  0.356817  0.356817  1
  Mn  Mn5  1  0.147106  0.147106  0.147106  1
  P  P6  1  0.951707  0.250462  0.547337  1
  P  P7  1  0.547337  0.951707  0.250462  1
  P  P8  1  0.749224  0.455836  0.043414  1
  P  P9  1  0.455836  0.043414  0.749224  1
  P  P10  1  0.043414  0.749224  0.455836  1
  P  P11  1  0.250462  0.547337  0.951707  1
  O  O12  1  0.890024  0.666564  0.513045  1
  O  O13  1  0.666564  0.513045  0.890024  1
  O  O14  1  0.939234  0.097494  0.749081  1
  O  O15  1  0.513045  0.890024  0.666564  1
  O  O16  1  0.978435  0.179460  0.402292  1
  O  O17  1  0.752812  0.407910  0.570923  1
  O  O18  1  0.749081  0.939234  0.097494  1
  O  O19  1  0.570923  0.752812  0.407910  1
  O  O20  1  0.821717  0.611983  0.000071  1
  O  O21  1  0.407910  0.570923  0.752812  1
  O  O22  1  0.895600  0.257651  0.050564  1
  O  O23  1  0.611983  0.000071  0.821717  1
  O  O24  1  0.402292  0.978435  0.179460  1
  O  O25  1  0.097494  0.749081  0.939234  1
  O  O26  1  0.592861  0.443639  0.242353  1
  O  O27  1  0.179460  0.402292  0.978435  1
  O  O28  1  0.443639  0.242353  0.592861  1
  O  O29  1  0.257651  0.050564  0.895600  1
  O  O30  1  0.242353  0.592861  0.443639  1
  O  O31  1  0.000071  0.821717  0.611983  1
  O  O32  1  0.499065  0.114019  0.318299  1
  O  O33  1  0.050564  0.895600  0.257651  1
  O  O34  1  0.318299  0.499065  0.114019  1
  O  O35  1  0.114019  0.318299  0.499065  1
