# generated using pymatgen
data_SbH6CN3F4
_symmetry_space_group_name_H-M   'P 1'
_cell_length_a   5.16422846
_cell_length_b   10.63327977
_cell_length_c   12.50923608
_cell_angle_alpha   90.00000000
_cell_angle_beta   90.00000000
_cell_angle_gamma   90.00000000
_symmetry_Int_Tables_number   1
_chemical_formula_structural   SbH6CN3F4
_chemical_formula_sum   'Sb4 H24 C4 N12 F16'
_cell_volume   686.91575310
_cell_formula_units_Z   4
loop_
 _symmetry_equiv_pos_site_id
 _symmetry_equiv_pos_as_xyz
  1  'x, y, z'
loop_
 _atom_site_type_symbol
 _atom_site_label
 _atom_site_symmetry_multiplicity
 _atom_site_fract_x
 _atom_site_fract_y
 _atom_site_fract_z
 _atom_site_occupancy
  Sb  Sb0  1  0.399457  0.120080  0.071089  1
  Sb  Sb1  1  0.100543  0.879920  0.571089  1
  Sb  Sb2  1  0.899457  0.379920  0.928911  1
  Sb  Sb3  1  0.600543  0.620080  0.428911  1
  H  H4  1  0.624565  0.603912  0.057385  1
  H  H5  1  0.875435  0.396088  0.557385  1
  H  H6  1  0.124565  0.896088  0.942615  1
  H  H7  1  0.375435  0.103912  0.442615  1
  H  H8  1  0.578924  0.767149  0.073906  1
  H  H9  1  0.921076  0.232851  0.573906  1
  H  H10  1  0.078924  0.732851  0.926094  1
  H  H11  1  0.421076  0.267149  0.426094  1
  H  H12  1  0.334676  0.465055  0.144857  1
  H  H13  1  0.165324  0.534945  0.644857  1
  H  H14  1  0.834676  0.034945  0.855143  1
  H  H15  1  0.665324  0.965055  0.355143  1
  H  H16  1  0.089049  0.527067  0.225750  1
  H  H17  1  0.410951  0.472933  0.725750  1
  H  H18  1  0.589049  0.972933  0.774250  1
  H  H19  1  0.910951  0.027067  0.274250  1
  H  H20  1  0.080532  0.742947  0.265906  1
  H  H21  1  0.419468  0.257053  0.765906  1
  H  H22  1  0.580532  0.757053  0.734094  1
  H  H23  1  0.919468  0.242947  0.234094  1
  H  H24  1  0.250708  0.843658  0.181414  1
  H  H25  1  0.249292  0.156342  0.681414  1
  H  H26  1  0.750708  0.656342  0.818586  1
  H  H27  1  0.749292  0.343658  0.318586  1
  C  C28  1  0.331837  0.656480  0.159517  1
  C  C29  1  0.168163  0.343520  0.659517  1
  C  C30  1  0.831837  0.843520  0.840483  1
  C  C31  1  0.668163  0.156480  0.340483  1
  N  N32  1  0.528211  0.676970  0.092145  1
  N  N33  1  0.971789  0.323030  0.592145  1
  N  N34  1  0.028211  0.823030  0.907855  1
  N  N35  1  0.471789  0.176970  0.407855  1
  N  N36  1  0.257342  0.539692  0.184174  1
  N  N37  1  0.242658  0.460308  0.684174  1
  N  N38  1  0.757342  0.960308  0.815826  1
  N  N39  1  0.742658  0.039692  0.315826  1
  N  N40  1  0.214424  0.754482  0.206657  1
  N  N41  1  0.285576  0.245518  0.706657  1
  N  N42  1  0.714424  0.745518  0.793343  1
  N  N43  1  0.785576  0.254482  0.293343  1
  F  F44  1  0.151837  0.096266  0.952344  1
  F  F45  1  0.348163  0.903734  0.452344  1
  F  F46  1  0.651837  0.403734  0.047656  1
  F  F47  1  0.848163  0.596266  0.547656  1
  F  F48  1  0.139677  0.268986  0.106259  1
  F  F49  1  0.360323  0.731014  0.606259  1
  F  F50  1  0.639677  0.231014  0.893741  1
  F  F51  1  0.860323  0.768986  0.393741  1
  F  F52  1  0.170591  0.031648  0.177185  1
  F  F53  1  0.329409  0.968352  0.677185  1
  F  F54  1  0.670591  0.468352  0.822815  1
  F  F55  1  0.829409  0.531648  0.322815  1
  F  F56  1  0.484136  0.934587  0.036073  1
  F  F57  1  0.015864  0.065413  0.536073  1
  F  F58  1  0.984136  0.565413  0.963927  1
  F  F59  1  0.515864  0.434587  0.463927  1
