# generated using pymatgen
data_LiMnOF2
_symmetry_space_group_name_H-M   'P 1'
_cell_length_a   5.38049537
_cell_length_b   8.68285688
_cell_length_c   10.18829619
_cell_angle_alpha   89.65227402
_cell_angle_beta   83.22374722
_cell_angle_gamma   88.28423742
_symmetry_Int_Tables_number   1
_chemical_formula_structural   LiMnOF2
_chemical_formula_sum   'Li8 Mn8 O8 F16'
_cell_volume   472.43915393
_cell_formula_units_Z   8
loop_
 _symmetry_equiv_pos_site_id
 _symmetry_equiv_pos_as_xyz
  1  'x, y, z'
loop_
 _atom_site_type_symbol
 _atom_site_label
 _atom_site_symmetry_multiplicity
 _atom_site_fract_x
 _atom_site_fract_y
 _atom_site_fract_z
 _atom_site_occupancy
  Li  Li0  1  0.214326  0.612646  0.206728  1
  Li  Li1  1  0.780241  0.906085  0.295284  1
  Li  Li2  1  0.674911  0.397995  0.214917  1
  Li  Li3  1  0.289798  0.088616  0.286708  1
  Li  Li4  1  0.698799  0.909997  0.687091  1
  Li  Li5  1  0.322023  0.590057  0.816243  1
  Li  Li6  1  0.186620  0.092002  0.701179  1
  Li  Li7  1  0.820165  0.408816  0.802655  1
  Mn  Mn8  1  0.106006  0.359067  0.053836  1
  Mn  Mn9  1  0.250689  0.910136  0.009734  1
  Mn  Mn10  1  0.730559  0.083036  0.006324  1
  Mn  Mn11  1  0.752783  0.715866  0.018915  1
  Mn  Mn12  1  0.752793  0.208992  0.485576  1
  Mn  Mn13  1  0.759456  0.594475  0.487668  1
  Mn  Mn14  1  0.269531  0.417225  0.494172  1
  Mn  Mn15  1  0.264714  0.775304  0.488337  1
  O  O16  1  0.862003  0.903525  0.095565  1
  O  O17  1  0.919472  0.537383  0.113780  1
  O  O18  1  0.402408  0.077093  0.087751  1
  O  O19  1  0.421267  0.756815  0.094329  1
  O  O20  1  0.859616  0.217209  0.117140  1
  O  O21  1  0.589368  0.743071  0.399953  1
  O  O22  1  0.608920  0.422160  0.411686  1
  O  O23  1  0.146677  0.592477  0.405475  1
  F  F24  1  0.384806  0.427555  0.140001  1
  F  F25  1  0.100249  0.920138  0.357845  1
  F  F26  1  0.103962  0.258134  0.378033  1
  F  F27  1  0.591322  0.077374  0.358612  1
  F  F28  1  0.411385  0.588975  0.629659  1
  F  F29  1  0.374802  0.917279  0.619000  1
  F  F30  1  0.920291  0.424889  0.604522  1
  F  F31  1  0.917786  0.754974  0.597190  1
  F  F32  1  0.879675  0.082751  0.632494  1
  F  F33  1  0.378172  0.250608  0.604666  1
  F  F34  1  0.105569  0.747851  0.900378  1
  F  F35  1  0.083638  0.064559  0.894684  1
  F  F36  1  0.645937  0.587805  0.877269  1
  F  F37  1  0.653391  0.241044  0.889130  1
  F  F38  1  0.621113  0.926823  0.876859  1
  F  F39  1  0.144758  0.409197  0.858610  1
