# generated using pymatgen
data_La2Nb2N2O5
_symmetry_space_group_name_H-M   'P 1'
_cell_length_a   7.61987199
_cell_length_b   7.61987199
_cell_length_c   7.61453085
_cell_angle_alpha   60.08714220
_cell_angle_beta   119.91285780
_cell_angle_gamma   89.89939523
_symmetry_Int_Tables_number   1
_chemical_formula_structural   La2Nb2N2O5
_chemical_formula_sum   'La4 Nb4 N4 O10'
_cell_volume   313.17321469
_cell_formula_units_Z   2
loop_
 _symmetry_equiv_pos_site_id
 _symmetry_equiv_pos_as_xyz
  1  'x, y, z'
loop_
 _atom_site_type_symbol
 _atom_site_label
 _atom_site_symmetry_multiplicity
 _atom_site_fract_x
 _atom_site_fract_y
 _atom_site_fract_z
 _atom_site_occupancy
  La  La0  1  0.374439  0.880233  0.744910  1
  La  La1  1  0.373237  0.370513  0.252577  1
  La  La2  1  0.370513  0.373237  0.747423  1
  La  La3  1  0.880233  0.374439  0.255090  1
  Nb  Nb4  1  0.868745  0.891024  0.236463  1
  Nb  Nb5  1  0.862781  0.376193  0.744322  1
  Nb  Nb6  1  0.376193  0.862781  0.255678  1
  Nb  Nb7  1  0.891024  0.868745  0.763537  1
  N  N8  1  0.809568  0.190494  0.004525  1
  N  N9  1  0.556872  0.556872  0.500000  1
  N  N10  1  0.248687  0.248687  0.500000  1
  N  N11  1  0.190494  0.809568  0.995475  1
  O  O12  1  0.195967  0.802101  0.397771  1
  O  O13  1  0.801450  0.801450  0.000000  1
  O  O14  1  0.202939  0.202939  0.000000  1
  O  O15  1  0.802101  0.195967  0.602229  1
  O  O16  1  0.501702  0.501702  0.000000  1
  O  O17  1  0.950164  0.549005  0.500049  1
  O  O18  1  0.554520  0.945730  0.107025  1
  O  O19  1  0.943635  0.943635  0.500000  1
  O  O20  1  0.945730  0.554520  0.892975  1
  O  O21  1  0.549005  0.950164  0.499951  1
