# generated using pymatgen
data_Li2VCo3O8
_symmetry_space_group_name_H-M   'P 1'
_cell_length_a   5.70615034
_cell_length_b   5.70615034
_cell_length_c   9.13963061
_cell_angle_alpha   90.00000000
_cell_angle_beta   90.00000000
_cell_angle_gamma   120.00000000
_symmetry_Int_Tables_number   1
_chemical_formula_structural   Li2VCo3O8
_chemical_formula_sum   'Li4 V2 Co6 O16'
_cell_volume   257.71855946
_cell_formula_units_Z   2
loop_
 _symmetry_equiv_pos_site_id
 _symmetry_equiv_pos_as_xyz
  1  'x, y, z'
loop_
 _atom_site_type_symbol
 _atom_site_label
 _atom_site_symmetry_multiplicity
 _atom_site_fract_x
 _atom_site_fract_y
 _atom_site_fract_z
 _atom_site_occupancy
  Li  Li0  1  0.333333  0.666667  0.894172  1
  Li  Li1  1  0.000000  0.000000  0.998393  1
  Li  Li2  1  0.000000  0.000000  0.498393  1
  Li  Li3  1  0.666667  0.333333  0.394172  1
  V  V4  1  0.333333  0.666667  0.498018  1
  V  V5  1  0.666667  0.333333  0.998018  1
  Co  Co6  1  0.171430  0.828570  0.215189  1
  Co  Co7  1  0.171430  0.342860  0.215189  1
  Co  Co8  1  0.657140  0.828570  0.215189  1
  Co  Co9  1  0.342860  0.171430  0.715189  1
  Co  Co10  1  0.828570  0.657140  0.715189  1
  Co  Co11  1  0.828570  0.171430  0.715189  1
  O  O12  1  0.171392  0.828608  0.595208  1
  O  O13  1  0.043572  0.521786  0.338508  1
  O  O14  1  0.333333  0.666667  0.108882  1
  O  O15  1  0.000000  0.000000  0.307734  1
  O  O16  1  0.000000  0.000000  0.807734  1
  O  O17  1  0.171392  0.342783  0.595208  1
  O  O18  1  0.478214  0.956428  0.338508  1
  O  O19  1  0.478214  0.521786  0.338508  1
  O  O20  1  0.342783  0.171392  0.095208  1
  O  O21  1  0.657217  0.828608  0.595208  1
  O  O22  1  0.521786  0.478214  0.838508  1
  O  O23  1  0.521786  0.043572  0.838508  1
  O  O24  1  0.666667  0.333333  0.608882  1
  O  O25  1  0.828608  0.657217  0.095208  1
  O  O26  1  0.956428  0.478214  0.838508  1
  O  O27  1  0.828608  0.171392  0.095208  1
