# generated using pymatgen
data_Li2MnCSO7
_symmetry_space_group_name_H-M   'P 1'
_cell_length_a   5.01177675
_cell_length_b   6.55214972
_cell_length_c   8.91166329
_cell_angle_alpha   90.00000000
_cell_angle_beta   92.60124121
_cell_angle_gamma   90.00000000
_symmetry_Int_Tables_number   1
_chemical_formula_structural   Li2MnCSO7
_chemical_formula_sum   'Li4 Mn2 C2 S2 O14'
_cell_volume   292.33887120
_cell_formula_units_Z   2
loop_
 _symmetry_equiv_pos_site_id
 _symmetry_equiv_pos_as_xyz
  1  'x, y, z'
loop_
 _atom_site_type_symbol
 _atom_site_label
 _atom_site_symmetry_multiplicity
 _atom_site_fract_x
 _atom_site_fract_y
 _atom_site_fract_z
 _atom_site_occupancy
  Li  Li0  1  0.773868  0.476189  0.181825  1
  Li  Li1  1  0.773868  0.023811  0.181825  1
  Li  Li2  1  0.226132  0.523811  0.818175  1
  Li  Li3  1  0.226132  0.976189  0.818175  1
  Mn  Mn4  1  0.233024  0.250000  0.358661  1
  Mn  Mn5  1  0.766976  0.750000  0.641339  1
  C  C6  1  0.264774  0.250000  0.061605  1
  C  C7  1  0.735226  0.750000  0.938395  1
  S  S8  1  0.280451  0.750000  0.416271  1
  S  S9  1  0.719549  0.250000  0.583729  1
  O  O10  1  0.715745  0.750000  0.081245  1
  O  O11  1  0.032321  0.250000  0.123451  1
  O  O12  1  0.476076  0.250000  0.154735  1
  O  O13  1  0.172103  0.931686  0.335387  1
  O  O14  1  0.172103  0.568314  0.335387  1
  O  O15  1  0.799303  0.250000  0.423526  1
  O  O16  1  0.579314  0.750000  0.418240  1
  O  O17  1  0.420686  0.250000  0.581760  1
  O  O18  1  0.200697  0.750000  0.576474  1
  O  O19  1  0.827897  0.431686  0.664613  1
  O  O20  1  0.827897  0.068314  0.664613  1
  O  O21  1  0.523924  0.750000  0.845265  1
  O  O22  1  0.967679  0.750000  0.876549  1
  O  O23  1  0.284255  0.250000  0.918755  1
