# generated using pymatgen
data_Li4V2Ni3Sb3O16
_symmetry_space_group_name_H-M   'P 1'
_cell_length_a   6.08720160
_cell_length_b   6.08720160
_cell_length_c   9.73503578
_cell_angle_alpha   88.69803454
_cell_angle_beta   91.30196546
_cell_angle_gamma   119.83113355
_symmetry_Int_Tables_number   1
_chemical_formula_structural   Li4V2Ni3Sb3O16
_chemical_formula_sum   'Li4 V2 Ni3 Sb3 O16'
_cell_volume   312.81693666
_cell_formula_units_Z   1
loop_
 _symmetry_equiv_pos_site_id
 _symmetry_equiv_pos_as_xyz
  1  'x, y, z'
loop_
 _atom_site_type_symbol
 _atom_site_label
 _atom_site_symmetry_multiplicity
 _atom_site_fract_x
 _atom_site_fract_y
 _atom_site_fract_z
 _atom_site_occupancy
  Li  Li0  1  0.679605  0.320395  0.887288  1
  Li  Li1  1  0.978916  0.021084  0.985130  1
  Li  Li2  1  0.992791  0.007209  0.504373  1
  Li  Li3  1  0.328491  0.671509  0.404484  1
  V  V4  1  0.678050  0.321950  0.498281  1
  V  V5  1  0.362134  0.637866  0.964872  1
  Ni  Ni6  1  0.831100  0.168900  0.215724  1
  Ni  Ni7  1  0.164742  0.322854  0.706638  1
  Ni  Ni8  1  0.677146  0.835258  0.706638  1
  Sb  Sb9  1  0.334957  0.163984  0.213778  1
  Sb  Sb10  1  0.836016  0.665043  0.213778  1
  Sb  Sb11  1  0.174967  0.825033  0.713220  1
  O  O12  1  0.327473  0.143746  0.599541  1
  O  O13  1  0.516001  0.483999  0.334972  1
  O  O14  1  0.663182  0.336818  0.101476  1
  O  O15  1  0.003433  0.996567  0.315380  1
  O  O16  1  0.010556  0.989444  0.806934  1
  O  O17  1  0.856254  0.672527  0.599541  1
  O  O18  1  0.507123  0.035852  0.337699  1
  O  O19  1  0.964148  0.492877  0.337699  1
  O  O20  1  0.156827  0.843173  0.101327  1
  O  O21  1  0.836267  0.163733  0.594223  1
  O  O22  1  0.048853  0.521124  0.851835  1
  O  O23  1  0.478876  0.951147  0.851835  1
  O  O24  1  0.334150  0.665850  0.608283  1
  O  O25  1  0.172971  0.321397  0.098123  1
  O  O26  1  0.490613  0.509387  0.858991  1
  O  O27  1  0.678603  0.827029  0.098123  1
