# generated using pymatgen
data_LiCoNiO4
_symmetry_space_group_name_H-M   'P 1'
_cell_length_a   5.79307697
_cell_length_b   5.79307697
_cell_length_c   5.79307697
_cell_angle_alpha   121.80432591
_cell_angle_beta   120.60699772
_cell_angle_gamma   87.92736023
_symmetry_Int_Tables_number   1
_chemical_formula_structural   LiCoNiO4
_chemical_formula_sum   'Li2 Co2 Ni2 O8'
_cell_volume   134.85125808
_cell_formula_units_Z   2
loop_
 _symmetry_equiv_pos_site_id
 _symmetry_equiv_pos_as_xyz
  1  'x, y, z'
loop_
 _atom_site_type_symbol
 _atom_site_label
 _atom_site_symmetry_multiplicity
 _atom_site_fract_x
 _atom_site_fract_y
 _atom_site_fract_z
 _atom_site_occupancy
  Li  Li0  1  0.000000  0.000000  1.000000  1
  Li  Li1  1  0.500000  0.000000  0.500000  1
  Co  Co2  1  0.000000  0.000000  0.500000  1
  Co  Co3  1  0.000000  0.500000  0.000000  1
  Ni  Ni4  1  0.500000  0.500000  0.000000  1
  Ni  Ni5  1  0.000000  0.500000  0.500000  1
  O  O6  1  0.226879  0.248808  0.521929  1
  O  O7  1  0.785090  0.751454  0.033635  1
  O  O8  1  0.773121  0.295050  0.021929  1
  O  O9  1  0.217819  0.751454  0.466365  1
  O  O10  1  0.782181  0.248546  0.533635  1
  O  O11  1  0.226879  0.704950  0.978071  1
  O  O12  1  0.214910  0.248546  0.966365  1
  O  O13  1  0.773121  0.751192  0.478071  1
