# generated using pymatgen
data_Ce2SeO2
_symmetry_space_group_name_H-M   'P 1'
_cell_length_a   3.98895010
_cell_length_b   3.98895010
_cell_length_c   7.04256883
_cell_angle_alpha   90.00000000
_cell_angle_beta   90.00000000
_cell_angle_gamma   120.00000000
_symmetry_Int_Tables_number   1
_chemical_formula_structural   Ce2SeO2
_chemical_formula_sum   'Ce2 Se1 O2'
_cell_volume   97.04629023
_cell_formula_units_Z   1
loop_
 _symmetry_equiv_pos_site_id
 _symmetry_equiv_pos_as_xyz
  1  'x, y, z'
loop_
 _atom_site_type_symbol
 _atom_site_label
 _atom_site_symmetry_multiplicity
 _atom_site_fract_x
 _atom_site_fract_y
 _atom_site_fract_z
 _atom_site_occupancy
  Ce  Ce0  1  0.333333  0.666667  0.210336  1
  Ce  Ce1  1  0.666667  0.333333  0.789664  1
  Se  Se2  1  0.000000  0.000000  0.500000  1
  O  O3  1  0.333333  0.666667  0.874354  1
  O  O4  1  0.666667  0.333333  0.125646  1
