# generated using pymatgen
data_Na3CaAl3Si3SO16
_symmetry_space_group_name_H-M   'P 1'
_cell_length_a   7.82867981
_cell_length_b   7.85365760
_cell_length_c   12.81586567
_cell_angle_alpha   89.88251541
_cell_angle_beta   89.88620233
_cell_angle_gamma   70.48950216
_symmetry_Int_Tables_number   1
_chemical_formula_structural   Na3CaAl3Si3SO16
_chemical_formula_sum   'Na6 Ca2 Al6 Si6 S2 O32'
_cell_volume   742.72061652
_cell_formula_units_Z   2
loop_
 _symmetry_equiv_pos_site_id
 _symmetry_equiv_pos_as_xyz
  1  'x, y, z'
loop_
 _atom_site_type_symbol
 _atom_site_label
 _atom_site_symmetry_multiplicity
 _atom_site_fract_x
 _atom_site_fract_y
 _atom_site_fract_z
 _atom_site_occupancy
  Na  Na0  1  0.194873  0.805242  0.821361  1
  Na  Na1  1  0.704032  0.297701  0.294374  1
  Na  Na2  1  0.182303  0.812194  0.173243  1
  Na  Na3  1  0.101300  0.503878  0.498704  1
  Na  Na4  1  0.003408  0.374940  0.001714  1
  Na  Na5  1  0.629621  0.995174  0.001039  1
  Ca  Ca6  1  0.678892  0.328834  0.699547  1
  Ca  Ca7  1  0.495951  0.860251  0.500412  1
  Al  Al8  1  0.628621  0.628015  0.874713  1
  Al  Al9  1  0.375365  0.369518  0.873762  1
  Al  Al10  1  0.116963  0.130490  0.629412  1
  Al  Al11  1  0.498686  0.997670  0.248585  1
  Al  Al12  1  0.871283  0.878943  0.630024  1
  Al  Al13  1  0.003124  0.499235  0.249767  1
  Si  Si14  1  0.007676  0.505076  0.750014  1
  Si  Si15  1  0.124703  0.119052  0.377243  1
  Si  Si16  1  0.493483  0.993871  0.749704  1
  Si  Si17  1  0.877294  0.872586  0.378014  1
  Si  Si18  1  0.628082  0.621157  0.123209  1
  Si  Si19  1  0.380484  0.372164  0.122770  1
  S  S20  1  0.509525  0.500285  0.503668  1
  S  S21  1  0.990130  0.010340  0.995639  1
  O  O22  1  0.553880  0.861093  0.849733  1
  O  O23  1  0.005408  0.701914  0.707830  1
  O  O24  1  0.805424  0.511985  0.788244  1
  O  O25  1  0.412692  0.606514  0.596856  1
  O  O26  1  0.700272  0.503889  0.509250  1
  O  O27  1  0.062644  0.362524  0.652124  1
  O  O28  1  0.465914  0.534711  0.838804  1
  O  O29  1  0.055935  0.333723  0.349955  1
  O  O30  1  0.491246  0.209240  0.201725  1
  O  O31  1  0.657710  0.939661  0.353574  1
  O  O32  1  0.198195  0.083348  0.498272  1
  O  O33  1  0.142347  0.442114  0.849447  1
  O  O34  1  0.508391  0.312554  0.509580  1
  O  O35  1  0.293963  0.996593  0.306154  1
  O  O36  1  0.885558  0.113414  0.904583  1
  O  O37  1  0.903607  0.096112  0.095368  1
  O  O38  1  0.181493  0.009860  0.991309  1
  O  O39  1  0.550873  0.836491  0.149641  1
  O  O40  1  0.492259  0.194734  0.784720  1
  O  O41  1  0.948556  0.047929  0.359547  1
  O  O42  1  0.920533  0.076882  0.649692  1
  O  O43  1  0.634102  0.928636  0.649331  1
  O  O44  1  0.701463  0.593331  0.004135  1
  O  O45  1  0.991125  0.818996  0.992176  1
  O  O46  1  0.900690  0.806042  0.498854  1
  O  O47  1  0.298606  0.993762  0.704519  1
  O  O48  1  0.421649  0.598557  0.407632  1
  O  O49  1  0.995552  0.708169  0.303651  1
  O  O50  1  0.456817  0.543607  0.141795  1
  O  O51  1  0.164486  0.450155  0.149615  1
  O  O52  1  0.791221  0.509103  0.201080  1
  O  O53  1  0.411590  0.297739  0.003881  1
