# generated using pymatgen
data_Zr5N5O2
_symmetry_space_group_name_H-M   'P 1'
_cell_length_a   5.52583512
_cell_length_b   5.52583512
_cell_length_c   9.25826252
_cell_angle_alpha   75.04194209
_cell_angle_beta   104.95805791
_cell_angle_gamma   147.25374501
_symmetry_Int_Tables_number   1
_chemical_formula_structural   Zr5N5O2
_chemical_formula_sum   'Zr5 N5 O2'
_cell_volume   147.28032573
_cell_formula_units_Z   1
loop_
 _symmetry_equiv_pos_site_id
 _symmetry_equiv_pos_as_xyz
  1  'x, y, z'
loop_
 _atom_site_type_symbol
 _atom_site_label
 _atom_site_symmetry_multiplicity
 _atom_site_fract_x
 _atom_site_fract_y
 _atom_site_fract_z
 _atom_site_occupancy
  Zr  Zr0  1  0.121004  0.878996  0.928897  1
  Zr  Zr1  1  0.706524  0.293476  0.309720  1
  Zr  Zr2  1  0.301170  0.698830  0.692652  1
  Zr  Zr3  1  0.895946  0.104054  0.081946  1
  Zr  Zr4  1  0.004206  0.995794  0.504623  1
  N  N5  1  0.513032  0.486968  0.011753  1
  N  N6  1  0.660437  0.339563  0.557880  1
  N  N7  1  0.744900  0.255100  0.856985  1
  N  N8  1  0.271895  0.728105  0.152005  1
  N  N9  1  0.347336  0.652664  0.448986  1
  O  O10  1  0.051347  0.948653  0.292821  1
  O  O11  1  0.960123  0.039877  0.718185  1
