# generated using pymatgen
data_Li3Fe8(BO3)8
_symmetry_space_group_name_H-M   'P 1'
_cell_length_a   5.24889730
_cell_length_b   9.15630536
_cell_length_c   10.10403628
_cell_angle_alpha   89.31725531
_cell_angle_beta   89.94924552
_cell_angle_gamma   89.41249979
_symmetry_Int_Tables_number   1
_chemical_formula_structural   Li3Fe8(BO3)8
_chemical_formula_sum   'Li3 Fe8 B8 O24'
_cell_volume   485.54495662
_cell_formula_units_Z   1
loop_
 _symmetry_equiv_pos_site_id
 _symmetry_equiv_pos_as_xyz
  1  'x, y, z'
loop_
 _atom_site_type_symbol
 _atom_site_label
 _atom_site_symmetry_multiplicity
 _atom_site_fract_x
 _atom_site_fract_y
 _atom_site_fract_z
 _atom_site_occupancy
  Li  Li0  1  0.152560  0.172593  0.654247  1
  Li  Li1  1  0.329678  0.331719  0.392942  1
  Li  Li2  1  0.681685  0.673988  0.156244  1
  Fe  Fe3  1  0.165311  0.832043  0.626808  1
  Fe  Fe4  1  0.171657  0.498673  0.129566  1
  Fe  Fe5  1  0.329850  0.991843  0.885312  1
  Fe  Fe6  1  0.335800  0.663604  0.381395  1
  Fe  Fe7  1  0.651690  0.344738  0.629976  1
  Fe  Fe8  1  0.684382  0.004542  0.128667  1
  Fe  Fe9  1  0.831041  0.159153  0.374942  1
  Fe  Fe10  1  0.828338  0.500962  0.872791  1
  B  B11  1  0.153546  0.499039  0.625834  1
  B  B12  1  0.166316  0.825167  0.123902  1
  B  B13  1  0.334604  0.004834  0.387534  1
  B  B14  1  0.329258  0.666581  0.880288  1
  B  B15  1  0.670363  0.001542  0.630244  1
  B  B16  1  0.675595  0.338615  0.133944  1
  B  B17  1  0.832540  0.488273  0.366262  1
  B  B18  1  0.826581  0.166524  0.874331  1
  O  O19  1  0.092160  0.483171  0.330634  1
  O  O20  1  0.080904  0.140757  0.850702  1
  O  O21  1  0.220627  0.795074  0.828137  1
  O  O22  1  0.235493  0.874141  0.433750  1
  O  O23  1  0.192079  0.132328  0.390525  1
  O  O24  1  0.169165  0.556762  0.929084  1
  O  O25  1  0.277668  0.367548  0.603230  1
  O  O26  1  0.312976  0.939951  0.075902  1
  O  O27  1  0.263048  0.629631  0.586689  1
  O  O28  1  0.300375  0.697012  0.164789  1
  O  O29  1  0.418147  0.350239  0.143866  1
  O  O30  1  0.410572  0.002236  0.670691  1
  O  O31  1  0.583098  0.009653  0.339860  1
  O  O32  1  0.584022  0.649204  0.888909  1
  O  O33  1  0.716132  0.301605  0.844283  1
  O  O34  1  0.721888  0.359951  0.417814  1
  O  O35  1  0.692702  0.610126  0.347942  1
  O  O36  1  0.671835  0.056505  0.922820  1
  O  O37  1  0.815227  0.458915  0.084365  1
  O  O38  1  0.816872  0.879923  0.637430  1
  O  O39  1  0.774329  0.133390  0.582483  1
  O  O40  1  0.806927  0.215192  0.178619  1
  O  O41  1  0.910145  0.831079  0.132734  1
  O  O42  1  0.911671  0.501284  0.680914  1
