# generated using pymatgen
data_LiFe(PO3)4
_symmetry_space_group_name_H-M   'P 1'
_cell_length_a   8.99082959
_cell_length_b   8.99082959
_cell_length_c   9.96470843
_cell_angle_alpha   58.98368918
_cell_angle_beta   121.01631082
_cell_angle_gamma   130.50790927
_symmetry_Int_Tables_number   1
_chemical_formula_structural   LiFe(PO3)4
_chemical_formula_sum   'Li2 Fe2 P8 O24'
_cell_volume   504.30992865
_cell_formula_units_Z   2
loop_
 _symmetry_equiv_pos_site_id
 _symmetry_equiv_pos_as_xyz
  1  'x, y, z'
loop_
 _atom_site_type_symbol
 _atom_site_label
 _atom_site_symmetry_multiplicity
 _atom_site_fract_x
 _atom_site_fract_y
 _atom_site_fract_z
 _atom_site_occupancy
  Li  Li0  1  0.834689  0.834689  0.750000  1
  Li  Li1  1  0.165311  0.165311  0.250000  1
  Fe  Fe2  1  0.281780  0.281780  0.750000  1
  Fe  Fe3  1  0.718220  0.718220  0.250000  1
  P  P4  1  0.679610  0.959844  0.888915  1
  P  P5  1  0.270101  0.564230  0.838369  1
  P  P6  1  0.564230  0.270101  0.661631  1
  P  P7  1  0.959844  0.679610  0.611085  1
  P  P8  1  0.040156  0.320390  0.388915  1
  P  P9  1  0.435770  0.729899  0.338369  1
  P  P10  1  0.729899  0.435770  0.161631  1
  P  P11  1  0.320390  0.040156  0.111085  1
  O  O12  1  0.155824  0.404150  0.960720  1
  O  O13  1  0.453031  0.765487  0.898700  1
  O  O14  1  0.760355  0.976141  0.782226  1
  O  O15  1  0.650581  0.142992  0.833504  1
  O  O16  1  0.200432  0.053667  0.929710  1
  O  O17  1  0.142992  0.650581  0.666496  1
  O  O18  1  0.976141  0.760355  0.717774  1
  O  O19  1  0.515583  0.363362  0.715766  1
  O  O20  1  0.363362  0.515583  0.784234  1
  O  O21  1  0.765487  0.453031  0.601300  1
  O  O22  1  0.404150  0.155824  0.539280  1
  O  O23  1  0.053667  0.200432  0.570290  1
  O  O24  1  0.946333  0.799568  0.429710  1
  O  O25  1  0.595850  0.844176  0.460720  1
  O  O26  1  0.234513  0.546969  0.398700  1
  O  O27  1  0.636638  0.484417  0.215766  1
  O  O28  1  0.484417  0.636638  0.284234  1
  O  O29  1  0.023859  0.239645  0.282226  1
  O  O30  1  0.857008  0.349419  0.333504  1
  O  O31  1  0.799568  0.946333  0.070290  1
  O  O32  1  0.349419  0.857008  0.166496  1
  O  O33  1  0.239645  0.023859  0.217774  1
  O  O34  1  0.546969  0.234513  0.101300  1
  O  O35  1  0.844176  0.595850  0.039280  1
