# generated using pymatgen
data_Li4Mn3V3(SnO8)2
_symmetry_space_group_name_H-M   'P 1'
_cell_length_a   5.91320112
_cell_length_b   6.01094585
_cell_length_c   9.84968453
_cell_angle_alpha   91.21129949
_cell_angle_beta   90.59718762
_cell_angle_gamma   118.61319559
_symmetry_Int_Tables_number   1
_chemical_formula_structural   Li4Mn3V3(SnO8)2
_chemical_formula_sum   'Li4 Mn3 V3 Sn2 O16'
_cell_volume   307.18728718
_cell_formula_units_Z   1
loop_
 _symmetry_equiv_pos_site_id
 _symmetry_equiv_pos_as_xyz
  1  'x, y, z'
loop_
 _atom_site_type_symbol
 _atom_site_label
 _atom_site_symmetry_multiplicity
 _atom_site_fract_x
 _atom_site_fract_y
 _atom_site_fract_z
 _atom_site_occupancy
  Li  Li0  1  0.656597  0.314927  0.896971  1
  Li  Li1  1  0.008709  0.999568  0.991504  1
  Li  Li2  1  0.003022  0.015254  0.491723  1
  Li  Li3  1  0.328434  0.665978  0.398942  1
  Mn  Mn4  1  0.830008  0.664696  0.213260  1
  Mn  Mn5  1  0.167257  0.831499  0.713056  1
  Mn  Mn6  1  0.658420  0.825008  0.714414  1
  V  V7  1  0.344903  0.165225  0.213780  1
  V  V8  1  0.833222  0.173065  0.214606  1
  V  V9  1  0.162230  0.337467  0.715641  1
  Sn  Sn10  1  0.668930  0.350132  0.488831  1
  Sn  Sn11  1  0.339325  0.654667  0.990863  1
  O  O12  1  0.329400  0.198730  0.602137  1
  O  O13  1  0.507012  0.035454  0.337417  1
  O  O14  1  0.659380  0.338841  0.109765  1
  O  O15  1  0.008098  0.998626  0.304864  1
  O  O16  1  0.997540  0.997708  0.804088  1
  O  O17  1  0.846927  0.186527  0.597438  1
  O  O18  1  0.489799  0.464344  0.343202  1
  O  O19  1  0.961232  0.484440  0.336002  1
  O  O20  1  0.173159  0.319441  0.104208  1
  O  O21  1  0.847961  0.698747  0.594565  1
  O  O22  1  0.027306  0.481134  0.841377  1
  O  O23  1  0.470006  0.490746  0.844681  1
  O  O24  1  0.329931  0.665618  0.613148  1
  O  O25  1  0.188183  0.851769  0.095464  1
  O  O26  1  0.473291  0.948647  0.838595  1
  O  O27  1  0.689416  0.841744  0.097301  1
