# generated using pymatgen
data_LiCrPO4F
_symmetry_space_group_name_H-M   'P 1'
_cell_length_a   7.26443000
_cell_length_b   7.26443000
_cell_length_c   9.56105359
_cell_angle_alpha   64.22553283
_cell_angle_beta   115.77446717
_cell_angle_gamma   128.26917933
_symmetry_Int_Tables_number   1
_chemical_formula_structural   LiCrPO4F
_chemical_formula_sum   'Li4 Cr4 P4 O16 F4'
_cell_volume   346.80811760
_cell_formula_units_Z   4
loop_
 _symmetry_equiv_pos_site_id
 _symmetry_equiv_pos_as_xyz
  1  'x, y, z'
loop_
 _atom_site_type_symbol
 _atom_site_label
 _atom_site_symmetry_multiplicity
 _atom_site_fract_x
 _atom_site_fract_y
 _atom_site_fract_z
 _atom_site_occupancy
  Li  Li0  1  0.117045  0.101198  0.296410  1
  Li  Li1  1  0.338446  0.178371  0.615410  1
  Li  Li2  1  0.898802  0.882955  0.796410  1
  Li  Li3  1  0.821629  0.661554  0.115410  1
  Cr  Cr4  1  0.887804  0.438773  0.641526  1
  Cr  Cr5  1  0.162212  0.573144  0.989200  1
  Cr  Cr6  1  0.561227  0.112196  0.141526  1
  Cr  Cr7  1  0.426856  0.837788  0.489200  1
  P  P8  1  0.700798  0.061574  0.935192  1
  P  P9  1  0.587449  0.636680  0.317976  1
  P  P10  1  0.363320  0.412551  0.817976  1
  P  P11  1  0.938426  0.299202  0.435192  1
  O  O12  1  0.795656  0.927215  0.937953  1
  O  O13  1  0.182027  0.451259  0.837169  1
  O  O14  1  0.652255  0.217062  0.768887  1
  O  O15  1  0.814416  0.785737  0.258872  1
  O  O16  1  0.608349  0.464488  0.483444  1
  O  O17  1  0.354975  0.480532  0.201944  1
  O  O18  1  0.862520  0.234007  0.055939  1
  O  O19  1  0.457399  0.906837  0.989046  1
  O  O20  1  0.072785  0.204344  0.437953  1
  O  O21  1  0.548741  0.817973  0.337169  1
  O  O22  1  0.214263  0.185584  0.758872  1
  O  O23  1  0.535512  0.391651  0.983444  1
  O  O24  1  0.519468  0.645025  0.701944  1
  O  O25  1  0.765993  0.137480  0.555939  1
  O  O26  1  0.782938  0.347745  0.268887  1
  O  O27  1  0.093163  0.542601  0.489046  1
  F  F28  1  0.288238  0.939565  0.545056  1
  F  F29  1  0.991216  0.675729  0.758493  1
  F  F30  1  0.060435  0.711762  0.045056  1
  F  F31  1  0.324271  0.008784  0.258493  1
