# generated using pymatgen
data_Mn3OF5
_symmetry_space_group_name_H-M   'P 1'
_cell_length_a   5.91220293
_cell_length_b   5.91220293
_cell_length_c   7.53947740
_cell_angle_alpha   73.06038285
_cell_angle_beta   106.93961715
_cell_angle_gamma   105.72533977
_symmetry_Int_Tables_number   1
_chemical_formula_structural   Mn3OF5
_chemical_formula_sum   'Mn6 O2 F10'
_cell_volume   236.12228240
_cell_formula_units_Z   2
loop_
 _symmetry_equiv_pos_site_id
 _symmetry_equiv_pos_as_xyz
  1  'x, y, z'
loop_
 _atom_site_type_symbol
 _atom_site_label
 _atom_site_symmetry_multiplicity
 _atom_site_fract_x
 _atom_site_fract_y
 _atom_site_fract_z
 _atom_site_occupancy
  Mn  Mn0  1  0.500000  0.500000  0.000000  1
  Mn  Mn1  1  0.849088  0.150912  0.844250  1
  Mn  Mn2  1  0.500000  0.500000  0.500000  1
  Mn  Mn3  1  0.842195  0.157805  0.320780  1
  Mn  Mn4  1  0.157805  0.842195  0.679220  1
  Mn  Mn5  1  0.150912  0.849088  0.155750  1
  O  O6  1  0.938124  0.061876  0.120408  1
  O  O7  1  0.061876  0.938124  0.879592  1
  F  F8  1  0.142857  0.475665  0.825456  1
  F  F9  1  0.798117  0.798117  0.500000  1
  F  F10  1  0.251275  0.748725  0.448376  1
  F  F11  1  0.622372  0.377628  0.806421  1
  F  F12  1  0.377628  0.622372  0.193579  1
  F  F13  1  0.748725  0.251275  0.551624  1
  F  F14  1  0.201883  0.201883  0.500000  1
  F  F15  1  0.524335  0.857143  0.825456  1
  F  F16  1  0.857143  0.524335  0.174544  1
  F  F17  1  0.475665  0.142857  0.174544  1
