# generated using pymatgen
data_SrCa2I6
_symmetry_space_group_name_H-M   'P 1'
_cell_length_a   7.41976718
_cell_length_b   14.52394572
_cell_length_c   14.64814160
_cell_angle_alpha   90.00000000
_cell_angle_beta   90.00000000
_cell_angle_gamma   90.00000000
_symmetry_Int_Tables_number   1
_chemical_formula_structural   SrCa2I6
_chemical_formula_sum   'Sr4 Ca8 I24'
_cell_volume   1578.54666397
_cell_formula_units_Z   4
loop_
 _symmetry_equiv_pos_site_id
 _symmetry_equiv_pos_as_xyz
  1  'x, y, z'
loop_
 _atom_site_type_symbol
 _atom_site_label
 _atom_site_symmetry_multiplicity
 _atom_site_fract_x
 _atom_site_fract_y
 _atom_site_fract_z
 _atom_site_occupancy
  Sr  Sr0  1  0.729382  0.605035  0.753828  1
  Sr  Sr1  1  0.270618  0.105035  0.746172  1
  Sr  Sr2  1  0.229382  0.894965  0.246172  1
  Sr  Sr3  1  0.770618  0.394965  0.253828  1
  Ca  Ca4  1  0.784750  0.703337  0.374039  1
  Ca  Ca5  1  0.692521  0.118405  0.437987  1
  Ca  Ca6  1  0.307479  0.618405  0.062013  1
  Ca  Ca7  1  0.215250  0.203337  0.125961  1
  Ca  Ca8  1  0.284750  0.796663  0.625961  1
  Ca  Ca9  1  0.192521  0.381595  0.562013  1
  Ca  Ca10  1  0.807479  0.881595  0.937987  1
  Ca  Ca11  1  0.715250  0.296663  0.874039  1
  I  I12  1  0.612954  0.271549  0.080859  1
  I  I13  1  0.537683  0.579702  0.240305  1
  I  I14  1  0.625001  0.077282  0.877822  1
  I  I15  1  0.522086  0.495827  0.918372  1
  I  I16  1  0.491727  0.314529  0.418052  1
  I  I17  1  0.482900  0.291605  0.694181  1
  I  I18  1  0.517100  0.791605  0.805819  1
  I  I19  1  0.508273  0.814529  0.081948  1
  I  I20  1  0.477914  0.995827  0.581628  1
  I  I21  1  0.374999  0.577282  0.622178  1
  I  I22  1  0.462317  0.079702  0.259695  1
  I  I23  1  0.387046  0.771549  0.419141  1
  I  I24  1  0.112954  0.228451  0.919141  1
  I  I25  1  0.037683  0.920298  0.759695  1
  I  I26  1  0.125001  0.422718  0.122178  1
  I  I27  1  0.022086  0.004173  0.081628  1
  I  I28  1  0.991727  0.185471  0.581948  1
  I  I29  1  0.982900  0.208395  0.305819  1
  I  I30  1  0.017100  0.708395  0.194181  1
  I  I31  1  0.008273  0.685471  0.918052  1
  I  I32  1  0.977914  0.504173  0.418372  1
  I  I33  1  0.874999  0.922718  0.377822  1
  I  I34  1  0.962317  0.420298  0.740305  1
  I  I35  1  0.887046  0.728451  0.580859  1
