# generated using pymatgen
data_Zn2PHO5
_symmetry_space_group_name_H-M   'P 1'
_cell_length_a   5.61130357
_cell_length_b   5.75758085
_cell_length_c   6.58621067
_cell_angle_alpha   77.93010679
_cell_angle_beta   77.66668673
_cell_angle_gamma   87.34296684
_symmetry_Int_Tables_number   1
_chemical_formula_structural   Zn2PHO5
_chemical_formula_sum   'Zn4 P2 H2 O10'
_cell_volume   203.27776753
_cell_formula_units_Z   2
loop_
 _symmetry_equiv_pos_site_id
 _symmetry_equiv_pos_as_xyz
  1  'x, y, z'
loop_
 _atom_site_type_symbol
 _atom_site_label
 _atom_site_symmetry_multiplicity
 _atom_site_fract_x
 _atom_site_fract_y
 _atom_site_fract_z
 _atom_site_occupancy
  Zn  Zn0  1  0.386970  0.250945  0.500090  1
  Zn  Zn1  1  0.613030  0.749055  0.499910  1
  Zn  Zn2  1  0.028133  0.740099  0.811695  1
  Zn  Zn3  1  0.971867  0.259901  0.188305  1
  P  P4  1  0.837035  0.250731  0.723288  1
  P  P5  1  0.162965  0.749269  0.276712  1
  H  H6  1  0.429140  0.920044  0.820475  1
  H  H7  1  0.570860  0.079956  0.179525  1
  O  O8  1  0.775658  0.994659  0.847229  1
  O  O9  1  0.224342  0.005341  0.152771  1
  O  O10  1  0.941798  0.389257  0.865421  1
  O  O11  1  0.058202  0.610743  0.134579  1
  O  O12  1  0.601188  0.379170  0.665372  1
  O  O13  1  0.398812  0.620830  0.334628  1
  O  O14  1  0.970536  0.751021  0.486719  1
  O  O15  1  0.029464  0.248979  0.513281  1
  O  O16  1  0.357791  0.896657  0.702178  1
  O  O17  1  0.642209  0.103343  0.297822  1
