# generated using pymatgen
data_SrCrO3
_symmetry_space_group_name_H-M   'P 1'
_cell_length_a   5.53731176
_cell_length_b   5.53731176
_cell_length_c   9.28272646
_cell_angle_alpha   90.00000000
_cell_angle_beta   90.00000000
_cell_angle_gamma   119.38118017
_symmetry_Int_Tables_number   1
_chemical_formula_structural   SrCrO3
_chemical_formula_sum   'Sr4 Cr4 O12'
_cell_volume   248.01537526
_cell_formula_units_Z   4
loop_
 _symmetry_equiv_pos_site_id
 _symmetry_equiv_pos_as_xyz
  1  'x, y, z'
loop_
 _atom_site_type_symbol
 _atom_site_label
 _atom_site_symmetry_multiplicity
 _atom_site_fract_x
 _atom_site_fract_y
 _atom_site_fract_z
 _atom_site_occupancy
  Sr  Sr0  1  0.329838  0.669966  0.250000  1
  Sr  Sr1  1  0.999576  0.999576  0.000000  1
  Sr  Sr2  1  0.999576  0.999576  0.500000  1
  Sr  Sr3  1  0.669966  0.329838  0.750000  1
  Cr  Cr4  1  0.328423  0.659643  0.612293  1
  Cr  Cr5  1  0.328423  0.659643  0.887707  1
  Cr  Cr6  1  0.659643  0.328423  0.112293  1
  Cr  Cr7  1  0.659643  0.328423  0.387707  1
  O  O8  1  0.006138  0.509018  0.997687  1
  O  O9  1  0.006138  0.509018  0.502313  1
  O  O10  1  0.177607  0.351555  0.750000  1
  O  O11  1  0.182649  0.820383  0.750000  1
  O  O12  1  0.636080  0.818108  0.750000  1
  O  O13  1  0.509018  0.006138  0.002313  1
  O  O14  1  0.509018  0.006138  0.497687  1
  O  O15  1  0.351554  0.177607  0.250000  1
  O  O16  1  0.506927  0.506927  0.000000  1
  O  O17  1  0.506927  0.506927  0.500000  1
  O  O18  1  0.820383  0.182649  0.250000  1
  O  O19  1  0.818108  0.636080  0.250000  1
