# generated using pymatgen
data_Li3Fe3(SnO5)2
_symmetry_space_group_name_H-M   'P 1'
_cell_length_a   5.21500350
_cell_length_b   5.35059563
_cell_length_c   8.14230840
_cell_angle_alpha   74.42223090
_cell_angle_beta   74.87446785
_cell_angle_gamma   77.25604439
_symmetry_Int_Tables_number   1
_chemical_formula_structural   Li3Fe3(SnO5)2
_chemical_formula_sum   'Li3 Fe3 Sn2 O10'
_cell_volume   208.48418157
_cell_formula_units_Z   1
loop_
 _symmetry_equiv_pos_site_id
 _symmetry_equiv_pos_as_xyz
  1  'x, y, z'
loop_
 _atom_site_type_symbol
 _atom_site_label
 _atom_site_symmetry_multiplicity
 _atom_site_fract_x
 _atom_site_fract_y
 _atom_site_fract_z
 _atom_site_occupancy
  Li  Li0  1  0.529619  0.795363  0.386723  1
  Li  Li1  1  0.000000  0.500000  0.500000  1
  Li  Li2  1  0.470381  0.204637  0.613277  1
  Fe  Fe3  1  0.500000  0.000000  0.000000  1
  Fe  Fe4  1  0.029899  0.688839  0.104039  1
  Fe  Fe5  1  0.970101  0.311161  0.895961  1
  Sn  Sn6  1  0.011618  0.879963  0.696623  1
  Sn  Sn7  1  0.988382  0.120037  0.303377  1
  O  O8  1  0.228868  0.955390  0.867509  1
  O  O9  1  0.790361  0.678516  0.940242  1
  O  O10  1  0.772225  0.895293  0.520259  1
  O  O11  1  0.268339  0.802447  0.218988  1
  O  O12  1  0.184033  0.505324  0.678623  1
  O  O13  1  0.815967  0.494676  0.321377  1
  O  O14  1  0.731661  0.197553  0.781012  1
  O  O15  1  0.227775  0.104707  0.479741  1
  O  O16  1  0.209639  0.321484  0.059758  1
  O  O17  1  0.771132  0.044610  0.132491  1
