# generated using pymatgen
data_Fe3(OF2)2
_symmetry_space_group_name_H-M   'P 1'
_cell_length_a   5.72603824
_cell_length_b   5.72603824
_cell_length_c   7.66296333
_cell_angle_alpha   70.13144661
_cell_angle_beta   109.86855339
_cell_angle_gamma   109.63070894
_symmetry_Int_Tables_number   1
_chemical_formula_structural   Fe3(OF2)2
_chemical_formula_sum   'Fe6 O4 F8'
_cell_volume   215.21537316
_cell_formula_units_Z   2
loop_
 _symmetry_equiv_pos_site_id
 _symmetry_equiv_pos_as_xyz
  1  'x, y, z'
loop_
 _atom_site_type_symbol
 _atom_site_label
 _atom_site_symmetry_multiplicity
 _atom_site_fract_x
 _atom_site_fract_y
 _atom_site_fract_z
 _atom_site_occupancy
  Fe  Fe0  1  0.670309  0.357848  0.159214  1
  Fe  Fe1  1  0.314002  0.646864  0.335485  1
  Fe  Fe2  1  0.646864  0.314002  0.664515  1
  Fe  Fe3  1  0.357848  0.670309  0.840786  1
  Fe  Fe4  1  0.019592  0.019592  0.500000  1
  Fe  Fe5  1  0.013418  0.013418  0.000000  1
  O  O6  1  0.350437  0.009122  0.668430  1
  O  O7  1  0.009122  0.350437  0.331570  1
  O  O8  1  0.713377  0.713377  0.000000  1
  O  O9  1  0.307312  0.307312  0.000000  1
  F  F10  1  0.629890  0.959491  0.337345  1
  F  F11  1  0.959491  0.629890  0.662655  1
  F  F12  1  0.909102  0.092715  0.703808  1
  F  F13  1  0.232242  0.776437  0.027179  1
  F  F14  1  0.566316  0.431528  0.359780  1
  F  F15  1  0.776437  0.232242  0.972821  1
  F  F16  1  0.431528  0.566316  0.640220  1
  F  F17  1  0.092715  0.909102  0.296192  1
