# generated using pymatgen
data_Li4Cr3FeO8
_symmetry_space_group_name_H-M   'P 1'
_cell_length_a   5.10348547
_cell_length_b   5.11695651
_cell_length_c   5.89366572
_cell_angle_alpha   106.73653314
_cell_angle_beta   90.00506726
_cell_angle_gamma   99.54102265
_symmetry_Int_Tables_number   1
_chemical_formula_structural   Li4Cr3FeO8
_chemical_formula_sum   'Li4 Cr3 Fe1 O8'
_cell_volume   145.16402999
_cell_formula_units_Z   1
loop_
 _symmetry_equiv_pos_site_id
 _symmetry_equiv_pos_as_xyz
  1  'x, y, z'
loop_
 _atom_site_type_symbol
 _atom_site_label
 _atom_site_symmetry_multiplicity
 _atom_site_fract_x
 _atom_site_fract_y
 _atom_site_fract_z
 _atom_site_occupancy
  Li  Li0  1  0.750150  0.502910  0.626597  1
  Li  Li1  1  0.249850  0.497090  0.373403  1
  Li  Li2  1  0.753080  0.501089  0.124404  1
  Li  Li3  1  0.246920  0.498911  0.875596  1
  Cr  Cr4  1  0.000000  0.000000  0.500000  1
  Cr  Cr5  1  0.500160  0.000174  0.248085  1
  Cr  Cr6  1  0.499840  0.999826  0.751915  1
  Fe  Fe7  1  0.000000  0.000000  0.000000  1
  O  O8  1  0.628007  0.772234  0.442949  1
  O  O9  1  0.371993  0.227766  0.557051  1
  O  O10  1  0.126957  0.776039  0.189595  1
  O  O11  1  0.873555  0.224957  0.301876  1
  O  O12  1  0.635512  0.774933  0.943848  1
  O  O13  1  0.364488  0.225067  0.056152  1
  O  O14  1  0.126445  0.775043  0.698124  1
  O  O15  1  0.873043  0.223961  0.810405  1
