# generated using pymatgen
data_Hf2N2O
_symmetry_space_group_name_H-M   'P 1'
_cell_length_a   6.42990768
_cell_length_b   6.42990768
_cell_length_c   15.73057215
_cell_angle_alpha   90.00000000
_cell_angle_beta   90.00000000
_cell_angle_gamma   120.00000000
_symmetry_Int_Tables_number   1
_chemical_formula_structural   Hf2N2O
_chemical_formula_sum   'Hf16 N16 O8'
_cell_volume   563.22850442
_cell_formula_units_Z   8
loop_
 _symmetry_equiv_pos_site_id
 _symmetry_equiv_pos_as_xyz
  1  'x, y, z'
loop_
 _atom_site_type_symbol
 _atom_site_label
 _atom_site_symmetry_multiplicity
 _atom_site_fract_x
 _atom_site_fract_y
 _atom_site_fract_z
 _atom_site_occupancy
  Hf  Hf0  1  0.666667  0.333333  0.955395  1
  Hf  Hf1  1  0.666667  0.333333  0.331756  1
  Hf  Hf2  1  0.500000  0.000000  0.500000  1
  Hf  Hf3  1  0.832769  0.167231  0.165514  1
  Hf  Hf4  1  0.665538  0.832769  0.834486  1
  Hf  Hf5  1  0.167231  0.334462  0.834486  1
  Hf  Hf6  1  0.000000  0.000000  0.627595  1
  Hf  Hf7  1  0.500000  0.500000  0.500000  1
  Hf  Hf8  1  0.000000  0.000000  0.372405  1
  Hf  Hf9  1  0.000000  0.000000  0.000000  1
  Hf  Hf10  1  0.334462  0.167231  0.165514  1
  Hf  Hf11  1  0.832769  0.665538  0.165514  1
  Hf  Hf12  1  0.167231  0.832769  0.834486  1
  Hf  Hf13  1  0.000000  0.500000  0.500000  1
  Hf  Hf14  1  0.333333  0.666667  0.668244  1
  Hf  Hf15  1  0.333333  0.666667  0.044605  1
  N  N16  1  0.666667  0.333333  0.087095  1
  N  N17  1  0.822774  0.177226  0.417082  1
  N  N18  1  0.844170  0.155830  0.913086  1
  N  N19  1  0.645548  0.822774  0.582918  1
  N  N20  1  0.177226  0.354452  0.582918  1
  N  N21  1  0.155830  0.311660  0.086914  1
  N  N22  1  0.688340  0.844170  0.086914  1
  N  N23  1  0.000000  0.000000  0.759523  1
  N  N24  1  0.000000  0.000000  0.240477  1
  N  N25  1  0.844170  0.688340  0.913086  1
  N  N26  1  0.311660  0.155830  0.913086  1
  N  N27  1  0.822774  0.645548  0.417082  1
  N  N28  1  0.354452  0.177226  0.417082  1
  N  N29  1  0.155830  0.844170  0.086914  1
  N  N30  1  0.177226  0.822774  0.582918  1
  N  N31  1  0.333333  0.666667  0.912905  1
  O  O32  1  0.526545  0.473455  0.241537  1
  O  O33  1  0.666667  0.333333  0.560498  1
  O  O34  1  0.526545  0.053091  0.241537  1
  O  O35  1  0.946909  0.473455  0.241537  1
  O  O36  1  0.053091  0.526545  0.758463  1
  O  O37  1  0.473455  0.946909  0.758463  1
  O  O38  1  0.333333  0.666667  0.439502  1
  O  O39  1  0.473455  0.526545  0.758463  1
