# generated using pymatgen
data_LiMn2(PO4)2
_symmetry_space_group_name_H-M   'P 1'
_cell_length_a   7.32672221
_cell_length_b   8.47626741
_cell_length_c   8.56841594
_cell_angle_alpha   119.47013225
_cell_angle_beta   92.76840591
_cell_angle_gamma   92.58639726
_symmetry_Int_Tables_number   1
_chemical_formula_structural   LiMn2(PO4)2
_chemical_formula_sum   'Li3 Mn6 P6 O24'
_cell_volume   461.28099107
_cell_formula_units_Z   3
loop_
 _symmetry_equiv_pos_site_id
 _symmetry_equiv_pos_as_xyz
  1  'x, y, z'
loop_
 _atom_site_type_symbol
 _atom_site_label
 _atom_site_symmetry_multiplicity
 _atom_site_fract_x
 _atom_site_fract_y
 _atom_site_fract_z
 _atom_site_occupancy
  Li  Li0  1  0.065080  0.665195  0.022408  1
  Li  Li1  1  0.087644  0.306099  0.663662  1
  Li  Li2  1  0.593199  0.347179  0.981743  1
  Mn  Mn3  1  0.743947  0.981113  0.026554  1
  Mn  Mn4  1  0.279039  0.985727  0.009717  1
  Mn  Mn5  1  0.795225  0.326236  0.349709  1
  Mn  Mn6  1  0.219377  0.326797  0.328389  1
  Mn  Mn7  1  0.712713  0.687227  0.645580  1
  Mn  Mn8  1  0.303833  0.656404  0.670536  1
  P  P9  1  0.501693  0.036017  0.319852  1
  P  P10  1  0.498201  0.645166  0.039578  1
  P  P11  1  0.998157  0.680183  0.356459  1
  P  P12  1  0.509541  0.326172  0.652721  1
  P  P13  1  0.989450  0.357372  0.951804  1
  P  P14  1  0.018141  0.958774  0.676466  1
  O  O15  1  0.953933  0.153971  0.030796  1
  O  O16  1  0.021555  0.411247  0.099865  1
  O  O17  1  0.662060  0.180129  0.259521  1
  O  O18  1  0.321211  0.132843  0.288417  1
  O  O19  1  0.325472  0.588780  0.143122  1
  O  O20  1  0.675330  0.547740  0.157024  1
  O  O21  1  0.987400  0.122699  0.481668  1
  O  O22  1  0.005215  0.796278  0.149631  1
  O  O23  1  0.991538  0.472244  0.405351  1
  O  O24  1  0.501237  0.952982  0.196156  1
  O  O25  1  0.671954  0.293988  0.573250  1
  O  O26  1  0.323610  0.296791  0.573705  1
  O  O27  1  0.833099  0.729679  0.418710  1
  O  O28  1  0.182095  0.708595  0.444279  1
  O  O29  1  0.060961  0.035491  0.806373  1
  O  O30  1  0.506664  0.534006  0.611700  1
  O  O31  1  0.519359  0.205237  0.860794  1
  O  O32  1  0.533503  0.885140  0.520784  1
  O  O33  1  0.147393  0.414190  0.825091  1
  O  O34  1  0.809868  0.459198  0.836694  1
  O  O35  1  0.846936  0.834651  0.736934  1
  O  O36  1  0.182163  0.835376  0.705868  1
  O  O37  1  0.478162  0.591075  0.886057  1
  O  O38  1  0.522867  0.851227  0.955685  1
