# generated using pymatgen
data_La4(B2O5)3
_symmetry_space_group_name_H-M   'P 1'
_cell_length_a   6.52669526
_cell_length_b   6.52669526
_cell_length_c   19.83799667
_cell_angle_alpha   82.93915780
_cell_angle_beta   97.06084220
_cell_angle_gamma   139.37157462
_symmetry_Int_Tables_number   1
_chemical_formula_structural   La4(B2O5)3
_chemical_formula_sum   'La8 B12 O30'
_cell_volume   545.51020566
_cell_formula_units_Z   2
loop_
 _symmetry_equiv_pos_site_id
 _symmetry_equiv_pos_as_xyz
  1  'x, y, z'
loop_
 _atom_site_type_symbol
 _atom_site_label
 _atom_site_symmetry_multiplicity
 _atom_site_fract_x
 _atom_site_fract_y
 _atom_site_fract_z
 _atom_site_occupancy
  La  La0  1  0.924884  0.643532  0.804214  1
  La  La1  1  0.912667  0.661425  0.594598  1
  La  La2  1  0.356468  0.075116  0.304214  1
  La  La3  1  0.338575  0.087333  0.094598  1
  La  La4  1  0.661425  0.912667  0.905402  1
  La  La5  1  0.643532  0.924884  0.695786  1
  La  La6  1  0.087333  0.338575  0.405402  1
  La  La7  1  0.075116  0.356468  0.195786  1
  B  B8  1  0.391859  0.189242  0.911748  1
  B  B9  1  0.338357  0.213082  0.694581  1
  B  B10  1  0.972994  0.629274  0.973389  1
  B  B11  1  0.810758  0.608141  0.411748  1
  B  B12  1  0.786918  0.661643  0.194581  1
  B  B13  1  0.370726  0.027006  0.473389  1
  B  B14  1  0.629274  0.972994  0.526611  1
  B  B15  1  0.213082  0.338357  0.805419  1
  B  B16  1  0.189242  0.391859  0.588252  1
  B  B17  1  0.027006  0.370726  0.026611  1
  B  B18  1  0.661643  0.786918  0.305419  1
  B  B19  1  0.608141  0.810758  0.088252  1
  O  O20  1  0.190992  0.177015  0.623881  1
  O  O21  1  0.699623  0.519577  0.933803  1
  O  O22  1  0.656128  0.532043  0.696564  1
  O  O23  1  0.231687  0.974753  0.973391  1
  O  O24  1  0.822985  0.809008  0.123881  1
  O  O25  1  0.480423  0.300377  0.433803  1
  O  O26  1  0.452484  0.087068  0.864470  1
  O  O27  1  0.467957  0.343872  0.196564  1
  O  O28  1  0.025247  0.768313  0.473391  1
  O  O29  1  0.312133  0.968219  0.702280  1
  O  O30  1  0.497297  0.075381  0.546870  1
  O  O31  1  0.075381  0.497297  0.953130  1
  O  O32  1  0.912932  0.547516  0.364470  1
  O  O33  1  0.031781  0.687867  0.202280  1
  O  O34  1  0.968219  0.312133  0.797720  1
  O  O35  1  0.087068  0.452484  0.635530  1
  O  O36  1  0.924619  0.502703  0.046870  1
  O  O37  1  0.502703  0.924619  0.453130  1
  O  O38  1  0.687867  0.031781  0.297720  1
  O  O39  1  0.974753  0.231687  0.526609  1
  O  O40  1  0.532043  0.656128  0.803436  1
  O  O41  1  0.547516  0.912932  0.135530  1
  O  O42  1  0.519577  0.699623  0.566197  1
  O  O43  1  0.177015  0.190992  0.876119  1
  O  O44  1  0.146938  0.146938  0.750000  1
  O  O45  1  0.768313  0.025247  0.026609  1
  O  O46  1  0.343872  0.467957  0.303436  1
  O  O47  1  0.300377  0.480423  0.066197  1
  O  O48  1  0.809008  0.822985  0.376119  1
  O  O49  1  0.853062  0.853062  0.250000  1
