# generated using pymatgen
data_LiV2F7
_symmetry_space_group_name_H-M   'P 1'
_cell_length_a   7.49443117
_cell_length_b   5.10711096
_cell_length_c   13.24839794
_cell_angle_alpha   90.00000000
_cell_angle_beta   95.96350190
_cell_angle_gamma   90.00000000
_symmetry_Int_Tables_number   1
_chemical_formula_structural   LiV2F7
_chemical_formula_sum   'Li4 V8 F28'
_cell_volume   504.33681392
_cell_formula_units_Z   4
loop_
 _symmetry_equiv_pos_site_id
 _symmetry_equiv_pos_as_xyz
  1  'x, y, z'
loop_
 _atom_site_type_symbol
 _atom_site_label
 _atom_site_symmetry_multiplicity
 _atom_site_fract_x
 _atom_site_fract_y
 _atom_site_fract_z
 _atom_site_occupancy
  Li  Li0  1  0.148692  0.241084  0.927029  1
  Li  Li1  1  0.648692  0.258916  0.927029  1
  Li  Li2  1  0.351308  0.741084  0.072971  1
  Li  Li3  1  0.851308  0.758916  0.072971  1
  V  V4  1  0.334695  0.755543  0.817654  1
  V  V5  1  0.834695  0.744457  0.817654  1
  V  V6  1  0.272326  0.250845  0.606109  1
  V  V7  1  0.772326  0.249155  0.606109  1
  V  V8  1  0.227674  0.750845  0.393891  1
  V  V9  1  0.727674  0.749155  0.393891  1
  V  V10  1  0.165305  0.255543  0.182346  1
  V  V11  1  0.665305  0.244457  0.182346  1
  F  F12  1  0.415978  0.062116  0.892255  1
  F  F13  1  0.305576  0.561721  0.940891  1
  F  F14  1  0.084114  0.904032  0.823700  1
  F  F15  1  0.915978  0.437884  0.892255  1
  F  F16  1  0.805576  0.938279  0.940891  1
  F  F17  1  0.584114  0.595968  0.823700  1
  F  F18  1  0.354361  0.946699  0.688715  1
  F  F19  1  0.242142  0.456321  0.732115  1
  F  F20  1  0.854361  0.553301  0.688715  1
  F  F21  1  0.742142  0.043679  0.732115  1
  F  F22  1  0.522592  0.370396  0.606447  1
  F  F23  1  0.022592  0.129604  0.606447  1
  F  F24  1  0.195431  0.549026  0.519842  1
  F  F25  1  0.304569  0.049026  0.480158  1
  F  F26  1  0.695431  0.950974  0.519842  1
  F  F27  1  0.804569  0.450974  0.480158  1
  F  F28  1  0.977408  0.870396  0.393553  1
  F  F29  1  0.477408  0.629604  0.393553  1
  F  F30  1  0.257858  0.956321  0.267885  1
  F  F31  1  0.145639  0.446699  0.311285  1
  F  F32  1  0.757858  0.543679  0.267885  1
  F  F33  1  0.645639  0.053301  0.311285  1
  F  F34  1  0.415886  0.404032  0.176300  1
  F  F35  1  0.194424  0.061721  0.059109  1
  F  F36  1  0.084022  0.562116  0.107745  1
  F  F37  1  0.915886  0.095968  0.176300  1
  F  F38  1  0.694424  0.438279  0.059109  1
  F  F39  1  0.584022  0.937884  0.107745  1
