# generated using pymatgen
data_SrFe3P3O13
_symmetry_space_group_name_H-M   'P 1'
_cell_length_a   7.70245062
_cell_length_b   6.43414073
_cell_length_c   10.47583671
_cell_angle_alpha   90.00000000
_cell_angle_beta   99.55711939
_cell_angle_gamma   90.00000000
_symmetry_Int_Tables_number   1
_chemical_formula_structural   SrFe3P3O13
_chemical_formula_sum   'Sr2 Fe6 P6 O26'
_cell_volume   511.96257848
_cell_formula_units_Z   2
loop_
 _symmetry_equiv_pos_site_id
 _symmetry_equiv_pos_as_xyz
  1  'x, y, z'
loop_
 _atom_site_type_symbol
 _atom_site_label
 _atom_site_symmetry_multiplicity
 _atom_site_fract_x
 _atom_site_fract_y
 _atom_site_fract_z
 _atom_site_occupancy
  Sr  Sr0  1  0.336299  0.250000  0.298780  1
  Sr  Sr1  1  0.663701  0.750000  0.701220  1
  Fe  Fe2  1  0.789357  0.250000  0.941766  1
  Fe  Fe3  1  0.000000  0.000000  0.500000  1
  Fe  Fe4  1  0.210643  0.750000  0.058234  1
  Fe  Fe5  1  0.350502  0.250000  0.698072  1
  Fe  Fe6  1  0.649498  0.750000  0.301928  1
  Fe  Fe7  1  0.000000  0.500000  0.500000  1
  P  P8  1  0.216252  0.250000  0.980912  1
  P  P9  1  0.783748  0.750000  0.019088  1
  P  P10  1  0.312350  0.750000  0.383504  1
  P  P11  1  0.253163  0.750000  0.737031  1
  P  P12  1  0.746837  0.250000  0.262969  1
  P  P13  1  0.687650  0.250000  0.616496  1
  O  O14  1  0.800393  0.250000  0.128561  1
  O  O15  1  0.079322  0.750000  0.632799  1
  O  O16  1  0.249558  0.059253  0.074130  1
  O  O17  1  0.367419  0.938399  0.712317  1
  O  O18  1  0.750442  0.559253  0.925870  1
  O  O19  1  0.790856  0.447775  0.591994  1
  O  O20  1  0.367419  0.561601  0.712317  1
  O  O21  1  0.122352  0.250000  0.589621  1
  O  O22  1  0.750442  0.940747  0.925870  1
  O  O23  1  0.024164  0.250000  0.907566  1
  O  O24  1  0.209144  0.947775  0.408006  1
  O  O25  1  0.632581  0.061601  0.287683  1
  O  O26  1  0.790856  0.052225  0.591994  1
  O  O27  1  0.348830  0.750000  0.240389  1
  O  O28  1  0.345001  0.250000  0.885005  1
  O  O29  1  0.209144  0.552225  0.408006  1
  O  O30  1  0.632581  0.438399  0.287683  1
  O  O31  1  0.503557  0.750000  0.458016  1
  O  O32  1  0.199607  0.750000  0.871439  1
  O  O33  1  0.920678  0.250000  0.367201  1
  O  O34  1  0.496443  0.250000  0.541984  1
  O  O35  1  0.877648  0.750000  0.410379  1
  O  O36  1  0.249558  0.440747  0.074130  1
  O  O37  1  0.975836  0.750000  0.092434  1
  O  O38  1  0.654999  0.750000  0.114995  1
  O  O39  1  0.651170  0.250000  0.759611  1
