# generated using pymatgen
data_Li7VO5F
_symmetry_space_group_name_H-M   'P 1'
_cell_length_a   5.56891170
_cell_length_b   5.99959798
_cell_length_c   9.40073953
_cell_angle_alpha   93.66977102
_cell_angle_beta   103.06924222
_cell_angle_gamma   116.04631582
_symmetry_Int_Tables_number   1
_chemical_formula_structural   Li7VO5F
_chemical_formula_sum   'Li14 V2 O10 F2'
_cell_volume   270.05407834
_cell_formula_units_Z   2
loop_
 _symmetry_equiv_pos_site_id
 _symmetry_equiv_pos_as_xyz
  1  'x, y, z'
loop_
 _atom_site_type_symbol
 _atom_site_label
 _atom_site_symmetry_multiplicity
 _atom_site_fract_x
 _atom_site_fract_y
 _atom_site_fract_z
 _atom_site_occupancy
  Li  Li0  1  0.774352  0.876230  0.529322  1
  Li  Li1  1  0.755207  0.349674  0.991369  1
  Li  Li2  1  0.038577  0.603199  0.390135  1
  Li  Li3  1  0.961423  0.396801  0.609865  1
  Li  Li4  1  0.502916  0.988082  0.317239  1
  Li  Li5  1  0.504035  0.452503  0.770143  1
  Li  Li6  1  0.351525  0.139809  0.098162  1
  Li  Li7  1  0.497084  0.011918  0.682761  1
  Li  Li8  1  0.495965  0.547497  0.229857  1
  Li  Li9  1  0.119370  0.265678  0.868729  1
  Li  Li10  1  0.880630  0.734322  0.131271  1
  Li  Li11  1  0.225648  0.123770  0.470678  1
  Li  Li12  1  0.244793  0.650326  0.008631  1
  Li  Li13  1  0.648475  0.860191  0.901838  1
  V  V14  1  0.063625  0.818048  0.775970  1
  V  V15  1  0.936375  0.181952  0.224030  1
  O  O16  1  0.923986  0.207374  0.421427  1
  O  O17  1  0.889483  0.674077  0.921571  1
  O  O18  1  0.821702  0.978796  0.735611  1
  O  O19  1  0.742298  0.410086  0.194204  1
  O  O20  1  0.389235  0.118998  0.866092  1
  O  O21  1  0.178298  0.021204  0.264389  1
  O  O22  1  0.257702  0.589914  0.805796  1
  O  O23  1  0.110517  0.325923  0.078429  1
  O  O24  1  0.076014  0.792626  0.578573  1
  O  O25  1  0.610765  0.881002  0.133908  1
  F  F26  1  0.422310  0.684060  0.391032  1
  F  F27  1  0.577690  0.315940  0.608968  1
