# generated using pymatgen
data_NaLi2FePCO7
_symmetry_space_group_name_H-M   'P 1'
_cell_length_a   5.05702104
_cell_length_b   6.61261158
_cell_length_c   8.59884525
_cell_angle_alpha   90.00000000
_cell_angle_beta   93.27837185
_cell_angle_gamma   90.00000000
_symmetry_Int_Tables_number   1
_chemical_formula_structural   NaLi2FePCO7
_chemical_formula_sum   'Na2 Li4 Fe2 P2 C2 O14'
_cell_volume   287.07580477
_cell_formula_units_Z   2
loop_
 _symmetry_equiv_pos_site_id
 _symmetry_equiv_pos_as_xyz
  1  'x, y, z'
loop_
 _atom_site_type_symbol
 _atom_site_label
 _atom_site_symmetry_multiplicity
 _atom_site_fract_x
 _atom_site_fract_y
 _atom_site_fract_z
 _atom_site_occupancy
  Na  Na0  1  0.745504  0.999714  0.256833  1
  Na  Na1  1  0.254496  0.499714  0.743167  1
  Li  Li2  1  0.249878  0.745625  0.088035  1
  Li  Li3  1  0.758034  0.520871  0.274260  1
  Li  Li4  1  0.241966  0.020871  0.725740  1
  Li  Li5  1  0.750122  0.245625  0.911965  1
  Fe  Fe6  1  0.215493  0.255327  0.344101  1
  Fe  Fe7  1  0.784507  0.755327  0.655899  1
  P  P8  1  0.290815  0.751608  0.408192  1
  P  P9  1  0.709185  0.251608  0.591808  1
  C  C10  1  0.281837  0.242485  0.041885  1
  C  C11  1  0.718163  0.742485  0.958115  1
  O  O12  1  0.657985  0.720512  0.101288  1
  O  O13  1  0.037985  0.243980  0.081784  1
  O  O14  1  0.473075  0.264603  0.149265  1
  O  O15  1  0.224936  0.939165  0.302309  1
  O  O16  1  0.174185  0.569189  0.311153  1
  O  O17  1  0.597751  0.728271  0.431308  1
  O  O18  1  0.826849  0.268649  0.430668  1
  O  O19  1  0.173151  0.768649  0.569332  1
  O  O20  1  0.402249  0.228271  0.568692  1
  O  O21  1  0.775064  0.439165  0.697691  1
  O  O22  1  0.825815  0.069189  0.688847  1
  O  O23  1  0.526925  0.764603  0.850735  1
  O  O24  1  0.962015  0.743980  0.918216  1
  O  O25  1  0.342015  0.220512  0.898712  1
