# generated using pymatgen
data_Rb2ZrO3
_symmetry_space_group_name_H-M   'P 1'
_cell_length_a   6.62459733
_cell_length_b   6.62459733
_cell_length_c   5.97341874
_cell_angle_alpha   90.00000000
_cell_angle_beta   90.00000000
_cell_angle_gamma   111.46563994
_symmetry_Int_Tables_number   1
_chemical_formula_structural   Rb2ZrO3
_chemical_formula_sum   'Rb4 Zr2 O6'
_cell_volume   243.96208399
_cell_formula_units_Z   2
loop_
 _symmetry_equiv_pos_site_id
 _symmetry_equiv_pos_as_xyz
  1  'x, y, z'
loop_
 _atom_site_type_symbol
 _atom_site_label
 _atom_site_symmetry_multiplicity
 _atom_site_fract_x
 _atom_site_fract_y
 _atom_site_fract_z
 _atom_site_occupancy
  Rb  Rb0  1  0.806096  0.479707  0.256209  1
  Rb  Rb1  1  0.520293  0.193904  0.756209  1
  Rb  Rb2  1  0.193904  0.520293  0.756209  1
  Rb  Rb3  1  0.479707  0.806096  0.256209  1
  Zr  Zr4  1  0.912851  0.912851  0.736202  1
  Zr  Zr5  1  0.087149  0.087149  0.236202  1
  O  O6  1  0.886347  0.134315  0.492829  1
  O  O7  1  0.865685  0.113653  0.992829  1
  O  O8  1  0.654399  0.654399  0.705722  1
  O  O9  1  0.345601  0.345601  0.205722  1
  O  O10  1  0.113653  0.865685  0.992829  1
  O  O11  1  0.134315  0.886347  0.492829  1
