# generated using pymatgen
data_Sr16Cu8O23
_symmetry_space_group_name_H-M   'P 1'
_cell_length_a   6.87251104
_cell_length_b   10.20548079
_cell_length_c   11.37475303
_cell_angle_alpha   106.43737832
_cell_angle_beta   98.09306885
_cell_angle_gamma   105.43594868
_symmetry_Int_Tables_number   1
_chemical_formula_structural   Sr16Cu8O23
_chemical_formula_sum   'Sr16 Cu8 O23'
_cell_volume   717.15560381
_cell_formula_units_Z   1
loop_
 _symmetry_equiv_pos_site_id
 _symmetry_equiv_pos_as_xyz
  1  'x, y, z'
loop_
 _atom_site_type_symbol
 _atom_site_label
 _atom_site_symmetry_multiplicity
 _atom_site_fract_x
 _atom_site_fract_y
 _atom_site_fract_z
 _atom_site_occupancy
  Sr  Sr0  1  0.280406  0.990688  0.374783  1
  Sr  Sr1  1  0.844318  0.135636  0.375464  1
  Sr  Sr2  1  0.341378  0.640660  0.370990  1
  Sr  Sr3  1  0.405420  0.114640  0.125505  1
  Sr  Sr4  1  0.594580  0.885360  0.874495  1
  Sr  Sr5  1  0.466565  0.759847  0.123729  1
  Sr  Sr6  1  0.905567  0.612984  0.123068  1
  Sr  Sr7  1  0.792696  0.490254  0.371244  1
  Sr  Sr8  1  0.969243  0.259343  0.124702  1
  Sr  Sr9  1  0.030757  0.740657  0.875298  1
  Sr  Sr10  1  0.533435  0.240153  0.876271  1
  Sr  Sr11  1  0.207304  0.509746  0.628756  1
  Sr  Sr12  1  0.658622  0.359340  0.629010  1
  Sr  Sr13  1  0.094433  0.387016  0.876932  1
  Sr  Sr14  1  0.719594  0.009312  0.625217  1
  Sr  Sr15  1  0.155682  0.864364  0.624536  1
  Cu  Cu16  1  0.320705  0.320133  0.379524  1
  Cu  Cu17  1  0.812393  0.813223  0.375527  1
  Cu  Cu18  1  0.934005  0.935220  0.124188  1
  Cu  Cu19  1  0.438144  0.436978  0.126640  1
  Cu  Cu20  1  0.679295  0.679867  0.620476  1
  Cu  Cu21  1  0.561856  0.563022  0.873360  1
  Cu  Cu22  1  0.187607  0.186777  0.624473  1
  Cu  Cu23  1  0.065995  0.064780  0.875812  1
  O  O24  1  0.102926  0.402106  0.384593  1
  O  O25  1  0.553436  0.253133  0.384522  1
  O  O26  1  0.116772  0.117540  0.246064  1
  O  O27  1  0.000000  0.000000  0.500000  1
  O  O28  1  0.048459  0.736644  0.375009  1
  O  O29  1  0.579784  0.893791  0.374970  1
  O  O30  1  0.166783  0.856438  0.122160  1
  O  O31  1  0.699545  0.012912  0.123908  1
  O  O32  1  0.750077  0.751395  0.000286  1
  O  O33  1  0.626201  0.625534  0.252909  1
  O  O34  1  0.673210  0.358623  0.126136  1
  O  O35  1  0.203213  0.514834  0.124740  1
  O  O36  1  0.326790  0.641377  0.873864  1
  O  O37  1  0.796787  0.485166  0.875260  1
  O  O38  1  0.373799  0.374466  0.747091  1
  O  O39  1  0.249923  0.248605  0.999714  1
  O  O40  1  0.897074  0.597894  0.615407  1
  O  O41  1  0.833217  0.143562  0.877840  1
  O  O42  1  0.300455  0.987088  0.876092  1
  O  O43  1  0.420216  0.106209  0.625030  1
  O  O44  1  0.951541  0.263356  0.624991  1
  O  O45  1  0.883228  0.882460  0.753936  1
  O  O46  1  0.446564  0.746867  0.615478  1
