# generated using pymatgen
data_LiSn2(PO4)3
_symmetry_space_group_name_H-M   'P 1'
_cell_length_a   8.76623223
_cell_length_b   8.87448049
_cell_length_c   12.22419464
_cell_angle_alpha   90.00000000
_cell_angle_beta   90.00000000
_cell_angle_gamma   90.00000000
_symmetry_Int_Tables_number   1
_chemical_formula_structural   LiSn2(PO4)3
_chemical_formula_sum   'Li4 Sn8 P12 O48'
_cell_volume   950.99047446
_cell_formula_units_Z   4
loop_
 _symmetry_equiv_pos_site_id
 _symmetry_equiv_pos_as_xyz
  1  'x, y, z'
loop_
 _atom_site_type_symbol
 _atom_site_label
 _atom_site_symmetry_multiplicity
 _atom_site_fract_x
 _atom_site_fract_y
 _atom_site_fract_z
 _atom_site_occupancy
  Li  Li0  1  0.533876  0.771328  0.822671  1
  Li  Li1  1  0.466124  0.228672  0.322671  1
  Li  Li2  1  0.033876  0.728672  0.322671  1
  Li  Li3  1  0.966124  0.271328  0.822671  1
  Sn  Sn4  1  0.502199  0.035015  0.117669  1
  Sn  Sn5  1  0.495588  0.447924  0.879573  1
  Sn  Sn6  1  0.504412  0.552076  0.379573  1
  Sn  Sn7  1  0.497801  0.964985  0.617669  1
  Sn  Sn8  1  0.995588  0.052076  0.379573  1
  Sn  Sn9  1  0.002199  0.464985  0.617669  1
  Sn  Sn10  1  0.004412  0.947924  0.879573  1
  Sn  Sn11  1  0.997801  0.535015  0.117669  1
  P  P12  1  0.706012  0.254031  0.501097  1
  P  P13  1  0.642039  0.396946  0.147203  1
  P  P14  1  0.649047  0.103155  0.852936  1
  P  P15  1  0.350953  0.896845  0.352936  1
  P  P16  1  0.357961  0.603054  0.647203  1
  P  P17  1  0.293988  0.745969  0.001097  1
  P  P18  1  0.206012  0.245969  0.001097  1
  P  P19  1  0.149047  0.396845  0.352936  1
  P  P20  1  0.142039  0.103054  0.647203  1
  P  P21  1  0.850953  0.603155  0.852936  1
  P  P22  1  0.857961  0.896946  0.147203  1
  P  P23  1  0.793988  0.754031  0.501097  1
  O  O24  1  0.700716  0.655741  0.420960  1
  O  O25  1  0.696264  0.855425  0.574030  1
  O  O26  1  0.683217  0.901057  0.162711  1
  O  O27  1  0.674805  0.597384  0.839507  1
  O  O28  1  0.600543  0.422253  0.027120  1
  O  O29  1  0.603595  0.067351  0.970374  1
  O  O30  1  0.582590  0.238037  0.184929  1
  O  O31  1  0.600333  0.261559  0.816708  1
  O  O32  1  0.565411  0.517851  0.219446  1
  O  O33  1  0.574900  0.979045  0.779566  1
  O  O34  1  0.605596  0.157831  0.576095  1
  O  O35  1  0.597481  0.344879  0.424136  1
  O  O36  1  0.394404  0.842169  0.076095  1
  O  O37  1  0.402519  0.655121  0.924136  1
  O  O38  1  0.434589  0.482149  0.719446  1
  O  O39  1  0.425100  0.020955  0.279566  1
  O  O40  1  0.417410  0.761963  0.684929  1
  O  O41  1  0.399667  0.738441  0.316708  1
  O  O42  1  0.396405  0.932649  0.470374  1
  O  O43  1  0.399457  0.577747  0.527120  1
  O  O44  1  0.325195  0.402616  0.339507  1
  O  O45  1  0.316783  0.098943  0.662711  1
  O  O46  1  0.303736  0.144575  0.074030  1
  O  O47  1  0.299284  0.344259  0.920960  1
  O  O48  1  0.200716  0.844259  0.920960  1
  O  O49  1  0.196264  0.644575  0.074030  1
  O  O50  1  0.174805  0.902616  0.339507  1
  O  O51  1  0.183217  0.598943  0.662711  1
  O  O52  1  0.103595  0.432649  0.470374  1
  O  O53  1  0.100543  0.077747  0.527120  1
  O  O54  1  0.100333  0.238441  0.316708  1
  O  O55  1  0.082590  0.261963  0.684929  1
  O  O56  1  0.065411  0.982149  0.719446  1
  O  O57  1  0.074900  0.520955  0.279566  1
  O  O58  1  0.105596  0.342169  0.076095  1
  O  O59  1  0.097481  0.155121  0.924136  1
  O  O60  1  0.902519  0.844879  0.424136  1
  O  O61  1  0.894404  0.657831  0.576095  1
  O  O62  1  0.934589  0.017851  0.219446  1
  O  O63  1  0.925100  0.479045  0.779566  1
  O  O64  1  0.917410  0.738037  0.184929  1
  O  O65  1  0.899667  0.761559  0.816708  1
  O  O66  1  0.899457  0.922253  0.027120  1
  O  O67  1  0.896405  0.567351  0.970374  1
  O  O68  1  0.816783  0.401057  0.162711  1
  O  O69  1  0.825195  0.097384  0.839507  1
  O  O70  1  0.799284  0.155741  0.420960  1
  O  O71  1  0.803736  0.355425  0.574030  1
