# generated using pymatgen
data_V6O5F19
_symmetry_space_group_name_H-M   'P 1'
_cell_length_a   5.39741194
_cell_length_b   5.57349608
_cell_length_c   14.80442493
_cell_angle_alpha   100.83464457
_cell_angle_beta   89.69397867
_cell_angle_gamma   91.63309475
_symmetry_Int_Tables_number   1
_chemical_formula_structural   V6O5F19
_chemical_formula_sum   'V6 O5 F19'
_cell_volume   437.23679407
_cell_formula_units_Z   1
loop_
 _symmetry_equiv_pos_site_id
 _symmetry_equiv_pos_as_xyz
  1  'x, y, z'
loop_
 _atom_site_type_symbol
 _atom_site_label
 _atom_site_symmetry_multiplicity
 _atom_site_fract_x
 _atom_site_fract_y
 _atom_site_fract_z
 _atom_site_occupancy
  V  V0  1  0.058214  0.024042  0.005766  1
  V  V1  1  0.562874  0.802244  0.660897  1
  V  V2  1  0.033829  0.614929  0.336471  1
  V  V3  1  0.563429  0.468315  0.993637  1
  V  V4  1  0.057740  0.358189  0.672980  1
  V  V5  1  0.506208  0.148950  0.332638  1
  O  O6  1  0.209796  0.396081  0.355538  1
  O  O7  1  0.291831  0.224366  0.022518  1
  O  O8  1  0.790893  0.276721  0.975728  1
  O  O9  1  0.290419  0.559534  0.690867  1
  O  O10  1  0.789820  0.609714  0.643846  1
  F  F11  1  0.729331  0.433127  0.310287  1
  F  F12  1  0.050771  0.937357  0.884695  1
  F  F13  1  0.396700  0.758445  0.555611  1
  F  F14  1  0.067533  0.618694  0.218233  1
  F  F15  1  0.553233  0.900362  0.781550  1
  F  F16  1  0.915914  0.747156  0.445521  1
  F  F17  1  0.554934  0.563368  0.114470  1
  F  F18  1  0.200508  0.085102  0.692127  1
  F  F19  1  0.293905  0.874723  0.356483  1
  F  F20  1  0.199915  0.751593  0.026052  1
  F  F21  1  0.707431  0.085419  0.640822  1
  F  F22  1  0.777225  0.957619  0.309493  1
  F  F23  1  0.396318  0.427085  0.888487  1
  F  F24  1  0.052288  0.274507  0.551834  1
  F  F25  1  0.400601  0.110806  0.217693  1
  F  F26  1  0.891394  0.406820  0.778160  1
  F  F27  1  0.557083  0.253333  0.451646  1
  F  F28  1  0.892972  0.077974  0.111044  1
  F  F29  1  0.706891  0.753423  0.974910  1
