# generated using pymatgen
data_Rb4PbO4
_symmetry_space_group_name_H-M   'P 1'
_cell_length_a   7.00551803
_cell_length_b   7.00976356
_cell_length_c   10.41169020
_cell_angle_alpha   79.19143043
_cell_angle_beta   71.54128822
_cell_angle_gamma   66.68162049
_symmetry_Int_Tables_number   1
_chemical_formula_structural   Rb4PbO4
_chemical_formula_sum   'Rb8 Pb2 O8'
_cell_volume   444.23206175
_cell_formula_units_Z   2
loop_
 _symmetry_equiv_pos_site_id
 _symmetry_equiv_pos_as_xyz
  1  'x, y, z'
loop_
 _atom_site_type_symbol
 _atom_site_label
 _atom_site_symmetry_multiplicity
 _atom_site_fract_x
 _atom_site_fract_y
 _atom_site_fract_z
 _atom_site_occupancy
  Rb  Rb0  1  0.239308  0.761970  0.969130  1
  Rb  Rb1  1  0.491541  0.724317  0.558519  1
  Rb  Rb2  1  0.592640  0.739692  0.164305  1
  Rb  Rb3  1  0.034125  0.783275  0.379992  1
  Rb  Rb4  1  0.965875  0.216725  0.620008  1
  Rb  Rb5  1  0.407360  0.260308  0.835695  1
  Rb  Rb6  1  0.508459  0.275683  0.441481  1
  Rb  Rb7  1  0.760692  0.238030  0.030870  1
  Pb  Pb8  1  0.844212  0.725118  0.754037  1
  Pb  Pb9  1  0.155788  0.274882  0.245963  1
  O  O10  1  0.840520  0.878856  0.911194  1
  O  O11  1  0.692337  0.970710  0.623210  1
  O  O12  1  0.658223  0.530857  0.813282  1
  O  O13  1  0.841108  0.457300  0.355212  1
  O  O14  1  0.158892  0.542700  0.644788  1
  O  O15  1  0.341777  0.469143  0.186718  1
  O  O16  1  0.307663  0.029290  0.376790  1
  O  O17  1  0.159480  0.121144  0.088806  1
