# generated using pymatgen
data_LiVOF3
_symmetry_space_group_name_H-M   'P 1'
_cell_length_a   5.28868350
_cell_length_b   7.16896814
_cell_length_c   7.76419786
_cell_angle_alpha   90.00000000
_cell_angle_beta   90.00000000
_cell_angle_gamma   90.00000000
_symmetry_Int_Tables_number   1
_chemical_formula_structural   LiVOF3
_chemical_formula_sum   'Li4 V4 O4 F12'
_cell_volume   294.37493063
_cell_formula_units_Z   4
loop_
 _symmetry_equiv_pos_site_id
 _symmetry_equiv_pos_as_xyz
  1  'x, y, z'
loop_
 _atom_site_type_symbol
 _atom_site_label
 _atom_site_symmetry_multiplicity
 _atom_site_fract_x
 _atom_site_fract_y
 _atom_site_fract_z
 _atom_site_occupancy
  Li  Li0  1  0.436765  0.191112  0.846120  1
  Li  Li1  1  0.436765  0.308888  0.346120  1
  Li  Li2  1  0.563235  0.691112  0.846120  1
  Li  Li3  1  0.563235  0.808888  0.346120  1
  V  V4  1  0.965616  0.008116  0.038085  1
  V  V5  1  0.965616  0.491884  0.538085  1
  V  V6  1  0.034384  0.508116  0.038085  1
  V  V7  1  0.034384  0.991884  0.538085  1
  O  O8  1  0.129209  0.034303  0.738329  1
  O  O9  1  0.129209  0.465697  0.238329  1
  O  O10  1  0.870791  0.534303  0.738329  1
  O  O11  1  0.870791  0.965697  0.238329  1
  F  F12  1  0.324240  0.049640  0.398636  1
  F  F13  1  0.289499  0.117308  0.063326  1
  F  F14  1  0.851271  0.232473  0.495506  1
  F  F15  1  0.851271  0.267527  0.995506  1
  F  F16  1  0.289499  0.382692  0.563326  1
  F  F17  1  0.324240  0.450360  0.898636  1
  F  F18  1  0.675760  0.549640  0.398636  1
  F  F19  1  0.710501  0.617308  0.063326  1
  F  F20  1  0.148729  0.732473  0.495506  1
  F  F21  1  0.148729  0.767527  0.995506  1
  F  F22  1  0.710501  0.882692  0.563326  1
  F  F23  1  0.675760  0.950360  0.898636  1
