# generated using pymatgen
data_CoH4SeO5
_symmetry_space_group_name_H-M   'P 1'
_cell_length_a   5.71633145
_cell_length_b   11.71126225
_cell_length_c   8.74091627
_cell_angle_alpha   90.00000000
_cell_angle_beta   118.42296160
_cell_angle_gamma   90.00000000
_symmetry_Int_Tables_number   1
_chemical_formula_structural   CoH4SeO5
_chemical_formula_sum   'Co4 H16 Se4 O20'
_cell_volume   514.62765420
_cell_formula_units_Z   4
loop_
 _symmetry_equiv_pos_site_id
 _symmetry_equiv_pos_as_xyz
  1  'x, y, z'
loop_
 _atom_site_type_symbol
 _atom_site_label
 _atom_site_symmetry_multiplicity
 _atom_site_fract_x
 _atom_site_fract_y
 _atom_site_fract_z
 _atom_site_occupancy
  Co  Co0  1  0.291248  0.065536  0.064441  1
  Co  Co1  1  0.708752  0.565536  0.435559  1
  Co  Co2  1  0.291248  0.434464  0.564441  1
  Co  Co3  1  0.708752  0.934464  0.935559  1
  H  H4  1  0.226095  0.898822  0.318586  1
  H  H5  1  0.396830  0.186239  0.364563  1
  H  H6  1  0.589298  0.084655  0.408502  1
  H  H7  1  0.971771  0.562441  0.824291  1
  H  H8  1  0.410702  0.584655  0.091498  1
  H  H9  1  0.603170  0.686239  0.135437  1
  H  H10  1  0.773905  0.398822  0.181414  1
  H  H11  1  0.028229  0.062441  0.675709  1
  H  H12  1  0.971771  0.937559  0.324291  1
  H  H13  1  0.226095  0.601178  0.818586  1
  H  H14  1  0.396830  0.313761  0.864563  1
  H  H15  1  0.589298  0.415345  0.908502  1
  H  H16  1  0.028229  0.437559  0.175709  1
  H  H17  1  0.410702  0.915345  0.591498  1
  H  H18  1  0.603170  0.813761  0.635437  1
  H  H19  1  0.773905  0.101178  0.681414  1
  Se  Se20  1  0.805728  0.346804  0.632366  1
  Se  Se21  1  0.194272  0.846804  0.867634  1
  Se  Se22  1  0.805728  0.153196  0.132366  1
  Se  Se23  1  0.194272  0.653196  0.367634  1
  O  O24  1  0.723004  0.483963  0.673410  1
  O  O25  1  0.520221  0.700032  0.480895  1
  O  O26  1  0.405504  0.109076  0.319900  1
  O  O27  1  0.861573  0.107386  0.608151  1
  O  O28  1  0.118781  0.892656  0.031137  1
  O  O29  1  0.594496  0.609076  0.180100  1
  O  O30  1  0.881219  0.392656  0.468863  1
  O  O31  1  0.479779  0.200032  0.019105  1
  O  O32  1  0.138427  0.607386  0.891849  1
  O  O33  1  0.276996  0.983963  0.826590  1
  O  O34  1  0.723004  0.016037  0.173410  1
  O  O35  1  0.861573  0.392614  0.108151  1
  O  O36  1  0.520221  0.799968  0.980895  1
  O  O37  1  0.118781  0.607344  0.531137  1
  O  O38  1  0.405504  0.390924  0.819900  1
  O  O39  1  0.881219  0.107344  0.968863  1
  O  O40  1  0.138427  0.892614  0.391849  1
  O  O41  1  0.594496  0.890924  0.680100  1
  O  O42  1  0.479779  0.299968  0.519105  1
  O  O43  1  0.276996  0.516037  0.326590  1
