# generated using pymatgen
data_TiMn3Cr2(PO4)6
_symmetry_space_group_name_H-M   'P 1'
_cell_length_a   8.45865228
_cell_length_b   8.45865228
_cell_length_c   8.45865228
_cell_angle_alpha   61.71216012
_cell_angle_beta   61.71216012
_cell_angle_gamma   61.71216012
_symmetry_Int_Tables_number   1
_chemical_formula_structural   TiMn3Cr2(PO4)6
_chemical_formula_sum   'Ti1 Mn3 Cr2 P6 O24'
_cell_volume   444.36843038
_cell_formula_units_Z   1
loop_
 _symmetry_equiv_pos_site_id
 _symmetry_equiv_pos_as_xyz
  1  'x, y, z'
loop_
 _atom_site_type_symbol
 _atom_site_label
 _atom_site_symmetry_multiplicity
 _atom_site_fract_x
 _atom_site_fract_y
 _atom_site_fract_z
 _atom_site_occupancy
  Ti  Ti0  1  0.147026  0.147026  0.147026  1
  Mn  Mn1  1  0.853436  0.853436  0.853436  1
  Mn  Mn2  1  0.646065  0.646065  0.646065  1
  Mn  Mn3  1  0.354398  0.354398  0.354398  1
  Cr  Cr4  1  0.000276  0.000276  0.000276  1
  Cr  Cr5  1  0.498781  0.498781  0.498781  1
  P  P6  1  0.749168  0.449428  0.050588  1
  P  P7  1  0.449428  0.050588  0.749168  1
  P  P8  1  0.050588  0.749168  0.449428  1
  P  P9  1  0.950531  0.250236  0.550307  1
  P  P10  1  0.550307  0.950531  0.250236  1
  P  P11  1  0.250236  0.550307  0.950531  1
  O  O12  1  0.901344  0.679698  0.481372  1
  O  O13  1  0.679698  0.481372  0.901344  1
  O  O14  1  0.935169  0.093482  0.751982  1
  O  O15  1  0.481372  0.901344  0.679698  1
  O  O16  1  0.011313  0.171588  0.388987  1
  O  O17  1  0.750622  0.398435  0.554038  1
  O  O18  1  0.751982  0.935169  0.093482  1
  O  O19  1  0.554038  0.750622  0.398435  1
  O  O20  1  0.822215  0.603727  0.010060  1
  O  O21  1  0.398435  0.554038  0.750622  1
  O  O22  1  0.909479  0.245419  0.069095  1
  O  O23  1  0.603727  0.010060  0.822215  1
  O  O24  1  0.388987  0.011313  0.171588  1
  O  O25  1  0.093482  0.751982  0.935169  1
  O  O26  1  0.598509  0.432057  0.254855  1
  O  O27  1  0.171588  0.388987  0.011313  1
  O  O28  1  0.432057  0.254855  0.598509  1
  O  O29  1  0.245419  0.069095  0.909479  1
  O  O30  1  0.254855  0.598509  0.432057  1
  O  O31  1  0.010060  0.822215  0.603727  1
  O  O32  1  0.512626  0.102176  0.321512  1
  O  O33  1  0.069095  0.909479  0.245419  1
  O  O34  1  0.321512  0.512626  0.102176  1
  O  O35  1  0.102176  0.321512  0.512626  1
