# generated using pymatgen
data_Li4Ti5Fe3O16
_symmetry_space_group_name_H-M   'P 1'
_cell_length_a   5.98486825
_cell_length_b   5.98486825
_cell_length_c   9.62887192
_cell_angle_alpha   89.92736502
_cell_angle_beta   90.07263498
_cell_angle_gamma   120.50172270
_symmetry_Int_Tables_number   1
_chemical_formula_structural   Li4Ti5Fe3O16
_chemical_formula_sum   'Li4 Ti5 Fe3 O16'
_cell_volume   297.16443590
_cell_formula_units_Z   1
loop_
 _symmetry_equiv_pos_site_id
 _symmetry_equiv_pos_as_xyz
  1  'x, y, z'
loop_
 _atom_site_type_symbol
 _atom_site_label
 _atom_site_symmetry_multiplicity
 _atom_site_fract_x
 _atom_site_fract_y
 _atom_site_fract_z
 _atom_site_occupancy
  Li  Li0  1  0.661592  0.338408  0.897483  1
  Li  Li1  1  0.999149  0.000851  0.992983  1
  Li  Li2  1  0.002821  0.997179  0.493237  1
  Li  Li3  1  0.332359  0.667641  0.398660  1
  Ti  Ti4  1  0.176196  0.823804  0.729339  1
  Ti  Ti5  1  0.348728  0.159993  0.220638  1
  Ti  Ti6  1  0.666610  0.333390  0.499833  1
  Ti  Ti7  1  0.840007  0.651272  0.220638  1
  Ti  Ti8  1  0.346787  0.653213  0.997549  1
  Fe  Fe9  1  0.829158  0.170842  0.210917  1
  Fe  Fe10  1  0.171947  0.340150  0.710137  1
  Fe  Fe11  1  0.659850  0.828053  0.710137  1
  O  O12  1  0.340011  0.173091  0.594756  1
  O  O13  1  0.518535  0.481465  0.335734  1
  O  O14  1  0.653535  0.346465  0.103289  1
  O  O15  1  0.008045  0.991955  0.304811  1
  O  O16  1  0.002843  0.997157  0.804055  1
  O  O17  1  0.826909  0.659989  0.594756  1
  O  O18  1  0.504363  0.042071  0.346382  1
  O  O19  1  0.957929  0.495637  0.346382  1
  O  O20  1  0.169187  0.830813  0.099152  1
  O  O21  1  0.831388  0.168612  0.590765  1
  O  O22  1  0.032720  0.524275  0.839105  1
  O  O23  1  0.475725  0.967280  0.839105  1
  O  O24  1  0.324891  0.675109  0.604062  1
  O  O25  1  0.180245  0.337993  0.090572  1
  O  O26  1  0.475562  0.524438  0.842757  1
  O  O27  1  0.662007  0.819755  0.090572  1
