# generated using pymatgen
data_LiVPO4
_symmetry_space_group_name_H-M   'P 1'
_cell_length_a   5.01659603
_cell_length_b   6.44234523
_cell_length_c   9.32452397
_cell_angle_alpha   90.00000000
_cell_angle_beta   90.00000000
_cell_angle_gamma   90.00000000
_symmetry_Int_Tables_number   1
_chemical_formula_structural   LiVPO4
_chemical_formula_sum   'Li4 V4 P4 O16'
_cell_volume   301.35596604
_cell_formula_units_Z   4
loop_
 _symmetry_equiv_pos_site_id
 _symmetry_equiv_pos_as_xyz
  1  'x, y, z'
loop_
 _atom_site_type_symbol
 _atom_site_label
 _atom_site_symmetry_multiplicity
 _atom_site_fract_x
 _atom_site_fract_y
 _atom_site_fract_z
 _atom_site_occupancy
  Li  Li0  1  0.547651  0.250000  0.164228  1
  Li  Li1  1  0.047651  0.750000  0.335772  1
  Li  Li2  1  0.952349  0.250000  0.664228  1
  Li  Li3  1  0.452349  0.750000  0.835772  1
  V  V4  1  0.000000  0.000000  0.000000  1
  V  V5  1  0.000000  0.500000  0.000000  1
  V  V6  1  0.500000  0.000000  0.500000  1
  V  V7  1  0.500000  0.500000  0.500000  1
  P  P8  1  0.516580  0.750000  0.178261  1
  P  P9  1  0.016580  0.250000  0.321739  1
  P  P10  1  0.983420  0.750000  0.678261  1
  P  P11  1  0.483420  0.250000  0.821739  1
  O  O12  1  0.213281  0.750000  0.132671  1
  O  O13  1  0.649005  0.949349  0.122250  1
  O  O14  1  0.649005  0.550651  0.122250  1
  O  O15  1  0.052200  0.250000  0.153601  1
  O  O16  1  0.552200  0.750000  0.346399  1
  O  O17  1  0.149005  0.050651  0.377750  1
  O  O18  1  0.149005  0.449349  0.377750  1
  O  O19  1  0.713281  0.250000  0.367329  1
  O  O20  1  0.286719  0.750000  0.632671  1
  O  O21  1  0.850995  0.949349  0.622250  1
  O  O22  1  0.850995  0.550651  0.622250  1
  O  O23  1  0.447800  0.250000  0.653601  1
  O  O24  1  0.947800  0.750000  0.846399  1
  O  O25  1  0.350995  0.449349  0.877750  1
  O  O26  1  0.350995  0.050651  0.877750  1
  O  O27  1  0.786719  0.250000  0.867329  1
