# generated using pymatgen
data_Li2TiMn3O8
_symmetry_space_group_name_H-M   'P 1'
_cell_length_a   5.79180674
_cell_length_b   8.86663277
_cell_length_c   10.43215044
_cell_angle_alpha   114.73605706
_cell_angle_beta   105.72724958
_cell_angle_gamma   90.26565610
_symmetry_Int_Tables_number   1
_chemical_formula_structural   Li2TiMn3O8
_chemical_formula_sum   'Li6 Ti3 Mn9 O24'
_cell_volume   464.06881225
_cell_formula_units_Z   3
loop_
 _symmetry_equiv_pos_site_id
 _symmetry_equiv_pos_as_xyz
  1  'x, y, z'
loop_
 _atom_site_type_symbol
 _atom_site_label
 _atom_site_symmetry_multiplicity
 _atom_site_fract_x
 _atom_site_fract_y
 _atom_site_fract_z
 _atom_site_occupancy
  Li  Li0  1  0.000000  0.500000  0.500000  1
  Li  Li1  1  0.655812  0.666417  0.333160  1
  Li  Li2  1  0.000000  0.000000  0.000000  1
  Li  Li3  1  0.830907  0.831069  0.162684  1
  Li  Li4  1  0.344188  0.333583  0.666840  1
  Li  Li5  1  0.169093  0.168931  0.837316  1
  Ti  Ti6  1  0.162296  0.166477  0.333420  1
  Ti  Ti7  1  0.500000  0.500000  0.000000  1
  Ti  Ti8  1  0.837704  0.833523  0.666580  1
  Mn  Mn9  1  0.668097  0.167140  0.333373  1
  Mn  Mn10  1  0.500000  0.000000  0.500000  1
  Mn  Mn11  1  0.337259  0.337867  0.170781  1
  Mn  Mn12  1  0.000000  0.000000  0.500000  1
  Mn  Mn13  1  0.832371  0.329635  0.161350  1
  Mn  Mn14  1  0.662741  0.662133  0.829219  1
  Mn  Mn15  1  0.331903  0.832860  0.666627  1
  Mn  Mn16  1  0.167629  0.670365  0.838650  1
  Mn  Mn17  1  0.000000  0.500000  0.000000  1
  O  O18  1  0.661288  0.410570  0.308282  1
  O  O19  1  0.492561  0.209239  0.479772  1
  O  O20  1  0.318781  0.077380  0.642385  1
  O  O21  1  0.150374  0.384223  0.310943  1
  O  O22  1  0.995534  0.253827  0.476949  1
  O  O23  1  0.824618  0.050713  0.645626  1
  O  O24  1  0.681219  0.922620  0.357615  1
  O  O25  1  0.507439  0.790761  0.520228  1
  O  O26  1  0.348341  0.126870  0.188214  1
  O  O27  1  0.175382  0.949287  0.354374  1
  O  O28  1  0.004466  0.746173  0.523051  1
  O  O29  1  0.853090  0.079261  0.189141  1
  O  O30  1  0.817696  0.578018  0.141784  1
  O  O31  1  0.651659  0.873130  0.811786  1
  O  O32  1  0.492689  0.717523  0.980234  1
  O  O33  1  0.325509  0.548760  0.150577  1
  O  O34  1  0.146910  0.920739  0.810859  1
  O  O35  1  0.975918  0.744053  0.976364  1
  O  O36  1  0.849626  0.615777  0.689057  1
  O  O37  1  0.674491  0.451240  0.849423  1
  O  O38  1  0.507311  0.282477  0.019766  1
  O  O39  1  0.338712  0.589430  0.691718  1
  O  O40  1  0.182304  0.421982  0.858216  1
  O  O41  1  0.024082  0.255947  0.023636  1
