# generated using pymatgen
data_Li3MnNi3O8
_symmetry_space_group_name_H-M   'P 1'
_cell_length_a   5.91418808
_cell_length_b   5.91418808
_cell_length_c   5.91418808
_cell_angle_alpha   58.79636982
_cell_angle_beta   58.79636982
_cell_angle_gamma   58.79636982
_symmetry_Int_Tables_number   1
_chemical_formula_structural   Li3MnNi3O8
_chemical_formula_sum   'Li3 Mn1 Ni3 O8'
_cell_volume   142.25432174
_cell_formula_units_Z   1
loop_
 _symmetry_equiv_pos_site_id
 _symmetry_equiv_pos_as_xyz
  1  'x, y, z'
loop_
 _atom_site_type_symbol
 _atom_site_label
 _atom_site_symmetry_multiplicity
 _atom_site_fract_x
 _atom_site_fract_y
 _atom_site_fract_z
 _atom_site_occupancy
  Li  Li0  1  0.000000  0.500000  0.000000  1
  Li  Li1  1  0.500000  0.000000  0.000000  1
  Li  Li2  1  0.000000  0.000000  0.500000  1
  Mn  Mn3  1  0.000000  0.000000  0.000000  1
  Ni  Ni4  1  0.500000  0.000000  0.500000  1
  Ni  Ni5  1  1.000000  0.500000  0.500000  1
  Ni  Ni6  1  0.500000  0.500000  0.000000  1
  O  O7  1  0.736945  0.736945  0.736945  1
  O  O8  1  0.230658  0.758301  0.230658  1
  O  O9  1  0.758301  0.230658  0.230658  1
  O  O10  1  0.263055  0.263055  0.263055  1
  O  O11  1  0.230658  0.230658  0.758301  1
  O  O12  1  0.769342  0.241699  0.769342  1
  O  O13  1  0.241699  0.769342  0.769342  1
  O  O14  1  0.769342  0.769342  0.241699  1
