# generated using pymatgen
data_NaV2O5
_symmetry_space_group_name_H-M   'P 1'
_cell_length_a   3.67515809
_cell_length_b   9.94142391
_cell_length_c   12.22197705
_cell_angle_alpha   90.00000000
_cell_angle_beta   90.00000000
_cell_angle_gamma   90.00000000
_symmetry_Int_Tables_number   1
_chemical_formula_structural   NaV2O5
_chemical_formula_sum   'Na4 V8 O20'
_cell_volume   446.54587504
_cell_formula_units_Z   4
loop_
 _symmetry_equiv_pos_site_id
 _symmetry_equiv_pos_as_xyz
  1  'x, y, z'
loop_
 _atom_site_type_symbol
 _atom_site_label
 _atom_site_symmetry_multiplicity
 _atom_site_fract_x
 _atom_site_fract_y
 _atom_site_fract_z
 _atom_site_occupancy
  Na  Na0  1  0.250000  0.341923  0.730321  1
  Na  Na1  1  0.750000  0.158077  0.230321  1
  Na  Na2  1  0.250000  0.841923  0.769679  1
  Na  Na3  1  0.750000  0.658077  0.269679  1
  V  V4  1  0.250000  0.432580  0.087844  1
  V  V5  1  0.750000  0.377621  0.496434  1
  V  V6  1  0.250000  0.122379  0.996434  1
  V  V7  1  0.750000  0.067420  0.587844  1
  V  V8  1  0.250000  0.932580  0.412156  1
  V  V9  1  0.750000  0.877621  0.003566  1
  V  V10  1  0.250000  0.622379  0.503566  1
  V  V11  1  0.750000  0.567420  0.912156  1
  O  O12  1  0.750000  0.485718  0.794684  1
  O  O13  1  0.750000  0.443650  0.041466  1
  O  O14  1  0.250000  0.428218  0.540728  1
  O  O15  1  0.750000  0.287162  0.383221  1
  O  O16  1  0.250000  0.260606  0.117781  1
  O  O17  1  0.750000  0.239394  0.617781  1
  O  O18  1  0.250000  0.212838  0.883221  1
  O  O19  1  0.750000  0.071782  0.040728  1
  O  O20  1  0.250000  0.056350  0.541466  1
  O  O21  1  0.250000  0.014282  0.294684  1
  O  O22  1  0.750000  0.985718  0.705316  1
  O  O23  1  0.750000  0.943650  0.458534  1
  O  O24  1  0.250000  0.928218  0.959272  1
  O  O25  1  0.750000  0.787162  0.116779  1
  O  O26  1  0.250000  0.760606  0.382219  1
  O  O27  1  0.750000  0.739394  0.882219  1
  O  O28  1  0.250000  0.712838  0.616779  1
  O  O29  1  0.750000  0.571782  0.459272  1
  O  O30  1  0.250000  0.556350  0.958534  1
  O  O31  1  0.250000  0.514282  0.205316  1
