# generated using pymatgen
data_Fe2HgO4
_symmetry_space_group_name_H-M   'P 1'
_cell_length_a   6.31133592
_cell_length_b   6.31133592
_cell_length_c   6.31133592
_cell_angle_alpha   60.00000000
_cell_angle_beta   60.00000000
_cell_angle_gamma   60.00000000
_symmetry_Int_Tables_number   1
_chemical_formula_structural   Fe2HgO4
_chemical_formula_sum   'Fe4 Hg2 O8'
_cell_volume   177.76607812
_cell_formula_units_Z   2
loop_
 _symmetry_equiv_pos_site_id
 _symmetry_equiv_pos_as_xyz
  1  'x, y, z'
loop_
 _atom_site_type_symbol
 _atom_site_label
 _atom_site_symmetry_multiplicity
 _atom_site_fract_x
 _atom_site_fract_y
 _atom_site_fract_z
 _atom_site_occupancy
  Fe  Fe0  1  0.125000  0.125000  0.125000  1
  Fe  Fe1  1  0.625000  0.125000  0.125000  1
  Fe  Fe2  1  0.125000  0.125000  0.625000  1
  Fe  Fe3  1  0.125000  0.625000  0.125000  1
  Hg  Hg4  1  0.500000  0.500000  0.500000  1
  Hg  Hg5  1  0.750000  0.750000  0.750000  1
  O  O6  1  0.355513  0.933462  0.355513  1
  O  O7  1  0.355513  0.355513  0.933462  1
  O  O8  1  0.933462  0.355513  0.355513  1
  O  O9  1  0.355513  0.355513  0.355513  1
  O  O10  1  0.894487  0.894487  0.894487  1
  O  O11  1  0.316538  0.894487  0.894487  1
  O  O12  1  0.894487  0.316538  0.894487  1
  O  O13  1  0.894487  0.894487  0.316538  1
