# generated using pymatgen
data_Li4Fe3Ni2Sn3O16
_symmetry_space_group_name_H-M   'P 1'
_cell_length_a   6.08379118
_cell_length_b   6.08379118
_cell_length_c   9.75177399
_cell_angle_alpha   89.03135991
_cell_angle_beta   90.96864009
_cell_angle_gamma   119.87963983
_symmetry_Int_Tables_number   1
_chemical_formula_structural   Li4Fe3Ni2Sn3O16
_chemical_formula_sum   'Li4 Fe3 Ni2 Sn3 O16'
_cell_volume   312.89991499
_cell_formula_units_Z   1
loop_
 _symmetry_equiv_pos_site_id
 _symmetry_equiv_pos_as_xyz
  1  'x, y, z'
loop_
 _atom_site_type_symbol
 _atom_site_label
 _atom_site_symmetry_multiplicity
 _atom_site_fract_x
 _atom_site_fract_y
 _atom_site_fract_z
 _atom_site_occupancy
  Li  Li0  1  0.325639  0.674361  0.884953  1
  Li  Li1  1  0.016444  0.983556  0.995516  1
  Li  Li2  1  0.013791  0.986209  0.501539  1
  Li  Li3  1  0.659890  0.340110  0.394687  1
  Fe  Fe4  1  0.167640  0.832360  0.217853  1
  Fe  Fe5  1  0.828655  0.662756  0.715179  1
  Fe  Fe6  1  0.337244  0.171345  0.715179  1
  Ni  Ni7  1  0.333567  0.666433  0.492777  1
  Ni  Ni8  1  0.667112  0.332888  0.988001  1
  Sn  Sn9  1  0.660328  0.832855  0.213789  1
  Sn  Sn10  1  0.167145  0.339672  0.213789  1
  Sn  Sn11  1  0.829510  0.170490  0.712245  1
  O  O12  1  0.685238  0.832396  0.600182  1
  O  O13  1  0.480330  0.519670  0.342157  1
  O  O14  1  0.328470  0.671530  0.096033  1
  O  O15  1  0.999650  0.000350  0.319508  1
  O  O16  1  0.002825  0.997175  0.813888  1
  O  O17  1  0.167604  0.314762  0.600182  1
  O  O18  1  0.467836  0.967420  0.335209  1
  O  O19  1  0.032580  0.532164  0.335209  1
  O  O20  1  0.842021  0.157979  0.091905  1
  O  O21  1  0.163858  0.836142  0.612929  1
  O  O22  1  0.958167  0.492990  0.836014  1
  O  O23  1  0.507010  0.041833  0.836014  1
  O  O24  1  0.660697  0.339303  0.600178  1
  O  O25  1  0.852126  0.679547  0.106159  1
  O  O26  1  0.516882  0.483118  0.830679  1
  O  O27  1  0.320453  0.147874  0.106159  1
