# generated using pymatgen
data_Li5La3Nb2O12
_symmetry_space_group_name_H-M   'P 1'
_cell_length_a   11.12537848
_cell_length_b   11.14377133
_cell_length_c   11.16219282
_cell_angle_alpha   109.44411853
_cell_angle_beta   109.69358028
_cell_angle_gamma   109.07780939
_symmetry_Int_Tables_number   1
_chemical_formula_structural   Li5La3Nb2O12
_chemical_formula_sum   'Li20 La12 Nb8 O48'
_cell_volume   1067.88042656
_cell_formula_units_Z   4
loop_
 _symmetry_equiv_pos_site_id
 _symmetry_equiv_pos_as_xyz
  1  'x, y, z'
loop_
 _atom_site_type_symbol
 _atom_site_label
 _atom_site_symmetry_multiplicity
 _atom_site_fract_x
 _atom_site_fract_y
 _atom_site_fract_z
 _atom_site_occupancy
  Li  Li0  1  0.750632  0.932262  0.042245  1
  Li  Li1  1  0.432531  0.684074  0.887164  1
  Li  Li2  1  0.045497  0.108500  0.296559  1
  Li  Li3  1  0.536866  0.748422  0.427959  1
  Li  Li4  1  0.704167  0.819174  0.749863  1
  Li  Li5  1  0.387165  0.443776  0.192423  1
  Li  Li6  1  0.319495  0.608931  0.071057  1
  Li  Li7  1  0.069201  0.450725  0.751442  1
  Li  Li8  1  0.179394  0.754654  0.788419  1
  Li  Li9  1  0.889326  0.206421  0.455206  1
  Li  Li10  1  0.250803  0.697476  0.308559  1
  Li  Li11  1  0.797020  0.048016  0.616653  1
  Li  Li12  1  0.214878  0.970552  0.388552  1
  Li  Li13  1  0.743915  0.294661  0.685073  1
  Li  Li14  1  0.114123  0.806202  0.554827  1
  Li  Li15  1  0.913730  0.527444  0.241690  1
  Li  Li16  1  0.612972  0.561333  0.816131  1
  Li  Li17  1  0.293540  0.180314  0.250759  1
  Li  Li18  1  0.974054  0.890315  0.715849  1
  Li  Li19  1  0.581497  0.325867  0.113675  1
  La  La20  1  0.256582  0.371440  0.623158  1
  La  La21  1  0.628295  0.880024  0.249072  1
  La  La22  1  0.130141  0.245651  0.878788  1
  La  La23  1  0.380475  0.753237  0.629534  1
  La  La24  1  0.118263  0.373124  0.248719  1
  La  La25  1  0.249233  0.867382  0.114825  1
  La  La26  1  0.870071  0.619958  0.749238  1
  La  La27  1  0.619737  0.248018  0.368095  1
  La  La28  1  0.748585  0.138091  0.891602  1
  La  La29  1  0.879853  0.746437  0.129487  1
  La  La30  1  0.750245  0.635028  0.385207  1
  La  La31  1  0.383989  0.133534  0.755552  1
  Nb  Nb32  1  0.505702  0.502421  0.002761  1
  Nb  Nb33  1  0.999719  0.001229  0.499924  1
  Nb  Nb34  1  0.497884  0.494455  0.499355  1
  Nb  Nb35  1  0.004956  0.000541  0.999666  1
  Nb  Nb36  1  0.996766  0.497926  0.996044  1
  Nb  Nb37  1  0.498757  0.003492  0.500701  1
  Nb  Nb38  1  0.998430  0.495869  0.496583  1
  Nb  Nb39  1  0.496857  0.002792  0.003019  1
  O  O40  1  0.884727  0.972942  0.295938  1
  O  O41  1  0.476238  0.588406  0.676982  1
  O  O42  1  0.296170  0.325692  0.409534  1
  O  O43  1  0.618863  0.699438  0.019723  1
  O  O44  1  0.796906  0.889743  0.474217  1
  O  O45  1  0.517652  0.620362  0.198978  1
  O  O46  1  0.303682  0.482546  0.887045  1
  O  O47  1  0.407720  0.820046  0.020695  1
  O  O48  1  0.198163  0.583041  0.678081  1
  O  O49  1  0.029255  0.325463  0.415680  1
  O  O50  1  0.594916  0.915607  0.614636  1
  O  O51  1  0.174500  0.202172  0.087946  1
  O  O52  1  0.022841  0.199407  0.617428  1
  O  O53  1  0.383167  0.585521  0.408493  1
  O  O54  1  0.422495  0.820029  0.304232  1
  O  O55  1  0.589605  0.913301  0.886939  1
  O  O56  1  0.177940  0.474740  0.090626  1
  O  O57  1  0.909968  0.019890  0.822331  1
  O  O58  1  0.089760  0.609517  0.909849  1
  O  O59  1  0.669424  0.080620  0.199870  1
  O  O60  1  0.884547  0.399724  0.578758  1
  O  O61  1  0.913422  0.298982  0.824156  1
  O  O62  1  0.320723  0.906665  0.517528  1
  O  O63  1  0.921088  0.110436  0.096159  1
  O  O64  1  0.073429  0.872675  0.900165  1
  O  O65  1  0.678343  0.100634  0.483409  1
  O  O66  1  0.089897  0.700778  0.174163  1
  O  O67  1  0.110472  0.592471  0.415244  1
  O  O68  1  0.326278  0.907806  0.791755  1
  O  O69  1  0.916346  0.389590  0.087553  1
  O  O70  1  0.101800  0.981632  0.179299  1
  O  O71  1  0.829475  0.531637  0.911590  1
  O  O72  1  0.413130  0.085733  0.116124  1
  O  O73  1  0.584872  0.169002  0.699704  1
  O  O74  1  0.617201  0.415261  0.586107  1
  O  O75  1  0.822570  0.805720  0.922065  1
  O  O76  1  0.399657  0.070324  0.373240  1
  O  O77  1  0.973167  0.799104  0.388312  1
  O  O78  1  0.984435  0.680751  0.602344  1
  O  O79  1  0.802298  0.429043  0.330302  1
  O  O80  1  0.579302  0.171451  0.971658  1
  O  O81  1  0.702126  0.530657  0.129841  1
  O  O82  1  0.475310  0.389332  0.805255  1
  O  O83  1  0.190869  0.113075  0.515605  1
  O  O84  1  0.392595  0.312091  0.986917  1
  O  O85  1  0.697748  0.676764  0.587581  1
  O  O86  1  0.522122  0.411726  0.323188  1
  O  O87  1  0.116043  0.020086  0.692922  1
