# generated using pymatgen
data_SbH(OF3)2
_symmetry_space_group_name_H-M   'P 1'
_cell_length_a   5.17411271
_cell_length_b   7.30153432
_cell_length_c   8.13495542
_cell_angle_alpha   90.93953180
_cell_angle_beta   97.22151282
_cell_angle_gamma   91.96796882
_symmetry_Int_Tables_number   1
_chemical_formula_structural   SbH(OF3)2
_chemical_formula_sum   'Sb2 H2 O4 F12'
_cell_volume   304.64595604
_cell_formula_units_Z   2
loop_
 _symmetry_equiv_pos_site_id
 _symmetry_equiv_pos_as_xyz
  1  'x, y, z'
loop_
 _atom_site_type_symbol
 _atom_site_label
 _atom_site_symmetry_multiplicity
 _atom_site_fract_x
 _atom_site_fract_y
 _atom_site_fract_z
 _atom_site_occupancy
  Sb  Sb0  1  0.539612  0.734475  0.772871  1
  Sb  Sb1  1  0.460388  0.265525  0.227129  1
  H  H2  1  0.150914  0.916447  0.146517  1
  H  H3  1  0.849086  0.083553  0.853483  1
  O  O4  1  0.010312  0.745511  0.225200  1
  O  O5  1  0.081971  0.738203  0.374783  1
  O  O6  1  0.918029  0.261797  0.625217  1
  O  O7  1  0.989688  0.254489  0.774800  1
  F  F8  1  0.150377  0.384504  0.148810  1
  F  F9  1  0.282966  0.912117  0.722776  1
  F  F10  1  0.224742  0.027956  0.101096  1
  F  F11  1  0.349734  0.526687  0.675463  1
  F  F12  1  0.309441  0.194648  0.418001  1
  F  F13  1  0.436881  0.716952  0.988341  1
  F  F14  1  0.563119  0.283048  0.011659  1
  F  F15  1  0.690559  0.805352  0.581999  1
  F  F16  1  0.650266  0.473313  0.324537  1
  F  F17  1  0.775258  0.972044  0.898904  1
  F  F18  1  0.717034  0.087883  0.277224  1
  F  F19  1  0.849623  0.615496  0.851190  1
