# generated using pymatgen
data_LiMnF4
_symmetry_space_group_name_H-M   'P 1'
_cell_length_a   6.01427897
_cell_length_b   10.17929195
_cell_length_c   10.18653248
_cell_angle_alpha   85.01442788
_cell_angle_beta   72.82830850
_cell_angle_gamma   72.90055580
_symmetry_Int_Tables_number   1
_chemical_formula_structural   LiMnF4
_chemical_formula_sum   'Li8 Mn8 F32'
_cell_volume   569.49375292
_cell_formula_units_Z   8
loop_
 _symmetry_equiv_pos_site_id
 _symmetry_equiv_pos_as_xyz
  1  'x, y, z'
loop_
 _atom_site_type_symbol
 _atom_site_label
 _atom_site_symmetry_multiplicity
 _atom_site_fract_x
 _atom_site_fract_y
 _atom_site_fract_z
 _atom_site_occupancy
  Li  Li0  1  0.122753  0.749175  0.998606  1
  Li  Li1  1  0.126927  0.249908  0.498106  1
  Li  Li2  1  0.628697  0.999906  0.751548  1
  Li  Li3  1  0.878326  0.503080  0.749929  1
  Li  Li4  1  0.125394  0.495602  0.251581  1
  Li  Li5  1  0.372757  0.002823  0.250262  1
  Li  Li6  1  0.866914  0.753659  0.503943  1
  Li  Li7  1  0.878204  0.250517  0.003404  1
  Mn  Mn8  1  0.363050  0.255199  0.000723  1
  Mn  Mn9  1  0.634898  0.501243  0.253836  1
  Mn  Mn10  1  0.118603  0.000983  0.753356  1
  Mn  Mn11  1  0.376577  0.754591  0.498887  1
  Mn  Mn12  1  0.620496  0.244784  0.499943  1
  Mn  Mn13  1  0.883337  0.998988  0.244505  1
  Mn  Mn14  1  0.364407  0.499708  0.744732  1
  Mn  Mn15  1  0.636740  0.744920  0.999786  1
  F  F16  1  0.506771  0.342463  0.902667  1
  F  F17  1  0.138132  0.600427  0.834561  1
  F  F18  1  0.132666  0.411239  0.647174  1
  F  F19  1  0.348572  0.100077  0.839678  1
  F  F20  1  0.099485  0.099034  0.334943  1
  F  F21  1  0.043934  0.353254  0.912822  1
  F  F22  1  0.950355  0.159308  0.597794  1
  F  F23  1  0.760458  0.344227  0.411735  1
  F  F24  1  0.691205  0.154983  0.086602  1
  F  F25  1  0.508053  0.852598  0.409236  1
  F  F26  1  0.766158  0.835059  0.901317  1
  F  F27  1  0.693821  0.665730  0.599114  1
  F  F28  1  0.896950  0.090515  0.850727  1
  F  F29  1  0.392304  0.414961  0.154475  1
  F  F30  1  0.655417  0.086644  0.344323  1
  F  F31  1  0.393487  0.598601  0.341127  1
  F  F32  1  0.605439  0.402032  0.657391  1
  F  F33  1  0.345580  0.914434  0.652855  1
  F  F34  1  0.605706  0.587276  0.843258  1
  F  F35  1  0.105199  0.910532  0.146900  1
  F  F36  1  0.304186  0.334298  0.399858  1
  F  F37  1  0.237206  0.165245  0.101459  1
  F  F38  1  0.487647  0.147522  0.589281  1
  F  F39  1  0.310658  0.845263  0.910597  1
  F  F40  1  0.236653  0.654872  0.586508  1
  F  F41  1  0.046895  0.840699  0.401317  1
  F  F42  1  0.954059  0.647343  0.090687  1
  F  F43  1  0.901181  0.901206  0.663630  1
  F  F44  1  0.650249  0.902388  0.156857  1
  F  F45  1  0.866794  0.588449  0.352477  1
  F  F46  1  0.859355  0.401205  0.162683  1
  F  F47  1  0.487747  0.658857  0.096032  1
