# generated using pymatgen
data_Ca4Ta2O9
_symmetry_space_group_name_H-M   'P 1'
_cell_length_a   5.69076691
_cell_length_b   9.83352456
_cell_length_c   14.94847833
_cell_angle_alpha   90.00000000
_cell_angle_beta   90.00000000
_cell_angle_gamma   90.00000000
_symmetry_Int_Tables_number   1
_chemical_formula_structural   Ca4Ta2O9
_chemical_formula_sum   'Ca16 Ta8 O36'
_cell_volume   836.52127471
_cell_formula_units_Z   4
loop_
 _symmetry_equiv_pos_site_id
 _symmetry_equiv_pos_as_xyz
  1  'x, y, z'
loop_
 _atom_site_type_symbol
 _atom_site_label
 _atom_site_symmetry_multiplicity
 _atom_site_fract_x
 _atom_site_fract_y
 _atom_site_fract_z
 _atom_site_occupancy
  Ca  Ca0  1  0.005780  0.336114  0.702644  1
  Ca  Ca1  1  0.005780  0.663886  0.797356  1
  Ca  Ca2  1  0.011563  0.664109  0.512445  1
  Ca  Ca3  1  0.011563  0.335891  0.987555  1
  Ca  Ca4  1  0.488437  0.164109  0.487555  1
  Ca  Ca5  1  0.488437  0.835891  0.012445  1
  Ca  Ca6  1  0.494220  0.836114  0.297356  1
  Ca  Ca7  1  0.494220  0.163886  0.202644  1
  Ca  Ca8  1  0.505780  0.836114  0.797356  1
  Ca  Ca9  1  0.505780  0.163886  0.702644  1
  Ca  Ca10  1  0.511563  0.164109  0.987555  1
  Ca  Ca11  1  0.511563  0.835891  0.512445  1
  Ca  Ca12  1  0.988437  0.335891  0.487555  1
  Ca  Ca13  1  0.988437  0.664109  0.012445  1
  Ca  Ca14  1  0.994220  0.663886  0.297356  1
  Ca  Ca15  1  0.994220  0.336114  0.202644  1
  Ta  Ta16  1  0.003247  0.005247  0.852672  1
  Ta  Ta17  1  0.003247  0.994753  0.647328  1
  Ta  Ta18  1  0.496753  0.494753  0.352672  1
  Ta  Ta19  1  0.496753  0.505247  0.147328  1
  Ta  Ta20  1  0.503247  0.505247  0.647328  1
  Ta  Ta21  1  0.503247  0.494753  0.852672  1
  Ta  Ta22  1  0.996753  0.005247  0.352672  1
  Ta  Ta23  1  0.996753  0.994753  0.147328  1
  O  O24  1  0.125676  0.131514  0.252949  1
  O  O25  1  0.125676  0.868486  0.247051  1
  O  O26  1  0.152071  0.852098  0.583981  1
  O  O27  1  0.152071  0.147902  0.916019  1
  O  O28  1  0.195280  0.487365  0.592500  1
  O  O29  1  0.195280  0.512635  0.907500  1
  O  O30  1  0.165647  0.157654  0.598211  1
  O  O31  1  0.165647  0.842346  0.901789  1
  O  O32  1  0.237146  0.500000  0.250000  1
  O  O33  1  0.262854  0.000000  0.750000  1
  O  O34  1  0.334353  0.342346  0.098211  1
  O  O35  1  0.334353  0.657654  0.401789  1
  O  O36  1  0.304720  0.987365  0.407500  1
  O  O37  1  0.304720  0.012635  0.092500  1
  O  O38  1  0.347929  0.352098  0.416019  1
  O  O39  1  0.347929  0.647902  0.083981  1
  O  O40  1  0.374324  0.368486  0.752949  1
  O  O41  1  0.374324  0.631514  0.747051  1
  O  O42  1  0.625676  0.631514  0.247051  1
  O  O43  1  0.625676  0.368486  0.252949  1
  O  O44  1  0.652071  0.647902  0.583981  1
  O  O45  1  0.652071  0.352098  0.916019  1
  O  O46  1  0.695280  0.012635  0.592500  1
  O  O47  1  0.695280  0.987365  0.907500  1
  O  O48  1  0.665647  0.342346  0.598211  1
  O  O49  1  0.665647  0.657654  0.901789  1
  O  O50  1  0.737146  0.000000  0.250000  1
  O  O51  1  0.762854  0.500000  0.750000  1
  O  O52  1  0.834353  0.157654  0.098211  1
  O  O53  1  0.834353  0.842346  0.401789  1
  O  O54  1  0.804720  0.487365  0.092500  1
  O  O55  1  0.804720  0.512635  0.407500  1
  O  O56  1  0.847929  0.147902  0.416019  1
  O  O57  1  0.847929  0.852098  0.083981  1
  O  O58  1  0.874324  0.131514  0.752949  1
  O  O59  1  0.874324  0.868486  0.747051  1
