# generated using pymatgen
data_Mn3Cr5O16
_symmetry_space_group_name_H-M   'P 1'
_cell_length_a   5.82423233
_cell_length_b   5.82423233
_cell_length_c   8.87886715
_cell_angle_alpha   89.78914700
_cell_angle_beta   90.21085300
_cell_angle_gamma   120.12975833
_symmetry_Int_Tables_number   1
_chemical_formula_structural   Mn3Cr5O16
_chemical_formula_sum   'Mn3 Cr5 O16'
_cell_volume   260.49075496
_cell_formula_units_Z   1
loop_
 _symmetry_equiv_pos_site_id
 _symmetry_equiv_pos_as_xyz
  1  'x, y, z'
loop_
 _atom_site_type_symbol
 _atom_site_label
 _atom_site_symmetry_multiplicity
 _atom_site_fract_x
 _atom_site_fract_y
 _atom_site_fract_z
 _atom_site_occupancy
  Mn  Mn0  1  0.828661  0.171339  0.212958  1
  Mn  Mn1  1  0.168144  0.338259  0.711665  1
  Mn  Mn2  1  0.661741  0.831856  0.711665  1
  Cr  Cr3  1  0.329135  0.168575  0.207185  1
  Cr  Cr4  1  0.669884  0.330116  0.488673  1
  Cr  Cr5  1  0.831425  0.670865  0.207185  1
  Cr  Cr6  1  0.164104  0.835896  0.704241  1
  Cr  Cr7  1  0.333025  0.666975  0.986689  1
  O  O8  1  0.338150  0.165701  0.604387  1
  O  O9  1  0.527650  0.472350  0.336876  1
  O  O10  1  0.669253  0.330747  0.098455  1
  O  O11  1  0.995685  0.004315  0.317034  1
  O  O12  1  0.996220  0.003780  0.816606  1
  O  O13  1  0.834299  0.661850  0.604387  1
  O  O14  1  0.522481  0.045655  0.339251  1
  O  O15  1  0.954345  0.477519  0.339251  1
  O  O16  1  0.172316  0.827684  0.107417  1
  O  O17  1  0.830717  0.169283  0.601151  1
  O  O18  1  0.047185  0.523686  0.837702  1
  O  O19  1  0.476314  0.952815  0.837702  1
  O  O20  1  0.337109  0.662891  0.599227  1
  O  O21  1  0.171858  0.338789  0.103906  1
  O  O22  1  0.478694  0.521306  0.838414  1
  O  O23  1  0.661211  0.828142  0.103906  1
