# generated using pymatgen
data_Li2Mn4OF8
_symmetry_space_group_name_H-M   'P 1'
_cell_length_a   5.44894981
_cell_length_b   5.44894981
_cell_length_c   14.68950133
_cell_angle_alpha   89.28651969
_cell_angle_beta   90.71348031
_cell_angle_gamma   120.96474181
_symmetry_Int_Tables_number   1
_chemical_formula_structural   Li2Mn4OF8
_chemical_formula_sum   'Li4 Mn8 O2 F16'
_cell_volume   373.95062660
_cell_formula_units_Z   2
loop_
 _symmetry_equiv_pos_site_id
 _symmetry_equiv_pos_as_xyz
  1  'x, y, z'
loop_
 _atom_site_type_symbol
 _atom_site_label
 _atom_site_symmetry_multiplicity
 _atom_site_fract_x
 _atom_site_fract_y
 _atom_site_fract_z
 _atom_site_occupancy
  Li  Li0  1  0.999359  0.008406  0.155798  1
  Li  Li1  1  0.986134  0.966167  0.366014  1
  Li  Li2  1  0.991594  0.000641  0.655798  1
  Li  Li3  1  0.033833  0.013866  0.866014  1
  Mn  Mn4  1  0.644330  0.324335  0.019942  1
  Mn  Mn5  1  0.682653  0.344460  0.316742  1
  Mn  Mn6  1  0.655540  0.317347  0.816742  1
  Mn  Mn7  1  0.675665  0.355670  0.519942  1
  Mn  Mn8  1  0.329117  0.671519  0.185083  1
  Mn  Mn9  1  0.328481  0.670883  0.685083  1
  Mn  Mn10  1  0.344868  0.692152  0.967190  1
  Mn  Mn11  1  0.307848  0.655132  0.467190  1
  O  O12  1  0.385491  0.054379  0.917990  1
  O  O13  1  0.945621  0.614509  0.417990  1
  F  F14  1  0.303059  0.300927  0.747968  1
  F  F15  1  0.335943  0.302493  0.417408  1
  F  F16  1  0.697507  0.664057  0.917408  1
  F  F17  1  0.699073  0.696941  0.247968  1
  F  F18  1  0.990580  0.679837  0.745424  1
  F  F19  1  0.667359  0.011393  0.416146  1
  F  F20  1  0.021141  0.660766  0.084076  1
  F  F21  1  0.320163  0.009420  0.245424  1
  F  F22  1  0.988607  0.332641  0.916146  1
  F  F23  1  0.339234  0.978859  0.584076  1
  F  F24  1  0.033966  0.354655  0.587304  1
  F  F25  1  0.998440  0.300838  0.245991  1
  F  F26  1  0.317465  0.369048  0.083689  1
  F  F27  1  0.645345  0.966034  0.087304  1
  F  F28  1  0.699162  0.001560  0.745991  1
  F  F29  1  0.630952  0.682535  0.583689  1
