# generated using pymatgen
data_NbOF3
_symmetry_space_group_name_H-M   'P 1'
_cell_length_a   9.35749126
_cell_length_b   9.35749126
_cell_length_c   3.86005484
_cell_angle_alpha   90.00000000
_cell_angle_beta   90.00000000
_cell_angle_gamma   90.00000000
_symmetry_Int_Tables_number   1
_chemical_formula_structural   NbOF3
_chemical_formula_sum   'Nb4 O4 F12'
_cell_volume   337.99660269
_cell_formula_units_Z   4
loop_
 _symmetry_equiv_pos_site_id
 _symmetry_equiv_pos_as_xyz
  1  'x, y, z'
loop_
 _atom_site_type_symbol
 _atom_site_label
 _atom_site_symmetry_multiplicity
 _atom_site_fract_x
 _atom_site_fract_y
 _atom_site_fract_z
 _atom_site_occupancy
  Nb  Nb0  1  0.368739  0.631261  0.000000  1
  Nb  Nb1  1  0.868739  0.868739  0.500000  1
  Nb  Nb2  1  0.131261  0.131261  0.500000  1
  Nb  Nb3  1  0.631261  0.368739  0.000000  1
  O  O4  1  0.384920  0.615080  0.500000  1
  O  O5  1  0.884920  0.884920  0.000000  1
  O  O6  1  0.115080  0.115080  0.000000  1
  O  O7  1  0.615080  0.384920  0.500000  1
  F  F8  1  0.594660  0.594660  0.000000  1
  F  F9  1  0.169293  0.607461  0.000000  1
  F  F10  1  0.892539  0.669293  0.500000  1
  F  F11  1  0.392539  0.830707  0.000000  1
  F  F12  1  0.669293  0.892539  0.500000  1
  F  F13  1  0.094660  0.905340  0.500000  1
  F  F14  1  0.905340  0.094660  0.500000  1
  F  F15  1  0.330707  0.107461  0.500000  1
  F  F16  1  0.607461  0.169293  0.000000  1
  F  F17  1  0.107461  0.330707  0.500000  1
  F  F18  1  0.830707  0.392539  0.000000  1
  F  F19  1  0.405340  0.405340  0.000000  1
