# generated using pymatgen
data_Li3Mn2(PO4)3
_symmetry_space_group_name_H-M   'P 1'
_cell_length_a   8.55590288
_cell_length_b   8.78739925
_cell_length_c   14.88030866
_cell_angle_alpha   90.00000000
_cell_angle_beta   123.15088150
_cell_angle_gamma   90.00000000
_symmetry_Int_Tables_number   1
_chemical_formula_structural   Li3Mn2(PO4)3
_chemical_formula_sum   'Li12 Mn8 P12 O48'
_cell_volume   936.66588086
_cell_formula_units_Z   4
loop_
 _symmetry_equiv_pos_site_id
 _symmetry_equiv_pos_as_xyz
  1  'x, y, z'
loop_
 _atom_site_type_symbol
 _atom_site_label
 _atom_site_symmetry_multiplicity
 _atom_site_fract_x
 _atom_site_fract_y
 _atom_site_fract_z
 _atom_site_occupancy
  Li  Li0  1  0.357828  0.934275  0.294458  1
  Li  Li1  1  0.044365  0.222845  0.823563  1
  Li  Li2  1  0.390121  0.265506  0.186736  1
  Li  Li3  1  0.609879  0.765506  0.313264  1
  Li  Li4  1  0.955635  0.722845  0.676437  1
  Li  Li5  1  0.642172  0.434275  0.205542  1
  Li  Li6  1  0.357828  0.565725  0.794458  1
  Li  Li7  1  0.044365  0.277155  0.323563  1
  Li  Li8  1  0.390121  0.234494  0.686736  1
  Li  Li9  1  0.609879  0.734494  0.813264  1
  Li  Li10  1  0.955635  0.777155  0.176437  1
  Li  Li11  1  0.642172  0.065725  0.705542  1
  Mn  Mn12  1  0.647429  0.457582  0.398703  1
  Mn  Mn13  1  0.352571  0.957582  0.101297  1
  Mn  Mn14  1  0.133111  0.542879  0.888953  1
  Mn  Mn15  1  0.866889  0.042879  0.611047  1
  Mn  Mn16  1  0.133111  0.957121  0.388953  1
  Mn  Mn17  1  0.866889  0.457121  0.111047  1
  Mn  Mn18  1  0.647429  0.042418  0.898703  1
  Mn  Mn19  1  0.352571  0.542418  0.601297  1
  P  P20  1  0.535389  0.750294  0.496091  1
  P  P21  1  0.247309  0.607339  0.141094  1
  P  P22  1  0.952774  0.903741  0.846707  1
  P  P23  1  0.047226  0.403741  0.653293  1
  P  P24  1  0.752691  0.107339  0.358906  1
  P  P25  1  0.464611  0.250294  0.003909  1
  P  P26  1  0.535389  0.749706  0.996091  1
  P  P27  1  0.247309  0.892661  0.641094  1
  P  P28  1  0.952774  0.596259  0.346707  1
  P  P29  1  0.047226  0.096259  0.153293  1
  P  P30  1  0.752691  0.392661  0.858906  1
  P  P31  1  0.464611  0.249706  0.503909  1
  O  O32  1  0.621900  0.131447  0.571309  1
  O  O33  1  0.491482  0.338409  0.423767  1
  O  O34  1  0.231290  0.092725  0.152687  1
  O  O35  1  0.908250  0.409584  0.835393  1
  O  O36  1  0.533442  0.650574  0.408901  1
  O  O37  1  0.156925  0.599553  0.019245  1
  O  O38  1  0.330868  0.772034  0.182479  1
  O  O39  1  0.909573  0.025970  0.758020  1
  O  O40  1  0.726687  0.826613  0.565642  1
  O  O41  1  0.967632  0.745282  0.811008  1
  O  O42  1  0.120937  0.958979  0.951261  1
  O  O43  1  0.402700  0.486755  0.200503  1
  O  O44  1  0.597300  0.986755  0.299497  1
  O  O45  1  0.879063  0.458979  0.548739  1
  O  O46  1  0.032368  0.245282  0.688992  1
  O  O47  1  0.273313  0.326613  0.934358  1
  O  O48  1  0.090427  0.525970  0.741980  1
  O  O49  1  0.669132  0.272034  0.317521  1
  O  O50  1  0.843075  0.099553  0.480755  1
  O  O51  1  0.466558  0.150574  0.091099  1
  O  O52  1  0.768710  0.592725  0.347313  1
  O  O53  1  0.091750  0.909584  0.664607  1
  O  O54  1  0.508518  0.838409  0.076233  1
  O  O55  1  0.378100  0.631447  0.928691  1
  O  O56  1  0.621900  0.368553  0.071309  1
  O  O57  1  0.491482  0.161591  0.923767  1
  O  O58  1  0.908250  0.090416  0.335393  1
  O  O59  1  0.231290  0.407275  0.652687  1
  O  O60  1  0.533442  0.849426  0.908901  1
  O  O61  1  0.156925  0.900447  0.519245  1
  O  O62  1  0.330868  0.727966  0.682479  1
  O  O63  1  0.909573  0.474030  0.258020  1
  O  O64  1  0.726687  0.673387  0.065642  1
  O  O65  1  0.967632  0.754718  0.311008  1
  O  O66  1  0.120937  0.541021  0.451261  1
  O  O67  1  0.402700  0.013245  0.700503  1
  O  O68  1  0.597300  0.513245  0.799497  1
  O  O69  1  0.879063  0.041021  0.048739  1
  O  O70  1  0.032368  0.254718  0.188992  1
  O  O71  1  0.273313  0.173387  0.434358  1
  O  O72  1  0.090427  0.974030  0.241980  1
  O  O73  1  0.669132  0.227966  0.817521  1
  O  O74  1  0.843075  0.400447  0.980755  1
  O  O75  1  0.466558  0.349426  0.591099  1
  O  O76  1  0.091750  0.590416  0.164607  1
  O  O77  1  0.768710  0.907275  0.847313  1
  O  O78  1  0.508518  0.661591  0.576233  1
  O  O79  1  0.378100  0.868553  0.428691  1
