# generated using pymatgen
data_LiMn2F6
_symmetry_space_group_name_H-M   'P 1'
_cell_length_a   4.76292991
_cell_length_b   4.75630805
_cell_length_c   10.63825786
_cell_angle_alpha   90.00000000
_cell_angle_beta   114.92214483
_cell_angle_gamma   90.00000000
_symmetry_Int_Tables_number   1
_chemical_formula_structural   LiMn2F6
_chemical_formula_sum   'Li2 Mn4 F12'
_cell_volume   218.55718308
_cell_formula_units_Z   2
loop_
 _symmetry_equiv_pos_site_id
 _symmetry_equiv_pos_as_xyz
  1  'x, y, z'
loop_
 _atom_site_type_symbol
 _atom_site_label
 _atom_site_symmetry_multiplicity
 _atom_site_fract_x
 _atom_site_fract_y
 _atom_site_fract_z
 _atom_site_occupancy
  Li  Li0  1  0.000000  0.000000  0.000000  1
  Li  Li1  1  0.000000  0.500000  0.500000  1
  Mn  Mn2  1  0.330196  0.500398  0.834034  1
  Mn  Mn3  1  0.669804  0.000398  0.665966  1
  Mn  Mn4  1  0.330196  0.999602  0.334034  1
  Mn  Mn5  1  0.669804  0.499602  0.165966  1
  F  F6  1  0.297040  0.696256  0.995290  1
  F  F7  1  0.037313  0.200131  0.833245  1
  F  F8  1  0.618247  0.797009  0.822816  1
  F  F9  1  0.962687  0.700131  0.666755  1
  F  F10  1  0.381753  0.297009  0.677184  1
  F  F11  1  0.702960  0.196256  0.504710  1
  F  F12  1  0.297040  0.803744  0.495290  1
  F  F13  1  0.618247  0.702991  0.322816  1
  F  F14  1  0.037313  0.299869  0.333245  1
  F  F15  1  0.381753  0.202991  0.177184  1
  F  F16  1  0.962687  0.799869  0.166755  1
  F  F17  1  0.702960  0.303744  0.004710  1
