# generated using pymatgen
data_Li3Cr(PO4)2
_symmetry_space_group_name_H-M   'P 1'
_cell_length_a   8.78851825
_cell_length_b   8.78851825
_cell_length_c   6.75112308
_cell_angle_alpha   90.00000000
_cell_angle_beta   90.00000000
_cell_angle_gamma   120.00000000
_symmetry_Int_Tables_number   1
_chemical_formula_structural   Li3Cr(PO4)2
_chemical_formula_sum   'Li9 Cr3 P6 O24'
_cell_volume   451.58340695
_cell_formula_units_Z   3
loop_
 _symmetry_equiv_pos_site_id
 _symmetry_equiv_pos_as_xyz
  1  'x, y, z'
loop_
 _atom_site_type_symbol
 _atom_site_label
 _atom_site_symmetry_multiplicity
 _atom_site_fract_x
 _atom_site_fract_y
 _atom_site_fract_z
 _atom_site_occupancy
  Li  Li0  1  0.372778  0.069813  0.232933  1
  Li  Li1  1  0.930187  0.302965  0.232933  1
  Li  Li2  1  0.000000  0.000000  0.000000  1
  Li  Li3  1  0.333333  0.666667  0.977021  1
  Li  Li4  1  0.302965  0.372778  0.767067  1
  Li  Li5  1  0.697035  0.627222  0.232933  1
  Li  Li6  1  0.666667  0.333333  0.022979  1
  Li  Li7  1  0.069813  0.697035  0.767067  1
  Li  Li8  1  0.627222  0.930187  0.767067  1
  Cr  Cr9  1  0.000000  0.000000  0.500000  1
  Cr  Cr10  1  0.333333  0.666667  0.548772  1
  Cr  Cr11  1  0.666667  0.333333  0.451228  1
  P  P12  1  0.025418  0.681305  0.254176  1
  P  P13  1  0.318695  0.344112  0.254176  1
  P  P14  1  0.655888  0.974582  0.254176  1
  P  P15  1  0.344112  0.025418  0.745824  1
  P  P16  1  0.681305  0.655888  0.745824  1
  P  P17  1  0.974582  0.318695  0.745824  1
  O  O18  1  0.143954  0.950495  0.703144  1
  O  O19  1  0.115089  0.716699  0.053664  1
  O  O20  1  0.156013  0.706735  0.420871  1
  O  O21  1  0.372321  0.862016  0.741145  1
  O  O22  1  0.137984  0.510305  0.741145  1
  O  O23  1  0.049505  0.193458  0.703144  1
  O  O24  1  0.550722  0.843987  0.420871  1
  O  O25  1  0.293265  0.449278  0.420871  1
  O  O26  1  0.193458  0.143954  0.296856  1
  O  O27  1  0.283301  0.398390  0.053664  1
  O  O28  1  0.601610  0.884911  0.053664  1
  O  O29  1  0.489695  0.627679  0.741145  1
  O  O30  1  0.510305  0.372321  0.258855  1
  O  O31  1  0.398390  0.115089  0.946336  1
  O  O32  1  0.716699  0.601610  0.946336  1
  O  O33  1  0.806542  0.856046  0.703144  1
  O  O34  1  0.706735  0.550722  0.579129  1
  O  O35  1  0.449278  0.156013  0.579129  1
  O  O36  1  0.950495  0.806542  0.296856  1
  O  O37  1  0.862016  0.489695  0.258855  1
  O  O38  1  0.627679  0.137984  0.258855  1
  O  O39  1  0.843987  0.293265  0.579129  1
  O  O40  1  0.884911  0.283301  0.946336  1
  O  O41  1  0.856046  0.049505  0.296856  1
