# generated using pymatgen
data_Li4P5HO15
_symmetry_space_group_name_H-M   'P 1'
_cell_length_a   6.72345434
_cell_length_b   7.34789563
_cell_length_c   11.54445721
_cell_angle_alpha   72.69883423
_cell_angle_beta   83.29545320
_cell_angle_gamma   85.40146572
_symmetry_Int_Tables_number   1
_chemical_formula_structural   Li4P5HO15
_chemical_formula_sum   'Li8 P10 H2 O30'
_cell_volume   540.18322468
_cell_formula_units_Z   2
loop_
 _symmetry_equiv_pos_site_id
 _symmetry_equiv_pos_as_xyz
  1  'x, y, z'
loop_
 _atom_site_type_symbol
 _atom_site_label
 _atom_site_symmetry_multiplicity
 _atom_site_fract_x
 _atom_site_fract_y
 _atom_site_fract_z
 _atom_site_occupancy
  Li  Li0  1  0.313445  0.311214  0.736318  1
  Li  Li1  1  0.424854  0.396538  0.176121  1
  Li  Li2  1  0.279064  0.287565  0.988083  1
  Li  Li3  1  0.385248  0.361244  0.444879  1
  Li  Li4  1  0.614752  0.638756  0.555121  1
  Li  Li5  1  0.720936  0.712435  0.011917  1
  Li  Li6  1  0.575146  0.603462  0.823879  1
  Li  Li7  1  0.686555  0.688786  0.263682  1
  P  P8  1  0.072490  0.656220  0.830162  1
  P  P9  1  0.200640  0.759587  0.227184  1
  P  P10  1  0.143951  0.721421  0.562963  1
  P  P11  1  0.390445  0.975056  0.359291  1
  P  P12  1  0.290914  0.875838  0.951848  1
  P  P13  1  0.709086  0.124162  0.048152  1
  P  P14  1  0.609555  0.024944  0.640709  1
  P  P15  1  0.856049  0.278579  0.437037  1
  P  P16  1  0.799360  0.240413  0.772816  1
  P  P17  1  0.927510  0.343780  0.169838  1
  H  H18  1  0.042067  0.296949  0.576935  1
  H  H19  1  0.957933  0.703051  0.423065  1
  O  O20  1  0.005396  0.283675  0.706592  1
  O  O21  1  0.056444  0.309811  0.482635  1
  O  O22  1  0.137783  0.394461  0.120128  1
  O  O23  1  0.168249  0.836489  0.085790  1
  O  O24  1  0.074571  0.772234  0.685368  1
  O  O25  1  0.119570  0.830593  0.878561  1
  O  O26  1  0.218378  0.920864  0.475722  1
  O  O27  1  0.271135  0.951515  0.250513  1
  O  O28  1  0.239995  0.504777  0.843909  1
  O  O29  1  0.304507  0.565402  0.571551  1
  O  O30  1  0.366175  0.606669  0.254376  1
  O  O31  1  0.421004  0.183239  0.333147  1
  O  O32  1  0.320364  0.085788  0.903810  1
  O  O33  1  0.537427  0.268323  0.046883  1
  O  O34  1  0.436242  0.168037  0.616220  1
  O  O35  1  0.563758  0.831963  0.383780  1
  O  O36  1  0.462573  0.731677  0.953117  1
  O  O37  1  0.679636  0.914212  0.096190  1
  O  O38  1  0.578996  0.816761  0.666853  1
  O  O39  1  0.633825  0.393331  0.745624  1
  O  O40  1  0.695493  0.434598  0.428449  1
  O  O41  1  0.760005  0.495223  0.156091  1
  O  O42  1  0.728865  0.048485  0.749487  1
  O  O43  1  0.781622  0.079136  0.524278  1
  O  O44  1  0.880430  0.169407  0.121439  1
  O  O45  1  0.925429  0.227766  0.314632  1
  O  O46  1  0.831751  0.163511  0.914210  1
  O  O47  1  0.862217  0.605539  0.879872  1
  O  O48  1  0.943556  0.690189  0.517365  1
  O  O49  1  0.994604  0.716325  0.293408  1
