# generated using pymatgen
data_VOF2
_symmetry_space_group_name_H-M   'P 1'
_cell_length_a   5.18897565
_cell_length_b   5.18808478
_cell_length_c   13.39848624
_cell_angle_alpha   89.83033837
_cell_angle_beta   90.55759424
_cell_angle_gamma   119.65070589
_symmetry_Int_Tables_number   1
_chemical_formula_structural   VOF2
_chemical_formula_sum   'V6 O6 F12'
_cell_volume   313.45223394
_cell_formula_units_Z   6
loop_
 _symmetry_equiv_pos_site_id
 _symmetry_equiv_pos_as_xyz
  1  'x, y, z'
loop_
 _atom_site_type_symbol
 _atom_site_label
 _atom_site_symmetry_multiplicity
 _atom_site_fract_x
 _atom_site_fract_y
 _atom_site_fract_z
 _atom_site_occupancy
  V  V0  1  0.968215  0.979888  0.506146  1
  V  V1  1  0.023908  0.007349  0.007167  1
  V  V2  1  0.355301  0.711223  0.173867  1
  V  V3  1  0.662054  0.354731  0.340360  1
  V  V4  1  0.368173  0.658552  0.672992  1
  V  V5  1  0.678522  0.309925  0.840842  1
  O  O6  1  0.242801  0.928586  0.081190  1
  O  O7  1  0.580163  0.585107  0.749179  1
  O  O8  1  0.743300  0.650388  0.414053  1
  O  O9  1  0.573794  0.995831  0.249248  1
  O  O10  1  0.675833  0.911998  0.578603  1
  O  O11  1  0.749036  0.091850  0.916105  1
  F  F12  1  0.387887  0.397925  0.248298  1
  F  F13  1  0.982106  0.590277  0.244708  1
  F  F14  1  0.084344  0.734107  0.583018  1
  F  F15  1  0.339177  0.279996  0.916384  1
  F  F16  1  0.325594  0.064135  0.417913  1
  F  F17  1  0.990177  0.397497  0.743404  1
  F  F18  1  0.072269  0.345517  0.083793  1
  F  F19  1  0.398457  0.999421  0.748961  1
  F  F20  1  0.268391  0.327874  0.580421  1
  F  F21  1  0.939422  0.684649  0.910368  1
  F  F22  1  0.656936  0.737191  0.080149  1
  F  F23  1  0.934139  0.255981  0.412831  1
