# generated using pymatgen
data_Fe6O5F7
_symmetry_space_group_name_H-M   'P 1'
_cell_length_a   4.78165039
_cell_length_b   5.69718886
_cell_length_c   7.83073137
_cell_angle_alpha   85.39924736
_cell_angle_beta   89.41118260
_cell_angle_gamma   88.87038220
_symmetry_Int_Tables_number   1
_chemical_formula_structural   Fe6O5F7
_chemical_formula_sum   'Fe6 O5 F7'
_cell_volume   212.58772615
_cell_formula_units_Z   1
loop_
 _symmetry_equiv_pos_site_id
 _symmetry_equiv_pos_as_xyz
  1  'x, y, z'
loop_
 _atom_site_type_symbol
 _atom_site_label
 _atom_site_symmetry_multiplicity
 _atom_site_fract_x
 _atom_site_fract_y
 _atom_site_fract_z
 _atom_site_occupancy
  Fe  Fe0  1  0.530158  0.847388  0.671576  1
  Fe  Fe1  1  0.532783  0.507915  0.001968  1
  Fe  Fe2  1  0.458861  0.186611  0.348972  1
  Fe  Fe3  1  0.987602  0.323520  0.676832  1
  Fe  Fe4  1  0.009954  0.651810  0.311550  1
  Fe  Fe5  1  0.975527  0.986617  0.992327  1
  O  O6  1  0.798983  0.045183  0.760758  1
  O  O7  1  0.802065  0.692318  0.108562  1
  O  O8  1  0.696647  0.541511  0.766125  1
  O  O9  1  0.299378  0.127916  0.567894  1
  O  O10  1  0.307698  0.462273  0.228137  1
  F  F11  1  0.805220  0.368636  0.432042  1
  F  F12  1  0.689660  0.201876  0.116837  1
  F  F13  1  0.700176  0.871136  0.427132  1
  F  F14  1  0.312127  0.792628  0.895995  1
  F  F15  1  0.203406  0.960718  0.235710  1
  F  F16  1  0.184762  0.627981  0.555648  1
  F  F17  1  0.204995  0.303965  0.901934  1
