# generated using pymatgen
data_Zr2N2O
_symmetry_space_group_name_H-M   'P 1'
_cell_length_a   8.86589434
_cell_length_b   8.87085945
_cell_length_c   8.87714681
_cell_angle_alpha   109.59068889
_cell_angle_beta   109.27898485
_cell_angle_gamma   109.40271658
_symmetry_Int_Tables_number   1
_chemical_formula_structural   Zr2N2O
_chemical_formula_sum   'Zr16 N16 O8'
_cell_volume   538.38406273
_cell_formula_units_Z   8
loop_
 _symmetry_equiv_pos_site_id
 _symmetry_equiv_pos_as_xyz
  1  'x, y, z'
loop_
 _atom_site_type_symbol
 _atom_site_label
 _atom_site_symmetry_multiplicity
 _atom_site_fract_x
 _atom_site_fract_y
 _atom_site_fract_z
 _atom_site_occupancy
  Zr  Zr0  1  0.239358  0.784498  0.967508  1
  Zr  Zr1  1  0.468112  0.254536  0.775943  1
  Zr  Zr2  1  0.001291  0.007237  0.988921  1
  Zr  Zr3  1  0.973795  0.249529  0.279749  1
  Zr  Zr4  1  0.500383  0.999405  0.502953  1
  Zr  Zr5  1  0.497518  0.497789  0.991306  1
  Zr  Zr6  1  0.748005  0.717164  0.542088  1
  Zr  Zr7  1  0.281153  0.031085  0.266477  1
  Zr  Zr8  1  0.714267  0.965705  0.746611  1
  Zr  Zr9  1  0.793320  0.534585  0.251056  1
  Zr  Zr10  1  0.212566  0.458462  0.747017  1
  Zr  Zr11  1  0.253933  0.288540  0.461038  1
  Zr  Zr12  1  0.001511  0.510782  0.499525  1
  Zr  Zr13  1  0.533826  0.756649  0.216311  1
  Zr  Zr14  1  0.028353  0.749719  0.715536  1
  Zr  Zr15  1  0.759172  0.212528  0.028224  1
  N  N16  1  0.992248  0.762748  0.969281  1
  N  N17  1  0.047513  0.531188  0.226351  1
  N  N18  1  0.742474  0.970171  0.482726  1
  N  N19  1  0.507135  0.037329  0.733813  1
  N  N20  1  0.230900  0.263786  0.229428  1
  N  N21  1  0.492657  0.957534  0.271072  1
  N  N22  1  0.725619  0.455266  0.531827  1
  N  N23  1  0.768583  0.735964  0.776301  1
  N  N24  1  0.238395  0.224186  0.729464  1
  N  N25  1  0.263300  0.033207  0.514713  1
  N  N26  1  0.034830  0.774726  0.450585  1
  N  N27  1  0.461328  0.511363  0.767567  1
  N  N28  1  0.775672  0.011486  0.951041  1
  N  N29  1  0.952287  0.467101  0.772654  1
  N  N30  1  0.273745  0.542547  0.463747  1
  N  N31  1  0.005545  0.234560  0.037374  1
  O  O32  1  0.720299  0.274464  0.264442  1
  O  O33  1  0.453931  0.723152  0.015920  1
  O  O34  1  0.754327  0.767907  0.272993  1
  O  O35  1  0.539228  0.489734  0.235074  1
  O  O36  1  0.966715  0.223722  0.548756  1
  O  O37  1  0.228699  0.989337  0.047246  1
  O  O38  1  0.274932  0.727097  0.738830  1
  O  O39  1  0.543070  0.273211  0.988533  1
