# generated using pymatgen
data_Li2CoSn3(PO4)6
_symmetry_space_group_name_H-M   'P 1'
_cell_length_a   8.79101910
_cell_length_b   8.79101910
_cell_length_c   8.79101910
_cell_angle_alpha   59.06873601
_cell_angle_beta   59.06873601
_cell_angle_gamma   59.06873601
_symmetry_Int_Tables_number   1
_chemical_formula_structural   Li2CoSn3(PO4)6
_chemical_formula_sum   'Li2 Co1 Sn3 P6 O24'
_cell_volume   470.19882333
_cell_formula_units_Z   1
loop_
 _symmetry_equiv_pos_site_id
 _symmetry_equiv_pos_as_xyz
  1  'x, y, z'
loop_
 _atom_site_type_symbol
 _atom_site_label
 _atom_site_symmetry_multiplicity
 _atom_site_fract_x
 _atom_site_fract_y
 _atom_site_fract_z
 _atom_site_occupancy
  Li  Li0  1  0.016840  0.016840  0.016840  1
  Li  Li1  1  0.501433  0.501433  0.501433  1
  Co  Co2  1  0.143182  0.143182  0.143182  1
  Sn  Sn3  1  0.857775  0.857775  0.857775  1
  Sn  Sn4  1  0.642875  0.642875  0.642875  1
  Sn  Sn5  1  0.355906  0.355906  0.355906  1
  P  P6  1  0.250044  0.532153  0.958823  1
  P  P7  1  0.958823  0.250044  0.532153  1
  P  P8  1  0.532153  0.958823  0.250044  1
  P  P9  1  0.449156  0.045404  0.758436  1
  P  P10  1  0.045404  0.758436  0.449156  1
  P  P11  1  0.758436  0.449156  0.045404  1
  O  O12  1  0.707549  0.479942  0.885755  1
  O  O13  1  0.479942  0.885755  0.707549  1
  O  O14  1  0.088726  0.725947  0.938041  1
  O  O15  1  0.885755  0.707549  0.479942  1
  O  O16  1  0.415605  0.551010  0.765897  1
  O  O17  1  0.198517  0.372079  0.996567  1
  O  O18  1  0.938041  0.088726  0.725947  1
  O  O19  1  0.765897  0.415605  0.551010  1
  O  O20  1  0.551010  0.765897  0.415605  1
  O  O21  1  0.614456  0.011424  0.799906  1
  O  O22  1  0.262183  0.062670  0.927357  1
  O  O23  1  0.011424  0.799906  0.614456  1
  O  O24  1  0.996567  0.198517  0.372079  1
  O  O25  1  0.725947  0.938041  0.088726  1
  O  O26  1  0.372079  0.996567  0.198517  1
  O  O27  1  0.430016  0.235205  0.592061  1
  O  O28  1  0.235205  0.592061  0.430016  1
  O  O29  1  0.062670  0.927357  0.262183  1
  O  O30  1  0.799906  0.614456  0.011424  1
  O  O31  1  0.592061  0.430016  0.235205  1
  O  O32  1  0.108241  0.308144  0.510673  1
  O  O33  1  0.927357  0.262183  0.062670  1
  O  O34  1  0.510673  0.108241  0.308144  1
  O  O35  1  0.308144  0.510673  0.108241  1
