# generated using pymatgen
data_Mn5CuO12
_symmetry_space_group_name_H-M   'P 1'
_cell_length_a   5.08133020
_cell_length_b   5.08133020
_cell_length_c   9.66626304
_cell_angle_alpha   89.92956188
_cell_angle_beta   90.07043812
_cell_angle_gamma   59.83941244
_symmetry_Int_Tables_number   1
_chemical_formula_structural   Mn5CuO12
_chemical_formula_sum   'Mn5 Cu1 O12'
_cell_volume   215.79317776
_cell_formula_units_Z   1
loop_
 _symmetry_equiv_pos_site_id
 _symmetry_equiv_pos_as_xyz
  1  'x, y, z'
loop_
 _atom_site_type_symbol
 _atom_site_label
 _atom_site_symmetry_multiplicity
 _atom_site_fract_x
 _atom_site_fract_y
 _atom_site_fract_z
 _atom_site_occupancy
  Mn  Mn0  1  0.166601  0.166601  0.500000  1
  Mn  Mn1  1  0.666932  0.666932  0.000000  1
  Mn  Mn2  1  0.333068  0.333068  0.000000  1
  Mn  Mn3  1  0.833399  0.833399  0.500000  1
  Mn  Mn4  1  0.500000  0.500000  0.500000  1
  Cu  Cu5  1  0.000000  0.000000  0.000000  1
  O  O6  1  0.336567  0.000418  0.900095  1
  O  O7  1  0.000418  0.336567  0.099905  1
  O  O8  1  0.500186  0.166442  0.599305  1
  O  O9  1  0.833558  0.499814  0.599305  1
  O  O10  1  0.166442  0.500186  0.400695  1
  O  O11  1  0.832986  0.167014  0.400798  1
  O  O12  1  0.499814  0.833558  0.400695  1
  O  O13  1  0.999582  0.663433  0.900095  1
  O  O14  1  0.666420  0.333580  0.901246  1
  O  O15  1  0.663433  0.999582  0.099905  1
  O  O16  1  0.333580  0.666420  0.098754  1
  O  O17  1  0.167014  0.832986  0.599202  1
