# generated using pymatgen
data_Li8MnFe7(BO3)8
_symmetry_space_group_name_H-M   'P 1'
_cell_length_a   5.21893106
_cell_length_b   5.22749091
_cell_length_c   20.80410692
_cell_angle_alpha   91.73514256
_cell_angle_beta   89.14278539
_cell_angle_gamma   119.89879852
_symmetry_Int_Tables_number   1
_chemical_formula_structural   Li8MnFe7(BO3)8
_chemical_formula_sum   'Li8 Mn1 Fe7 B8 O24'
_cell_volume   491.80999294
_cell_formula_units_Z   1
loop_
 _symmetry_equiv_pos_site_id
 _symmetry_equiv_pos_as_xyz
  1  'x, y, z'
loop_
 _atom_site_type_symbol
 _atom_site_label
 _atom_site_symmetry_multiplicity
 _atom_site_fract_x
 _atom_site_fract_y
 _atom_site_fract_z
 _atom_site_occupancy
  Li  Li0  1  0.019539  0.672963  0.333258  1
  Li  Li1  1  0.981438  0.654066  0.083627  1
  Li  Li2  1  0.016080  0.670157  0.834920  1
  Li  Li3  1  0.977702  0.655597  0.582395  1
  Li  Li4  1  0.013807  0.355273  0.207912  1
  Li  Li5  1  0.987777  0.344349  0.458163  1
  Li  Li6  1  0.014911  0.345119  0.708286  1
  Li  Li7  1  0.987936  0.339682  0.958589  1
  Mn  Mn8  1  0.326376  0.326252  0.567504  1
  Fe  Fe9  1  0.653010  0.671869  0.439232  1
  Fe  Fe10  1  0.651523  0.672283  0.940306  1
  Fe  Fe11  1  0.321656  0.318761  0.066140  1
  Fe  Fe12  1  0.681682  0.001783  0.315338  1
  Fe  Fe13  1  0.679780  0.002119  0.815741  1
  Fe  Fe14  1  0.346155  0.011754  0.191111  1
  Fe  Fe15  1  0.330107  0.996485  0.692516  1
  B  B16  1  0.664355  0.995654  0.063249  1
  B  B17  1  0.659719  0.997404  0.563114  1
  B  B18  1  0.666006  0.671385  0.187804  1
  B  B19  1  0.668244  0.669020  0.689758  1
  B  B20  1  0.337929  0.332365  0.312554  1
  B  B21  1  0.336479  0.331197  0.813610  1
  B  B22  1  0.335820  0.008650  0.436748  1
  B  B23  1  0.331266  0.002965  0.938253  1
  O  O24  1  0.679164  0.935383  0.208238  1
  O  O25  1  0.683905  0.933807  0.709246  1
  O  O26  1  0.677285  0.740610  0.048249  1
  O  O27  1  0.398887  0.977177  0.082386  1
  O  O28  1  0.681148  0.747054  0.547217  1
  O  O29  1  0.391409  0.967419  0.584278  1
  O  O30  1  0.390961  0.422506  0.173538  1
  O  O31  1  0.080958  0.738504  0.429942  1
  O  O32  1  0.396010  0.419518  0.675304  1
  O  O33  1  0.077928  0.733012  0.931382  1
  O  O34  1  0.921876  0.658011  0.180479  1
  O  O35  1  0.922866  0.650061  0.682545  1
  O  O36  1  0.084843  0.355263  0.306959  1
  O  O37  1  0.083763  0.353924  0.807928  1
  O  O38  1  0.916991  0.271128  0.057377  1
  O  O39  1  0.603601  0.578751  0.331226  1
  O  O40  1  0.905830  0.274243  0.556428  1
  O  O41  1  0.601943  0.576787  0.832405  1
  O  O42  1  0.611782  0.034104  0.422062  1
  O  O43  1  0.608091  0.029168  0.923367  1
  O  O44  1  0.324908  0.259306  0.457465  1
  O  O45  1  0.322809  0.254931  0.958623  1
  O  O46  1  0.322639  0.062591  0.298074  1
  O  O47  1  0.321102  0.060789  0.798952  1
