# generated using pymatgen
data_SrLaMnSbO6
_symmetry_space_group_name_H-M   'P 1'
_cell_length_a   5.72723593
_cell_length_b   5.85985393
_cell_length_c   9.96340716
_cell_angle_alpha   90.00000000
_cell_angle_beta   125.13062600
_cell_angle_gamma   90.00000000
_symmetry_Int_Tables_number   1
_chemical_formula_structural   SrLaMnSbO6
_chemical_formula_sum   'Sr2 La2 Mn2 Sb2 O12'
_cell_volume   273.46974344
_cell_formula_units_Z   2
loop_
 _symmetry_equiv_pos_site_id
 _symmetry_equiv_pos_as_xyz
  1  'x, y, z'
loop_
 _atom_site_type_symbol
 _atom_site_label
 _atom_site_symmetry_multiplicity
 _atom_site_fract_x
 _atom_site_fract_y
 _atom_site_fract_z
 _atom_site_occupancy
  Sr  Sr0  1  0.240286  0.288360  0.249359  1
  Sr  Sr1  1  0.240286  0.711640  0.749359  1
  La  La2  1  0.761194  0.801442  0.247573  1
  La  La3  1  0.761194  0.198558  0.747573  1
  Mn  Mn4  1  0.500904  0.743867  0.499575  1
  Mn  Mn5  1  0.500904  0.256133  0.999575  1
  Sb  Sb6  1  0.000344  0.252916  0.499873  1
  Sb  Sb7  1  0.000344  0.747084  0.999873  1
  O  O8  1  0.682623  0.782482  0.760202  1
  O  O9  1  0.843789  0.020955  0.048191  1
  O  O10  1  0.235736  0.046131  0.459637  1
  O  O11  1  0.762175  0.556929  0.047808  1
  O  O12  1  0.136344  0.537358  0.449220  1
  O  O13  1  0.336607  0.276155  0.738563  1
  O  O14  1  0.682623  0.217518  0.260202  1
  O  O15  1  0.843789  0.979045  0.548191  1
  O  O16  1  0.235736  0.953869  0.959637  1
  O  O17  1  0.762175  0.443071  0.547808  1
  O  O18  1  0.136344  0.462642  0.949220  1
  O  O19  1  0.336607  0.723845  0.238563  1
