# generated using pymatgen
data_Li2HfO3
_symmetry_space_group_name_H-M   'P 1'
_cell_length_a   5.38461455
_cell_length_b   5.38461455
_cell_length_c   5.27993008
_cell_angle_alpha   80.04927216
_cell_angle_beta   99.95072784
_cell_angle_gamma   60.17668043
_symmetry_Int_Tables_number   1
_chemical_formula_structural   Li2HfO3
_chemical_formula_sum   'Li4 Hf2 O6'
_cell_volume   124.67353449
_cell_formula_units_Z   2
loop_
 _symmetry_equiv_pos_site_id
 _symmetry_equiv_pos_as_xyz
  1  'x, y, z'
loop_
 _atom_site_type_symbol
 _atom_site_label
 _atom_site_symmetry_multiplicity
 _atom_site_fract_x
 _atom_site_fract_y
 _atom_site_fract_z
 _atom_site_occupancy
  Li  Li0  1  0.658999  0.658999  0.500000  1
  Li  Li1  1  0.341001  0.341001  0.500000  1
  Li  Li2  1  0.000000  1.000000  0.500000  1
  Li  Li3  1  0.500000  0.500000  0.000000  1
  Hf  Hf4  1  0.167296  0.167296  0.000000  1
  Hf  Hf5  1  0.832704  0.832704  0.000000  1
  O  O6  1  0.421826  0.931680  0.768524  1
  O  O7  1  0.578174  0.068320  0.231476  1
  O  O8  1  0.068320  0.578174  0.768524  1
  O  O9  1  0.223674  0.776326  0.235669  1
  O  O10  1  0.931680  0.421826  0.231476  1
  O  O11  1  0.776326  0.223674  0.764331  1
