# generated using pymatgen
data_Li3Fe(CO3)3
_symmetry_space_group_name_H-M   'P 1'
_cell_length_a   5.98093008
_cell_length_b   5.98093008
_cell_length_c   10.00275854
_cell_angle_alpha   90.00000000
_cell_angle_beta   90.00000000
_cell_angle_gamma   105.38045786
_symmetry_Int_Tables_number   1
_chemical_formula_structural   Li3Fe(CO3)3
_chemical_formula_sum   'Li6 Fe2 C6 O18'
_cell_volume   344.99914800
_cell_formula_units_Z   2
loop_
 _symmetry_equiv_pos_site_id
 _symmetry_equiv_pos_as_xyz
  1  'x, y, z'
loop_
 _atom_site_type_symbol
 _atom_site_label
 _atom_site_symmetry_multiplicity
 _atom_site_fract_x
 _atom_site_fract_y
 _atom_site_fract_z
 _atom_site_occupancy
  Li  Li0  1  0.087280  0.087280  0.000000  1
  Li  Li1  1  0.350816  0.393866  0.250000  1
  Li  Li2  1  0.195505  0.751923  0.250000  1
  Li  Li3  1  0.087280  0.087280  0.500000  1
  Li  Li4  1  0.751923  0.195505  0.750000  1
  Li  Li5  1  0.393866  0.350816  0.750000  1
  Fe  Fe6  1  0.688308  0.152327  0.250000  1
  Fe  Fe7  1  0.152327  0.688308  0.750000  1
  C  C8  1  0.559943  0.153238  0.011258  1
  C  C9  1  0.744457  0.735199  0.250000  1
  C  C10  1  0.559943  0.153238  0.488742  1
  C  C11  1  0.153238  0.559943  0.511258  1
  C  C12  1  0.735199  0.744457  0.750000  1
  C  C13  1  0.153238  0.559943  0.988742  1
  O  O14  1  0.763921  0.136937  0.052300  1
  O  O15  1  0.413314  0.154885  0.109513  1
  O  O16  1  0.165257  0.509622  0.110441  1
  O  O17  1  0.732627  0.517729  0.250000  1
  O  O18  1  0.936431  0.900180  0.250000  1
  O  O19  1  0.552624  0.801532  0.250000  1
  O  O20  1  0.165257  0.509622  0.389559  1
  O  O21  1  0.413314  0.154885  0.390487  1
  O  O22  1  0.763921  0.136937  0.447700  1
  O  O23  1  0.136937  0.763921  0.552300  1
  O  O24  1  0.154885  0.413314  0.609513  1
  O  O25  1  0.509622  0.165257  0.610441  1
  O  O26  1  0.801532  0.552624  0.750000  1
  O  O27  1  0.517729  0.732627  0.750000  1
  O  O28  1  0.900180  0.936431  0.750000  1
  O  O29  1  0.509622  0.165257  0.889559  1
  O  O30  1  0.154885  0.413314  0.890487  1
  O  O31  1  0.136937  0.763921  0.947700  1
