# generated using pymatgen
data_Li3Sn2(PO4)3
_symmetry_space_group_name_H-M   'P 1'
_cell_length_a   8.94112311
_cell_length_b   9.12966342
_cell_length_c   15.59645769
_cell_angle_alpha   90.00000000
_cell_angle_beta   122.67139676
_cell_angle_gamma   90.00000000
_symmetry_Int_Tables_number   1
_chemical_formula_structural   Li3Sn2(PO4)3
_chemical_formula_sum   'Li12 Sn8 P12 O48'
_cell_volume   1071.69600087
_cell_formula_units_Z   4
loop_
 _symmetry_equiv_pos_site_id
 _symmetry_equiv_pos_as_xyz
  1  'x, y, z'
loop_
 _atom_site_type_symbol
 _atom_site_label
 _atom_site_symmetry_multiplicity
 _atom_site_fract_x
 _atom_site_fract_y
 _atom_site_fract_z
 _atom_site_occupancy
  Li  Li0  1  0.201432  0.075249  0.287838  1
  Li  Li1  1  0.607241  0.776880  0.825597  1
  Li  Li2  1  0.997638  0.745779  0.192856  1
  Li  Li3  1  0.392759  0.276880  0.674403  1
  Li  Li4  1  0.002362  0.245779  0.307144  1
  Li  Li5  1  0.798568  0.575249  0.212162  1
  Li  Li6  1  0.201432  0.424751  0.787838  1
  Li  Li7  1  0.607241  0.723120  0.325597  1
  Li  Li8  1  0.997638  0.754221  0.692856  1
  Li  Li9  1  0.002362  0.254221  0.807144  1
  Li  Li10  1  0.392759  0.223120  0.174403  1
  Li  Li11  1  0.798568  0.924751  0.712162  1
  Sn  Sn12  1  0.824825  0.050738  0.087228  1
  Sn  Sn13  1  0.648968  0.441873  0.895005  1
  Sn  Sn14  1  0.351032  0.941873  0.604995  1
  Sn  Sn15  1  0.175175  0.550738  0.412772  1
  Sn  Sn16  1  0.824825  0.449262  0.587228  1
  Sn  Sn17  1  0.648968  0.058127  0.395005  1
  Sn  Sn18  1  0.175175  0.949262  0.912772  1
  Sn  Sn19  1  0.351032  0.558127  0.104995  1
  P  P20  1  0.422767  0.235348  0.489950  1
  P  P21  1  0.712587  0.093336  0.829831  1
  P  P22  1  0.031740  0.401851  0.139385  1
  P  P23  1  0.287413  0.593336  0.670169  1
  P  P24  1  0.968260  0.901851  0.360615  1
  P  P25  1  0.577233  0.735348  0.010050  1
  P  P26  1  0.422767  0.264652  0.989950  1
  P  P27  1  0.031740  0.098149  0.639385  1
  P  P28  1  0.712587  0.406664  0.329831  1
  P  P29  1  0.968260  0.598149  0.860615  1
  P  P30  1  0.287413  0.906664  0.170169  1
  P  P31  1  0.577233  0.764652  0.510050  1
  O  O32  1  0.545824  0.871176  0.578281  1
  O  O33  1  0.431492  0.651025  0.453868  1
  O  O34  1  0.788706  0.577414  0.856270  1
  O  O35  1  0.151618  0.894352  0.200554  1
  O  O36  1  0.239913  0.305296  0.418755  1
  O  O37  1  0.415166  0.147298  0.574376  1
  O  O38  1  0.787610  0.031090  0.936221  1
  O  O39  1  0.875854  0.369049  0.024779  1
  O  O40  1  0.617043  0.245105  0.814248  1
  O  O41  1  0.061661  0.261248  0.200824  1
  O  O42  1  0.570929  0.975574  0.756119  1
  O  O43  1  0.986977  0.536036  0.179601  1
  O  O44  1  0.429071  0.475574  0.743881  1
  O  O45  1  0.013023  0.036036  0.320399  1
  O  O46  1  0.938339  0.761248  0.299176  1
  O  O47  1  0.382957  0.745105  0.685752  1
  O  O48  1  0.212390  0.531090  0.563779  1
  O  O49  1  0.124146  0.869049  0.475221  1
  O  O50  1  0.584834  0.647298  0.925624  1
  O  O51  1  0.760087  0.805296  0.081245  1
  O  O52  1  0.211294  0.077414  0.643730  1
  O  O53  1  0.848382  0.394352  0.299446  1
  O  O54  1  0.454176  0.371176  0.921719  1
  O  O55  1  0.568508  0.151025  0.046132  1
  O  O56  1  0.545824  0.628824  0.078281  1
  O  O57  1  0.431492  0.848975  0.953868  1
  O  O58  1  0.151618  0.605648  0.700554  1
  O  O59  1  0.788706  0.922586  0.356270  1
  O  O60  1  0.239913  0.194704  0.918755  1
  O  O61  1  0.415166  0.352702  0.074376  1
  O  O62  1  0.875854  0.130951  0.524779  1
  O  O63  1  0.787610  0.468910  0.436221  1
  O  O64  1  0.061661  0.238752  0.700824  1
  O  O65  1  0.617043  0.254895  0.314248  1
  O  O66  1  0.986977  0.963964  0.679601  1
  O  O67  1  0.570929  0.524426  0.256119  1
  O  O68  1  0.013023  0.463964  0.820399  1
  O  O69  1  0.429071  0.024426  0.243881  1
  O  O70  1  0.938339  0.738752  0.799176  1
  O  O71  1  0.382957  0.754895  0.185752  1
  O  O72  1  0.124146  0.630951  0.975221  1
  O  O73  1  0.212390  0.968910  0.063779  1
  O  O74  1  0.760087  0.694704  0.581245  1
  O  O75  1  0.584834  0.852702  0.425624  1
  O  O76  1  0.211294  0.422586  0.143730  1
  O  O77  1  0.848382  0.105648  0.799446  1
  O  O78  1  0.568508  0.348975  0.546132  1
  O  O79  1  0.454176  0.128824  0.421719  1
