# generated using pymatgen
data_MnCr3(PO4)6
_symmetry_space_group_name_H-M   'P 1'
_cell_length_a   8.74469201
_cell_length_b   8.74469201
_cell_length_c   8.74469201
_cell_angle_alpha   58.30198946
_cell_angle_beta   58.30198946
_cell_angle_gamma   58.30198946
_symmetry_Int_Tables_number   1
_chemical_formula_structural   MnCr3(PO4)6
_chemical_formula_sum   'Mn1 Cr3 P6 O24'
_cell_volume   454.45755285
_cell_formula_units_Z   1
loop_
 _symmetry_equiv_pos_site_id
 _symmetry_equiv_pos_as_xyz
  1  'x, y, z'
loop_
 _atom_site_type_symbol
 _atom_site_label
 _atom_site_symmetry_multiplicity
 _atom_site_fract_x
 _atom_site_fract_y
 _atom_site_fract_z
 _atom_site_occupancy
  Mn  Mn0  1  0.144330  0.144330  0.144330  1
  Cr  Cr1  1  0.857172  0.857172  0.857172  1
  Cr  Cr2  1  0.642917  0.642917  0.642917  1
  Cr  Cr3  1  0.357864  0.357864  0.357864  1
  P  P4  1  0.249806  0.532156  0.967125  1
  P  P5  1  0.967125  0.249806  0.532156  1
  P  P6  1  0.532156  0.967125  0.249806  1
  P  P7  1  0.463964  0.034304  0.752862  1
  P  P8  1  0.034304  0.752862  0.463964  1
  P  P9  1  0.752862  0.463964  0.034304  1
  O  O10  1  0.721010  0.491112  0.863686  1
  O  O11  1  0.491112  0.863686  0.721010  1
  O  O12  1  0.076537  0.717764  0.938255  1
  O  O13  1  0.863686  0.721010  0.491112  1
  O  O14  1  0.422563  0.562455  0.782283  1
  O  O15  1  0.225204  0.359446  0.988604  1
  O  O16  1  0.938255  0.076537  0.717764  1
  O  O17  1  0.782283  0.422563  0.562455  1
  O  O18  1  0.562455  0.782283  0.422563  1
  O  O19  1  0.636284  0.008992  0.780495  1
  O  O20  1  0.279466  0.059198  0.926963  1
  O  O21  1  0.008992  0.780495  0.636284  1
  O  O22  1  0.988604  0.225204  0.359446  1
  O  O23  1  0.717764  0.938255  0.076537  1
  O  O24  1  0.359446  0.988604  0.225204  1
  O  O25  1  0.436952  0.218196  0.577690  1
  O  O26  1  0.218196  0.577690  0.436952  1
  O  O27  1  0.059198  0.926963  0.279466  1
  O  O28  1  0.780495  0.636284  0.008992  1
  O  O29  1  0.577690  0.436952  0.218196  1
  O  O30  1  0.138280  0.278314  0.507751  1
  O  O31  1  0.926963  0.279466  0.059198  1
  O  O32  1  0.507751  0.138280  0.278314  1
  O  O33  1  0.278314  0.507751  0.138280  1
