# generated using pymatgen
data_B3H3SeO9
_symmetry_space_group_name_H-M   'P 1'
_cell_length_a   8.95957660
_cell_length_b   11.92775397
_cell_length_c   14.27075260
_cell_angle_alpha   90.00000000
_cell_angle_beta   90.00000000
_cell_angle_gamma   90.00000000
_symmetry_Int_Tables_number   1
_chemical_formula_structural   B3H3SeO9
_chemical_formula_sum   'B24 H24 Se8 O72'
_cell_volume   1525.08144246
_cell_formula_units_Z   8
loop_
 _symmetry_equiv_pos_site_id
 _symmetry_equiv_pos_as_xyz
  1  'x, y, z'
loop_
 _atom_site_type_symbol
 _atom_site_label
 _atom_site_symmetry_multiplicity
 _atom_site_fract_x
 _atom_site_fract_y
 _atom_site_fract_z
 _atom_site_occupancy
  B  B0  1  0.032838  0.851185  0.581538  1
  B  B1  1  0.967162  0.851185  0.081538  1
  B  B2  1  0.463328  0.853556  0.073365  1
  B  B3  1  0.536672  0.853556  0.573365  1
  B  B4  1  0.085854  0.754891  0.948208  1
  B  B5  1  0.914146  0.754891  0.448208  1
  B  B6  1  0.585854  0.745109  0.948208  1
  B  B7  1  0.414146  0.745109  0.448208  1
  B  B8  1  0.963328  0.646444  0.073365  1
  B  B9  1  0.036672  0.646444  0.573365  1
  B  B10  1  0.467162  0.648815  0.081538  1
  B  B11  1  0.532838  0.648815  0.581538  1
  B  B12  1  0.532838  0.351185  0.918462  1
  B  B13  1  0.467162  0.351185  0.418462  1
  B  B14  1  0.963328  0.353556  0.426635  1
  B  B15  1  0.036672  0.353556  0.926635  1
  B  B16  1  0.585854  0.254891  0.551792  1
  B  B17  1  0.414146  0.254891  0.051792  1
  B  B18  1  0.914146  0.245109  0.051792  1
  B  B19  1  0.085854  0.245109  0.551792  1
  B  B20  1  0.536672  0.146444  0.926635  1
  B  B21  1  0.463328  0.146444  0.426635  1
  B  B22  1  0.967162  0.148815  0.418462  1
  B  B23  1  0.032838  0.148815  0.918462  1
  H  H24  1  0.937475  0.014191  0.088373  1
  H  H25  1  0.062525  0.014191  0.588373  1
  H  H26  1  0.438367  0.980856  0.421016  1
  H  H27  1  0.561633  0.980856  0.921016  1
  H  H28  1  0.705897  0.797564  0.702669  1
  H  H29  1  0.294103  0.797564  0.202669  1
  H  H30  1  0.794103  0.702436  0.202669  1
  H  H31  1  0.205897  0.702436  0.702669  1
  H  H32  1  0.938367  0.519144  0.421016  1
  H  H33  1  0.061633  0.519144  0.921016  1
  H  H34  1  0.437475  0.485809  0.088373  1
  H  H35  1  0.562525  0.485809  0.588373  1
  H  H36  1  0.562525  0.514191  0.911627  1
  H  H37  1  0.437475  0.514191  0.411627  1
  H  H38  1  0.938367  0.480856  0.078984  1
  H  H39  1  0.061633  0.480856  0.578984  1
  H  H40  1  0.205897  0.297564  0.797331  1
  H  H41  1  0.794103  0.297564  0.297331  1
  H  H42  1  0.705897  0.202436  0.797331  1
  H  H43  1  0.294103  0.202436  0.297331  1
  H  H44  1  0.561633  0.019144  0.578984  1
  H  H45  1  0.438367  0.019144  0.078984  1
  H  H46  1  0.937475  0.985809  0.411627  1
  H  H47  1  0.062525  0.985809  0.911627  1
  Se  Se48  1  0.659530  0.774075  0.323416  1
  Se  Se49  1  0.340470  0.774075  0.823416  1
  Se  Se50  1  0.840470  0.725925  0.823416  1
  Se  Se51  1  0.159530  0.725925  0.323416  1
  Se  Se52  1  0.840470  0.274075  0.676584  1
  Se  Se53  1  0.159530  0.274075  0.176584  1
  Se  Se54  1  0.659530  0.225925  0.176584  1
  Se  Se55  1  0.340470  0.225925  0.676584  1
  O  O56  1  0.586606  0.949227  0.612280  1
  O  O57  1  0.413394  0.949227  0.112280  1
  O  O58  1  0.913630  0.944648  0.122113  1
  O  O59  1  0.086370  0.944648  0.622113  1
  O  O60  1  0.672897  0.899718  0.284358  1
  O  O61  1  0.327103  0.899718  0.784358  1
  O  O62  1  0.057132  0.852823  0.002517  1
  O  O63  1  0.942868  0.852823  0.502517  1
  O  O64  1  0.458216  0.849750  0.489633  1
  O  O65  1  0.541784  0.849750  0.989633  1
  O  O66  1  0.210360  0.828760  0.243444  1
  O  O67  1  0.789640  0.828760  0.743444  1
  O  O68  1  0.982821  0.770739  0.348867  1
  O  O69  1  0.017179  0.770739  0.848867  1
  O  O70  1  0.747024  0.745876  0.428071  1
  O  O71  1  0.252976  0.745876  0.928071  1
  O  O72  1  0.572410  0.753770  0.620736  1
  O  O73  1  0.427590  0.753770  0.120736  1
  O  O74  1  0.927590  0.746230  0.120736  1
  O  O75  1  0.072410  0.746230  0.620736  1
  O  O76  1  0.247024  0.754124  0.428071  1
  O  O77  1  0.752976  0.754124  0.928071  1
  O  O78  1  0.517179  0.729261  0.848867  1
  O  O79  1  0.482821  0.729261  0.348867  1
  O  O80  1  0.710360  0.671240  0.243444  1
  O  O81  1  0.289640  0.671240  0.743444  1
  O  O82  1  0.958216  0.650250  0.489633  1
  O  O83  1  0.041784  0.650250  0.989633  1
  O  O84  1  0.442868  0.647177  0.502517  1
  O  O85  1  0.557132  0.647177  0.002517  1
  O  O86  1  0.172897  0.600282  0.284358  1
  O  O87  1  0.827103  0.600282  0.784358  1
  O  O88  1  0.413630  0.555352  0.122113  1
  O  O89  1  0.586370  0.555352  0.622113  1
  O  O90  1  0.913394  0.550773  0.112280  1
  O  O91  1  0.086606  0.550773  0.612280  1
  O  O92  1  0.913394  0.449227  0.387720  1
  O  O93  1  0.086606  0.449227  0.887720  1
  O  O94  1  0.413630  0.444648  0.377887  1
  O  O95  1  0.586370  0.444648  0.877887  1
  O  O96  1  0.172897  0.399718  0.215642  1
  O  O97  1  0.827103  0.399718  0.715642  1
  O  O98  1  0.557132  0.352823  0.497483  1
  O  O99  1  0.442868  0.352823  0.997483  1
  O  O100  1  0.958216  0.349750  0.010367  1
  O  O101  1  0.041784  0.349750  0.510367  1
  O  O102  1  0.710360  0.328760  0.256556  1
  O  O103  1  0.289640  0.328760  0.756556  1
  O  O104  1  0.517179  0.270739  0.651133  1
  O  O105  1  0.482821  0.270739  0.151133  1
  O  O106  1  0.752976  0.245876  0.571929  1
  O  O107  1  0.247024  0.245876  0.071929  1
  O  O108  1  0.072410  0.253770  0.879264  1
  O  O109  1  0.927590  0.253770  0.379264  1
  O  O110  1  0.572410  0.246230  0.879264  1
  O  O111  1  0.427590  0.246230  0.379264  1
  O  O112  1  0.747024  0.254124  0.071929  1
  O  O113  1  0.252976  0.254124  0.571929  1
  O  O114  1  0.982821  0.229261  0.151133  1
  O  O115  1  0.017179  0.229261  0.651133  1
  O  O116  1  0.789640  0.171240  0.756556  1
  O  O117  1  0.210360  0.171240  0.256556  1
  O  O118  1  0.541784  0.150250  0.510367  1
  O  O119  1  0.458216  0.150250  0.010367  1
  O  O120  1  0.942868  0.147177  0.997483  1
  O  O121  1  0.057132  0.147177  0.497483  1
  O  O122  1  0.672897  0.100282  0.215642  1
  O  O123  1  0.327103  0.100282  0.715642  1
  O  O124  1  0.913630  0.055352  0.377887  1
  O  O125  1  0.086370  0.055352  0.877887  1
  O  O126  1  0.586606  0.050773  0.887720  1
  O  O127  1  0.413394  0.050773  0.387720  1
