# generated using pymatgen
data_LiMn2(CO3)4
_symmetry_space_group_name_H-M   'P 1'
_cell_length_a   5.45024993
_cell_length_b   6.44143293
_cell_length_c   8.30290127
_cell_angle_alpha   82.78605083
_cell_angle_beta   74.43884614
_cell_angle_gamma   65.39510168
_symmetry_Int_Tables_number   1
_chemical_formula_structural   LiMn2(CO3)4
_chemical_formula_sum   'Li1 Mn2 C4 O12'
_cell_volume   255.27931050
_cell_formula_units_Z   1
loop_
 _symmetry_equiv_pos_site_id
 _symmetry_equiv_pos_as_xyz
  1  'x, y, z'
loop_
 _atom_site_type_symbol
 _atom_site_label
 _atom_site_symmetry_multiplicity
 _atom_site_fract_x
 _atom_site_fract_y
 _atom_site_fract_z
 _atom_site_occupancy
  Li  Li0  1  0.275876  0.485322  0.159323  1
  Mn  Mn1  1  0.612051  0.513096  0.513043  1
  Mn  Mn2  1  0.911212  0.990968  0.999355  1
  C  C3  1  0.334332  0.618654  0.790811  1
  C  C4  1  0.890210  0.112289  0.714525  1
  C  C5  1  0.720134  0.885087  0.280885  1
  C  C6  1  0.769850  0.377439  0.206479  1
  O  O7  1  0.191365  0.672708  0.944278  1
  O  O8  1  0.694677  0.070489  0.825999  1
  O  O9  1  0.233661  0.582961  0.678626  1
  O  O10  1  0.591932  0.591822  0.744287  1
  O  O11  1  0.107304  0.070317  0.772983  1
  O  O12  1  0.873920  0.184816  0.568156  1
  O  O13  1  0.628792  0.823218  0.425608  1
  O  O14  1  0.970145  0.889483  0.230719  1
  O  O15  1  0.528338  0.433279  0.317183  1
  O  O16  1  0.963460  0.403278  0.244695  1
  O  O17  1  0.586162  0.949854  0.162662  1
  O  O18  1  0.780054  0.310553  0.061921  1
