# generated using pymatgen
data_SrTiO3
_symmetry_space_group_name_H-M   'P 1'
_cell_length_a   5.62885415
_cell_length_b   5.62885415
_cell_length_c   13.88603769
_cell_angle_alpha   90.00000000
_cell_angle_beta   90.00000000
_cell_angle_gamma   120.00000000
_symmetry_Int_Tables_number   1
_chemical_formula_structural   SrTiO3
_chemical_formula_sum   'Sr6 Ti6 O18'
_cell_volume   381.02104398
_cell_formula_units_Z   6
loop_
 _symmetry_equiv_pos_site_id
 _symmetry_equiv_pos_as_xyz
  1  'x, y, z'
loop_
 _atom_site_type_symbol
 _atom_site_label
 _atom_site_symmetry_multiplicity
 _atom_site_fract_x
 _atom_site_fract_y
 _atom_site_fract_z
 _atom_site_occupancy
  Sr  Sr0  1  0.333333  0.666667  0.100719  1
  Sr  Sr1  1  0.000000  0.000000  0.250000  1
  Sr  Sr2  1  0.000000  0.000000  0.750000  1
  Sr  Sr3  1  0.333333  0.666667  0.399281  1
  Sr  Sr4  1  0.666667  0.333333  0.600719  1
  Sr  Sr5  1  0.666667  0.333333  0.899281  1
  Ti  Ti6  1  0.333333  0.666667  0.846060  1
  Ti  Ti7  1  0.000000  0.000000  0.000000  1
  Ti  Ti8  1  0.000000  0.000000  0.500000  1
  Ti  Ti9  1  0.333333  0.666667  0.653940  1
  Ti  Ti10  1  0.666667  0.333333  0.153940  1
  Ti  Ti11  1  0.666667  0.333333  0.346060  1
  O  O12  1  0.164675  0.835325  0.918435  1
  O  O13  1  0.164675  0.835325  0.581565  1
  O  O14  1  0.021871  0.510935  0.750000  1
  O  O15  1  0.489065  0.978129  0.750000  1
  O  O16  1  0.164675  0.329350  0.918435  1
  O  O17  1  0.164675  0.329350  0.581565  1
  O  O18  1  0.489065  0.510935  0.750000  1
  O  O19  1  0.329350  0.164675  0.081565  1
  O  O20  1  0.329350  0.164675  0.418435  1
  O  O21  1  0.670650  0.835325  0.581565  1
  O  O22  1  0.670650  0.835325  0.918435  1
  O  O23  1  0.510935  0.489065  0.250000  1
  O  O24  1  0.510935  0.021871  0.250000  1
  O  O25  1  0.835325  0.670650  0.418435  1
  O  O26  1  0.835325  0.670650  0.081565  1
  O  O27  1  0.978129  0.489065  0.250000  1
  O  O28  1  0.835325  0.164675  0.418435  1
  O  O29  1  0.835325  0.164675  0.081565  1
