# generated using pymatgen
data_SiH18C2N8(OF3)2
_symmetry_space_group_name_H-M   'P 1'
_cell_length_a   6.63376490
_cell_length_b   6.74915503
_cell_length_c   8.15416750
_cell_angle_alpha   109.05527706
_cell_angle_beta   97.34443465
_cell_angle_gamma   89.36380092
_symmetry_Int_Tables_number   1
_chemical_formula_structural   SiH18C2N8(OF3)2
_chemical_formula_sum   'Si1 H18 C2 N8 O2 F6'
_cell_volume   342.06204277
_cell_formula_units_Z   1
loop_
 _symmetry_equiv_pos_site_id
 _symmetry_equiv_pos_as_xyz
  1  'x, y, z'
loop_
 _atom_site_type_symbol
 _atom_site_label
 _atom_site_symmetry_multiplicity
 _atom_site_fract_x
 _atom_site_fract_y
 _atom_site_fract_z
 _atom_site_occupancy
  Si  Si0  1  0.000000  0.000000  0.000000  1
  H  H1  1  0.872396  0.457393  0.688904  1
  H  H2  1  0.773933  0.643240  0.074286  1
  H  H3  1  0.874787  0.212223  0.688361  1
  H  H4  1  0.748981  0.416215  0.084635  1
  H  H5  1  0.827886  0.816115  0.624818  1
  H  H6  1  0.771110  0.694157  0.395943  1
  H  H7  1  0.701324  0.148522  0.318942  1
  H  H8  1  0.541955  0.364231  0.738248  1
  H  H9  1  0.450867  0.107372  0.208194  1
  H  H10  1  0.549133  0.892628  0.791806  1
  H  H11  1  0.458045  0.635769  0.261752  1
  H  H12  1  0.298676  0.851478  0.681058  1
  H  H13  1  0.228890  0.305843  0.604057  1
  H  H14  1  0.172114  0.183885  0.375182  1
  H  H15  1  0.251019  0.583785  0.915365  1
  H  H16  1  0.125213  0.787777  0.311639  1
  H  H17  1  0.226067  0.356760  0.925714  1
  H  H18  1  0.127604  0.542607  0.311096  1
  C  C19  1  0.524175  0.761367  0.526487  1
  C  C20  1  0.475825  0.238633  0.473513  1
  N  N21  1  0.814516  0.308943  0.621890  1
  N  N22  1  0.723908  0.755583  0.516675  1
  N  N23  1  0.603670  0.311485  0.623437  1
  N  N24  1  0.548520  0.163622  0.320473  1
  N  N25  1  0.451480  0.836378  0.679527  1
  N  N26  1  0.396330  0.688515  0.376563  1
  N  N27  1  0.276092  0.244417  0.483325  1
  N  N28  1  0.185484  0.691057  0.378110  1
  O  O29  1  0.726424  0.564921  0.145394  1
  O  O30  1  0.273576  0.435079  0.854606  1
  F  F31  1  0.951881  0.015673  0.206205  1
  F  F32  1  0.870384  0.760746  0.913987  1
  F  F33  1  0.776756  0.123991  0.968424  1
  F  F34  1  0.223244  0.876009  0.031576  1
  F  F35  1  0.129616  0.239254  0.086013  1
  F  F36  1  0.048119  0.984327  0.793795  1
