# generated using pymatgen
data_LiFeF3
_symmetry_space_group_name_H-M   'P 1'
_cell_length_a   5.04873023
_cell_length_b   5.32897328
_cell_length_c   8.09265411
_cell_angle_alpha   90.00000000
_cell_angle_beta   90.00000000
_cell_angle_gamma   90.00000000
_symmetry_Int_Tables_number   1
_chemical_formula_structural   LiFeF3
_chemical_formula_sum   'Li4 Fe4 F12'
_cell_volume   217.72920494
_cell_formula_units_Z   4
loop_
 _symmetry_equiv_pos_site_id
 _symmetry_equiv_pos_as_xyz
  1  'x, y, z'
loop_
 _atom_site_type_symbol
 _atom_site_label
 _atom_site_symmetry_multiplicity
 _atom_site_fract_x
 _atom_site_fract_y
 _atom_site_fract_z
 _atom_site_occupancy
  Li  Li0  1  0.000000  0.500000  0.000000  1
  Li  Li1  1  0.000000  0.500000  0.500000  1
  Li  Li2  1  0.500000  0.000000  0.500000  1
  Li  Li3  1  0.500000  0.000000  0.000000  1
  Fe  Fe4  1  0.040699  0.925585  0.750000  1
  Fe  Fe5  1  0.459301  0.425585  0.750000  1
  Fe  Fe6  1  0.540699  0.574415  0.250000  1
  Fe  Fe7  1  0.959301  0.074415  0.250000  1
  F  F8  1  0.167242  0.425101  0.250000  1
  F  F9  1  0.203663  0.203209  0.589825  1
  F  F10  1  0.203663  0.203209  0.910175  1
  F  F11  1  0.296337  0.703209  0.910175  1
  F  F12  1  0.296337  0.703209  0.589825  1
  F  F13  1  0.332758  0.925101  0.250000  1
  F  F14  1  0.667242  0.074899  0.750000  1
  F  F15  1  0.703663  0.296791  0.089825  1
  F  F16  1  0.703663  0.296791  0.410175  1
  F  F17  1  0.796337  0.796791  0.089825  1
  F  F18  1  0.796337  0.796791  0.410175  1
  F  F19  1  0.832758  0.574899  0.750000  1
