# generated using pymatgen
data_Cr3(OF)2
_symmetry_space_group_name_H-M   'P 1'
_cell_length_a   8.36895109
_cell_length_b   8.70024441
_cell_length_c   10.92516698
_cell_angle_alpha   90.00000000
_cell_angle_beta   106.20754822
_cell_angle_gamma   90.00000000
_symmetry_Int_Tables_number   1
_chemical_formula_structural   Cr3(OF)2
_chemical_formula_sum   'Cr24 O16 F16'
_cell_volume   763.86746509
_cell_formula_units_Z   8
loop_
 _symmetry_equiv_pos_site_id
 _symmetry_equiv_pos_as_xyz
  1  'x, y, z'
loop_
 _atom_site_type_symbol
 _atom_site_label
 _atom_site_symmetry_multiplicity
 _atom_site_fract_x
 _atom_site_fract_y
 _atom_site_fract_z
 _atom_site_occupancy
  Cr  Cr0  1  0.076428  0.797221  0.638266  1
  Cr  Cr1  1  0.099676  0.425818  0.621650  1
  Cr  Cr2  1  0.233976  0.185115  0.831854  1
  Cr  Cr3  1  0.076428  0.702779  0.138266  1
  Cr  Cr4  1  0.310419  0.518998  0.932954  1
  Cr  Cr5  1  0.099676  0.074182  0.121650  1
  Cr  Cr6  1  0.233976  0.314885  0.331854  1
  Cr  Cr7  1  0.455878  0.922751  0.732094  1
  Cr  Cr8  1  0.310419  0.981002  0.432954  1
  Cr  Cr9  1  0.596930  0.146702  0.991469  1
  Cr  Cr10  1  0.403070  0.646702  0.508531  1
  Cr  Cr11  1  0.544122  0.422751  0.767906  1
  Cr  Cr12  1  0.455878  0.577249  0.232094  1
  Cr  Cr13  1  0.596930  0.353298  0.491469  1
  Cr  Cr14  1  0.403070  0.853298  0.008531  1
  Cr  Cr15  1  0.689581  0.018998  0.567046  1
  Cr  Cr16  1  0.544122  0.077249  0.267906  1
  Cr  Cr17  1  0.766024  0.685115  0.668146  1
  Cr  Cr18  1  0.900324  0.925818  0.878350  1
  Cr  Cr19  1  0.689581  0.481002  0.067046  1
  Cr  Cr20  1  0.923572  0.297221  0.861734  1
  Cr  Cr21  1  0.766024  0.814885  0.168146  1
  Cr  Cr22  1  0.900324  0.574182  0.378350  1
  Cr  Cr23  1  0.923572  0.202779  0.361734  1
  O  O24  1  0.065185  0.105791  0.924736  1
  O  O25  1  0.119336  0.394400  0.814272  1
  O  O26  1  0.065185  0.394209  0.424736  1
  O  O27  1  0.119336  0.105600  0.314272  1
  O  O28  1  0.405156  0.021631  0.882460  1
  O  O29  1  0.497636  0.366281  0.934233  1
  O  O30  1  0.502364  0.866281  0.565767  1
  O  O31  1  0.405156  0.478369  0.382460  1
  O  O32  1  0.594844  0.521631  0.617540  1
  O  O33  1  0.497636  0.133719  0.434233  1
  O  O34  1  0.502364  0.633719  0.065767  1
  O  O35  1  0.594844  0.978369  0.117540  1
  O  O36  1  0.880664  0.894400  0.685728  1
  O  O37  1  0.934815  0.605791  0.575264  1
  O  O38  1  0.880664  0.605600  0.185728  1
  O  O39  1  0.934815  0.894209  0.075264  1
  F  F40  1  0.191407  0.731694  0.912580  1
  F  F41  1  0.216279  0.989872  0.636522  1
  F  F42  1  0.191407  0.768306  0.412580  1
  F  F43  1  0.292843  0.670179  0.678724  1
  F  F44  1  0.216279  0.510128  0.136522  1
  F  F45  1  0.327185  0.303854  0.677466  1
  F  F46  1  0.292843  0.829821  0.178724  1
  F  F47  1  0.672815  0.803854  0.822534  1
  F  F48  1  0.327185  0.196146  0.177466  1
  F  F49  1  0.707157  0.170179  0.821276  1
  F  F50  1  0.672815  0.696146  0.322534  1
  F  F51  1  0.783721  0.489872  0.863478  1
  F  F52  1  0.707157  0.329821  0.321276  1
  F  F53  1  0.808593  0.231694  0.587420  1
  F  F54  1  0.783721  0.010128  0.363478  1
  F  F55  1  0.808593  0.268306  0.087420  1
