# generated using pymatgen
data_Mn3BiO8
_symmetry_space_group_name_H-M   'P 1'
_cell_length_a   6.44826367
_cell_length_b   6.44826367
_cell_length_c   6.44826367
_cell_angle_alpha   53.57283619
_cell_angle_beta   53.57283619
_cell_angle_gamma   53.57283619
_symmetry_Int_Tables_number   1
_chemical_formula_structural   Mn3BiO8
_chemical_formula_sum   'Mn3 Bi1 O8'
_cell_volume   161.08380298
_cell_formula_units_Z   1
loop_
 _symmetry_equiv_pos_site_id
 _symmetry_equiv_pos_as_xyz
  1  'x, y, z'
loop_
 _atom_site_type_symbol
 _atom_site_label
 _atom_site_symmetry_multiplicity
 _atom_site_fract_x
 _atom_site_fract_y
 _atom_site_fract_z
 _atom_site_occupancy
  Mn  Mn0  1  0.500000  0.500000  0.000000  1
  Mn  Mn1  1  0.000000  0.500000  0.500000  1
  Mn  Mn2  1  0.500000  0.000000  0.500000  1
  Bi  Bi3  1  0.500000  0.500000  0.500000  1
  O  O4  1  0.707833  0.243123  0.243123  1
  O  O5  1  0.243123  0.243123  0.707833  1
  O  O6  1  0.726557  0.726557  0.726557  1
  O  O7  1  0.243123  0.707833  0.243123  1
  O  O8  1  0.756877  0.292167  0.756877  1
  O  O9  1  0.273443  0.273443  0.273443  1
  O  O10  1  0.756877  0.756877  0.292167  1
  O  O11  1  0.292167  0.756877  0.756877  1
