# generated using pymatgen
data_Li(CoO2)2
_symmetry_space_group_name_H-M   'P 1'
_cell_length_a   4.87794189
_cell_length_b   5.71096243
_cell_length_c   5.74458114
_cell_angle_alpha   60.53231061
_cell_angle_beta   89.41490941
_cell_angle_gamma   89.20959292
_symmetry_Int_Tables_number   1
_chemical_formula_structural   Li(CoO2)2
_chemical_formula_sum   'Li2 Co4 O8'
_cell_volume   139.31402927
_cell_formula_units_Z   2
loop_
 _symmetry_equiv_pos_site_id
 _symmetry_equiv_pos_as_xyz
  1  'x, y, z'
loop_
 _atom_site_type_symbol
 _atom_site_label
 _atom_site_symmetry_multiplicity
 _atom_site_fract_x
 _atom_site_fract_y
 _atom_site_fract_z
 _atom_site_occupancy
  Li  Li0  1  0.251660  0.345017  0.001152  1
  Li  Li1  1  0.748340  0.654983  0.998848  1
  Co  Co2  1  0.249055  0.115178  0.515473  1
  Co  Co3  1  0.750945  0.884822  0.484527  1
  Co  Co4  1  0.752441  0.342824  0.533529  1
  Co  Co5  1  0.247559  0.657176  0.466471  1
  O  O6  1  0.911427  0.999925  0.713970  1
  O  O7  1  0.573301  0.227689  0.299287  1
  O  O8  1  0.088573  0.000075  0.286030  1
  O  O9  1  0.066252  0.458699  0.305915  1
  O  O10  1  0.412802  0.274064  0.701258  1
  O  O11  1  0.426699  0.772311  0.700713  1
  O  O12  1  0.933748  0.541301  0.694085  1
  O  O13  1  0.587198  0.725936  0.298742  1
