# generated using pymatgen
data_LuTa3O9
_symmetry_space_group_name_H-M   'P 1'
_cell_length_a   5.22950530
_cell_length_b   7.48857704
_cell_length_c   8.31241006
_cell_angle_alpha   90.00000000
_cell_angle_beta   92.63334335
_cell_angle_gamma   90.00000000
_symmetry_Int_Tables_number   1
_chemical_formula_structural   LuTa3O9
_chemical_formula_sum   'Lu2 Ta6 O18'
_cell_volume   325.18313407
_cell_formula_units_Z   2
loop_
 _symmetry_equiv_pos_site_id
 _symmetry_equiv_pos_as_xyz
  1  'x, y, z'
loop_
 _atom_site_type_symbol
 _atom_site_label
 _atom_site_symmetry_multiplicity
 _atom_site_fract_x
 _atom_site_fract_y
 _atom_site_fract_z
 _atom_site_occupancy
  Lu  Lu0  1  0.963371  0.250000  0.564510  1
  Lu  Lu1  1  0.036629  0.750000  0.435490  1
  Ta  Ta2  1  0.000000  0.000000  0.000000  1
  Ta  Ta3  1  0.000000  0.500000  0.000000  1
  Ta  Ta4  1  0.531550  0.006099  0.306119  1
  Ta  Ta5  1  0.531550  0.493901  0.306119  1
  Ta  Ta6  1  0.468450  0.993901  0.693881  1
  Ta  Ta7  1  0.468450  0.506099  0.693881  1
  O  O8  1  0.903133  0.250000  0.023859  1
  O  O9  1  0.855172  0.932226  0.216993  1
  O  O10  1  0.855172  0.567774  0.216993  1
  O  O11  1  0.747040  0.954988  0.531989  1
  O  O12  1  0.747040  0.545012  0.531989  1
  O  O13  1  0.670059  0.250000  0.349018  1
  O  O14  1  0.670987  0.946791  0.879359  1
  O  O15  1  0.670987  0.553209  0.879359  1
  O  O16  1  0.586791  0.250000  0.682669  1
  O  O17  1  0.413209  0.750000  0.317331  1
  O  O18  1  0.329013  0.053209  0.120641  1
  O  O19  1  0.329013  0.446791  0.120641  1
  O  O20  1  0.329941  0.750000  0.650982  1
  O  O21  1  0.252960  0.045012  0.468011  1
  O  O22  1  0.252960  0.454988  0.468011  1
  O  O23  1  0.144828  0.067774  0.783007  1
  O  O24  1  0.144828  0.432226  0.783007  1
  O  O25  1  0.096867  0.750000  0.976141  1
