# generated using pymatgen
data_NaSb3O8
_symmetry_space_group_name_H-M   'P 1'
_cell_length_a   5.76917182
_cell_length_b   4.86328330
_cell_length_c   10.68758601
_cell_angle_alpha   90.00000000
_cell_angle_beta   97.21113204
_cell_angle_gamma   90.00000000
_symmetry_Int_Tables_number   1
_chemical_formula_structural   NaSb3O8
_chemical_formula_sum   'Na2 Sb6 O16'
_cell_volume   297.49103491
_cell_formula_units_Z   2
loop_
 _symmetry_equiv_pos_site_id
 _symmetry_equiv_pos_as_xyz
  1  'x, y, z'
loop_
 _atom_site_type_symbol
 _atom_site_label
 _atom_site_symmetry_multiplicity
 _atom_site_fract_x
 _atom_site_fract_y
 _atom_site_fract_z
 _atom_site_occupancy
  Na  Na0  1  0.000000  0.000000  0.000000  1
  Na  Na1  1  0.000000  0.500000  0.500000  1
  Sb  Sb2  1  0.500000  0.500000  0.000000  1
  Sb  Sb3  1  0.241480  0.025960  0.750094  1
  Sb  Sb4  1  0.758520  0.525960  0.749906  1
  Sb  Sb5  1  0.500000  0.000000  0.500000  1
  Sb  Sb6  1  0.241480  0.474040  0.250094  1
  Sb  Sb7  1  0.758520  0.974040  0.249906  1
  O  O8  1  0.294285  0.210501  0.915702  1
  O  O9  1  0.764306  0.351167  0.918586  1
  O  O10  1  0.482869  0.726893  0.827824  1
  O  O11  1  0.998660  0.798629  0.814698  1
  O  O12  1  0.001340  0.298629  0.685302  1
  O  O13  1  0.517131  0.226893  0.672176  1
  O  O14  1  0.235694  0.851167  0.581414  1
  O  O15  1  0.705715  0.710501  0.584298  1
  O  O16  1  0.294285  0.289499  0.415702  1
  O  O17  1  0.764306  0.148833  0.418586  1
  O  O18  1  0.482869  0.773107  0.327824  1
  O  O19  1  0.998660  0.701371  0.314698  1
  O  O20  1  0.001340  0.201371  0.185302  1
  O  O21  1  0.517131  0.273107  0.172176  1
  O  O22  1  0.235694  0.648833  0.081414  1
  O  O23  1  0.705715  0.789499  0.084298  1
