# generated using pymatgen
data_Li7FeO5F
_symmetry_space_group_name_H-M   'P 1'
_cell_length_a   5.52476047
_cell_length_b   5.52514413
_cell_length_c   10.87473028
_cell_angle_alpha   87.48516069
_cell_angle_beta   87.33315427
_cell_angle_gamma   61.52818147
_symmetry_Int_Tables_number   1
_chemical_formula_structural   Li7FeO5F
_chemical_formula_sum   'Li14 Fe2 O10 F2'
_cell_volume   291.39812536
_cell_formula_units_Z   2
loop_
 _symmetry_equiv_pos_site_id
 _symmetry_equiv_pos_as_xyz
  1  'x, y, z'
loop_
 _atom_site_type_symbol
 _atom_site_label
 _atom_site_symmetry_multiplicity
 _atom_site_fract_x
 _atom_site_fract_y
 _atom_site_fract_z
 _atom_site_occupancy
  Li  Li0  1  0.357308  0.978361  0.763593  1
  Li  Li1  1  0.398201  0.626259  0.632898  1
  Li  Li2  1  0.671915  0.649451  0.912117  1
  Li  Li3  1  0.649358  0.674260  0.429228  1
  Li  Li4  1  0.958963  0.729248  0.757716  1
  Li  Li5  1  0.711566  0.281977  0.774772  1
  Li  Li6  1  0.994115  0.385480  0.628179  1
  Li  Li7  1  0.263385  0.689901  0.270894  1
  Li  Li8  1  0.005073  0.341960  0.264810  1
  Li  Li9  1  0.310119  0.348041  0.929470  1
  Li  Li10  1  0.349299  0.311123  0.413483  1
  Li  Li11  1  0.612215  0.387040  0.129633  1
  Li  Li12  1  0.367423  0.030019  0.130069  1
  Li  Li13  1  0.704721  0.003842  0.261364  1
  Fe  Fe14  1  0.001911  0.986325  0.002346  1
  Fe  Fe15  1  0.991145  0.997366  0.502576  1
  O  O16  1  0.000047  0.041188  0.170858  1
  O  O17  1  0.043326  0.000447  0.670775  1
  O  O18  1  0.296502  0.674926  0.458814  1
  O  O19  1  0.710377  0.986052  0.432738  1
  O  O20  1  0.680357  0.632548  0.725520  1
  O  O21  1  0.996145  0.705494  0.930011  1
  O  O22  1  0.973253  0.326832  0.452523  1
  O  O23  1  0.355492  0.320209  0.226733  1
  O  O24  1  0.328021  0.979497  0.954774  1
  O  O25  1  0.677941  0.290826  0.956744  1
  F  F26  1  0.632194  0.682456  0.221643  1
  F  F27  1  0.318914  0.352964  0.722607  1
