# generated using pymatgen
data_Ce2TiO5
_symmetry_space_group_name_H-M   'P 1'
_cell_length_a   3.84674357
_cell_length_b   10.77342725
_cell_length_c   11.54250755
_cell_angle_alpha   90.00000000
_cell_angle_beta   90.00000000
_cell_angle_gamma   90.00000000
_symmetry_Int_Tables_number   1
_chemical_formula_structural   Ce2TiO5
_chemical_formula_sum   'Ce8 Ti4 O20'
_cell_volume   478.35166191
_cell_formula_units_Z   4
loop_
 _symmetry_equiv_pos_site_id
 _symmetry_equiv_pos_as_xyz
  1  'x, y, z'
loop_
 _atom_site_type_symbol
 _atom_site_label
 _atom_site_symmetry_multiplicity
 _atom_site_fract_x
 _atom_site_fract_y
 _atom_site_fract_z
 _atom_site_occupancy
  Ce  Ce0  1  0.250000  0.107822  0.278070  1
  Ce  Ce1  1  0.250000  0.137562  0.942388  1
  Ce  Ce2  1  0.750000  0.362438  0.442388  1
  Ce  Ce3  1  0.750000  0.392178  0.778070  1
  Ce  Ce4  1  0.250000  0.607822  0.221930  1
  Ce  Ce5  1  0.250000  0.637562  0.557612  1
  Ce  Ce6  1  0.750000  0.862438  0.057612  1
  Ce  Ce7  1  0.750000  0.892178  0.721930  1
  Ti  Ti8  1  0.250000  0.181358  0.621592  1
  Ti  Ti9  1  0.750000  0.318642  0.121592  1
  Ti  Ti10  1  0.250000  0.681358  0.878408  1
  Ti  Ti11  1  0.750000  0.818642  0.378408  1
  O  O12  1  0.750000  0.008405  0.897451  1
  O  O13  1  0.250000  0.017344  0.661203  1
  O  O14  1  0.250000  0.223896  0.457583  1
  O  O15  1  0.750000  0.235543  0.617588  1
  O  O16  1  0.750000  0.236931  0.271791  1
  O  O17  1  0.250000  0.263069  0.771791  1
  O  O18  1  0.250000  0.264457  0.117588  1
  O  O19  1  0.750000  0.276104  0.957583  1
  O  O20  1  0.750000  0.482656  0.161203  1
  O  O21  1  0.250000  0.491595  0.397451  1
  O  O22  1  0.750000  0.508405  0.602549  1
  O  O23  1  0.250000  0.517344  0.838797  1
  O  O24  1  0.250000  0.723896  0.042417  1
  O  O25  1  0.750000  0.735543  0.882412  1
  O  O26  1  0.750000  0.736931  0.228209  1
  O  O27  1  0.250000  0.763069  0.728209  1
  O  O28  1  0.250000  0.764457  0.382412  1
  O  O29  1  0.750000  0.776104  0.542417  1
  O  O30  1  0.750000  0.982656  0.338797  1
  O  O31  1  0.250000  0.991595  0.102549  1
