# generated using pymatgen
data_Mn3BiO8
_symmetry_space_group_name_H-M   'P 1'
_cell_length_a   8.60940287
_cell_length_b   8.60940287
_cell_length_c   8.60940287
_cell_angle_alpha   90.00000000
_cell_angle_beta   90.00000000
_cell_angle_gamma   90.00000000
_symmetry_Int_Tables_number   1
_chemical_formula_structural   Mn3BiO8
_chemical_formula_sum   'Mn12 Bi4 O32'
_cell_volume   638.14459117
_cell_formula_units_Z   4
loop_
 _symmetry_equiv_pos_site_id
 _symmetry_equiv_pos_as_xyz
  1  'x, y, z'
loop_
 _atom_site_type_symbol
 _atom_site_label
 _atom_site_symmetry_multiplicity
 _atom_site_fract_x
 _atom_site_fract_y
 _atom_site_fract_z
 _atom_site_occupancy
  Mn  Mn0  1  0.098898  0.151102  0.625000  1
  Mn  Mn1  1  0.125000  0.401102  0.848898  1
  Mn  Mn2  1  0.151102  0.625000  0.098898  1
  Mn  Mn3  1  0.348898  0.375000  0.598898  1
  Mn  Mn4  1  0.375000  0.598898  0.348898  1
  Mn  Mn5  1  0.401102  0.848898  0.125000  1
  Mn  Mn6  1  0.598898  0.348898  0.375000  1
  Mn  Mn7  1  0.625000  0.098898  0.151102  1
  Mn  Mn8  1  0.651102  0.875000  0.901102  1
  Mn  Mn9  1  0.848898  0.125000  0.401102  1
  Mn  Mn10  1  0.875000  0.901102  0.651102  1
  Mn  Mn11  1  0.901102  0.651102  0.875000  1
  Bi  Bi12  1  0.125000  0.875000  0.375000  1
  Bi  Bi13  1  0.375000  0.125000  0.875000  1
  Bi  Bi14  1  0.625000  0.625000  0.625000  1
  Bi  Bi15  1  0.875000  0.375000  0.125000  1
  O  O16  1  0.071588  0.138399  0.402610  1
  O  O17  1  0.097390  0.928412  0.638399  1
  O  O18  1  0.125698  0.625698  0.874302  1
  O  O19  1  0.111601  0.178412  0.847390  1
  O  O20  1  0.138399  0.402610  0.071588  1
  O  O21  1  0.124302  0.375698  0.624302  1
  O  O22  1  0.152610  0.611601  0.321588  1
  O  O23  1  0.178412  0.847390  0.111601  1
  O  O24  1  0.321588  0.152610  0.611601  1
  O  O25  1  0.347390  0.388399  0.821588  1
  O  O26  1  0.375698  0.624302  0.124302  1
  O  O27  1  0.361601  0.597390  0.571588  1
  O  O28  1  0.388399  0.821588  0.347390  1
  O  O29  1  0.374302  0.374302  0.374302  1
  O  O30  1  0.402610  0.071588  0.138399  1
  O  O31  1  0.428412  0.861601  0.902610  1
  O  O32  1  0.571588  0.361601  0.597390  1
  O  O33  1  0.597390  0.571588  0.361601  1
  O  O34  1  0.625698  0.874302  0.125698  1
  O  O35  1  0.611601  0.321588  0.152610  1
  O  O36  1  0.638399  0.097390  0.928412  1
  O  O37  1  0.624302  0.124302  0.375698  1
  O  O38  1  0.652610  0.888399  0.678412  1
  O  O39  1  0.678412  0.652610  0.888399  1
  O  O40  1  0.821588  0.347390  0.388399  1
  O  O41  1  0.847390  0.111601  0.178412  1
  O  O42  1  0.875698  0.875698  0.875698  1
  O  O43  1  0.861601  0.902610  0.428412  1
  O  O44  1  0.888399  0.678412  0.652610  1
  O  O45  1  0.874302  0.125698  0.625698  1
  O  O46  1  0.902610  0.428412  0.861601  1
  O  O47  1  0.928412  0.638399  0.097390  1
