# generated using pymatgen
data_Dy2(SeO4)3
_symmetry_space_group_name_H-M   'P 1'
_cell_length_a   6.83234316
_cell_length_b   6.83234316
_cell_length_c   11.29378682
_cell_angle_alpha   80.63340825
_cell_angle_beta   99.36659175
_cell_angle_gamma   62.81591129
_symmetry_Int_Tables_number   1
_chemical_formula_structural   Dy2(SeO4)3
_chemical_formula_sum   'Dy4 Se6 O24'
_cell_volume   445.51405056
_cell_formula_units_Z   2
loop_
 _symmetry_equiv_pos_site_id
 _symmetry_equiv_pos_as_xyz
  1  'x, y, z'
loop_
 _atom_site_type_symbol
 _atom_site_label
 _atom_site_symmetry_multiplicity
 _atom_site_fract_x
 _atom_site_fract_y
 _atom_site_fract_z
 _atom_site_occupancy
  Dy  Dy0  1  0.706778  0.042928  0.405575  1
  Dy  Dy1  1  0.957072  0.293222  0.905575  1
  Dy  Dy2  1  0.042928  0.706778  0.094425  1
  Dy  Dy3  1  0.293222  0.957072  0.594425  1
  Se  Se4  1  0.528023  0.212660  0.075298  1
  Se  Se5  1  0.787340  0.471977  0.575298  1
  Se  Se6  1  0.118254  0.118254  0.250000  1
  Se  Se7  1  0.881746  0.881746  0.750000  1
  Se  Se8  1  0.212660  0.528023  0.424702  1
  Se  Se9  1  0.471977  0.787340  0.924702  1
  O  O10  1  0.210653  0.873143  0.211519  1
  O  O11  1  0.584084  0.027026  0.209818  1
  O  O12  1  0.078226  0.318243  0.122696  1
  O  O13  1  0.787477  0.111545  0.042468  1
  O  O14  1  0.126857  0.789347  0.711519  1
  O  O15  1  0.466696  0.424362  0.393271  1
  O  O16  1  0.766104  0.662980  0.455579  1
  O  O17  1  0.662980  0.766104  0.044421  1
  O  O18  1  0.424362  0.466696  0.106729  1
  O  O19  1  0.972974  0.415916  0.709818  1
  O  O20  1  0.111545  0.787477  0.457532  1
  O  O21  1  0.318243  0.078226  0.377304  1
  O  O22  1  0.681757  0.921774  0.622696  1
  O  O23  1  0.888455  0.212523  0.542468  1
  O  O24  1  0.027026  0.584084  0.290182  1
  O  O25  1  0.575638  0.533304  0.893271  1
  O  O26  1  0.337020  0.233896  0.955579  1
  O  O27  1  0.233896  0.337020  0.544421  1
  O  O28  1  0.533304  0.575638  0.606729  1
  O  O29  1  0.873143  0.210653  0.288481  1
  O  O30  1  0.212523  0.888455  0.957532  1
  O  O31  1  0.921774  0.681757  0.877304  1
  O  O32  1  0.415916  0.972974  0.790182  1
  O  O33  1  0.789347  0.126857  0.788481  1
