# generated using pymatgen
data_HfPbO3
_symmetry_space_group_name_H-M   'P 1'
_cell_length_a   5.80999872
_cell_length_b   5.83668910
_cell_length_c   8.27872997
_cell_angle_alpha   90.00000000
_cell_angle_beta   90.00000000
_cell_angle_gamma   90.00000000
_symmetry_Int_Tables_number   1
_chemical_formula_structural   HfPbO3
_chemical_formula_sum   'Hf4 Pb4 O12'
_cell_volume   280.74130488
_cell_formula_units_Z   4
loop_
 _symmetry_equiv_pos_site_id
 _symmetry_equiv_pos_as_xyz
  1  'x, y, z'
loop_
 _atom_site_type_symbol
 _atom_site_label
 _atom_site_symmetry_multiplicity
 _atom_site_fract_x
 _atom_site_fract_y
 _atom_site_fract_z
 _atom_site_occupancy
  Hf  Hf0  1  0.000000  0.000000  0.500000  1
  Hf  Hf1  1  0.000000  0.000000  0.000000  1
  Hf  Hf2  1  0.500000  0.500000  0.500000  1
  Hf  Hf3  1  0.500000  0.500000  0.000000  1
  Pb  Pb4  1  0.498670  0.018267  0.750000  1
  Pb  Pb5  1  0.998670  0.481733  0.250000  1
  Pb  Pb6  1  0.001330  0.518267  0.750000  1
  Pb  Pb7  1  0.501330  0.981733  0.250000  1
  O  O8  1  0.059549  0.009178  0.250000  1
  O  O9  1  0.712861  0.213155  0.029690  1
  O  O10  1  0.712861  0.213155  0.470310  1
  O  O11  1  0.212861  0.286845  0.970310  1
  O  O12  1  0.212861  0.286845  0.529690  1
  O  O13  1  0.559549  0.490822  0.750000  1
  O  O14  1  0.440451  0.509178  0.250000  1
  O  O15  1  0.787139  0.713155  0.029690  1
  O  O16  1  0.787139  0.713155  0.470310  1
  O  O17  1  0.287139  0.786845  0.529690  1
  O  O18  1  0.287139  0.786845  0.970310  1
  O  O19  1  0.940451  0.990822  0.750000  1
