# generated using pymatgen
data_Li2Cr2O7
_symmetry_space_group_name_H-M   'P 1'
_cell_length_a   5.43284519
_cell_length_b   7.62163822
_cell_length_c   7.82360526
_cell_angle_alpha   102.04976898
_cell_angle_beta   102.48971522
_cell_angle_gamma   90.58154054
_symmetry_Int_Tables_number   1
_chemical_formula_structural   Li2Cr2O7
_chemical_formula_sum   'Li4 Cr4 O14'
_cell_volume   308.79899848
_cell_formula_units_Z   2
loop_
 _symmetry_equiv_pos_site_id
 _symmetry_equiv_pos_as_xyz
  1  'x, y, z'
loop_
 _atom_site_type_symbol
 _atom_site_label
 _atom_site_symmetry_multiplicity
 _atom_site_fract_x
 _atom_site_fract_y
 _atom_site_fract_z
 _atom_site_occupancy
  Li  Li0  1  0.804808  0.252741  0.688631  1
  Li  Li1  1  0.765930  0.775662  0.079074  1
  Li  Li2  1  0.234070  0.224338  0.920926  1
  Li  Li3  1  0.195192  0.747259  0.311369  1
  Cr  Cr4  1  0.780744  0.249062  0.136078  1
  Cr  Cr5  1  0.754737  0.762924  0.523489  1
  Cr  Cr6  1  0.245263  0.237076  0.476511  1
  Cr  Cr7  1  0.219256  0.750938  0.863922  1
  O  O8  1  0.975674  0.658985  0.671828  1
  O  O9  1  0.883324  0.271459  0.956189  1
  O  O10  1  0.735188  0.037338  0.134314  1
  O  O11  1  0.829863  0.722585  0.325223  1
  O  O12  1  0.775641  0.977708  0.607380  1
  O  O13  1  0.536453  0.311373  0.501303  1
  O  O14  1  0.489309  0.657879  0.870743  1
  O  O15  1  0.510691  0.342121  0.129257  1
  O  O16  1  0.463547  0.688627  0.498697  1
  O  O17  1  0.224359  0.022292  0.392620  1
  O  O18  1  0.170137  0.277415  0.674777  1
  O  O19  1  0.264812  0.962662  0.865686  1
  O  O20  1  0.116676  0.728541  0.043811  1
  O  O21  1  0.024326  0.341015  0.328172  1
