# generated using pymatgen
data_Li2Hf2O5
_symmetry_space_group_name_H-M   'P 1'
_cell_length_a   10.26480790
_cell_length_b   3.89635718
_cell_length_c   12.94654192
_cell_angle_alpha   90.00000000
_cell_angle_beta   122.72725168
_cell_angle_gamma   90.00000000
_symmetry_Int_Tables_number   1
_chemical_formula_structural   Li2Hf2O5
_chemical_formula_sum   'Li8 Hf8 O20'
_cell_volume   435.60251003
_cell_formula_units_Z   4
loop_
 _symmetry_equiv_pos_site_id
 _symmetry_equiv_pos_as_xyz
  1  'x, y, z'
loop_
 _atom_site_type_symbol
 _atom_site_label
 _atom_site_symmetry_multiplicity
 _atom_site_fract_x
 _atom_site_fract_y
 _atom_site_fract_z
 _atom_site_occupancy
  Li  Li0  1  0.049070  0.260126  0.954150  1
  Li  Li1  1  0.925199  0.298709  0.671637  1
  Li  Li2  1  0.074801  0.798709  0.828363  1
  Li  Li3  1  0.950930  0.760126  0.545850  1
  Li  Li4  1  0.049070  0.239874  0.454150  1
  Li  Li5  1  0.925199  0.201291  0.171637  1
  Li  Li6  1  0.074801  0.701291  0.328363  1
  Li  Li7  1  0.950930  0.739874  0.045850  1
  Hf  Hf8  1  0.331353  0.678319  0.147334  1
  Hf  Hf9  1  0.666375  0.868135  0.633578  1
  Hf  Hf10  1  0.668647  0.178319  0.352666  1
  Hf  Hf11  1  0.666375  0.631865  0.133578  1
  Hf  Hf12  1  0.333625  0.368135  0.866422  1
  Hf  Hf13  1  0.331353  0.821681  0.647334  1
  Hf  Hf14  1  0.333625  0.131865  0.366422  1
  Hf  Hf15  1  0.668647  0.321681  0.852666  1
  O  O16  1  0.118940  0.746150  0.016528  1
  O  O17  1  0.384044  0.169231  0.212953  1
  O  O18  1  0.698697  0.347463  0.701865  1
  O  O19  1  0.586032  0.118305  0.464908  1
  O  O20  1  0.413968  0.618305  0.035092  1
  O  O21  1  0.874378  0.806921  0.663411  1
  O  O22  1  0.615956  0.669231  0.287047  1
  O  O23  1  0.881060  0.246150  0.483472  1
  O  O24  1  0.125622  0.306921  0.836589  1
  O  O25  1  0.698697  0.152537  0.201865  1
  O  O26  1  0.301303  0.847463  0.798135  1
  O  O27  1  0.874378  0.693079  0.163411  1
  O  O28  1  0.118940  0.753850  0.516528  1
  O  O29  1  0.384044  0.330769  0.712953  1
  O  O30  1  0.125622  0.193079  0.336589  1
  O  O31  1  0.586032  0.381695  0.964908  1
  O  O32  1  0.413968  0.881695  0.535092  1
  O  O33  1  0.301303  0.652537  0.298135  1
  O  O34  1  0.615956  0.830769  0.787047  1
  O  O35  1  0.881060  0.253850  0.983472  1
