# generated using pymatgen
data_SrCd2H16(Cl3O4)2
_symmetry_space_group_name_H-M   'P 1'
_cell_length_a   8.06584426
_cell_length_b   9.90355954
_cell_length_c   12.03725735
_cell_angle_alpha   106.95825198
_cell_angle_beta   100.27166010
_cell_angle_gamma   88.49023361
_symmetry_Int_Tables_number   1
_chemical_formula_structural   SrCd2H16(Cl3O4)2
_chemical_formula_sum   'Sr2 Cd4 H32 Cl12 O16'
_cell_volume   904.65600626
_cell_formula_units_Z   2
loop_
 _symmetry_equiv_pos_site_id
 _symmetry_equiv_pos_as_xyz
  1  'x, y, z'
loop_
 _atom_site_type_symbol
 _atom_site_label
 _atom_site_symmetry_multiplicity
 _atom_site_fract_x
 _atom_site_fract_y
 _atom_site_fract_z
 _atom_site_occupancy
  Sr  Sr0  1  0.473039  0.664448  0.915414  1
  Sr  Sr1  1  0.526961  0.335552  0.084586  1
  Cd  Cd2  1  0.390599  0.183312  0.570128  1
  Cd  Cd3  1  0.609401  0.816688  0.429872  1
  Cd  Cd4  1  0.895459  0.186803  0.574875  1
  Cd  Cd5  1  0.104541  0.813197  0.425125  1
  H  H6  1  0.821688  0.439301  0.007458  1
  H  H7  1  0.178312  0.560699  0.992542  1
  H  H8  1  0.682009  0.408245  0.894451  1
  H  H9  1  0.317991  0.591755  0.105549  1
  H  H10  1  0.351122  0.853354  0.146599  1
  H  H11  1  0.648878  0.146646  0.853401  1
  H  H12  1  0.191008  0.848363  0.052712  1
  H  H13  1  0.808992  0.151637  0.947288  1
  H  H14  1  0.785974  0.796577  0.120182  1
  H  H15  1  0.214026  0.203423  0.879818  1
  H  H16  1  0.813291  0.885851  0.037244  1
  H  H17  1  0.186709  0.114149  0.962756  1
  H  H18  1  0.780219  0.601740  0.775870  1
  H  H19  1  0.219781  0.398260  0.224130  1
  H  H20  1  0.628102  0.548897  0.674446  1
  H  H21  1  0.371898  0.451103  0.325554  1
  H  H22  1  0.186584  0.523218  0.677623  1
  H  H23  1  0.813416  0.476782  0.322377  1
  H  H24  1  0.255422  0.669747  0.682166  1
  H  H25  1  0.744578  0.330253  0.317834  1
  H  H26  1  0.521363  0.852820  0.751632  1
  H  H27  1  0.478637  0.147180  0.248368  1
  H  H28  1  0.379840  0.942601  0.806451  1
  H  H29  1  0.620160  0.057399  0.193549  1
  H  H30  1  0.082123  0.375547  0.039237  1
  H  H31  1  0.917877  0.624453  0.960763  1
  H  H32  1  0.999143  0.462269  0.144305  1
  H  H33  1  0.000857  0.537731  0.855695  1
  H  H34  1  0.961323  0.166457  0.193677  1
  H  H35  1  0.038677  0.833543  0.806323  1
  H  H36  1  0.145677  0.138678  0.187313  1
  H  H37  1  0.854323  0.861322  0.812687  1
  Cl  Cl38  1  0.350507  0.981098  0.364721  1
  Cl  Cl39  1  0.649493  0.018902  0.635279  1
  Cl  Cl40  1  0.832034  0.989115  0.375991  1
  Cl  Cl41  1  0.167966  0.010885  0.624009  1
  Cl  Cl42  1  0.124538  0.323807  0.514685  1
  Cl  Cl43  1  0.875462  0.676193  0.485315  1
  Cl  Cl44  1  0.429627  0.335149  0.789932  1
  Cl  Cl45  1  0.570373  0.664851  0.210068  1
  Cl  Cl46  1  0.624332  0.329029  0.519321  1
  Cl  Cl47  1  0.375668  0.670971  0.480679  1
  Cl  Cl48  1  0.962419  0.317599  0.791266  1
  Cl  Cl49  1  0.037581  0.682401  0.208734  1
  O  O50  1  0.712521  0.474951  0.974717  1
  O  O51  1  0.287479  0.525049  0.025283  1
  O  O52  1  0.313513  0.843732  0.062333  1
  O  O53  1  0.686487  0.156268  0.937667  1
  O  O54  1  0.730680  0.824973  0.051230  1
  O  O55  1  0.269320  0.175027  0.948770  1
  O  O56  1  0.661736  0.620089  0.751569  1
  O  O57  1  0.338264  0.379911  0.248431  1
  O  O58  1  0.225537  0.616640  0.732567  1
  O  O59  1  0.774463  0.383360  0.267433  1
  O  O60  1  0.446663  0.859218  0.808303  1
  O  O61  1  0.553337  0.140782  0.191697  1
  O  O62  1  0.994413  0.368698  0.084239  1
  O  O63  1  0.005587  0.631302  0.915761  1
  O  O64  1  0.034180  0.094217  0.155603  1
  O  O65  1  0.965820  0.905783  0.844397  1
