# generated using pymatgen
data_Li4AlCr3O8
_symmetry_space_group_name_H-M   'P 1'
_cell_length_a   5.89432037
_cell_length_b   5.89432037
_cell_length_c   5.08165993
_cell_angle_alpha   73.30728953
_cell_angle_beta   106.69271047
_cell_angle_gamma   120.28387187
_symmetry_Int_Tables_number   1
_chemical_formula_structural   Li4AlCr3O8
_chemical_formula_sum   'Li4 Al1 Cr3 O8'
_cell_volume   143.85460352
_cell_formula_units_Z   1
loop_
 _symmetry_equiv_pos_site_id
 _symmetry_equiv_pos_as_xyz
  1  'x, y, z'
loop_
 _atom_site_type_symbol
 _atom_site_label
 _atom_site_symmetry_multiplicity
 _atom_site_fract_x
 _atom_site_fract_y
 _atom_site_fract_z
 _atom_site_occupancy
  Li  Li0  1  0.000000  0.500000  0.000000  1
  Li  Li1  1  0.500000  1.000000  0.000000  1
  Li  Li2  1  0.249971  0.750029  0.500388  1
  Li  Li3  1  0.750029  0.249971  0.499612  1
  Al  Al4  1  0.000000  0.000000  0.000000  1
  Cr  Cr5  1  0.500000  0.500000  0.000000  1
  Cr  Cr6  1  0.247911  0.247911  0.500000  1
  Cr  Cr7  1  0.752089  0.752089  0.500000  1
  O  O8  1  0.351636  0.130398  0.234708  1
  O  O9  1  0.869602  0.648364  0.234708  1
  O  O10  1  0.110754  0.889246  0.752918  1
  O  O11  1  0.387130  0.612870  0.259160  1
  O  O12  1  0.889246  0.110754  0.247082  1
  O  O13  1  0.130398  0.351636  0.765292  1
  O  O14  1  0.612870  0.387130  0.740840  1
  O  O15  1  0.648364  0.869602  0.765292  1
