# generated using pymatgen
data_Li4Nb2Co3Sn3O16
_symmetry_space_group_name_H-M   'P 1'
_cell_length_a   6.18199901
_cell_length_b   6.18199901
_cell_length_c   9.89427769
_cell_angle_alpha   89.78422007
_cell_angle_beta   90.21577993
_cell_angle_gamma   120.14498160
_symmetry_Int_Tables_number   1
_chemical_formula_structural   Li4Nb2Co3Sn3O16
_chemical_formula_sum   'Li4 Nb2 Co3 Sn3 O16'
_cell_volume   326.98825921
_cell_formula_units_Z   1
loop_
 _symmetry_equiv_pos_site_id
 _symmetry_equiv_pos_as_xyz
  1  'x, y, z'
loop_
 _atom_site_type_symbol
 _atom_site_label
 _atom_site_symmetry_multiplicity
 _atom_site_fract_x
 _atom_site_fract_y
 _atom_site_fract_z
 _atom_site_occupancy
  Li  Li0  1  0.675620  0.324380  0.099018  1
  Li  Li1  1  0.989183  0.010817  0.016952  1
  Li  Li2  1  0.995085  0.004915  0.501703  1
  Li  Li3  1  0.331513  0.668487  0.594606  1
  Nb  Nb4  1  0.676168  0.323832  0.501891  1
  Nb  Nb5  1  0.350895  0.649105  0.020691  1
  Co  Co6  1  0.828468  0.171532  0.786234  1
  Co  Co7  1  0.660534  0.824719  0.288016  1
  Co  Co8  1  0.175281  0.339466  0.288016  1
  Sn  Sn9  1  0.831389  0.662842  0.785803  1
  Sn  Sn10  1  0.337158  0.168611  0.785803  1
  Sn  Sn11  1  0.173040  0.826960  0.284378  1
  O  O12  1  0.835678  0.656371  0.411669  1
  O  O13  1  0.512735  0.487265  0.660352  1
  O  O14  1  0.664219  0.335781  0.897818  1
  O  O15  1  0.996953  0.003047  0.688190  1
  O  O16  1  0.999982  0.000018  0.202657  1
  O  O17  1  0.343629  0.164322  0.411669  1
  O  O18  1  0.955881  0.485503  0.653230  1
  O  O19  1  0.514497  0.044119  0.653230  1
  O  O20  1  0.159150  0.840850  0.905245  1
  O  O21  1  0.829448  0.170552  0.411806  1
  O  O22  1  0.475522  0.957096  0.146813  1
  O  O23  1  0.042904  0.524478  0.146813  1
  O  O24  1  0.335596  0.664404  0.390106  1
  O  O25  1  0.661810  0.829766  0.907819  1
  O  O26  1  0.487504  0.512496  0.143518  1
  O  O27  1  0.170234  0.338190  0.907819  1
