# generated using pymatgen
data_Fe4OF7
_symmetry_space_group_name_H-M   'P 1'
_cell_length_a   4.81036900
_cell_length_b   6.48787021
_cell_length_c   10.15955800
_cell_angle_alpha   71.55223077
_cell_angle_beta   89.19567238
_cell_angle_gamma   89.73729759
_symmetry_Int_Tables_number   1
_chemical_formula_structural   Fe4OF7
_chemical_formula_sum   'Fe8 O2 F14'
_cell_volume   300.74707395
_cell_formula_units_Z   2
loop_
 _symmetry_equiv_pos_site_id
 _symmetry_equiv_pos_as_xyz
  1  'x, y, z'
loop_
 _atom_site_type_symbol
 _atom_site_label
 _atom_site_symmetry_multiplicity
 _atom_site_fract_x
 _atom_site_fract_y
 _atom_site_fract_z
 _atom_site_occupancy
  Fe  Fe0  1  0.491817  0.621550  0.258083  1
  Fe  Fe1  1  0.511537  0.878323  0.745011  1
  Fe  Fe2  1  0.481439  0.369951  0.760529  1
  Fe  Fe3  1  0.498546  0.128086  0.249857  1
  Fe  Fe4  1  0.018710  0.491185  0.992471  1
  Fe  Fe5  1  0.010002  0.743662  0.496247  1
  Fe  Fe6  1  0.011005  0.009027  0.995594  1
  Fe  Fe7  1  0.017524  0.275419  0.492499  1
  O  O8  1  0.195542  0.532872  0.406477  1
  O  O9  1  0.190185  0.311850  0.907093  1
  F  F10  1  0.198371  0.066060  0.401702  1
  F  F11  1  0.202661  0.783617  0.901082  1
  F  F12  1  0.294157  0.428954  0.147554  1
  F  F13  1  0.289741  0.168741  0.649444  1
  F  F14  1  0.302951  0.926912  0.149770  1
  F  F15  1  0.303541  0.682547  0.649153  1
  F  F16  1  0.703481  0.068872  0.849842  1
  F  F17  1  0.711171  0.582288  0.852551  1
  F  F18  1  0.704531  0.832606  0.349371  1
  F  F19  1  0.709942  0.318353  0.353650  1
  F  F20  1  0.814325  0.972779  0.592298  1
  F  F21  1  0.799543  0.219387  0.100705  1
  F  F22  1  0.790675  0.430977  0.604418  1
  F  F23  1  0.809701  0.684735  0.096553  1
