# generated using pymatgen
data_Li4MnO3
_symmetry_space_group_name_H-M   'P 1'
_cell_length_a   5.80075386
_cell_length_b   5.80075386
_cell_length_c   6.85350180
_cell_angle_alpha   71.55005040
_cell_angle_beta   108.44994960
_cell_angle_gamma   127.52148559
_symmetry_Int_Tables_number   1
_chemical_formula_structural   Li4MnO3
_chemical_formula_sum   'Li8 Mn2 O6'
_cell_volume   171.14066298
_cell_formula_units_Z   2
loop_
 _symmetry_equiv_pos_site_id
 _symmetry_equiv_pos_as_xyz
  1  'x, y, z'
loop_
 _atom_site_type_symbol
 _atom_site_label
 _atom_site_symmetry_multiplicity
 _atom_site_fract_x
 _atom_site_fract_y
 _atom_site_fract_z
 _atom_site_occupancy
  Li  Li0  1  0.027195  0.262472  0.075883  1
  Li  Li1  1  0.737528  0.972805  0.575883  1
  Li  Li2  1  0.117506  0.567129  0.358256  1
  Li  Li3  1  0.487732  0.074475  0.169383  1
  Li  Li4  1  0.432871  0.882494  0.858256  1
  Li  Li5  1  0.925525  0.512268  0.669383  1
  Li  Li6  1  0.287194  0.014827  0.467867  1
  Li  Li7  1  0.985173  0.712806  0.967867  1
  Mn  Mn8  1  0.664970  0.632551  0.259175  1
  Mn  Mn9  1  0.367449  0.335030  0.759175  1
  O  O10  1  0.323475  0.656682  0.137605  1
  O  O11  1  0.343318  0.676525  0.637605  1
  O  O12  1  0.705504  0.297892  0.417448  1
  O  O13  1  0.070061  0.939213  0.176434  1
  O  O14  1  0.702108  0.294496  0.917448  1
  O  O15  1  0.060787  0.929939  0.676434  1
