# generated using pymatgen
data_Li9Mn2P4HO18
_symmetry_space_group_name_H-M   'P 1'
_cell_length_a   10.73138264
_cell_length_b   10.73138264
_cell_length_c   10.73138264
_cell_angle_alpha   143.30773443
_cell_angle_beta   96.94039498
_cell_angle_gamma   94.43378641
_symmetry_Int_Tables_number   1
_chemical_formula_structural   Li9Mn2P4HO18
_chemical_formula_sum   'Li18 Mn4 P8 H2 O36'
_cell_volume   700.70553976
_cell_formula_units_Z   2
loop_
 _symmetry_equiv_pos_site_id
 _symmetry_equiv_pos_as_xyz
  1  'x, y, z'
loop_
 _atom_site_type_symbol
 _atom_site_label
 _atom_site_symmetry_multiplicity
 _atom_site_fract_x
 _atom_site_fract_y
 _atom_site_fract_z
 _atom_site_occupancy
  Li  Li0  1  0.022519  0.243963  0.758554  1
  Li  Li1  1  0.022519  0.763965  0.278556  1
  Li  Li2  1  0.760376  0.882696  0.377680  1
  Li  Li3  1  0.998442  0.618965  0.879477  1
  Li  Li4  1  0.238326  0.874861  0.863465  1
  Li  Li5  1  0.270980  0.270980  0.000000  1
  Li  Li6  1  0.506542  0.006542  0.500000  1
  Li  Li7  1  0.988543  0.988543  0.000000  1
  Li  Li8  1  0.750144  0.750144  0.000000  1
  Li  Li9  1  0.506542  0.506542  0.000000  1
  Li  Li10  1  0.270980  0.770980  0.500000  1
  Li  Li11  1  0.988543  0.488543  0.500000  1
  Li  Li12  1  0.750144  0.250144  0.500000  1
  Li  Li13  1  0.011396  0.374861  0.136535  1
  Li  Li14  1  0.505016  0.382696  0.622320  1
  Li  Li15  1  0.739489  0.118965  0.120523  1
  Li  Li16  1  0.485409  0.743963  0.721444  1
  Li  Li17  1  0.485409  0.263965  0.241446  1
  Mn  Mn18  1  0.247689  0.992814  0.238603  1
  Mn  Mn19  1  0.754211  0.492814  0.245125  1
  Mn  Mn20  1  0.754211  0.009087  0.761397  1
  Mn  Mn21  1  0.247689  0.509087  0.754875  1
  P  P22  1  0.969677  0.107727  0.361950  1
  P  P23  1  0.756014  0.392331  0.863682  1
  P  P24  1  0.483326  0.115569  0.867757  1
  P  P25  1  0.247502  0.387873  0.359629  1
  P  P26  1  0.247811  0.615569  0.132243  1
  P  P27  1  0.028244  0.887873  0.640371  1
  P  P28  1  0.745776  0.607727  0.638050  1
  P  P29  1  0.528649  0.892331  0.136318  1
  H  H30  1  0.593376  0.688151  0.405225  1
  H  H31  1  0.282926  0.188151  0.594775  1
  O  O32  1  0.163967  0.511155  0.152812  1
  O  O33  1  0.151752  0.991340  0.660412  1
  O  O34  1  0.205257  0.444863  0.882967  1
  O  O35  1  0.948009  0.678947  0.389822  1
  O  O36  1  0.205257  0.822289  0.260394  1
  O  O37  1  0.948009  0.058187  0.769061  1
  O  O38  1  0.193250  0.756150  0.937100  1
  O  O39  1  0.687593  0.744182  0.443411  1
  O  O40  1  0.940339  0.018100  0.422239  1
  O  O41  1  0.905080  0.482420  0.922660  1
  O  O42  1  0.720290  0.527455  0.075924  1
  O  O43  1  0.045281  0.355611  0.572825  1
  O  O44  1  0.045281  0.972456  0.189670  1
  O  O45  1  0.720290  0.144366  0.692834  1
  O  O46  1  0.449646  0.173062  0.776584  1
  O  O47  1  0.096676  0.327271  0.269405  1
  O  O48  1  0.843534  0.088210  0.255324  1
  O  O49  1  0.666661  0.410091  0.756570  1
  O  O50  1  0.832886  0.588210  0.744676  1
  O  O51  1  0.653521  0.910091  0.243430  1
  O  O52  1  0.396478  0.673062  0.223416  1
  O  O53  1  0.057865  0.827271  0.730595  1
  O  O54  1  0.782787  0.472456  0.427175  1
  O  O55  1  0.451532  0.644366  0.924076  1
  O  O56  1  0.782787  0.855611  0.810330  1
  O  O57  1  0.451532  0.027455  0.307166  1
  O  O58  1  0.595861  0.518100  0.577761  1
  O  O59  1  0.559759  0.982420  0.077340  1
  O  O60  1  0.300770  0.244182  0.556589  1
  O  O61  1  0.819051  0.256150  0.062900  1
  O  O62  1  0.289126  0.558187  0.610178  1
  O  O63  1  0.289126  0.178947  0.230939  1
  O  O64  1  0.561895  0.322289  0.117033  1
  O  O65  1  0.561895  0.944863  0.739606  1
  O  O66  1  0.358343  0.011155  0.847188  1
  O  O67  1  0.330928  0.491340  0.339588  1
