# generated using pymatgen
data_TiCr2Ni3(PO4)6
_symmetry_space_group_name_H-M   'P 1'
_cell_length_a   8.40034741
_cell_length_b   8.40034741
_cell_length_c   8.40034741
_cell_angle_alpha   61.90362803
_cell_angle_beta   61.90362803
_cell_angle_gamma   61.90362803
_symmetry_Int_Tables_number   1
_chemical_formula_structural   TiCr2Ni3(PO4)6
_chemical_formula_sum   'Ti1 Cr2 Ni3 P6 O24'
_cell_volume   437.01696286
_cell_formula_units_Z   1
loop_
 _symmetry_equiv_pos_site_id
 _symmetry_equiv_pos_as_xyz
  1  'x, y, z'
loop_
 _atom_site_type_symbol
 _atom_site_label
 _atom_site_symmetry_multiplicity
 _atom_site_fract_x
 _atom_site_fract_y
 _atom_site_fract_z
 _atom_site_occupancy
  Ti  Ti0  1  0.146863  0.146863  0.146863  1
  Cr  Cr1  1  0.999165  0.999165  0.999165  1
  Cr  Cr2  1  0.498114  0.498114  0.498114  1
  Ni  Ni3  1  0.855369  0.855369  0.855369  1
  Ni  Ni4  1  0.641288  0.641288  0.641288  1
  Ni  Ni5  1  0.356886  0.356886  0.356886  1
  P  P6  1  0.748395  0.451474  0.051229  1
  P  P7  1  0.451474  0.051229  0.748395  1
  P  P8  1  0.051229  0.748395  0.451474  1
  P  P9  1  0.949790  0.252458  0.551057  1
  P  P10  1  0.551057  0.949790  0.252458  1
  P  P11  1  0.252458  0.551057  0.949790  1
  O  O12  1  0.897851  0.674975  0.486893  1
  O  O13  1  0.674975  0.486893  0.897851  1
  O  O14  1  0.939343  0.095863  0.750310  1
  O  O15  1  0.486893  0.897851  0.674975  1
  O  O16  1  0.011455  0.173048  0.388684  1
  O  O17  1  0.747628  0.398964  0.556580  1
  O  O18  1  0.750310  0.939343  0.095863  1
  O  O19  1  0.556580  0.747628  0.398964  1
  O  O20  1  0.826127  0.602346  0.003137  1
  O  O21  1  0.398964  0.556580  0.747628  1
  O  O22  1  0.907493  0.245668  0.065596  1
  O  O23  1  0.602346  0.003137  0.826127  1
  O  O24  1  0.388684  0.011455  0.173048  1
  O  O25  1  0.095863  0.750310  0.939343  1
  O  O26  1  0.599165  0.431699  0.254600  1
  O  O27  1  0.173048  0.388684  0.011455  1
  O  O28  1  0.431699  0.254600  0.599165  1
  O  O29  1  0.245668  0.065596  0.907493  1
  O  O30  1  0.254600  0.599165  0.431699  1
  O  O31  1  0.003137  0.826127  0.602346  1
  O  O32  1  0.508467  0.097500  0.334518  1
  O  O33  1  0.065596  0.907493  0.245668  1
  O  O34  1  0.334518  0.508467  0.097500  1
  O  O35  1  0.097500  0.334518  0.508467  1
