# generated using pymatgen
data_Cr2O3
_symmetry_space_group_name_H-M   'P 1'
_cell_length_a   8.17257206
_cell_length_b   8.17257206
_cell_length_c   8.17257206
_cell_angle_alpha   109.47122063
_cell_angle_beta   109.47122063
_cell_angle_gamma   109.47122063
_symmetry_Int_Tables_number   1
_chemical_formula_structural   Cr2O3
_chemical_formula_sum   'Cr16 O24'
_cell_volume   420.19839023
_cell_formula_units_Z   8
loop_
 _symmetry_equiv_pos_site_id
 _symmetry_equiv_pos_as_xyz
  1  'x, y, z'
loop_
 _atom_site_type_symbol
 _atom_site_label
 _atom_site_symmetry_multiplicity
 _atom_site_fract_x
 _atom_site_fract_y
 _atom_site_fract_z
 _atom_site_occupancy
  Cr  Cr0  1  0.000000  0.500000  0.000000  1
  Cr  Cr1  1  0.500000  0.500000  0.500000  1
  Cr  Cr2  1  0.500000  0.000000  0.000000  1
  Cr  Cr3  1  1.000000  0.000000  0.500000  1
  Cr  Cr4  1  0.538483  0.750000  0.288483  1
  Cr  Cr5  1  0.038483  0.750000  0.788483  1
  Cr  Cr6  1  0.788483  0.038483  0.750000  1
  Cr  Cr7  1  0.211517  0.961517  0.250000  1
  Cr  Cr8  1  0.750000  0.788483  0.038483  1
  Cr  Cr9  1  0.750000  0.288483  0.538483  1
  Cr  Cr10  1  0.250000  0.211517  0.961517  1
  Cr  Cr11  1  0.250000  0.711517  0.461517  1
  Cr  Cr12  1  0.711517  0.461517  0.250000  1
  Cr  Cr13  1  0.288483  0.538483  0.750000  1
  Cr  Cr14  1  0.461517  0.250000  0.711517  1
  Cr  Cr15  1  0.961517  0.250000  0.211517  1
  O  O16  1  0.006522  0.047516  0.273056  1
  O  O17  1  0.725540  0.266534  0.773056  1
  O  O18  1  0.774460  0.547516  0.540994  1
  O  O19  1  0.493478  0.766534  0.040994  1
  O  O20  1  0.452484  0.459006  0.225540  1
  O  O21  1  0.266534  0.773056  0.725540  1
  O  O22  1  0.047516  0.273056  0.006522  1
  O  O23  1  0.233466  0.959006  0.506522  1
  O  O24  1  0.040994  0.493478  0.766534  1
  O  O25  1  0.773056  0.725540  0.266534  1
  O  O26  1  0.726944  0.993478  0.952484  1
  O  O27  1  0.459006  0.225540  0.452484  1
  O  O28  1  0.226944  0.274460  0.733466  1
  O  O29  1  0.959006  0.506522  0.233466  1
  O  O30  1  0.540994  0.774460  0.547516  1
  O  O31  1  0.273056  0.006522  0.047516  1
  O  O32  1  0.733466  0.226944  0.274460  1
  O  O33  1  0.547516  0.540994  0.774460  1
  O  O34  1  0.952484  0.726944  0.993478  1
  O  O35  1  0.766534  0.040994  0.493478  1
  O  O36  1  0.993478  0.952484  0.726944  1
  O  O37  1  0.274460  0.733466  0.226944  1
  O  O38  1  0.506522  0.233466  0.959006  1
  O  O39  1  0.225540  0.452484  0.459006  1
