# generated using pymatgen
data_Li6VCrP2(CO7)2
_symmetry_space_group_name_H-M   'P 1'
_cell_length_a   4.99675421
_cell_length_b   6.53157815
_cell_length_c   8.56425730
_cell_angle_alpha   90.00000000
_cell_angle_beta   94.62941558
_cell_angle_gamma   90.00000000
_symmetry_Int_Tables_number   1
_chemical_formula_structural   Li6VCrP2(CO7)2
_chemical_formula_sum   'Li6 V1 Cr1 P2 C2 O14'
_cell_volume   278.59713789
_cell_formula_units_Z   1
loop_
 _symmetry_equiv_pos_site_id
 _symmetry_equiv_pos_as_xyz
  1  'x, y, z'
loop_
 _atom_site_type_symbol
 _atom_site_label
 _atom_site_symmetry_multiplicity
 _atom_site_fract_x
 _atom_site_fract_y
 _atom_site_fract_z
 _atom_site_occupancy
  Li  Li0  1  0.760801  0.500000  0.909101  1
  Li  Li1  1  0.247265  0.274424  0.724845  1
  Li  Li2  1  0.247265  0.725576  0.724845  1
  Li  Li3  1  0.753079  0.779408  0.275125  1
  Li  Li4  1  0.753079  0.220592  0.275125  1
  Li  Li5  1  0.240983  0.000000  0.094582  1
  V  V6  1  0.207169  0.500000  0.329676  1
  Cr  Cr7  1  0.784160  0.000000  0.664093  1
  P  P8  1  0.717128  0.500000  0.587165  1
  P  P9  1  0.281092  0.000000  0.409479  1
  C  C10  1  0.705965  0.000000  0.968775  1
  C  C11  1  0.298896  0.500000  0.035311  1
  O  O12  1  0.952866  0.000000  0.935390  1
  O  O13  1  0.354029  0.500000  0.889104  1
  O  O14  1  0.515653  0.000000  0.854360  1
  O  O15  1  0.824302  0.313540  0.688692  1
  O  O16  1  0.824302  0.686460  0.688692  1
  O  O17  1  0.188631  0.000000  0.578458  1
  O  O18  1  0.404244  0.500000  0.570997  1
  O  O19  1  0.594059  0.000000  0.420850  1
  O  O20  1  0.818376  0.500000  0.421983  1
  O  O21  1  0.169708  0.183908  0.309602  1
  O  O22  1  0.169708  0.816092  0.309602  1
  O  O23  1  0.492319  0.500000  0.146575  1
  O  O24  1  0.640990  0.000000  0.112705  1
  O  O25  1  0.053928  0.500000  0.074868  1
