# generated using pymatgen
data_V2F7
_symmetry_space_group_name_H-M   'P 1'
_cell_length_a   7.44735946
_cell_length_b   7.44735946
_cell_length_c   7.44735946
_cell_angle_alpha   124.36852698
_cell_angle_beta   119.86900512
_cell_angle_gamma   86.41481914
_symmetry_Int_Tables_number   1
_chemical_formula_structural   V2F7
_chemical_formula_sum   'V4 F14'
_cell_volume   281.52959846
_cell_formula_units_Z   2
loop_
 _symmetry_equiv_pos_site_id
 _symmetry_equiv_pos_as_xyz
  1  'x, y, z'
loop_
 _atom_site_type_symbol
 _atom_site_label
 _atom_site_symmetry_multiplicity
 _atom_site_fract_x
 _atom_site_fract_y
 _atom_site_fract_z
 _atom_site_occupancy
  V  V0  1  0.000000  0.000000  0.000000  1
  V  V1  1  0.500000  0.000000  0.500000  1
  V  V2  1  0.500000  0.500000  0.500000  1
  V  V3  1  0.000000  0.000000  0.500000  1
  F  F4  1  0.551524  0.309021  0.257497  1
  F  F5  1  0.064398  0.939482  0.746760  1
  F  F6  1  0.692722  0.939482  0.375084  1
  F  F7  1  0.051524  0.294027  0.742503  1
  F  F8  1  0.750000  0.091587  0.841587  1
  F  F9  1  0.564398  0.317638  0.624916  1
  F  F10  1  0.192722  0.317638  0.253240  1
  F  F11  1  0.807278  0.682362  0.746760  1
  F  F12  1  0.435602  0.682362  0.375084  1
  F  F13  1  0.250000  0.908413  0.158413  1
  F  F14  1  0.948476  0.705973  0.257497  1
  F  F15  1  0.307278  0.060518  0.624916  1
  F  F16  1  0.935602  0.060518  0.253240  1
  F  F17  1  0.448476  0.690979  0.742503  1
