# generated using pymatgen
data_Na3YH6(CO4)3
_symmetry_space_group_name_H-M   'P 1'
_cell_length_a   5.96381910
_cell_length_b   10.21030545
_cell_length_c   17.43962884
_cell_angle_alpha   90.00000000
_cell_angle_beta   90.00000000
_cell_angle_gamma   90.00000000
_symmetry_Int_Tables_number   1
_chemical_formula_structural   Na3YH6(CO4)3
_chemical_formula_sum   'Na12 Y4 H24 C12 O48'
_cell_volume   1061.94111083
_cell_formula_units_Z   4
loop_
 _symmetry_equiv_pos_site_id
 _symmetry_equiv_pos_as_xyz
  1  'x, y, z'
loop_
 _atom_site_type_symbol
 _atom_site_label
 _atom_site_symmetry_multiplicity
 _atom_site_fract_x
 _atom_site_fract_y
 _atom_site_fract_z
 _atom_site_occupancy
  Na  Na0  1  0.086401  0.872267  0.951045  1
  Na  Na1  1  0.586401  0.127733  0.048955  1
  Na  Na2  1  0.586401  0.372267  0.548955  1
  Na  Na3  1  0.086401  0.627733  0.451045  1
  Na  Na4  1  0.593244  0.641581  0.867553  1
  Na  Na5  1  0.093244  0.358419  0.132447  1
  Na  Na6  1  0.093244  0.141581  0.632447  1
  Na  Na7  1  0.593244  0.858419  0.367553  1
  Na  Na8  1  0.583446  0.985200  0.582099  1
  Na  Na9  1  0.083446  0.014800  0.417901  1
  Na  Na10  1  0.083446  0.485200  0.917901  1
  Na  Na11  1  0.583446  0.514800  0.082099  1
  Y  Y12  1  0.314716  0.678775  0.661280  1
  Y  Y13  1  0.814716  0.321225  0.338720  1
  Y  Y14  1  0.814716  0.178775  0.838720  1
  Y  Y15  1  0.314716  0.821225  0.161280  1
  H  H16  1  0.552430  0.691056  0.510762  1
  H  H17  1  0.052430  0.308944  0.489238  1
  H  H18  1  0.052430  0.191056  0.989238  1
  H  H19  1  0.552430  0.808944  0.010762  1
  H  H20  1  0.756667  0.727181  0.568702  1
  H  H21  1  0.256667  0.272819  0.431298  1
  H  H22  1  0.256667  0.227181  0.931298  1
  H  H23  1  0.756667  0.772819  0.068702  1
  H  H24  1  0.763650  0.786901  0.734067  1
  H  H25  1  0.263650  0.213099  0.265933  1
  H  H26  1  0.263650  0.286901  0.765933  1
  H  H27  1  0.763650  0.713099  0.234067  1
  H  H28  1  0.565369  0.881976  0.761007  1
  H  H29  1  0.065369  0.118024  0.238993  1
  H  H30  1  0.065369  0.381976  0.738993  1
  H  H31  1  0.565369  0.618024  0.261007  1
  H  H32  1  0.769799  0.521528  0.682084  1
  H  H33  1  0.269799  0.478472  0.317916  1
  H  H34  1  0.269799  0.021528  0.817916  1
  H  H35  1  0.769799  0.978472  0.182084  1
  H  H36  1  0.579675  0.448197  0.728724  1
  H  H37  1  0.079675  0.551803  0.271276  1
  H  H38  1  0.079675  0.948197  0.771276  1
  H  H39  1  0.579675  0.051803  0.228724  1
  C  C40  1  0.591743  0.949501  0.901802  1
  C  C41  1  0.091743  0.050499  0.098198  1
  C  C42  1  0.091743  0.449501  0.598198  1
  C  C43  1  0.591743  0.550499  0.401802  1
  C  C44  1  0.088211  0.695842  0.804870  1
  C  C45  1  0.588211  0.304158  0.195130  1
  C  C46  1  0.588211  0.195842  0.695130  1
  C  C47  1  0.088211  0.804158  0.304870  1
  C  C48  1  0.077889  0.879540  0.579005  1
  C  C49  1  0.577889  0.120460  0.420995  1
  C  C50  1  0.577889  0.379540  0.920995  1
  C  C51  1  0.077889  0.620460  0.079005  1
  O  O52  1  0.034907  0.768757  0.744690  1
  O  O53  1  0.534907  0.231243  0.255310  1
  O  O54  1  0.534907  0.268757  0.755310  1
  O  O55  1  0.034907  0.731243  0.244690  1
  O  O56  1  0.961785  0.969462  0.546654  1
  O  O57  1  0.461785  0.030538  0.453346  1
  O  O58  1  0.461785  0.469462  0.953346  1
  O  O59  1  0.961785  0.530538  0.046654  1
  O  O60  1  0.036130  0.753653  0.568520  1
  O  O61  1  0.536130  0.246347  0.431480  1
  O  O62  1  0.536130  0.253653  0.931480  1
  O  O63  1  0.036130  0.746347  0.068520  1
  O  O64  1  0.243113  0.906561  0.625046  1
  O  O65  1  0.743113  0.093439  0.374954  1
  O  O66  1  0.743113  0.406561  0.874954  1
  O  O67  1  0.243113  0.593439  0.125046  1
  O  O68  1  0.040022  0.503646  0.664629  1
  O  O69  1  0.540022  0.496354  0.335371  1
  O  O70  1  0.540022  0.003646  0.835371  1
  O  O71  1  0.040022  0.996354  0.164629  1
  O  O72  1  0.262359  0.620855  0.796325  1
  O  O73  1  0.762359  0.379145  0.203675  1
  O  O74  1  0.762359  0.120855  0.703675  1
  O  O75  1  0.262359  0.879145  0.296325  1
  O  O76  1  0.973920  0.699728  0.866692  1
  O  O77  1  0.473920  0.300272  0.133308  1
  O  O78  1  0.473920  0.199728  0.633308  1
  O  O79  1  0.973920  0.800272  0.366692  1
  O  O80  1  0.482082  0.850005  0.926205  1
  O  O81  1  0.982082  0.149995  0.073795  1
  O  O82  1  0.982082  0.350005  0.573795  1
  O  O83  1  0.482082  0.649995  0.426205  1
  O  O84  1  0.757057  0.002582  0.939030  1
  O  O85  1  0.257057  0.997418  0.060970  1
  O  O86  1  0.257057  0.502582  0.560970  1
  O  O87  1  0.757057  0.497418  0.439030  1
  O  O88  1  0.588728  0.722053  0.564821  1
  O  O89  1  0.088728  0.277947  0.435179  1
  O  O90  1  0.088728  0.222053  0.935179  1
  O  O91  1  0.588728  0.777947  0.064821  1
  O  O92  1  0.598139  0.805503  0.727971  1
  O  O93  1  0.098139  0.194497  0.272029  1
  O  O94  1  0.098139  0.305503  0.772029  1
  O  O95  1  0.598139  0.694497  0.227971  1
  O  O96  1  0.606118  0.524794  0.695399  1
  O  O97  1  0.106118  0.475206  0.304601  1
  O  O98  1  0.106118  0.024794  0.804601  1
  O  O99  1  0.606118  0.975206  0.195399  1
