# generated using pymatgen
data_Na2BiBPO7
_symmetry_space_group_name_H-M   'P 1'
_cell_length_a   5.47746988
_cell_length_b   7.05963467
_cell_length_c   9.49918696
_cell_angle_alpha   90.00000000
_cell_angle_beta   92.52387678
_cell_angle_gamma   90.00000000
_symmetry_Int_Tables_number   1
_chemical_formula_structural   Na2BiBPO7
_chemical_formula_sum   'Na4 Bi2 B2 P2 O14'
_cell_volume   366.96713595
_cell_formula_units_Z   2
loop_
 _symmetry_equiv_pos_site_id
 _symmetry_equiv_pos_as_xyz
  1  'x, y, z'
loop_
 _atom_site_type_symbol
 _atom_site_label
 _atom_site_symmetry_multiplicity
 _atom_site_fract_x
 _atom_site_fract_y
 _atom_site_fract_z
 _atom_site_occupancy
  Na  Na0  1  0.240307  0.001598  0.214559  1
  Na  Na1  1  0.240307  0.498402  0.214559  1
  Na  Na2  1  0.759693  0.501598  0.785441  1
  Na  Na3  1  0.759693  0.998402  0.785441  1
  Bi  Bi4  1  0.786639  0.750000  0.369107  1
  Bi  Bi5  1  0.213361  0.250000  0.630893  1
  B  B6  1  0.737778  0.750000  0.084563  1
  B  B7  1  0.262222  0.250000  0.915437  1
  P  P8  1  0.725953  0.250000  0.406875  1
  P  P9  1  0.274047  0.750000  0.593125  1
  O  O10  1  0.296176  0.250000  0.058649  1
  O  O11  1  0.959280  0.750000  0.158914  1
  O  O12  1  0.529438  0.750000  0.163031  1
  O  O13  1  0.846250  0.075028  0.338681  1
  O  O14  1  0.846250  0.424972  0.338681  1
  O  O15  1  0.204047  0.750000  0.428613  1
  O  O16  1  0.445095  0.250000  0.389971  1
  O  O17  1  0.554905  0.750000  0.610029  1
  O  O18  1  0.795953  0.250000  0.571387  1
  O  O19  1  0.153750  0.575028  0.661319  1
  O  O20  1  0.153750  0.924972  0.661319  1
  O  O21  1  0.470562  0.250000  0.836969  1
  O  O22  1  0.040720  0.250000  0.841086  1
  O  O23  1  0.703824  0.750000  0.941351  1
