# generated using pymatgen
data_Fe2O3F
_symmetry_space_group_name_H-M   'P 1'
_cell_length_a   3.01180647
_cell_length_b   4.74961601
_cell_length_c   9.90007761
_cell_angle_alpha   90.00000000
_cell_angle_beta   90.00000000
_cell_angle_gamma   90.00000000
_symmetry_Int_Tables_number   1
_chemical_formula_structural   Fe2O3F
_chemical_formula_sum   'Fe4 O6 F2'
_cell_volume   141.61986002
_cell_formula_units_Z   2
loop_
 _symmetry_equiv_pos_site_id
 _symmetry_equiv_pos_as_xyz
  1  'x, y, z'
loop_
 _atom_site_type_symbol
 _atom_site_label
 _atom_site_symmetry_multiplicity
 _atom_site_fract_x
 _atom_site_fract_y
 _atom_site_fract_z
 _atom_site_occupancy
  Fe  Fe0  1  0.000000  0.224378  0.856619  1
  Fe  Fe1  1  0.000000  0.775622  0.356619  1
  Fe  Fe2  1  0.500000  0.720521  0.642584  1
  Fe  Fe3  1  0.500000  0.279479  0.142584  1
  O  O4  1  0.000000  0.934203  0.715238  1
  O  O5  1  0.000000  0.576216  0.537197  1
  O  O6  1  0.000000  0.065797  0.215238  1
  O  O7  1  0.000000  0.423784  0.037197  1
  O  O8  1  0.500000  0.426438  0.781827  1
  O  O9  1  0.500000  0.573562  0.281827  1
  F  F10  1  0.500000  0.000238  0.954621  1
  F  F11  1  0.500000  0.999762  0.454621  1
