# generated using pymatgen
data_LiNi2(PO4)2
_symmetry_space_group_name_H-M   'P 1'
_cell_length_a   4.97831258
_cell_length_b   10.01811004
_cell_length_c   14.02993068
_cell_angle_alpha   90.00000000
_cell_angle_beta   90.00000000
_cell_angle_gamma   90.00000000
_symmetry_Int_Tables_number   1
_chemical_formula_structural   LiNi2(PO4)2
_chemical_formula_sum   'Li4 Ni8 P8 O32'
_cell_volume   699.71870664
_cell_formula_units_Z   4
loop_
 _symmetry_equiv_pos_site_id
 _symmetry_equiv_pos_as_xyz
  1  'x, y, z'
loop_
 _atom_site_type_symbol
 _atom_site_label
 _atom_site_symmetry_multiplicity
 _atom_site_fract_x
 _atom_site_fract_y
 _atom_site_fract_z
 _atom_site_occupancy
  Li  Li0  1  0.549893  0.226015  0.249164  1
  Li  Li1  1  0.549893  0.273985  0.749164  1
  Li  Li2  1  0.450107  0.726015  0.249164  1
  Li  Li3  1  0.450107  0.773985  0.749164  1
  Ni  Ni4  1  0.057955  0.035705  0.247997  1
  Ni  Ni5  1  0.542781  0.231018  0.999316  1
  Ni  Ni6  1  0.542781  0.268982  0.499316  1
  Ni  Ni7  1  0.057955  0.464295  0.747997  1
  Ni  Ni8  1  0.942045  0.535705  0.247997  1
  Ni  Ni9  1  0.457219  0.731018  0.999316  1
  Ni  Ni10  1  0.457219  0.768982  0.499316  1
  Ni  Ni11  1  0.942045  0.964295  0.747997  1
  P  P12  1  0.438181  0.025030  0.624055  1
  P  P13  1  0.053776  0.214129  0.871534  1
  P  P14  1  0.053776  0.285871  0.371534  1
  P  P15  1  0.438181  0.474970  0.124055  1
  P  P16  1  0.561819  0.525030  0.624055  1
  P  P17  1  0.946224  0.714129  0.871534  1
  P  P18  1  0.946224  0.785871  0.371534  1
  P  P19  1  0.561819  0.974970  0.124055  1
  O  O20  1  0.869960  0.995815  0.139503  1
  O  O21  1  0.484597  0.041004  0.030436  1
  O  O22  1  0.423422  0.044007  0.212323  1
  O  O23  1  0.989433  0.063092  0.855251  1
  O  O24  1  0.506448  0.175410  0.625472  1
  O  O25  1  0.937601  0.209773  0.282508  1
  O  O26  1  0.922035  0.245735  0.464922  1
  O  O27  1  0.360095  0.239203  0.872476  1
  O  O28  1  0.360095  0.260797  0.372476  1
  O  O29  1  0.922035  0.254265  0.964922  1
  O  O30  1  0.937601  0.290227  0.782508  1
  O  O31  1  0.506448  0.324590  0.125472  1
  O  O32  1  0.989433  0.436908  0.355251  1
  O  O33  1  0.423422  0.455993  0.712323  1
  O  O34  1  0.484597  0.458996  0.530436  1
  O  O35  1  0.869960  0.504185  0.639503  1
  O  O36  1  0.130040  0.495815  0.139503  1
  O  O37  1  0.515403  0.541004  0.030436  1
  O  O38  1  0.576578  0.544007  0.212323  1
  O  O39  1  0.010567  0.563092  0.855251  1
  O  O40  1  0.493552  0.675410  0.625472  1
  O  O41  1  0.062399  0.709773  0.282508  1
  O  O42  1  0.077965  0.745735  0.464922  1
  O  O43  1  0.639905  0.739203  0.872476  1
  O  O44  1  0.639905  0.760797  0.372476  1
  O  O45  1  0.077965  0.754265  0.964922  1
  O  O46  1  0.062399  0.790227  0.782508  1
  O  O47  1  0.493552  0.824590  0.125472  1
  O  O48  1  0.010567  0.936908  0.355251  1
  O  O49  1  0.576578  0.955993  0.712323  1
  O  O50  1  0.515403  0.958996  0.530436  1
  O  O51  1  0.130040  0.004185  0.639503  1
