# generated using pymatgen
data_LiNi9S10
_symmetry_space_group_name_H-M   'P 1'
_cell_length_a   5.96631754
_cell_length_b   6.24901175
_cell_length_c   7.92710916
_cell_angle_alpha   101.12953488
_cell_angle_beta   111.81943882
_cell_angle_gamma   90.05710768
_symmetry_Int_Tables_number   1
_chemical_formula_structural   LiNi9S10
_chemical_formula_sum   'Li1 Ni9 S10'
_cell_volume   268.35779573
_cell_formula_units_Z   1
loop_
 _symmetry_equiv_pos_site_id
 _symmetry_equiv_pos_as_xyz
  1  'x, y, z'
loop_
 _atom_site_type_symbol
 _atom_site_label
 _atom_site_symmetry_multiplicity
 _atom_site_fract_x
 _atom_site_fract_y
 _atom_site_fract_z
 _atom_site_occupancy
  Li  Li0  1  0.000000  0.000000  0.500000  1
  Ni  Ni1  1  0.096954  0.707122  0.698172  1
  Ni  Ni2  1  0.195141  0.396012  0.893224  1
  Ni  Ni3  1  0.400890  0.805418  0.305741  1
  Ni  Ni4  1  0.599110  0.194582  0.694259  1
  Ni  Ni5  1  0.500000  0.500000  0.500000  1
  Ni  Ni6  1  0.696848  0.896685  0.899701  1
  Ni  Ni7  1  0.804859  0.603988  0.106776  1
  Ni  Ni8  1  0.903046  0.292878  0.301828  1
  Ni  Ni9  1  0.303152  0.103315  0.100299  1
  S  S10  1  0.478569  0.543055  0.803502  1
  S  S11  1  0.708158  0.845599  0.607977  1
  S  S12  1  0.876244  0.366105  0.596977  1
  S  S13  1  0.319710  0.046154  0.806148  1
  S  S14  1  0.123756  0.633895  0.403023  1
  S  S15  1  0.080730  0.749592  0.001329  1
  S  S16  1  0.291842  0.154401  0.392023  1
  S  S17  1  0.521431  0.456945  0.196498  1
  S  S18  1  0.680290  0.953846  0.193852  1
  S  S19  1  0.919270  0.250408  0.998671  1
