# generated using pymatgen
data_LiVPO5
_symmetry_space_group_name_H-M   'P 1'
_cell_length_a   6.06153462
_cell_length_b   7.35862302
_cell_length_c   9.95002246
_cell_angle_alpha   90.00000000
_cell_angle_beta   90.00000000
_cell_angle_gamma   90.00000000
_symmetry_Int_Tables_number   1
_chemical_formula_structural   LiVPO5
_chemical_formula_sum   'Li4 V4 P4 O20'
_cell_volume   443.81625632
_cell_formula_units_Z   4
loop_
 _symmetry_equiv_pos_site_id
 _symmetry_equiv_pos_as_xyz
  1  'x, y, z'
loop_
 _atom_site_type_symbol
 _atom_site_label
 _atom_site_symmetry_multiplicity
 _atom_site_fract_x
 _atom_site_fract_y
 _atom_site_fract_z
 _atom_site_occupancy
  Li  Li0  1  0.066955  0.571756  0.440311  1
  Li  Li1  1  0.433045  0.428244  0.940311  1
  Li  Li2  1  0.566955  0.928244  0.559689  1
  Li  Li3  1  0.933045  0.071756  0.059689  1
  V  V4  1  0.094737  0.047806  0.550622  1
  V  V5  1  0.405263  0.952195  0.050622  1
  V  V6  1  0.594737  0.452194  0.449378  1
  V  V7  1  0.905263  0.547805  0.949378  1
  P  P8  1  0.204147  0.847874  0.827963  1
  P  P9  1  0.295853  0.152126  0.327963  1
  P  P10  1  0.704147  0.652126  0.172037  1
  P  P11  1  0.795853  0.347874  0.672037  1
  O  O12  1  0.997648  0.223169  0.687796  1
  O  O13  1  0.115183  0.413319  0.981929  1
  O  O14  1  0.155717  0.009697  0.926834  1
  O  O15  1  0.103257  0.246565  0.406825  1
  O  O16  1  0.280003  0.916260  0.688503  1
  O  O17  1  0.219997  0.083740  0.188503  1
  O  O18  1  0.396743  0.753435  0.906825  1
  O  O19  1  0.344283  0.990303  0.426834  1
  O  O20  1  0.384817  0.586681  0.481929  1
  O  O21  1  0.502352  0.776831  0.187796  1
  O  O22  1  0.497648  0.276831  0.312204  1
  O  O23  1  0.615183  0.086681  0.018071  1
  O  O24  1  0.655717  0.490303  0.073166  1
  O  O25  1  0.603257  0.253435  0.593175  1
  O  O26  1  0.780003  0.583740  0.311497  1
  O  O27  1  0.719997  0.416260  0.811497  1
  O  O28  1  0.896743  0.746565  0.093175  1
  O  O29  1  0.844283  0.509697  0.573166  1
  O  O30  1  0.884817  0.913319  0.518071  1
  O  O31  1  0.002352  0.723169  0.812204  1
