# generated using pymatgen
data_LiFeSi3O8
_symmetry_space_group_name_H-M   'P 1'
_cell_length_a   7.38410571
_cell_length_b   7.38817177
_cell_length_c   7.89643358
_cell_angle_alpha   107.24860333
_cell_angle_beta   116.93650700
_cell_angle_gamma   101.36072886
_symmetry_Int_Tables_number   1
_chemical_formula_structural   LiFeSi3O8
_chemical_formula_sum   'Li2 Fe2 Si6 O16'
_cell_volume   337.87319444
_cell_formula_units_Z   2
loop_
 _symmetry_equiv_pos_site_id
 _symmetry_equiv_pos_as_xyz
  1  'x, y, z'
loop_
 _atom_site_type_symbol
 _atom_site_label
 _atom_site_symmetry_multiplicity
 _atom_site_fract_x
 _atom_site_fract_y
 _atom_site_fract_z
 _atom_site_occupancy
  Li  Li0  1  0.742931  0.871440  0.754657  1
  Li  Li1  1  0.257069  0.128560  0.245343  1
  Fe  Fe2  1  0.834194  0.202313  0.173213  1
  Fe  Fe3  1  0.165806  0.797687  0.826787  1
  Si  Si4  1  0.552360  0.307031  0.783832  1
  Si  Si5  1  0.767144  0.351107  0.556372  1
  Si  Si6  1  0.164655  0.243404  0.838323  1
  Si  Si7  1  0.835345  0.756596  0.161677  1
  Si  Si8  1  0.232856  0.648893  0.443628  1
  Si  Si9  1  0.447640  0.692969  0.216168  1
  O  O10  1  0.678931  0.180594  0.897488  1
  O  O11  1  0.934647  0.258548  0.688185  1
  O  O12  1  0.681768  0.555379  0.932298  1
  O  O13  1  0.875019  0.601655  0.669431  1
  O  O14  1  0.541201  0.267763  0.560006  1
  O  O15  1  0.105879  0.042683  0.880658  1
  O  O16  1  0.296625  0.232127  0.718071  1
  O  O17  1  0.685960  0.250215  0.309372  1
  O  O18  1  0.314040  0.749785  0.690628  1
  O  O19  1  0.703375  0.767873  0.281929  1
  O  O20  1  0.894121  0.957317  0.119342  1
  O  O21  1  0.458799  0.732237  0.439994  1
  O  O22  1  0.124981  0.398345  0.330569  1
  O  O23  1  0.318232  0.444621  0.067702  1
  O  O24  1  0.065353  0.741452  0.311815  1
  O  O25  1  0.321069  0.819406  0.102512  1
