# generated using pymatgen
data_LiV(PO3)3
_symmetry_space_group_name_H-M   'P 1'
_cell_length_a   7.36934100
_cell_length_b   9.24190880
_cell_length_c   12.06562751
_cell_angle_alpha   90.00000000
_cell_angle_beta   90.00000000
_cell_angle_gamma   90.00000000
_symmetry_Int_Tables_number   1
_chemical_formula_structural   LiV(PO3)3
_chemical_formula_sum   'Li4 V4 P12 O36'
_cell_volume   821.75100747
_cell_formula_units_Z   4
loop_
 _symmetry_equiv_pos_site_id
 _symmetry_equiv_pos_as_xyz
  1  'x, y, z'
loop_
 _atom_site_type_symbol
 _atom_site_label
 _atom_site_symmetry_multiplicity
 _atom_site_fract_x
 _atom_site_fract_y
 _atom_site_fract_z
 _atom_site_occupancy
  Li  Li0  1  0.750000  0.968242  0.032242  1
  Li  Li1  1  0.750000  0.468242  0.467758  1
  Li  Li2  1  0.250000  0.531758  0.532242  1
  Li  Li3  1  0.250000  0.031758  0.967758  1
  V  V4  1  0.750000  0.519407  0.709560  1
  V  V5  1  0.750000  0.019407  0.790440  1
  V  V6  1  0.250000  0.980593  0.209560  1
  V  V7  1  0.250000  0.480593  0.290440  1
  P  P8  1  0.953385  0.750801  0.348383  1
  P  P9  1  0.953385  0.250801  0.151617  1
  P  P10  1  0.750000  0.304749  0.958223  1
  P  P11  1  0.750000  0.804749  0.541777  1
  P  P12  1  0.546615  0.250801  0.151617  1
  P  P13  1  0.546615  0.750801  0.348383  1
  P  P14  1  0.453385  0.249199  0.651617  1
  P  P15  1  0.453385  0.749199  0.848383  1
  P  P16  1  0.250000  0.195251  0.458223  1
  P  P17  1  0.250000  0.695251  0.041777  1
  P  P18  1  0.046615  0.249199  0.651617  1
  P  P19  1  0.046615  0.749199  0.848383  1
  O  O20  1  0.977553  0.651298  0.759862  1
  O  O21  1  0.977553  0.151298  0.740138  1
  O  O22  1  0.944361  0.883981  0.881534  1
  O  O23  1  0.944361  0.383981  0.618466  1
  O  O24  1  0.918793  0.344549  0.039412  1
  O  O25  1  0.918793  0.844549  0.460588  1
  O  O26  1  0.750000  0.696208  0.314449  1
  O  O27  1  0.750000  0.402361  0.861341  1
  O  O28  1  0.750000  0.902361  0.638659  1
  O  O29  1  0.750000  0.142255  0.943375  1
  O  O30  1  0.750000  0.196208  0.185551  1
  O  O31  1  0.750000  0.642255  0.556625  1
  O  O32  1  0.581207  0.344549  0.039412  1
  O  O33  1  0.581207  0.844549  0.460588  1
  O  O34  1  0.555639  0.883981  0.881534  1
  O  O35  1  0.555639  0.383981  0.618466  1
  O  O36  1  0.522447  0.651298  0.759862  1
  O  O37  1  0.522447  0.151298  0.740138  1
  O  O38  1  0.477553  0.848702  0.259862  1
  O  O39  1  0.477553  0.348702  0.240138  1
  O  O40  1  0.444361  0.116019  0.118466  1
  O  O41  1  0.444361  0.616019  0.381534  1
  O  O42  1  0.418793  0.155451  0.539412  1
  O  O43  1  0.418793  0.655451  0.960588  1
  O  O44  1  0.250000  0.857745  0.056625  1
  O  O45  1  0.250000  0.597639  0.138659  1
  O  O46  1  0.250000  0.357745  0.443375  1
  O  O47  1  0.250000  0.097639  0.361341  1
  O  O48  1  0.250000  0.303792  0.685551  1
  O  O49  1  0.250000  0.803792  0.814449  1
  O  O50  1  0.081207  0.155451  0.539412  1
  O  O51  1  0.081207  0.655451  0.960588  1
  O  O52  1  0.055639  0.616019  0.381534  1
  O  O53  1  0.055639  0.116019  0.118466  1
  O  O54  1  0.022447  0.348702  0.240138  1
  O  O55  1  0.022447  0.848702  0.259862  1
