# generated using pymatgen
data_LiFeO3
_symmetry_space_group_name_H-M   'P 1'
_cell_length_a   6.61594531
_cell_length_b   6.61594531
_cell_length_c   5.99167035
_cell_angle_alpha   76.76104090
_cell_angle_beta   103.23895910
_cell_angle_gamma   154.86090792
_symmetry_Int_Tables_number   1
_chemical_formula_structural   LiFeO3
_chemical_formula_sum   'Li2 Fe2 O6'
_cell_volume   108.30218816
_cell_formula_units_Z   2
loop_
 _symmetry_equiv_pos_site_id
 _symmetry_equiv_pos_as_xyz
  1  'x, y, z'
loop_
 _atom_site_type_symbol
 _atom_site_label
 _atom_site_symmetry_multiplicity
 _atom_site_fract_x
 _atom_site_fract_y
 _atom_site_fract_z
 _atom_site_occupancy
  Li  Li0  1  0.000000  0.000000  0.000000  1
  Li  Li1  1  0.000000  0.000000  0.500000  1
  Fe  Fe2  1  0.335108  0.664892  0.178194  1
  Fe  Fe3  1  0.664892  0.335108  0.821806  1
  O  O4  1  0.525297  0.474703  0.763787  1
  O  O5  1  0.175331  0.824669  0.046727  1
  O  O6  1  0.474703  0.525297  0.236213  1
  O  O7  1  0.171172  0.828828  0.626983  1
  O  O8  1  0.824669  0.175331  0.953273  1
  O  O9  1  0.828828  0.171172  0.373017  1
