# generated using pymatgen
data_Li5Fe2P2(CO7)2
_symmetry_space_group_name_H-M   'P 1'
_cell_length_a   9.41605832
_cell_length_b   6.50010610
_cell_length_c   10.11673633
_cell_angle_alpha   90.00000000
_cell_angle_beta   116.97460381
_cell_angle_gamma   90.00000000
_symmetry_Int_Tables_number   1
_chemical_formula_structural   Li5Fe2P2(CO7)2
_chemical_formula_sum   'Li10 Fe4 P4 C4 O28'
_cell_volume   551.83460408
_cell_formula_units_Z   2
loop_
 _symmetry_equiv_pos_site_id
 _symmetry_equiv_pos_as_xyz
  1  'x, y, z'
loop_
 _atom_site_type_symbol
 _atom_site_label
 _atom_site_symmetry_multiplicity
 _atom_site_fract_x
 _atom_site_fract_y
 _atom_site_fract_z
 _atom_site_occupancy
  Li  Li0  1  0.106394  0.244937  0.440779  1
  Li  Li1  1  0.088436  0.247324  0.925122  1
  Li  Li2  1  0.279930  0.458968  0.273157  1
  Li  Li3  1  0.269818  0.486572  0.760222  1
  Li  Li4  1  0.269568  0.012079  0.756887  1
  Li  Li5  1  0.730432  0.512079  0.243113  1
  Li  Li6  1  0.730182  0.986572  0.239778  1
  Li  Li7  1  0.720070  0.958968  0.726843  1
  Li  Li8  1  0.911564  0.747324  0.074878  1
  Li  Li9  1  0.893606  0.744937  0.559221  1
  Fe  Fe10  1  0.330528  0.756625  0.070338  1
  Fe  Fe11  1  0.331818  0.752527  0.553763  1
  Fe  Fe12  1  0.668182  0.252527  0.446237  1
  Fe  Fe13  1  0.669472  0.256625  0.929662  1
  P  P14  1  0.415955  0.253006  0.063866  1
  P  P15  1  0.414601  0.252717  0.574853  1
  P  P16  1  0.585399  0.752717  0.425147  1
  P  P17  1  0.584045  0.753006  0.936134  1
  C  C18  1  0.030461  0.738592  0.366442  1
  C  C19  1  0.045711  0.757568  0.866803  1
  C  C20  1  0.954289  0.257568  0.133197  1
  C  C21  1  0.969539  0.238592  0.633558  1
  O  O22  1  0.079913  0.754222  0.007756  1
  O  O23  1  0.066592  0.752900  0.506570  1
  O  O24  1  0.093327  0.277477  0.237708  1
  O  O25  1  0.144327  0.718080  0.329340  1
  O  O26  1  0.117072  0.246473  0.736213  1
  O  O27  1  0.171228  0.742107  0.841369  1
  O  O28  1  0.309688  0.062164  0.046223  1
  O  O29  1  0.305865  0.436066  0.058037  1
  O  O30  1  0.303650  0.067384  0.562393  1
  O  O31  1  0.318775  0.439504  0.588356  1
  O  O32  1  0.421250  0.724554  0.286021  1
  O  O33  1  0.441738  0.278524  0.436917  1
  O  O34  1  0.424093  0.755313  0.795525  1
  O  O35  1  0.450764  0.262330  0.925440  1
  O  O36  1  0.549236  0.762330  0.074560  1
  O  O37  1  0.575907  0.255313  0.204475  1
  O  O38  1  0.558262  0.778524  0.563083  1
  O  O39  1  0.578750  0.224554  0.713979  1
  O  O40  1  0.696350  0.567384  0.437607  1
  O  O41  1  0.681225  0.939504  0.411644  1
  O  O42  1  0.694135  0.936066  0.941963  1
  O  O43  1  0.690312  0.562164  0.953777  1
  O  O44  1  0.828772  0.242107  0.158631  1
  O  O45  1  0.882928  0.746473  0.263787  1
  O  O46  1  0.855673  0.218080  0.670660  1
  O  O47  1  0.906673  0.777477  0.762292  1
  O  O48  1  0.933408  0.252900  0.493430  1
  O  O49  1  0.920087  0.254222  0.992244  1
