# generated using pymatgen
data_Li2Co2Si2O7
_symmetry_space_group_name_H-M   'P 1'
_cell_length_a   5.46664532
_cell_length_b   13.10649312
_cell_length_c   9.95982587
_cell_angle_alpha   90.00000000
_cell_angle_beta   122.83462236
_cell_angle_gamma   90.00000000
_symmetry_Int_Tables_number   1
_chemical_formula_structural   Li2Co2Si2O7
_chemical_formula_sum   'Li8 Co8 Si8 O28'
_cell_volume   599.60057276
_cell_formula_units_Z   4
loop_
 _symmetry_equiv_pos_site_id
 _symmetry_equiv_pos_as_xyz
  1  'x, y, z'
loop_
 _atom_site_type_symbol
 _atom_site_label
 _atom_site_symmetry_multiplicity
 _atom_site_fract_x
 _atom_site_fract_y
 _atom_site_fract_z
 _atom_site_occupancy
  Li  Li0  1  0.732350  0.366213  0.887709  1
  Li  Li1  1  0.035624  0.745396  0.831166  1
  Li  Li2  1  0.964376  0.245396  0.668834  1
  Li  Li3  1  0.267650  0.866213  0.612291  1
  Li  Li4  1  0.732350  0.133787  0.387709  1
  Li  Li5  1  0.035624  0.754604  0.331166  1
  Li  Li6  1  0.964376  0.254604  0.168834  1
  Li  Li7  1  0.267650  0.633787  0.112291  1
  Co  Co8  1  0.544778  0.084760  0.885319  1
  Co  Co9  1  0.155950  0.492071  0.794693  1
  Co  Co10  1  0.844050  0.992071  0.705307  1
  Co  Co11  1  0.455222  0.584760  0.614681  1
  Co  Co12  1  0.544778  0.415240  0.385319  1
  Co  Co13  1  0.155950  0.007929  0.294693  1
  Co  Co14  1  0.844050  0.507929  0.205307  1
  Co  Co15  1  0.455222  0.915240  0.114681  1
  Si  Si16  1  0.778119  0.885172  0.962191  1
  Si  Si17  1  0.636092  0.669699  0.955544  1
  Si  Si18  1  0.363908  0.169699  0.544456  1
  Si  Si19  1  0.221881  0.385172  0.537809  1
  Si  Si20  1  0.778119  0.614828  0.462191  1
  Si  Si21  1  0.636092  0.830301  0.455544  1
  Si  Si22  1  0.363908  0.330301  0.044456  1
  Si  Si23  1  0.221881  0.114828  0.037809  1
  O  O24  1  0.565659  0.793926  0.961960  1
  O  O25  1  0.914892  0.163895  0.992436  1
  O  O26  1  0.209724  0.031178  0.909890  1
  O  O27  1  0.337267  0.616547  0.927025  1
  O  O28  1  0.076351  0.363934  0.870502  1
  O  O29  1  0.703466  0.658765  0.816155  1
  O  O30  1  0.598298  0.943946  0.787937  1
  O  O31  1  0.401702  0.443946  0.712063  1
  O  O32  1  0.296534  0.158765  0.683845  1
  O  O33  1  0.923649  0.863934  0.629498  1
  O  O34  1  0.662733  0.116547  0.572975  1
  O  O35  1  0.790276  0.531178  0.590110  1
  O  O36  1  0.085108  0.663895  0.507564  1
  O  O37  1  0.434341  0.293926  0.538040  1
  O  O38  1  0.565659  0.706074  0.461960  1
  O  O39  1  0.914892  0.336105  0.492436  1
  O  O40  1  0.209724  0.468822  0.409890  1
  O  O41  1  0.337267  0.883453  0.427025  1
  O  O42  1  0.076351  0.136066  0.370502  1
  O  O43  1  0.703466  0.841235  0.316155  1
  O  O44  1  0.598298  0.556054  0.287937  1
  O  O45  1  0.401702  0.056054  0.212063  1
  O  O46  1  0.296534  0.341235  0.183845  1
  O  O47  1  0.923649  0.636066  0.129498  1
  O  O48  1  0.662733  0.383453  0.072975  1
  O  O49  1  0.790276  0.968822  0.090110  1
  O  O50  1  0.085108  0.836105  0.007564  1
  O  O51  1  0.434341  0.206074  0.038040  1
