# generated using pymatgen
data_NaCu(PO3)4
_symmetry_space_group_name_H-M   'P 1'
_cell_length_a   8.08155696
_cell_length_b   8.08155696
_cell_length_c   8.01392400
_cell_angle_alpha   86.89771597
_cell_angle_beta   93.10228403
_cell_angle_gamma   71.66336543
_symmetry_Int_Tables_number   1
_chemical_formula_structural   NaCu(PO3)4
_chemical_formula_sum   'Na2 Cu2 P8 O24'
_cell_volume   494.69834681
_cell_formula_units_Z   2
loop_
 _symmetry_equiv_pos_site_id
 _symmetry_equiv_pos_as_xyz
  1  'x, y, z'
loop_
 _atom_site_type_symbol
 _atom_site_label
 _atom_site_symmetry_multiplicity
 _atom_site_fract_x
 _atom_site_fract_y
 _atom_site_fract_z
 _atom_site_occupancy
  Na  Na0  1  0.477946  0.810179  0.803817  1
  Na  Na1  1  0.189821  0.522054  0.303817  1
  Cu  Cu2  1  0.856587  0.868519  0.243610  1
  Cu  Cu3  1  0.131481  0.143413  0.743610  1
  P  P4  1  0.939898  0.211788  0.322095  1
  P  P5  1  0.753088  0.553609  0.125042  1
  P  P6  1  0.554704  0.756127  0.378851  1
  P  P7  1  0.788212  0.060102  0.822095  1
  P  P8  1  0.213172  0.939217  0.174959  1
  P  P9  1  0.446391  0.246912  0.625042  1
  P  P10  1  0.243873  0.445296  0.878851  1
  P  P11  1  0.060783  0.786828  0.674959  1
  O  O12  1  0.873525  0.874203  0.744331  1
  O  O13  1  0.893528  0.635471  0.187128  1
  O  O14  1  0.962830  0.298279  0.476051  1
  O  O15  1  0.840214  0.346425  0.165664  1
  O  O16  1  0.927866  0.150534  0.846646  1
  O  O17  1  0.634887  0.895749  0.315635  1
  O  O18  1  0.849466  0.072134  0.346646  1
  O  O19  1  0.682897  0.591937  0.949446  1
  O  O20  1  0.602101  0.599106  0.255229  1
  O  O21  1  0.580246  0.694765  0.557466  1
  O  O22  1  0.653575  0.159786  0.665664  1
  O  O23  1  0.701721  0.037170  0.976051  1
  O  O24  1  0.300782  0.950812  0.019046  1
  O  O25  1  0.345985  0.838454  0.331113  1
  O  O26  1  0.408063  0.317103  0.449446  1
  O  O27  1  0.400894  0.397899  0.755229  1
  O  O28  1  0.305235  0.419754  0.057465  1
  O  O29  1  0.155662  0.925227  0.659948  1
  O  O30  1  0.364529  0.106472  0.687128  1
  O  O31  1  0.074773  0.844338  0.159948  1
  O  O32  1  0.161546  0.654015  0.831113  1
  O  O33  1  0.049188  0.699218  0.519046  1
  O  O34  1  0.104251  0.365113  0.815635  1
  O  O35  1  0.125797  0.126475  0.244331  1
