# generated using pymatgen
data_Li4Cr3Co3(SnO8)2
_symmetry_space_group_name_H-M   'P 1'
_cell_length_a   5.85325636
_cell_length_b   5.85952765
_cell_length_c   9.63616924
_cell_angle_alpha   90.08704331
_cell_angle_beta   90.75200590
_cell_angle_gamma   119.68701560
_symmetry_Int_Tables_number   1
_chemical_formula_structural   Li4Cr3Co3(SnO8)2
_chemical_formula_sum   'Li4 Cr3 Co3 Sn2 O16'
_cell_volume   287.07829803
_cell_formula_units_Z   1
loop_
 _symmetry_equiv_pos_site_id
 _symmetry_equiv_pos_as_xyz
  1  'x, y, z'
loop_
 _atom_site_type_symbol
 _atom_site_label
 _atom_site_symmetry_multiplicity
 _atom_site_fract_x
 _atom_site_fract_y
 _atom_site_fract_z
 _atom_site_occupancy
  Li  Li0  1  0.660352  0.332737  0.891002  1
  Li  Li1  1  0.010305  0.003581  0.994495  1
  Li  Li2  1  0.005701  0.004695  0.495115  1
  Li  Li3  1  0.332489  0.665611  0.393338  1
  Cr  Cr4  1  0.832322  0.176069  0.217488  1
  Cr  Cr5  1  0.831866  0.660322  0.214553  1
  Cr  Cr6  1  0.661234  0.831822  0.715247  1
  Co  Co7  1  0.340525  0.169064  0.214813  1
  Co  Co8  1  0.168997  0.339606  0.715227  1
  Co  Co9  1  0.170979  0.831365  0.715038  1
  Sn  Sn10  1  0.663934  0.330097  0.494939  1
  Sn  Sn11  1  0.331725  0.664198  0.991276  1
  O  O12  1  0.845114  0.160043  0.600176  1
  O  O13  1  0.968070  0.474288  0.338433  1
  O  O14  1  0.660622  0.319750  0.107962  1
  O  O15  1  0.006641  0.011710  0.306245  1
  O  O16  1  0.016202  0.004955  0.807354  1
  O  O17  1  0.850304  0.685419  0.601960  1
  O  O18  1  0.513663  0.032173  0.334605  1
  O  O19  1  0.511168  0.476463  0.336687  1
  O  O20  1  0.684487  0.848641  0.099770  1
  O  O21  1  0.315938  0.155197  0.606984  1
  O  O22  1  0.476134  0.511925  0.836654  1
  O  O23  1  0.470957  0.967706  0.834339  1
  O  O24  1  0.316467  0.661724  0.612406  1
  O  O25  1  0.158725  0.319246  0.102773  1
  O  O26  1  0.032209  0.518849  0.827567  1
  O  O27  1  0.162872  0.842447  0.101393  1
