# generated using pymatgen
data_Ba4Li4Ti19O44
_symmetry_space_group_name_H-M   'P 1'
_cell_length_a   5.88236288
_cell_length_b   10.06909304
_cell_length_c   14.17872696
_cell_angle_alpha   89.71125888
_cell_angle_beta   89.66452533
_cell_angle_gamma   89.78575890
_symmetry_Int_Tables_number   1
_chemical_formula_structural   Ba4Li4Ti19O44
_chemical_formula_sum   'Ba4 Li4 Ti19 O44'
_cell_volume   839.77599866
_cell_formula_units_Z   1
loop_
 _symmetry_equiv_pos_site_id
 _symmetry_equiv_pos_as_xyz
  1  'x, y, z'
loop_
 _atom_site_type_symbol
 _atom_site_label
 _atom_site_symmetry_multiplicity
 _atom_site_fract_x
 _atom_site_fract_y
 _atom_site_fract_z
 _atom_site_occupancy
  Ba  Ba0  1  0.243440  0.606034  0.094336  1
  Ba  Ba1  1  0.248193  0.911324  0.589188  1
  Ba  Ba2  1  0.744750  0.093043  0.408607  1
  Ba  Ba3  1  0.752836  0.395158  0.898660  1
  Li  Li4  1  0.025336  0.500312  0.521010  1
  Li  Li5  1  0.257286  0.604287  0.652766  1
  Li  Li6  1  0.706125  0.414947  0.443984  1
  Li  Li7  1  0.750557  0.073656  0.962413  1
  Ti  Ti8  1  0.240215  0.387493  0.332604  1
  Ti  Ti9  1  0.234349  0.243395  0.511672  1
  Ti  Ti10  1  0.237225  0.574743  0.844030  1
  Ti  Ti11  1  0.244034  0.937480  0.330796  1
  Ti  Ti12  1  0.250583  0.259237  0.997146  1
  Ti  Ti13  1  0.253499  0.114720  0.823946  1
  Ti  Ti14  1  0.494214  0.342882  0.668251  1
  Ti  Ti15  1  0.491833  0.163651  0.171037  1
  Ti  Ti16  1  0.494289  0.664634  0.335444  1
  Ti  Ti17  1  0.504134  0.845515  0.823292  1
  Ti  Ti18  1  0.735339  0.766661  0.514791  1
  Ti  Ti19  1  0.738111  0.731728  0.000754  1
  Ti  Ti20  1  0.745986  0.433669  0.169785  1
  Ti  Ti21  1  0.747850  0.886189  0.165241  1
  Ti  Ti22  1  0.762326  0.591370  0.675807  1
  Ti  Ti23  1  0.770561  0.096382  0.664486  1
  Ti  Ti24  1  0.994109  0.671896  0.332883  1
  Ti  Ti25  1  0.994507  0.163803  0.168544  1
  Ti  Ti26  1  0.002370  0.844636  0.828618  1
  O  O27  1  0.998273  0.007033  0.748917  1
  O  O28  1  0.999429  0.151026  0.576101  1
  O  O29  1  0.005964  0.529548  0.758120  1
  O  O30  1  0.012605  0.678316  0.916081  1
  O  O31  1  0.017994  0.330346  0.421039  1
  O  O32  1  0.033620  0.179704  0.917280  1
  O  O33  1  0.237909  0.240250  0.246847  1
  O  O34  1  0.248945  0.748928  0.263678  1
  O  O35  1  0.239649  0.568662  0.395376  1
  O  O36  1  0.246129  0.108748  0.090360  1
  O  O37  1  0.245252  0.435575  0.932100  1
  O  O38  1  0.249949  0.061367  0.422602  1
  O  O39  1  0.253868  0.750022  0.761342  1
  O  O40  1  0.250925  0.927237  0.890780  1
  O  O41  1  0.258163  0.396623  0.582390  1
  O  O42  1  0.277153  0.255630  0.749939  1
  O  O43  1  0.452864  0.312384  0.409467  1
  O  O44  1  0.468970  0.178683  0.919889  1
  O  O45  1  0.491364  0.507409  0.748512  1
  O  O46  1  0.491573  0.998546  0.251222  1
  O  O47  1  0.492512  0.819900  0.412826  1
  O  O48  1  0.498645  0.496253  0.250288  1
  O  O49  1  0.498866  0.322967  0.090702  1
  O  O50  1  0.499394  0.672320  0.912993  1
  O  O51  1  0.503076  0.003387  0.748753  1
  O  O52  1  0.502452  0.176278  0.582891  1
  O  O53  1  0.528974  0.689184  0.593582  1
  O  O54  1  0.533660  0.813856  0.085802  1
  O  O55  1  0.732367  0.442189  0.599315  1
  O  O56  1  0.735231  0.244839  0.732239  1
  O  O57  1  0.748700  0.601637  0.414558  1
  O  O58  1  0.740605  0.931502  0.568000  1
  O  O59  1  0.744285  0.070238  0.104468  1
  O  O60  1  0.743206  0.250791  0.237945  1
  O  O61  1  0.743328  0.739574  0.256156  1
  O  O62  1  0.746957  0.561195  0.070306  1
  O  O63  1  0.749890  0.893409  0.912815  1
  O  O64  1  0.755207  0.763785  0.755413  1
  O  O65  1  0.956363  0.814797  0.086296  1
  O  O66  1  0.971574  0.674795  0.585482  1
  O  O67  1  0.985967  0.496420  0.247485  1
  O  O68  1  0.986381  0.321915  0.089347  1
  O  O69  1  0.997595  0.997619  0.251324  1
  O  O70  1  0.002440  0.823575  0.409968  1
