# generated using pymatgen
data_Y2HfO5
_symmetry_space_group_name_H-M   'P 1'
_cell_length_a   6.51959047
_cell_length_b   6.51959047
_cell_length_c   7.69685359
_cell_angle_alpha   69.18329222
_cell_angle_beta   110.81670778
_cell_angle_gamma   129.83648385
_symmetry_Int_Tables_number   1
_chemical_formula_structural   Y2HfO5
_chemical_formula_sum   'Y4 Hf2 O10'
_cell_volume   231.06802609
_cell_formula_units_Z   2
loop_
 _symmetry_equiv_pos_site_id
 _symmetry_equiv_pos_as_xyz
  1  'x, y, z'
loop_
 _atom_site_type_symbol
 _atom_site_label
 _atom_site_symmetry_multiplicity
 _atom_site_fract_x
 _atom_site_fract_y
 _atom_site_fract_z
 _atom_site_occupancy
  Y  Y0  1  0.365210  0.643352  0.751537  1
  Y  Y1  1  0.356648  0.634789  0.251537  1
  Y  Y2  1  0.643352  0.365210  0.748463  1
  Y  Y3  1  0.634789  0.356648  0.248463  1
  Hf  Hf4  1  0.000000  0.000000  0.000000  1
  Hf  Hf5  1  0.000000  0.000000  0.500000  1
  O  O6  1  0.250967  0.399333  0.544161  1
  O  O7  1  0.600667  0.749033  0.044161  1
  O  O8  1  0.977011  0.324614  0.854774  1
  O  O9  1  0.324614  0.977011  0.645226  1
  O  O10  1  0.675386  0.022989  0.354774  1
  O  O11  1  0.022989  0.675386  0.145226  1
  O  O12  1  0.399333  0.250967  0.955839  1
  O  O13  1  0.824466  0.824466  0.750000  1
  O  O14  1  0.749033  0.600667  0.455839  1
  O  O15  1  0.175534  0.175534  0.250000  1
