# generated using pymatgen
data_Li2FeCo3O8
_symmetry_space_group_name_H-M   'P 1'
_cell_length_a   5.77652860
_cell_length_b   5.77652860
_cell_length_c   9.41620269
_cell_angle_alpha   89.69988721
_cell_angle_beta   90.30011279
_cell_angle_gamma   60.20810777
_symmetry_Int_Tables_number   1
_chemical_formula_structural   Li2FeCo3O8
_chemical_formula_sum   'Li4 Fe2 Co6 O16'
_cell_volume   272.66131119
_cell_formula_units_Z   2
loop_
 _symmetry_equiv_pos_site_id
 _symmetry_equiv_pos_as_xyz
  1  'x, y, z'
loop_
 _atom_site_type_symbol
 _atom_site_label
 _atom_site_symmetry_multiplicity
 _atom_site_fract_x
 _atom_site_fract_y
 _atom_site_fract_z
 _atom_site_occupancy
  Li  Li0  1  0.661071  0.670267  0.894381  1
  Li  Li1  1  0.002000  0.999874  0.997922  1
  Li  Li2  1  0.000126  0.998000  0.497922  1
  Li  Li3  1  0.329733  0.338929  0.394381  1
  Fe  Fe4  1  0.675187  0.661024  0.488732  1
  Fe  Fe5  1  0.338976  0.324813  0.988732  1
  Co  Co6  1  0.830899  0.338402  0.214682  1
  Co  Co7  1  0.337697  0.831460  0.213121  1
  Co  Co8  1  0.831871  0.830921  0.212874  1
  Co  Co9  1  0.169079  0.168129  0.712874  1
  Co  Co10  1  0.661598  0.169101  0.714682  1
  Co  Co11  1  0.168540  0.662303  0.713121  1
  O  O12  1  0.850835  0.324159  0.602841  1
  O  O13  1  0.505195  0.532837  0.336249  1
  O  O14  1  0.659519  0.680731  0.106952  1
  O  O15  1  0.008355  0.985456  0.309857  1
  O  O16  1  0.014544  0.991645  0.809857  1
  O  O17  1  0.321005  0.840911  0.608967  1
  O  O18  1  0.963924  0.533395  0.334148  1
  O  O19  1  0.520334  0.960987  0.328213  1
  O  O20  1  0.173830  0.151000  0.104980  1
  O  O21  1  0.849000  0.826170  0.604980  1
  O  O22  1  0.466605  0.036076  0.834148  1
  O  O23  1  0.039013  0.479666  0.828213  1
  O  O24  1  0.319269  0.340481  0.606952  1
  O  O25  1  0.675841  0.149165  0.102841  1
  O  O26  1  0.467163  0.494805  0.836249  1
  O  O27  1  0.159089  0.678995  0.108967  1
