# generated using pymatgen
data_K4LiH3(SO4)4
_symmetry_space_group_name_H-M   'P 1'
_cell_length_a   7.50842171
_cell_length_b   7.50842171
_cell_length_c   29.06765518
_cell_angle_alpha   90.00000000
_cell_angle_beta   90.00000000
_cell_angle_gamma   90.00000000
_symmetry_Int_Tables_number   1
_chemical_formula_structural   K4LiH3(SO4)4
_chemical_formula_sum   'K16 Li4 H12 S16 O64'
_cell_volume   1638.72965594
_cell_formula_units_Z   4
loop_
 _symmetry_equiv_pos_site_id
 _symmetry_equiv_pos_as_xyz
  1  'x, y, z'
loop_
 _atom_site_type_symbol
 _atom_site_label
 _atom_site_symmetry_multiplicity
 _atom_site_fract_x
 _atom_site_fract_y
 _atom_site_fract_z
 _atom_site_occupancy
  K  K0  1  0.014135  0.490387  0.773952  1
  K  K1  1  0.985865  0.509613  0.273952  1
  K  K2  1  0.490387  0.985865  0.523952  1
  K  K3  1  0.509613  0.014135  0.023952  1
  K  K4  1  0.400149  0.374280  0.647816  1
  K  K5  1  0.599851  0.625720  0.147816  1
  K  K6  1  0.374280  0.599851  0.397816  1
  K  K7  1  0.625720  0.400149  0.897816  1
  K  K8  1  0.920203  0.903136  0.884076  1
  K  K9  1  0.079797  0.096864  0.384076  1
  K  K10  1  0.903136  0.079797  0.634076  1
  K  K11  1  0.096864  0.920203  0.134076  1
  K  K12  1  0.506613  0.787125  0.783569  1
  K  K13  1  0.493387  0.212875  0.283569  1
  K  K14  1  0.787125  0.493387  0.533569  1
  K  K15  1  0.212875  0.506613  0.033569  1
  Li  Li16  1  0.264320  0.148477  0.834573  1
  Li  Li17  1  0.735680  0.851523  0.334573  1
  Li  Li18  1  0.148477  0.735680  0.584573  1
  Li  Li19  1  0.851523  0.264320  0.084573  1
  H  H20  1  0.704639  0.694176  0.691153  1
  H  H21  1  0.295361  0.305824  0.191153  1
  H  H22  1  0.694176  0.295361  0.441153  1
  H  H23  1  0.305824  0.704639  0.941153  1
  H  H24  1  0.215410  0.942139  0.706437  1
  H  H25  1  0.784590  0.057861  0.206437  1
  H  H26  1  0.942139  0.784590  0.456437  1
  H  H27  1  0.057861  0.215410  0.956437  1
  H  H28  1  0.722282  0.184837  0.729948  1
  H  H29  1  0.277718  0.815163  0.229948  1
  H  H30  1  0.184837  0.277718  0.479948  1
  H  H31  1  0.815163  0.722282  0.979948  1
  S  S32  1  0.895013  0.543835  0.649879  1
  S  S33  1  0.104987  0.456165  0.149879  1
  S  S34  1  0.543835  0.104987  0.399879  1
  S  S35  1  0.456165  0.895013  0.899879  1
  S  S36  1  0.428661  0.890098  0.651188  1
  S  S37  1  0.571339  0.109902  0.151188  1
  S  S38  1  0.890098  0.571339  0.401188  1
  S  S39  1  0.109902  0.428661  0.901188  1
  S  S40  1  0.990510  0.980688  0.766912  1
  S  S41  1  0.009490  0.019312  0.266912  1
  S  S42  1  0.980688  0.009490  0.516912  1
  S  S43  1  0.019312  0.990510  0.016912  1
  S  S44  1  0.523970  0.325257  0.771925  1
  S  S45  1  0.476030  0.674743  0.271925  1
  S  S46  1  0.325257  0.476030  0.521925  1
  S  S47  1  0.674743  0.523970  0.021925  1
  O  O48  1  0.817049  0.620315  0.696640  1
  O  O49  1  0.182951  0.379685  0.196640  1
  O  O50  1  0.620315  0.182951  0.446640  1
  O  O51  1  0.379685  0.817049  0.946640  1
  O  O52  1  0.757359  0.431199  0.628733  1
  O  O53  1  0.242641  0.568801  0.128733  1
  O  O54  1  0.431199  0.242641  0.378733  1
  O  O55  1  0.568801  0.757359  0.878733  1
  O  O56  1  0.051337  0.443215  0.664226  1
  O  O57  1  0.948663  0.556785  0.164226  1
  O  O58  1  0.443215  0.948663  0.414226  1
  O  O59  1  0.556785  0.051337  0.914226  1
  O  O60  1  0.935496  0.699724  0.620766  1
  O  O61  1  0.064504  0.300276  0.120766  1
  O  O62  1  0.699724  0.064504  0.370766  1
  O  O63  1  0.300276  0.935496  0.870766  1
  O  O64  1  0.264783  0.989435  0.671899  1
  O  O65  1  0.735217  0.010565  0.171899  1
  O  O66  1  0.989435  0.735217  0.421899  1
  O  O67  1  0.010565  0.264783  0.921899  1
  O  O68  1  0.363959  0.748344  0.620204  1
  O  O69  1  0.636041  0.251656  0.120204  1
  O  O70  1  0.748344  0.636041  0.370204  1
  O  O71  1  0.251656  0.363959  0.870204  1
  O  O72  1  0.528166  0.812365  0.690348  1
  O  O73  1  0.471834  0.187635  0.190348  1
  O  O74  1  0.812365  0.471834  0.440348  1
  O  O75  1  0.187635  0.528166  0.940348  1
  O  O76  1  0.530167  0.025217  0.625758  1
  O  O77  1  0.469833  0.974783  0.125758  1
  O  O78  1  0.025217  0.469833  0.375758  1
  O  O79  1  0.974783  0.530167  0.875758  1
  O  O80  1  0.045623  0.114747  0.801821  1
  O  O81  1  0.954377  0.885253  0.301821  1
  O  O82  1  0.114747  0.954377  0.551821  1
  O  O83  1  0.885253  0.045623  0.051821  1
  O  O84  1  0.879054  0.843172  0.788788  1
  O  O85  1  0.120946  0.156828  0.288788  1
  O  O86  1  0.843172  0.120946  0.538788  1
  O  O87  1  0.156828  0.879054  0.038788  1
  O  O88  1  0.897214  0.072414  0.728236  1
  O  O89  1  0.102786  0.927586  0.228236  1
  O  O90  1  0.072414  0.102786  0.478236  1
  O  O91  1  0.927586  0.897214  0.978236  1
  O  O92  1  0.154961  0.889808  0.747135  1
  O  O93  1  0.845039  0.110192  0.247135  1
  O  O94  1  0.889808  0.845039  0.497135  1
  O  O95  1  0.110192  0.154961  0.997135  1
  O  O96  1  0.657545  0.434205  0.795899  1
  O  O97  1  0.342455  0.565795  0.295899  1
  O  O98  1  0.434205  0.342455  0.545899  1
  O  O99  1  0.565795  0.657545  0.045899  1
  O  O100  1  0.608563  0.258863  0.724919  1
  O  O101  1  0.391437  0.741137  0.224919  1
  O  O102  1  0.258863  0.391437  0.474919  1
  O  O103  1  0.741137  0.608563  0.974919  1
  O  O104  1  0.478510  0.163867  0.798310  1
  O  O105  1  0.521490  0.836133  0.298310  1
  O  O106  1  0.163867  0.521490  0.548310  1
  O  O107  1  0.836133  0.478510  0.048310  1
  O  O108  1  0.368852  0.428372  0.757192  1
  O  O109  1  0.631148  0.571628  0.257192  1
  O  O110  1  0.428372  0.631148  0.507192  1
  O  O111  1  0.571628  0.368852  0.007192  1
