# generated using pymatgen
data_Mn3Cr3(WO8)2
_symmetry_space_group_name_H-M   'P 1'
_cell_length_a   5.95062804
_cell_length_b   5.96181672
_cell_length_c   9.22456498
_cell_angle_alpha   90.39327596
_cell_angle_beta   89.88266198
_cell_angle_gamma   119.94017053
_symmetry_Int_Tables_number   1
_chemical_formula_structural   Mn3Cr3(WO8)2
_chemical_formula_sum   'Mn3 Cr3 W2 O16'
_cell_volume   283.57548536
_cell_formula_units_Z   1
loop_
 _symmetry_equiv_pos_site_id
 _symmetry_equiv_pos_as_xyz
  1  'x, y, z'
loop_
 _atom_site_type_symbol
 _atom_site_label
 _atom_site_symmetry_multiplicity
 _atom_site_fract_x
 _atom_site_fract_y
 _atom_site_fract_z
 _atom_site_occupancy
  Mn  Mn0  1  0.174098  0.164600  0.787097  1
  Mn  Mn1  1  0.339937  0.831333  0.285605  1
  Mn  Mn2  1  0.837012  0.330416  0.292369  1
  Cr  Cr3  1  0.169656  0.664194  0.790040  1
  Cr  Cr4  1  0.664571  0.166729  0.787064  1
  Cr  Cr5  1  0.831357  0.831813  0.287474  1
  W  W6  1  0.334017  0.338586  0.509932  1
  W  W7  1  0.673994  0.663303  0.007640  1
  O  O8  1  0.175221  0.652715  0.401965  1
  O  O9  1  0.476828  0.474699  0.655849  1
  O  O10  1  0.329025  0.328542  0.891334  1
  O  O11  1  0.007406  0.001591  0.692594  1
  O  O12  1  0.004515  0.004528  0.194863  1
  O  O13  1  0.651147  0.163396  0.409470  1
  O  O14  1  0.046504  0.467942  0.660717  1
  O  O15  1  0.472185  0.044031  0.660505  1
  O  O16  1  0.821004  0.832297  0.903660  1
  O  O17  1  0.184704  0.164961  0.405876  1
  O  O18  1  0.513404  0.958138  0.162858  1
  O  O19  1  0.951000  0.535376  0.148797  1
  O  O20  1  0.662244  0.661043  0.388459  1
  O  O21  1  0.349241  0.832286  0.901723  1
  O  O22  1  0.504592  0.540826  0.154782  1
  O  O23  1  0.826139  0.346857  0.903609  1
