# generated using pymatgen
data_Er2TeO6
_symmetry_space_group_name_H-M   'P 1'
_cell_length_a   5.28219593
_cell_length_b   9.07449202
_cell_length_c   9.95882964
_cell_angle_alpha   90.00000000
_cell_angle_beta   90.00000000
_cell_angle_gamma   90.00000000
_symmetry_Int_Tables_number   1
_chemical_formula_structural   Er2TeO6
_chemical_formula_sum   'Er8 Te4 O24'
_cell_volume   477.35901920
_cell_formula_units_Z   4
loop_
 _symmetry_equiv_pos_site_id
 _symmetry_equiv_pos_as_xyz
  1  'x, y, z'
loop_
 _atom_site_type_symbol
 _atom_site_label
 _atom_site_symmetry_multiplicity
 _atom_site_fract_x
 _atom_site_fract_y
 _atom_site_fract_z
 _atom_site_occupancy
  Er  Er0  1  0.024892  0.396877  0.039206  1
  Er  Er1  1  0.035985  0.282080  0.634702  1
  Er  Er2  1  0.464015  0.717920  0.134702  1
  Er  Er3  1  0.475108  0.603123  0.539206  1
  Er  Er4  1  0.524892  0.103123  0.960794  1
  Er  Er5  1  0.535985  0.217920  0.365298  1
  Er  Er6  1  0.964015  0.782080  0.865298  1
  Er  Er7  1  0.975108  0.896877  0.460794  1
  Te  Te8  1  0.040725  0.005357  0.147229  1
  Te  Te9  1  0.459275  0.994643  0.647229  1
  Te  Te10  1  0.540725  0.494643  0.852771  1
  Te  Te11  1  0.959275  0.505357  0.352771  1
  O  O12  1  0.082100  0.656143  0.475058  1
  O  O13  1  0.176155  0.548976  0.203013  1
  O  O14  1  0.187759  0.858160  0.262981  1
  O  O15  1  0.179531  0.857062  0.678907  1
  O  O16  1  0.228543  0.384318  0.435867  1
  O  O17  1  0.248105  0.086538  0.505180  1
  O  O18  1  0.251895  0.913462  0.005180  1
  O  O19  1  0.271457  0.615682  0.935867  1
  O  O20  1  0.320469  0.142938  0.178907  1
  O  O21  1  0.312241  0.141840  0.762981  1
  O  O22  1  0.323845  0.451024  0.703013  1
  O  O23  1  0.417900  0.343857  0.975058  1
  O  O24  1  0.582100  0.843857  0.524942  1
  O  O25  1  0.676155  0.951024  0.796987  1
  O  O26  1  0.687759  0.641840  0.737019  1
  O  O27  1  0.679531  0.642938  0.321093  1
  O  O28  1  0.728543  0.115682  0.564133  1
  O  O29  1  0.748105  0.413462  0.494820  1
  O  O30  1  0.751895  0.586538  0.994820  1
  O  O31  1  0.771457  0.884318  0.064133  1
  O  O32  1  0.820469  0.357062  0.821093  1
  O  O33  1  0.812241  0.358160  0.237019  1
  O  O34  1  0.823845  0.048976  0.296987  1
  O  O35  1  0.917900  0.156143  0.024942  1
