# generated using pymatgen
data_LiMnPO4
_symmetry_space_group_name_H-M   'P 1'
_cell_length_a   5.01338881
_cell_length_b   5.51733934
_cell_length_c   6.71567792
_cell_angle_alpha   102.72458162
_cell_angle_beta   90.07620437
_cell_angle_gamma   116.84987083
_symmetry_Int_Tables_number   1
_chemical_formula_structural   LiMnPO4
_chemical_formula_sum   'Li2 Mn2 P2 O8'
_cell_volume   160.57457217
_cell_formula_units_Z   2
loop_
 _symmetry_equiv_pos_site_id
 _symmetry_equiv_pos_as_xyz
  1  'x, y, z'
loop_
 _atom_site_type_symbol
 _atom_site_label
 _atom_site_symmetry_multiplicity
 _atom_site_fract_x
 _atom_site_fract_y
 _atom_site_fract_z
 _atom_site_occupancy
  Li  Li0  1  0.063593  0.002978  0.497942  1
  Li  Li1  1  0.033105  0.000167  0.004617  1
  Mn  Mn2  1  0.355121  0.714311  0.270955  1
  Mn  Mn3  1  0.640264  0.286645  0.725623  1
  P  P4  1  0.313876  0.646642  0.767855  1
  P  P5  1  0.671422  0.356422  0.228259  1
  O  O6  1  0.753349  0.672573  0.319842  1
  O  O7  1  0.303318  0.831949  0.622363  1
  O  O8  1  0.214235  0.731731  0.978087  1
  O  O9  1  0.638675  0.683958  0.787618  1
  O  O10  1  0.957609  0.316461  0.209520  1
  O  O11  1  0.484968  0.270137  0.018371  1
  O  O12  1  0.474975  0.172968  0.373737  1
  O  O13  1  0.078988  0.332209  0.673861  1
