# generated using pymatgen
data_Li2MnV(P2O7)2
_symmetry_space_group_name_H-M   'P 1'
_cell_length_a   7.06888390
_cell_length_b   8.33652569
_cell_length_c   9.70222632
_cell_angle_alpha   90.00000000
_cell_angle_beta   108.76028335
_cell_angle_gamma   90.00000000
_symmetry_Int_Tables_number   1
_chemical_formula_structural   Li2MnV(P2O7)2
_chemical_formula_sum   'Li4 Mn2 V2 P8 O28'
_cell_volume   541.37576587
_cell_formula_units_Z   2
loop_
 _symmetry_equiv_pos_site_id
 _symmetry_equiv_pos_as_xyz
  1  'x, y, z'
loop_
 _atom_site_type_symbol
 _atom_site_label
 _atom_site_symmetry_multiplicity
 _atom_site_fract_x
 _atom_site_fract_y
 _atom_site_fract_z
 _atom_site_occupancy
  Li  Li0  1  0.668956  0.858868  0.085294  1
  Li  Li1  1  0.326922  0.357591  0.409381  1
  Li  Li2  1  0.673078  0.857591  0.590619  1
  Li  Li3  1  0.331044  0.358868  0.914706  1
  Mn  Mn4  1  0.730687  0.500669  0.108066  1
  Mn  Mn5  1  0.269313  0.000669  0.891934  1
  V  V6  1  0.273449  0.998117  0.394829  1
  V  V7  1  0.726551  0.498117  0.605171  1
  P  P8  1  0.517988  0.178627  0.199053  1
  P  P9  1  0.088820  0.789183  0.105273  1
  P  P10  1  0.911759  0.282854  0.390393  1
  P  P11  1  0.477033  0.679643  0.299036  1
  P  P12  1  0.522967  0.179643  0.700964  1
  P  P13  1  0.088241  0.782854  0.609607  1
  P  P14  1  0.911180  0.289183  0.894727  1
  P  P15  1  0.482012  0.678627  0.800947  1
  O  O16  1  0.852063  0.329535  0.029319  1
  O  O17  1  0.888169  0.706806  0.067163  1
  O  O18  1  0.478694  0.035664  0.092644  1
  O  O19  1  0.495725  0.340467  0.124386  1
  O  O20  1  0.608455  0.676836  0.199704  1
  O  O21  1  0.913291  0.433096  0.297894  1
  O  O22  1  0.750202  0.153745  0.295723  1
  O  O23  1  0.247894  0.655669  0.198557  1
  O  O24  1  0.095273  0.937707  0.200581  1
  O  O25  1  0.398621  0.171546  0.306467  1
  O  O26  1  0.492908  0.840186  0.378214  1
  O  O27  1  0.514629  0.537466  0.405166  1
  O  O28  1  0.851905  0.326092  0.523238  1
  O  O29  1  0.888965  0.695211  0.569019  1
  O  O30  1  0.111035  0.195211  0.430981  1
  O  O31  1  0.148095  0.826092  0.476762  1
  O  O32  1  0.485371  0.037466  0.594834  1
  O  O33  1  0.507092  0.340186  0.621786  1
  O  O34  1  0.601379  0.671546  0.693533  1
  O  O35  1  0.904727  0.437707  0.799419  1
  O  O36  1  0.752106  0.155669  0.801443  1
  O  O37  1  0.249798  0.653745  0.704277  1
  O  O38  1  0.086709  0.933096  0.702106  1
  O  O39  1  0.391545  0.176836  0.800296  1
  O  O40  1  0.504275  0.840467  0.875614  1
  O  O41  1  0.521306  0.535664  0.907356  1
  O  O42  1  0.111831  0.206806  0.932837  1
  O  O43  1  0.147937  0.829535  0.970681  1
