# generated using pymatgen
data_LiLa8V8O32
_symmetry_space_group_name_H-M   'P 1'
_cell_length_a   7.19310226
_cell_length_b   7.37184821
_cell_length_c   13.65144720
_cell_angle_alpha   90.45824196
_cell_angle_beta   104.37840127
_cell_angle_gamma   91.84071141
_symmetry_Int_Tables_number   1
_chemical_formula_structural   LiLa8V8O32
_chemical_formula_sum   'Li1 La8 V8 O32'
_cell_volume   700.75620093
_cell_formula_units_Z   1
loop_
 _symmetry_equiv_pos_site_id
 _symmetry_equiv_pos_as_xyz
  1  'x, y, z'
loop_
 _atom_site_type_symbol
 _atom_site_label
 _atom_site_symmetry_multiplicity
 _atom_site_fract_x
 _atom_site_fract_y
 _atom_site_fract_z
 _atom_site_occupancy
  Li  Li0  1  0.005273  0.302074  0.862403  1
  La  La1  1  0.482813  0.345535  0.703610  1
  La  La2  1  0.272644  0.844597  0.548127  1
  La  La3  1  0.978440  0.344984  0.198327  1
  La  La4  1  0.778025  0.838912  0.049436  1
  La  La5  1  0.274012  0.118846  0.972487  1
  La  La6  1  0.010539  0.673366  0.796441  1
  La  La7  1  0.735732  0.155025  0.452110  1
  La  La8  1  0.520490  0.653945  0.300236  1
  V  V9  1  0.726517  0.338220  0.946559  1
  V  V10  1  0.510739  0.834006  0.805227  1
  V  V11  1  0.247351  0.333999  0.442739  1
  V  V12  1  0.008071  0.836586  0.306575  1
  V  V13  1  0.994785  0.164606  0.689083  1
  V  V14  1  0.757000  0.667704  0.555691  1
  V  V15  1  0.507172  0.163482  0.203289  1
  V  V16  1  0.252110  0.645979  0.054775  1
  O  O17  1  0.786978  0.418438  0.829220  1
  O  O18  1  0.750581  0.789692  0.860998  1
  O  O19  1  0.321812  0.397269  0.336296  1
  O  O20  1  0.389176  0.155311  0.498847  1
  O  O21  1  0.465359  0.000353  0.711977  1
  O  O22  1  0.244761  0.779510  0.362342  1
  O  O23  1  0.484693  0.269478  0.883411  1
  O  O24  1  0.286915  0.503061  0.537457  1
  O  O25  1  0.366252  0.651985  0.747031  1
  O  O26  1  0.439512  0.878506  0.916052  1
  O  O27  1  0.905210  0.164290  0.990504  1
  O  O28  1  0.970882  0.001655  0.211719  1
  O  O29  1  0.006767  0.278399  0.386371  1
  O  O30  1  0.076099  0.105117  0.585027  1
  O  O31  1  0.787935  0.507070  0.048329  1
  O  O32  1  0.117190  0.361292  0.743846  1
  O  O33  1  0.859930  0.655320  0.248252  1
  O  O34  1  0.197455  0.476403  0.958384  1
  O  O35  1  0.931577  0.895429  0.412855  1
  O  O36  1  0.996973  0.729287  0.615028  1
  O  O37  1  0.038285  0.016501  0.793477  1
  O  O38  1  0.112980  0.827699  0.999276  1
  O  O39  1  0.587676  0.103246  0.097034  1
  O  O40  1  0.648422  0.348598  0.259381  1
  O  O41  1  0.715691  0.497578  0.461986  1
  O  O42  1  0.489313  0.713289  0.110067  1
  O  O43  1  0.755903  0.210632  0.634311  1
  O  O44  1  0.541807  0.996420  0.294881  1
  O  O45  1  0.612546  0.843929  0.500740  1
  O  O46  1  0.682143  0.605161  0.661621  1
  O  O47  1  0.270059  0.210079  0.144885  1
  O  O48  1  0.184361  0.593846  0.164322  1
