# generated using pymatgen
data_YbSmO3
_symmetry_space_group_name_H-M   'P 1'
_cell_length_a   5.88304586
_cell_length_b   5.98130377
_cell_length_c   8.43025469
_cell_angle_alpha   90.00000000
_cell_angle_beta   90.00000000
_cell_angle_gamma   90.00000000
_symmetry_Int_Tables_number   1
_chemical_formula_structural   YbSmO3
_chemical_formula_sum   'Yb4 Sm4 O12'
_cell_volume   296.64619967
_cell_formula_units_Z   4
loop_
 _symmetry_equiv_pos_site_id
 _symmetry_equiv_pos_as_xyz
  1  'x, y, z'
loop_
 _atom_site_type_symbol
 _atom_site_label
 _atom_site_symmetry_multiplicity
 _atom_site_fract_x
 _atom_site_fract_y
 _atom_site_fract_z
 _atom_site_occupancy
  Yb  Yb0  1  0.000278  0.478410  0.733389  1
  Yb  Yb1  1  0.500278  0.021590  0.233389  1
  Yb  Yb2  1  0.499722  0.978410  0.733389  1
  Yb  Yb3  1  0.999722  0.521590  0.233389  1
  Sm  Sm4  1  0.500665  0.458326  0.464158  1
  Sm  Sm5  1  0.000665  0.041674  0.964158  1
  Sm  Sm6  1  0.999335  0.958326  0.464158  1
  Sm  Sm7  1  0.499335  0.541674  0.964158  1
  O  O8  1  0.861192  0.405552  0.991525  1
  O  O9  1  0.359682  0.384805  0.196226  1
  O  O10  1  0.291754  0.264671  0.839505  1
  O  O11  1  0.791754  0.235329  0.339505  1
  O  O12  1  0.859682  0.115195  0.696226  1
  O  O13  1  0.361192  0.094448  0.491525  1
  O  O14  1  0.638808  0.905552  0.991525  1
  O  O15  1  0.140318  0.884805  0.196226  1
  O  O16  1  0.208246  0.764671  0.839505  1
  O  O17  1  0.708246  0.735329  0.339505  1
  O  O18  1  0.640318  0.615195  0.696226  1
  O  O19  1  0.138808  0.594448  0.491525  1
