# generated using pymatgen
data_SnF2
_symmetry_space_group_name_H-M   'P 1'
_cell_length_a   5.23018752
_cell_length_b   5.23018752
_cell_length_c   8.49166622
_cell_angle_alpha   90.00000000
_cell_angle_beta   90.00000000
_cell_angle_gamma   90.00000000
_symmetry_Int_Tables_number   1
_chemical_formula_structural   SnF2
_chemical_formula_sum   'Sn4 F8'
_cell_volume   232.28835330
_cell_formula_units_Z   4
loop_
 _symmetry_equiv_pos_site_id
 _symmetry_equiv_pos_as_xyz
  1  'x, y, z'
loop_
 _atom_site_type_symbol
 _atom_site_label
 _atom_site_symmetry_multiplicity
 _atom_site_fract_x
 _atom_site_fract_y
 _atom_site_fract_z
 _atom_site_occupancy
  Sn  Sn0  1  0.003779  0.003779  0.500000  1
  Sn  Sn1  1  0.496221  0.503779  0.750000  1
  Sn  Sn2  1  0.503779  0.496221  0.250000  1
  Sn  Sn3  1  0.996221  0.996221  0.000000  1
  F  F4  1  0.743306  0.857917  0.328532  1
  F  F5  1  0.256694  0.142083  0.828532  1
  F  F6  1  0.857917  0.743306  0.671468  1
  F  F7  1  0.357917  0.756694  0.078532  1
  F  F8  1  0.142083  0.256694  0.171468  1
  F  F9  1  0.243306  0.642083  0.421468  1
  F  F10  1  0.756694  0.357917  0.921468  1
  F  F11  1  0.642083  0.243306  0.578532  1
