# generated using pymatgen
data_RbMgH12(ClO2)3
_symmetry_space_group_name_H-M   'P 1'
_cell_length_a   6.62072551
_cell_length_b   6.73152071
_cell_length_c   13.52300646
_cell_angle_alpha   89.51897634
_cell_angle_beta   88.09738276
_cell_angle_gamma   87.93458270
_symmetry_Int_Tables_number   1
_chemical_formula_structural   RbMgH12(ClO2)3
_chemical_formula_sum   'Rb2 Mg2 H24 Cl6 O12'
_cell_volume   601.94804947
_cell_formula_units_Z   2
loop_
 _symmetry_equiv_pos_site_id
 _symmetry_equiv_pos_as_xyz
  1  'x, y, z'
loop_
 _atom_site_type_symbol
 _atom_site_label
 _atom_site_symmetry_multiplicity
 _atom_site_fract_x
 _atom_site_fract_y
 _atom_site_fract_z
 _atom_site_occupancy
  Rb  Rb0  1  0.984473  0.021214  0.990926  1
  Rb  Rb1  1  0.009588  0.009140  0.496675  1
  Mg  Mg2  1  0.498895  0.524352  0.754846  1
  Mg  Mg3  1  0.502934  0.517480  0.243989  1
  H  H4  1  0.566865  0.860773  0.139182  1
  H  H5  1  0.289938  0.873746  0.720147  1
  H  H6  1  0.455855  0.870228  0.633517  1
  H  H7  1  0.731037  0.858781  0.221348  1
  H  H8  1  0.464883  0.748869  0.417554  1
  H  H9  1  0.175185  0.749967  0.198477  1
  H  H10  1  0.835820  0.750355  0.774164  1
  H  H11  1  0.433827  0.714066  0.929552  1
  H  H12  1  0.312962  0.571810  0.424289  1
  H  H13  1  0.843537  0.575995  0.854233  1
  H  H14  1  0.088987  0.544622  0.222329  1
  H  H15  1  0.253998  0.564035  0.927111  1
  H  H16  1  0.700661  0.454930  0.063863  1
  H  H17  1  0.742745  0.479489  0.579911  1
  H  H18  1  0.844641  0.459863  0.358934  1
  H  H19  1  0.163484  0.466079  0.646913  1
  H  H20  1  0.124621  0.338700  0.742831  1
  H  H21  1  0.855272  0.300087  0.273263  1
  H  H22  1  0.530607  0.294526  0.070025  1
  H  H23  1  0.598654  0.299014  0.591339  1
  H  H24  1  0.708948  0.166057  0.781704  1
  H  H25  1  0.440912  0.170090  0.349199  1
  H  H26  1  0.531428  0.163717  0.862931  1
  H  H27  1  0.275432  0.173518  0.267034  1
  Cl  Cl28  1  0.476388  0.004833  0.004602  1
  Cl  Cl29  1  0.972859  0.506961  0.987065  1
  Cl  Cl30  1  0.014931  0.514060  0.493800  1
  Cl  Cl31  1  0.516227  0.026393  0.491312  1
  Cl  Cl32  1  0.992063  0.019186  0.742921  1
  Cl  Cl33  1  0.999544  0.024857  0.239618  1
  O  O34  1  0.607131  0.793962  0.201232  1
  O  O35  1  0.417402  0.805868  0.696669  1
  O  O36  1  0.431465  0.621770  0.386934  1
  O  O37  1  0.773127  0.625390  0.794279  1
  O  O38  1  0.212387  0.607288  0.196857  1
  O  O39  1  0.382422  0.601248  0.893090  1
  O  O40  1  0.801985  0.435873  0.290769  1
  O  O41  1  0.622793  0.431956  0.617161  1
  O  O42  1  0.583294  0.409525  0.104481  1
  O  O43  1  0.213405  0.438861  0.713221  1
  O  O44  1  0.390456  0.246416  0.292094  1
  O  O45  1  0.584787  0.239308  0.805907  1
