# generated using pymatgen
data_P5WO15
_symmetry_space_group_name_H-M   'P 1'
_cell_length_a   5.33291365
_cell_length_b   14.04825933
_cell_length_c   8.76608301
_cell_angle_alpha   90.00000000
_cell_angle_beta   102.65805878
_cell_angle_gamma   90.00000000
_symmetry_Int_Tables_number   1
_chemical_formula_structural   P5WO15
_chemical_formula_sum   'P10 W2 O30'
_cell_volume   640.77686038
_cell_formula_units_Z   2
loop_
 _symmetry_equiv_pos_site_id
 _symmetry_equiv_pos_as_xyz
  1  'x, y, z'
loop_
 _atom_site_type_symbol
 _atom_site_label
 _atom_site_symmetry_multiplicity
 _atom_site_fract_x
 _atom_site_fract_y
 _atom_site_fract_z
 _atom_site_occupancy
  P  P0  1  0.456691  0.250000  0.468422  1
  P  P1  1  0.360020  0.915265  0.332921  1
  P  P2  1  0.360020  0.584735  0.332921  1
  P  P3  1  0.986608  0.357624  0.977057  1
  P  P4  1  0.013392  0.857624  0.022943  1
  P  P5  1  0.986608  0.142376  0.977057  1
  P  P6  1  0.013392  0.642376  0.022943  1
  P  P7  1  0.639980  0.415265  0.667079  1
  P  P8  1  0.639980  0.084735  0.667079  1
  P  P9  1  0.543309  0.750000  0.531578  1
  W  W10  1  0.500000  0.000000  0.000000  1
  W  W11  1  0.500000  0.500000  0.000000  1
  O  O12  1  0.718463  0.250000  0.440423  1
  O  O13  1  0.559384  0.836464  0.394112  1
  O  O14  1  0.491976  0.530254  0.210228  1
  O  O15  1  0.491976  0.969746  0.210228  1
  O  O16  1  0.559384  0.663536  0.394112  1
  O  O17  1  0.270123  0.384047  0.014276  1
  O  O18  1  0.270123  0.115953  0.014276  1
  O  O19  1  0.178221  0.917467  0.939124  1
  O  O20  1  0.178221  0.582533  0.939124  1
  O  O21  1  0.128484  0.856872  0.204370  1
  O  O22  1  0.207329  0.250000  0.356529  1
  O  O23  1  0.237343  0.977743  0.426972  1
  O  O24  1  0.237343  0.522257  0.426972  1
  O  O25  1  0.128484  0.643128  0.204370  1
  O  O26  1  0.035583  0.750000  0.970218  1
  O  O27  1  0.964417  0.250000  0.029782  1
  O  O28  1  0.871516  0.356872  0.795630  1
  O  O29  1  0.762657  0.477743  0.573028  1
  O  O30  1  0.762657  0.022257  0.573028  1
  O  O31  1  0.792671  0.750000  0.643471  1
  O  O32  1  0.871516  0.143128  0.795630  1
  O  O33  1  0.821779  0.417467  0.060876  1
  O  O34  1  0.821779  0.082533  0.060876  1
  O  O35  1  0.729877  0.884047  0.985724  1
  O  O36  1  0.729877  0.615953  0.985724  1
  O  O37  1  0.440616  0.336464  0.605888  1
  O  O38  1  0.508024  0.030254  0.789772  1
  O  O39  1  0.508024  0.469746  0.789772  1
  O  O40  1  0.440616  0.163536  0.605888  1
  O  O41  1  0.281537  0.750000  0.559577  1
