# generated using pymatgen
data_NaMn(PO3)3
_symmetry_space_group_name_H-M   'P 1'
_cell_length_a   8.79270354
_cell_length_b   8.82746026
_cell_length_c   9.06338389
_cell_angle_alpha   90.00000000
_cell_angle_beta   90.00000000
_cell_angle_gamma   90.00000000
_symmetry_Int_Tables_number   1
_chemical_formula_structural   NaMn(PO3)3
_chemical_formula_sum   'Na4 Mn4 P12 O36'
_cell_volume   703.47485237
_cell_formula_units_Z   4
loop_
 _symmetry_equiv_pos_site_id
 _symmetry_equiv_pos_as_xyz
  1  'x, y, z'
loop_
 _atom_site_type_symbol
 _atom_site_label
 _atom_site_symmetry_multiplicity
 _atom_site_fract_x
 _atom_site_fract_y
 _atom_site_fract_z
 _atom_site_occupancy
  Na  Na0  1  0.151917  0.131899  0.392974  1
  Na  Na1  1  0.348083  0.868101  0.892974  1
  Na  Na2  1  0.651917  0.368101  0.607026  1
  Na  Na3  1  0.848083  0.631899  0.107026  1
  Mn  Mn4  1  0.126606  0.856122  0.162678  1
  Mn  Mn5  1  0.373394  0.143878  0.662678  1
  Mn  Mn6  1  0.626606  0.643878  0.837322  1
  Mn  Mn7  1  0.873394  0.356122  0.337322  1
  P  P8  1  0.032092  0.324379  0.687881  1
  P  P9  1  0.195129  0.478391  0.189810  1
  P  P10  1  0.196541  0.806990  0.561774  1
  P  P11  1  0.303459  0.193010  0.061774  1
  P  P12  1  0.304871  0.521609  0.689810  1
  P  P13  1  0.467908  0.675621  0.187881  1
  P  P14  1  0.532092  0.175621  0.312119  1
  P  P15  1  0.695129  0.021609  0.810190  1
  P  P16  1  0.696541  0.693010  0.438226  1
  P  P17  1  0.803459  0.306990  0.938226  1
  P  P18  1  0.804871  0.978391  0.310190  1
  P  P19  1  0.967908  0.824379  0.812119  1
  O  O20  1  0.041334  0.780846  0.655216  1
  O  O21  1  0.106232  0.609936  0.129596  1
  O  O22  1  0.088266  0.875174  0.918518  1
  O  O23  1  0.123177  0.388974  0.313333  1
  O  O24  1  0.132753  0.195662  0.639369  1
  O  O25  1  0.137771  0.466108  0.739834  1
  O  O26  1  0.153359  0.852096  0.408049  1
  O  O27  1  0.196526  0.092086  0.146555  1
  O  O28  1  0.236060  0.363786  0.055252  1
  O  O29  1  0.263940  0.636214  0.555252  1
  O  O30  1  0.303474  0.907914  0.646555  1
  O  O31  1  0.346641  0.147904  0.908049  1
  O  O32  1  0.362229  0.533892  0.239834  1
  O  O33  1  0.367247  0.804338  0.139369  1
  O  O34  1  0.376823  0.611026  0.813333  1
  O  O35  1  0.411734  0.124826  0.418518  1
  O  O36  1  0.393768  0.390064  0.629596  1
  O  O37  1  0.458666  0.219154  0.155216  1
  O  O38  1  0.541334  0.719154  0.344784  1
  O  O39  1  0.606232  0.890064  0.870404  1
  O  O40  1  0.588266  0.624826  0.081482  1
  O  O41  1  0.623177  0.111026  0.686667  1
  O  O42  1  0.632753  0.304338  0.360631  1
  O  O43  1  0.637771  0.033892  0.260166  1
  O  O44  1  0.653359  0.647904  0.591951  1
  O  O45  1  0.696526  0.407914  0.853445  1
  O  O46  1  0.736060  0.136214  0.944748  1
  O  O47  1  0.763940  0.863786  0.444748  1
  O  O48  1  0.803474  0.592086  0.353445  1
  O  O49  1  0.846641  0.352096  0.091951  1
  O  O50  1  0.862229  0.966108  0.760166  1
  O  O51  1  0.867247  0.695662  0.860631  1
  O  O52  1  0.876823  0.888974  0.186667  1
  O  O53  1  0.911734  0.375174  0.581482  1
  O  O54  1  0.893768  0.109936  0.370404  1
  O  O55  1  0.958666  0.280846  0.844784  1
