# generated using pymatgen
data_CuCO3
_symmetry_space_group_name_H-M   'P 1'
_cell_length_a   8.10523912
_cell_length_b   8.10523912
_cell_length_c   3.25826878
_cell_angle_alpha   90.00000000
_cell_angle_beta   90.00000000
_cell_angle_gamma   120.00000000
_symmetry_Int_Tables_number   1
_chemical_formula_structural   CuCO3
_chemical_formula_sum   'Cu3 C3 O9'
_cell_volume   185.37416267
_cell_formula_units_Z   3
loop_
 _symmetry_equiv_pos_site_id
 _symmetry_equiv_pos_as_xyz
  1  'x, y, z'
loop_
 _atom_site_type_symbol
 _atom_site_label
 _atom_site_symmetry_multiplicity
 _atom_site_fract_x
 _atom_site_fract_y
 _atom_site_fract_z
 _atom_site_occupancy
  Cu  Cu0  1  0.344947  0.034411  0.000000  1
  Cu  Cu1  1  0.689464  0.655053  0.000000  1
  Cu  Cu2  1  0.965589  0.310536  0.000000  1
  C  C3  1  0.666667  0.333333  0.500000  1
  C  C4  1  0.333333  0.666667  0.000000  1
  C  C5  1  0.000000  0.000000  0.000000  1
  O  O6  1  0.425702  0.575380  0.000000  1
  O  O7  1  0.486333  0.210773  0.500000  1
  O  O8  1  0.724441  0.513667  0.500000  1
  O  O9  1  0.424620  0.850322  0.000000  1
  O  O10  1  0.789227  0.275559  0.500000  1
  O  O11  1  0.149678  0.574298  0.000000  1
  O  O12  1  0.818393  0.929812  0.000000  1
  O  O13  1  0.111419  0.181607  0.000000  1
  O  O14  1  0.070188  0.888581  0.000000  1
