# generated using pymatgen
data_Li2VNiO4
_symmetry_space_group_name_H-M   'P 1'
_cell_length_a   5.07360924
_cell_length_b   2.97736932
_cell_length_c   5.10600452
_cell_angle_alpha   90.00000000
_cell_angle_beta   108.60811190
_cell_angle_gamma   90.00000000
_symmetry_Int_Tables_number   1
_chemical_formula_structural   Li2VNiO4
_chemical_formula_sum   'Li2 V1 Ni1 O4'
_cell_volume   73.09917080
_cell_formula_units_Z   1
loop_
 _symmetry_equiv_pos_site_id
 _symmetry_equiv_pos_as_xyz
  1  'x, y, z'
loop_
 _atom_site_type_symbol
 _atom_site_label
 _atom_site_symmetry_multiplicity
 _atom_site_fract_x
 _atom_site_fract_y
 _atom_site_fract_z
 _atom_site_occupancy
  Li  Li0  1  0.000000  0.000000  0.000000  1
  Li  Li1  1  0.500000  0.500000  0.000000  1
  V  V2  1  0.500000  0.000000  0.500000  1
  Ni  Ni3  1  0.000000  0.500000  0.500000  1
  O  O4  1  0.735597  0.000000  0.275879  1
  O  O5  1  0.269755  0.500000  0.266567  1
  O  O6  1  0.264403  0.000000  0.724121  1
  O  O7  1  0.730245  0.500000  0.733433  1
