# generated using pymatgen
data_LiCrPO4
_symmetry_space_group_name_H-M   'P 1'
_cell_length_a   5.88572282
_cell_length_b   10.75752132
_cell_length_c   10.05097923
_cell_angle_alpha   90.00000000
_cell_angle_beta   91.72866965
_cell_angle_gamma   90.00000000
_symmetry_Int_Tables_number   1
_chemical_formula_structural   LiCrPO4
_chemical_formula_sum   'Li8 Cr8 P8 O32'
_cell_volume   636.09605220
_cell_formula_units_Z   8
loop_
 _symmetry_equiv_pos_site_id
 _symmetry_equiv_pos_as_xyz
  1  'x, y, z'
loop_
 _atom_site_type_symbol
 _atom_site_label
 _atom_site_symmetry_multiplicity
 _atom_site_fract_x
 _atom_site_fract_y
 _atom_site_fract_z
 _atom_site_occupancy
  Li  Li0  1  0.115698  0.861915  0.898740  1
  Li  Li1  1  0.115698  0.638085  0.398740  1
  Li  Li2  1  0.397457  0.345429  0.644855  1
  Li  Li3  1  0.397457  0.154571  0.144855  1
  Li  Li4  1  0.602543  0.845429  0.855145  1
  Li  Li5  1  0.602543  0.654571  0.355145  1
  Li  Li6  1  0.884302  0.361915  0.601260  1
  Li  Li7  1  0.884302  0.138085  0.101260  1
  Cr  Cr8  1  0.131800  0.096377  0.722323  1
  Cr  Cr9  1  0.131800  0.403623  0.222323  1
  Cr  Cr10  1  0.341514  0.627013  0.980836  1
  Cr  Cr11  1  0.341514  0.872987  0.480836  1
  Cr  Cr12  1  0.658486  0.127013  0.519164  1
  Cr  Cr13  1  0.658486  0.372987  0.019164  1
  Cr  Cr14  1  0.868200  0.596377  0.777677  1
  Cr  Cr15  1  0.868200  0.903623  0.277677  1
  P  P16  1  0.125670  0.354926  0.906887  1
  P  P17  1  0.125670  0.145074  0.406887  1
  P  P18  1  0.372215  0.607589  0.657656  1
  P  P19  1  0.372215  0.892411  0.157656  1
  P  P20  1  0.627785  0.107589  0.842344  1
  P  P21  1  0.627785  0.392411  0.342344  1
  P  P22  1  0.874330  0.854926  0.593113  1
  P  P23  1  0.874330  0.645074  0.093113  1
  O  O24  1  0.089604  0.215077  0.540069  1
  O  O25  1  0.100303  0.927066  0.627493  1
  O  O26  1  0.089604  0.284923  0.040069  1
  O  O27  1  0.100303  0.572934  0.127493  1
  O  O28  1  0.177129  0.270043  0.790023  1
  O  O29  1  0.151796  0.528029  0.644505  1
  O  O30  1  0.177129  0.229957  0.290023  1
  O  O31  1  0.151796  0.971971  0.144505  1
  O  O32  1  0.328700  0.445236  0.923986  1
  O  O33  1  0.367950  0.693950  0.783494  1
  O  O34  1  0.328700  0.054764  0.423986  1
  O  O35  1  0.386554  0.689583  0.528837  1
  O  O36  1  0.418250  0.019435  0.833104  1
  O  O37  1  0.367950  0.806050  0.283494  1
  O  O38  1  0.386554  0.810417  0.028837  1
  O  O39  1  0.418250  0.480565  0.333104  1
  O  O40  1  0.581750  0.519435  0.666896  1
  O  O41  1  0.613446  0.189583  0.971163  1
  O  O42  1  0.632050  0.193950  0.716506  1
  O  O43  1  0.581750  0.980565  0.166896  1
  O  O44  1  0.613446  0.310417  0.471163  1
  O  O45  1  0.671300  0.945236  0.576014  1
  O  O46  1  0.632050  0.306050  0.216506  1
  O  O47  1  0.671300  0.554764  0.076014  1
  O  O48  1  0.848204  0.028029  0.855495  1
  O  O49  1  0.822871  0.770043  0.709977  1
  O  O50  1  0.848204  0.471971  0.355495  1
  O  O51  1  0.822871  0.729957  0.209977  1
  O  O52  1  0.899697  0.427066  0.872507  1
  O  O53  1  0.910396  0.715077  0.959931  1
  O  O54  1  0.899697  0.072934  0.372507  1
  O  O55  1  0.910396  0.784923  0.459931  1
