# generated using pymatgen
data_Li3Fe4(BO3)4
_symmetry_space_group_name_H-M   'P 1'
_cell_length_a   5.23497348
_cell_length_b   9.07736007
_cell_length_c   11.37272735
_cell_angle_alpha   112.60832913
_cell_angle_beta   102.24401751
_cell_angle_gamma   90.03262673
_symmetry_Int_Tables_number   1
_chemical_formula_structural   Li3Fe4(BO3)4
_chemical_formula_sum   'Li6 Fe8 B8 O24'
_cell_volume   485.52810389
_cell_formula_units_Z   2
loop_
 _symmetry_equiv_pos_site_id
 _symmetry_equiv_pos_as_xyz
  1  'x, y, z'
loop_
 _atom_site_type_symbol
 _atom_site_label
 _atom_site_symmetry_multiplicity
 _atom_site_fract_x
 _atom_site_fract_y
 _atom_site_fract_z
 _atom_site_occupancy
  Li  Li0  1  0.028003  0.027843  0.393767  1
  Li  Li1  1  0.296015  0.279332  0.908859  1
  Li  Li2  1  0.489286  0.509026  0.666739  1
  Li  Li3  1  0.259562  0.245728  0.163924  1
  Li  Li4  1  0.530724  0.538149  0.411231  1
  Li  Li5  1  0.981419  0.999940  0.657812  1
  Fe  Fe6  1  0.029165  0.351726  0.385937  1
  Fe  Fe7  1  0.262768  0.922109  0.876603  1
  Fe  Fe8  1  0.478635  0.158600  0.631071  1
  Fe  Fe9  1  0.238618  0.575835  0.134080  1
  Fe  Fe10  1  0.774805  0.451885  0.886380  1
  Fe  Fe11  1  0.536645  0.853176  0.380534  1
  Fe  Fe12  1  0.968521  0.652528  0.634666  1
  Fe  Fe13  1  0.728813  0.056417  0.122849  1
  B  B14  1  0.021401  0.685949  0.376680  1
  B  B15  1  0.268558  0.600320  0.877203  1
  B  B16  1  0.471767  0.813370  0.623676  1
  B  B17  1  0.230964  0.904847  0.136846  1
  B  B18  1  0.519712  0.182964  0.372305  1
  B  B19  1  0.768663  0.113309  0.881140  1
  B  B20  1  0.979112  0.313606  0.624093  1
  B  B21  1  0.737380  0.391631  0.129200  1
  O  O22  1  0.024008  0.102249  0.866770  1
  O  O23  1  0.104699  0.705044  0.844611  1
  O  O24  1  0.176436  0.500486  0.933240  1
  O  O25  1  0.089671  0.172343  0.614636  1
  O  O26  1  0.104525  0.425691  0.593052  1
  O  O27  1  0.239320  0.841459  0.666369  1
  O  O28  1  0.261426  0.654109  0.333848  1
  O  O29  1  0.510931  0.587478  0.852700  1
  O  O30  1  0.613950  0.220565  0.844538  1
  O  O31  1  0.407524  0.079393  0.413553  1
  O  O32  1  0.394723  0.313151  0.360555  1
  O  O33  1  0.653413  0.019433  0.932927  1
  O  O34  1  0.351683  0.013055  0.099520  1
  O  O35  1  0.580829  0.669074  0.606542  1
  O  O36  1  0.591709  0.926475  0.592944  1
  O  O37  1  0.371427  0.788919  0.165698  1
  O  O38  1  0.468055  0.395541  0.121732  1
  O  O39  1  0.743914  0.344959  0.662516  1
  O  O40  1  0.760803  0.154877  0.336362  1
  O  O41  1  0.907137  0.574701  0.410952  1
  O  O42  1  0.913224  0.824932  0.385433  1
  O  O43  1  0.871564  0.494941  0.095965  1
  O  O44  1  0.876898  0.277989  0.165194  1
  O  O45  1  0.977859  0.918671  0.147787  1
