# generated using pymatgen
data_Cd(BO2)2
_symmetry_space_group_name_H-M   'P 1'
_cell_length_a   5.08324406
_cell_length_b   8.30027669
_cell_length_c   14.00446618
_cell_angle_alpha   90.00000000
_cell_angle_beta   90.00000000
_cell_angle_gamma   90.00000000
_symmetry_Int_Tables_number   1
_chemical_formula_structural   Cd(BO2)2
_chemical_formula_sum   'Cd8 B16 O32'
_cell_volume   590.88108908
_cell_formula_units_Z   8
loop_
 _symmetry_equiv_pos_site_id
 _symmetry_equiv_pos_as_xyz
  1  'x, y, z'
loop_
 _atom_site_type_symbol
 _atom_site_label
 _atom_site_symmetry_multiplicity
 _atom_site_fract_x
 _atom_site_fract_y
 _atom_site_fract_z
 _atom_site_occupancy
  Cd  Cd0  1  0.614458  0.117853  0.146021  1
  Cd  Cd1  1  0.114458  0.117853  0.353979  1
  Cd  Cd2  1  0.114458  0.382147  0.146021  1
  Cd  Cd3  1  0.614458  0.382147  0.353979  1
  Cd  Cd4  1  0.385542  0.617853  0.646021  1
  Cd  Cd5  1  0.885542  0.617853  0.853979  1
  Cd  Cd6  1  0.885542  0.882147  0.646021  1
  Cd  Cd7  1  0.385542  0.882147  0.853979  1
  B  B8  1  0.376323  0.034438  0.638649  1
  B  B9  1  0.876323  0.034438  0.861351  1
  B  B10  1  0.634801  0.243736  0.550999  1
  B  B11  1  0.134801  0.243736  0.949001  1
  B  B12  1  0.134801  0.256264  0.550999  1
  B  B13  1  0.634801  0.256264  0.949001  1
  B  B14  1  0.876323  0.465562  0.638649  1
  B  B15  1  0.376323  0.465562  0.861351  1
  B  B16  1  0.623677  0.534438  0.138649  1
  B  B17  1  0.123677  0.534438  0.361351  1
  B  B18  1  0.365199  0.743736  0.050999  1
  B  B19  1  0.865199  0.743736  0.449001  1
  B  B20  1  0.865199  0.756264  0.050999  1
  B  B21  1  0.365199  0.756264  0.449001  1
  B  B22  1  0.123677  0.965562  0.138649  1
  B  B23  1  0.623677  0.965562  0.361351  1
  O  O24  1  0.615089  0.094104  0.609379  1
  O  O25  1  0.115089  0.094104  0.890621  1
  O  O26  1  0.134925  0.108394  0.188305  1
  O  O27  1  0.634925  0.108394  0.311695  1
  O  O28  1  0.148236  0.113877  0.616072  1
  O  O29  1  0.648236  0.113877  0.883928  1
  O  O30  1  0.385104  0.239742  0.006447  1
  O  O31  1  0.885104  0.239742  0.493553  1
  O  O32  1  0.885104  0.260258  0.006447  1
  O  O33  1  0.385104  0.260258  0.493553  1
  O  O34  1  0.648236  0.386123  0.616072  1
  O  O35  1  0.148236  0.386123  0.883928  1
  O  O36  1  0.634925  0.391606  0.188305  1
  O  O37  1  0.134925  0.391606  0.311695  1
  O  O38  1  0.115089  0.405896  0.609379  1
  O  O39  1  0.615089  0.405896  0.890621  1
  O  O40  1  0.384911  0.594104  0.109379  1
  O  O41  1  0.884911  0.594104  0.390621  1
  O  O42  1  0.865075  0.608394  0.688305  1
  O  O43  1  0.365075  0.608394  0.811695  1
  O  O44  1  0.851764  0.613877  0.116072  1
  O  O45  1  0.351764  0.613877  0.383928  1
  O  O46  1  0.614896  0.739742  0.506447  1
  O  O47  1  0.114896  0.739742  0.993553  1
  O  O48  1  0.114896  0.760258  0.506447  1
  O  O49  1  0.614896  0.760258  0.993553  1
  O  O50  1  0.351764  0.886123  0.116072  1
  O  O51  1  0.851764  0.886123  0.383928  1
  O  O52  1  0.365075  0.891606  0.688305  1
  O  O53  1  0.865075  0.891606  0.811695  1
  O  O54  1  0.884911  0.905896  0.109379  1
  O  O55  1  0.384911  0.905896  0.390621  1
