# generated using pymatgen
data_CdFeO3
_symmetry_space_group_name_H-M   'P 1'
_cell_length_a   5.36680310
_cell_length_b   5.44619209
_cell_length_c   7.68618037
_cell_angle_alpha   90.00000000
_cell_angle_beta   90.00000000
_cell_angle_gamma   90.00000000
_symmetry_Int_Tables_number   1
_chemical_formula_structural   CdFeO3
_chemical_formula_sum   'Cd4 Fe4 O12'
_cell_volume   224.65660393
_cell_formula_units_Z   4
loop_
 _symmetry_equiv_pos_site_id
 _symmetry_equiv_pos_as_xyz
  1  'x, y, z'
loop_
 _atom_site_type_symbol
 _atom_site_label
 _atom_site_symmetry_multiplicity
 _atom_site_fract_x
 _atom_site_fract_y
 _atom_site_fract_z
 _atom_site_occupancy
  Cd  Cd0  1  0.508138  0.959585  0.750000  1
  Cd  Cd1  1  0.991862  0.459585  0.750000  1
  Cd  Cd2  1  0.008138  0.540415  0.250000  1
  Cd  Cd3  1  0.491862  0.040415  0.250000  1
  Fe  Fe4  1  0.500000  0.500000  0.000000  1
  Fe  Fe5  1  0.500000  0.500000  0.500000  1
  Fe  Fe6  1  0.000000  0.000000  0.000000  1
  Fe  Fe7  1  0.000000  0.000000  0.500000  1
  O  O8  1  0.592317  0.469609  0.250000  1
  O  O9  1  0.701425  0.204321  0.548887  1
  O  O10  1  0.701425  0.204321  0.951113  1
  O  O11  1  0.798575  0.704321  0.548887  1
  O  O12  1  0.798575  0.704321  0.951113  1
  O  O13  1  0.907683  0.969609  0.250000  1
  O  O14  1  0.092317  0.030391  0.750000  1
  O  O15  1  0.201425  0.295679  0.048887  1
  O  O16  1  0.201425  0.295679  0.451113  1
  O  O17  1  0.298575  0.795679  0.048887  1
  O  O18  1  0.298575  0.795679  0.451113  1
  O  O19  1  0.407683  0.530391  0.750000  1
