# generated using pymatgen
data_Ba2P6O17
_symmetry_space_group_name_H-M   'P 1'
_cell_length_a   7.47999477
_cell_length_b   13.71854258
_cell_length_c   7.52322371
_cell_angle_alpha   90.00000000
_cell_angle_beta   105.08078265
_cell_angle_gamma   90.00000000
_symmetry_Int_Tables_number   1
_chemical_formula_structural   Ba2P6O17
_chemical_formula_sum   'Ba4 P12 O34'
_cell_volume   745.40532368
_cell_formula_units_Z   2
loop_
 _symmetry_equiv_pos_site_id
 _symmetry_equiv_pos_as_xyz
  1  'x, y, z'
loop_
 _atom_site_type_symbol
 _atom_site_label
 _atom_site_symmetry_multiplicity
 _atom_site_fract_x
 _atom_site_fract_y
 _atom_site_fract_z
 _atom_site_occupancy
  Ba  Ba0  1  0.879964  0.281782  0.202204  1
  Ba  Ba1  1  0.168828  0.993432  0.216666  1
  Ba  Ba2  1  0.831172  0.493432  0.783334  1
  Ba  Ba3  1  0.120036  0.781782  0.797796  1
  P  P4  1  0.603896  0.061437  0.004882  1
  P  P5  1  0.940665  0.771612  0.251251  1
  P  P6  1  0.525719  0.739975  0.242298  1
  P  P7  1  0.385720  0.251159  0.336666  1
  P  P8  1  0.383676  0.464393  0.338717  1
  P  P9  1  0.006486  0.553908  0.319269  1
  P  P10  1  0.993514  0.053908  0.680731  1
  P  P11  1  0.616324  0.964393  0.661283  1
  P  P12  1  0.614280  0.751159  0.663334  1
  P  P13  1  0.474281  0.239975  0.757702  1
  P  P14  1  0.059335  0.271612  0.748749  1
  P  P15  1  0.396104  0.561437  0.995118  1
  O  O16  1  0.957011  0.827335  0.084981  1
  O  O17  1  0.797768  0.099579  0.068673  1
  O  O18  1  0.921705  0.479084  0.176628  1
  O  O19  1  0.968840  0.657779  0.211688  1
  O  O20  1  0.525852  0.636262  0.151751  1
  O  O21  1  0.391196  0.468228  0.130195  1
  O  O22  1  0.494871  0.032103  0.134207  1
  O  O23  1  0.372016  0.805016  0.147212  1
  O  O24  1  0.723438  0.781695  0.256102  1
  O  O25  1  0.536515  0.260987  0.243371  1
  O  O26  1  0.219306  0.188628  0.263251  1
  O  O27  1  0.965969  0.560513  0.501864  1
  O  O28  1  0.293182  0.360186  0.355782  1
  O  O29  1  0.235570  0.542482  0.360609  1
  O  O30  1  0.944496  0.303508  0.564458  1
  O  O31  1  0.521965  0.720020  0.448900  1
  O  O32  1  0.565639  0.477288  0.470034  1
  O  O33  1  0.434361  0.977288  0.529966  1
  O  O34  1  0.478035  0.220020  0.551100  1
  O  O35  1  0.055504  0.803508  0.435542  1
  O  O36  1  0.764430  0.042482  0.639391  1
  O  O37  1  0.706818  0.860186  0.644218  1
  O  O38  1  0.034031  0.060513  0.498136  1
  O  O39  1  0.780694  0.688628  0.736749  1
  O  O40  1  0.463485  0.760987  0.756629  1
  O  O41  1  0.276562  0.281695  0.743898  1
  O  O42  1  0.627984  0.305016  0.852788  1
  O  O43  1  0.505129  0.532103  0.865793  1
  O  O44  1  0.608804  0.968228  0.869805  1
  O  O45  1  0.474148  0.136262  0.848249  1
  O  O46  1  0.031160  0.157779  0.788312  1
  O  O47  1  0.078295  0.979084  0.823372  1
  O  O48  1  0.202232  0.599579  0.931327  1
  O  O49  1  0.042989  0.327335  0.915019  1
