# generated using pymatgen
data_Li2(NiO2)3
_symmetry_space_group_name_H-M   'P 1'
_cell_length_a   4.89197882
_cell_length_b   4.89197882
_cell_length_c   10.20103113
_cell_angle_alpha   76.17603532
_cell_angle_beta   103.82396468
_cell_angle_gamma   118.54832217
_symmetry_Int_Tables_number   1
_chemical_formula_structural   Li2(NiO2)3
_chemical_formula_sum   'Li4 Ni6 O12'
_cell_volume   205.99279807
_cell_formula_units_Z   2
loop_
 _symmetry_equiv_pos_site_id
 _symmetry_equiv_pos_as_xyz
  1  'x, y, z'
loop_
 _atom_site_type_symbol
 _atom_site_label
 _atom_site_symmetry_multiplicity
 _atom_site_fract_x
 _atom_site_fract_y
 _atom_site_fract_z
 _atom_site_occupancy
  Li  Li0  1  0.590948  0.585745  0.756977  1
  Li  Li1  1  0.756505  0.084518  0.256633  1
  Li  Li2  1  0.414255  0.409052  0.256977  1
  Li  Li3  1  0.915482  0.243495  0.756633  1
  Ni  Ni4  1  0.496922  0.667010  0.497090  1
  Ni  Ni5  1  0.666983  0.169267  0.998076  1
  Ni  Ni6  1  0.168557  0.996919  0.506988  1
  Ni  Ni7  1  0.332990  0.503078  0.997090  1
  Ni  Ni8  1  0.830733  0.333017  0.498076  1
  Ni  Ni9  1  0.003081  0.831443  0.006988  1
  O  O10  1  0.018161  0.137200  0.107331  1
  O  O11  1  0.484191  0.060691  0.393938  1
  O  O12  1  0.199444  0.623420  0.599911  1
  O  O13  1  0.311896  0.224144  0.895467  1
  O  O14  1  0.115451  0.338676  0.398449  1
  O  O15  1  0.376580  0.800556  0.099911  1
  O  O16  1  0.939309  0.515809  0.893938  1
  O  O17  1  0.775856  0.688104  0.395467  1
  O  O18  1  0.564551  0.310617  0.607266  1
  O  O19  1  0.661324  0.884549  0.898449  1
  O  O20  1  0.689383  0.435449  0.107266  1
  O  O21  1  0.862800  0.981839  0.607331  1
