# generated using pymatgen
data_Nd2NiO4
_symmetry_space_group_name_H-M   'P 1'
_cell_length_a   6.72450809
_cell_length_b   6.72450809
_cell_length_c   6.72450809
_cell_angle_alpha   145.75239897
_cell_angle_beta   144.81200481
_cell_angle_gamma   49.91832360
_symmetry_Int_Tables_number   1
_chemical_formula_structural   Nd2NiO4
_chemical_formula_sum   'Nd2 Ni1 O4'
_cell_volume   98.14076577
_cell_formula_units_Z   1
loop_
 _symmetry_equiv_pos_site_id
 _symmetry_equiv_pos_as_xyz
  1  'x, y, z'
loop_
 _atom_site_type_symbol
 _atom_site_label
 _atom_site_symmetry_multiplicity
 _atom_site_fract_x
 _atom_site_fract_y
 _atom_site_fract_z
 _atom_site_occupancy
  Nd  Nd0  1  0.350170  0.350170  0.000000  1
  Nd  Nd1  1  0.649830  0.649830  0.000000  1
  Ni  Ni2  1  0.000000  0.000000  0.000000  1
  O  O3  1  1.000000  0.500000  0.500000  1
  O  O4  1  0.751809  0.251809  0.500000  1
  O  O5  1  0.500000  0.000000  0.500000  1
  O  O6  1  0.248191  0.748191  0.500000  1
