# generated using pymatgen
data_NaCuP2O7
_symmetry_space_group_name_H-M   'P 1'
_cell_length_a   8.80152928
_cell_length_b   8.80152928
_cell_length_c   8.69110685
_cell_angle_alpha   67.98108254
_cell_angle_beta   112.01891746
_cell_angle_gamma   146.70248917
_symmetry_Int_Tables_number   1
_chemical_formula_structural   NaCuP2O7
_chemical_formula_sum   'Na2 Cu2 P4 O14'
_cell_volume   340.14309229
_cell_formula_units_Z   2
loop_
 _symmetry_equiv_pos_site_id
 _symmetry_equiv_pos_as_xyz
  1  'x, y, z'
loop_
 _atom_site_type_symbol
 _atom_site_label
 _atom_site_symmetry_multiplicity
 _atom_site_fract_x
 _atom_site_fract_y
 _atom_site_fract_z
 _atom_site_occupancy
  Na  Na0  1  0.053948  0.649915  0.571844  1
  Na  Na1  1  0.350085  0.946052  0.071844  1
  Cu  Cu2  1  0.996738  0.000263  0.998758  1
  Cu  Cu3  1  0.999737  0.003262  0.498758  1
  P  P4  1  0.560169  0.741194  0.687494  1
  P  P5  1  0.731637  0.554174  0.810339  1
  P  P6  1  0.258806  0.439831  0.187494  1
  P  P7  1  0.445826  0.268363  0.310339  1
  O  O8  1  0.704758  0.881397  0.848714  1
  O  O9  1  0.928624  0.757525  0.945749  1
  O  O10  1  0.304079  0.636590  0.625219  1
  O  O11  1  0.473332  0.474664  0.748543  1
  O  O12  1  0.632592  0.301423  0.875477  1
  O  O13  1  0.756582  0.932228  0.550865  1
  O  O14  1  0.883433  0.709633  0.652330  1
  O  O15  1  0.118603  0.295242  0.348714  1
  O  O16  1  0.242475  0.071376  0.445749  1
  O  O17  1  0.363410  0.695921  0.125219  1
  O  O18  1  0.525336  0.526668  0.248543  1
  O  O19  1  0.698577  0.367408  0.375477  1
  O  O20  1  0.067772  0.243418  0.050865  1
  O  O21  1  0.290367  0.116567  0.152330  1
