# generated using pymatgen
data_Li5Cr2Cu3O10
_symmetry_space_group_name_H-M   'P 1'
_cell_length_a   5.03723820
_cell_length_b   5.40497439
_cell_length_c   7.62357958
_cell_angle_alpha   104.27558210
_cell_angle_beta   102.84222165
_cell_angle_gamma   105.04884397
_symmetry_Int_Tables_number   1
_chemical_formula_structural   Li5Cr2Cu3O10
_chemical_formula_sum   'Li5 Cr2 Cu3 O10'
_cell_volume   184.94082098
_cell_formula_units_Z   1
loop_
 _symmetry_equiv_pos_site_id
 _symmetry_equiv_pos_as_xyz
  1  'x, y, z'
loop_
 _atom_site_type_symbol
 _atom_site_label
 _atom_site_symmetry_multiplicity
 _atom_site_fract_x
 _atom_site_fract_y
 _atom_site_fract_z
 _atom_site_occupancy
  Li  Li0  1  0.204178  0.897850  0.391709  1
  Li  Li1  1  0.402471  0.296483  0.795262  1
  Li  Li2  1  0.500000  0.500000  0.500000  1
  Li  Li3  1  0.597529  0.703517  0.204738  1
  Li  Li4  1  0.795822  0.102150  0.608291  1
  Cr  Cr5  1  0.106803  0.675186  0.694341  1
  Cr  Cr6  1  0.893197  0.324814  0.305659  1
  Cu  Cu7  1  0.000000  0.500000  0.000000  1
  Cu  Cu8  1  0.699153  0.890217  0.900939  1
  Cu  Cu9  1  0.300847  0.109783  0.099061  1
  O  O10  1  0.058527  0.027162  0.839728  1
  O  O11  1  0.353884  0.674298  0.935809  1
  O  O12  1  0.134521  0.336178  0.551783  1
  O  O13  1  0.212539  0.516790  0.244081  1
  O  O14  1  0.451586  0.884175  0.667043  1
  O  O15  1  0.548414  0.115825  0.332957  1
  O  O16  1  0.787461  0.483210  0.755919  1
  O  O17  1  0.865479  0.663822  0.448217  1
  O  O18  1  0.646116  0.325702  0.064191  1
  O  O19  1  0.941473  0.972838  0.160272  1
