# generated using pymatgen
data_BaLa2Cl8
_symmetry_space_group_name_H-M   'P 1'
_cell_length_a   10.39263540
_cell_length_b   10.39263540
_cell_length_c   10.72125683
_cell_angle_alpha   64.39139161
_cell_angle_beta   115.60860839
_cell_angle_gamma   121.25879516
_symmetry_Int_Tables_number   1
_chemical_formula_structural   BaLa2Cl8
_chemical_formula_sum   'Ba2 La4 Cl16'
_cell_volume   859.54269503
_cell_formula_units_Z   2
loop_
 _symmetry_equiv_pos_site_id
 _symmetry_equiv_pos_as_xyz
  1  'x, y, z'
loop_
 _atom_site_type_symbol
 _atom_site_label
 _atom_site_symmetry_multiplicity
 _atom_site_fract_x
 _atom_site_fract_y
 _atom_site_fract_z
 _atom_site_occupancy
  Ba  Ba0  1  0.980337  0.980337  0.250000  1
  Ba  Ba1  1  0.019663  0.019663  0.750000  1
  La  La2  1  0.002469  0.524453  0.771368  1
  La  La3  1  0.475547  0.997531  0.271368  1
  La  La4  1  0.524453  0.002469  0.728632  1
  La  La5  1  0.997531  0.475547  0.228632  1
  Cl  Cl6  1  0.946115  0.645423  0.320857  1
  Cl  Cl7  1  0.968692  0.797084  0.580996  1
  Cl  Cl8  1  0.667202  0.314022  0.183379  1
  Cl  Cl9  1  0.962937  0.661153  0.938391  1
  Cl  Cl10  1  0.645423  0.946115  0.179143  1
  Cl  Cl11  1  0.685978  0.332798  0.683379  1
  Cl  Cl12  1  0.202916  0.031308  0.080996  1
  Cl  Cl13  1  0.338847  0.037063  0.438391  1
  Cl  Cl14  1  0.661153  0.962937  0.561609  1
  Cl  Cl15  1  0.797084  0.968692  0.919004  1
  Cl  Cl16  1  0.314022  0.667202  0.316621  1
  Cl  Cl17  1  0.354577  0.053885  0.820857  1
  Cl  Cl18  1  0.037063  0.338847  0.061609  1
  Cl  Cl19  1  0.332798  0.685978  0.816621  1
  Cl  Cl20  1  0.031308  0.202916  0.419004  1
  Cl  Cl21  1  0.053885  0.354577  0.679143  1
