# generated using pymatgen
data_La2Cd2O5
_symmetry_space_group_name_H-M   'P 1'
_cell_length_a   6.02277036
_cell_length_b   6.22144400
_cell_length_c   16.04817422
_cell_angle_alpha   90.00000000
_cell_angle_beta   90.00000000
_cell_angle_gamma   90.00000000
_symmetry_Int_Tables_number   1
_chemical_formula_structural   La2Cd2O5
_chemical_formula_sum   'La8 Cd8 O20'
_cell_volume   601.33036016
_cell_formula_units_Z   4
loop_
 _symmetry_equiv_pos_site_id
 _symmetry_equiv_pos_as_xyz
  1  'x, y, z'
loop_
 _atom_site_type_symbol
 _atom_site_label
 _atom_site_symmetry_multiplicity
 _atom_site_fract_x
 _atom_site_fract_y
 _atom_site_fract_z
 _atom_site_occupancy
  La  La0  1  0.492681  0.937931  0.115824  1
  La  La1  1  0.492681  0.937931  0.384176  1
  La  La2  1  0.992681  0.562069  0.615824  1
  La  La3  1  0.992681  0.562069  0.884176  1
  La  La4  1  0.007319  0.437931  0.115824  1
  La  La5  1  0.007319  0.437931  0.384176  1
  La  La6  1  0.507319  0.062069  0.615824  1
  La  La7  1  0.507319  0.062069  0.884176  1
  Cd  Cd8  1  0.000000  0.000000  0.000000  1
  Cd  Cd9  1  0.000000  0.000000  0.500000  1
  Cd  Cd10  1  0.023579  0.072281  0.750000  1
  Cd  Cd11  1  0.523579  0.427719  0.250000  1
  Cd  Cd12  1  0.500000  0.500000  0.000000  1
  Cd  Cd13  1  0.500000  0.500000  0.500000  1
  Cd  Cd14  1  0.476421  0.572281  0.750000  1
  Cd  Cd15  1  0.976421  0.927719  0.250000  1
  O  O16  1  0.135257  0.073498  0.140256  1
  O  O17  1  0.135257  0.073498  0.359744  1
  O  O18  1  0.621399  0.072310  0.250000  1
  O  O19  1  0.183510  0.312545  0.535187  1
  O  O20  1  0.183510  0.312545  0.964813  1
  O  O21  1  0.683510  0.187455  0.464813  1
  O  O22  1  0.683510  0.187455  0.035187  1
  O  O23  1  0.121399  0.427690  0.750000  1
  O  O24  1  0.635257  0.426502  0.640256  1
  O  O25  1  0.635257  0.426502  0.859744  1
  O  O26  1  0.364743  0.573498  0.140256  1
  O  O27  1  0.364743  0.573498  0.359744  1
  O  O28  1  0.878601  0.572310  0.250000  1
  O  O29  1  0.316490  0.812545  0.964813  1
  O  O30  1  0.316490  0.812545  0.535187  1
  O  O31  1  0.816490  0.687455  0.035187  1
  O  O32  1  0.816490  0.687455  0.464813  1
  O  O33  1  0.378601  0.927690  0.750000  1
  O  O34  1  0.864743  0.926502  0.640256  1
  O  O35  1  0.864743  0.926502  0.859744  1
