# generated using pymatgen
data_NaPH4O5
_symmetry_space_group_name_H-M   'P 1'
_cell_length_a   7.87855719
_cell_length_b   9.59431671
_cell_length_c   10.89374127
_cell_angle_alpha   113.02341019
_cell_angle_beta   106.12801497
_cell_angle_gamma   88.69553948
_symmetry_Int_Tables_number   1
_chemical_formula_structural   NaPH4O5
_chemical_formula_sum   'Na6 P6 H24 O30'
_cell_volume   724.58982954
_cell_formula_units_Z   6
loop_
 _symmetry_equiv_pos_site_id
 _symmetry_equiv_pos_as_xyz
  1  'x, y, z'
loop_
 _atom_site_type_symbol
 _atom_site_label
 _atom_site_symmetry_multiplicity
 _atom_site_fract_x
 _atom_site_fract_y
 _atom_site_fract_z
 _atom_site_occupancy
  Na  Na0  1  0.623599  0.908586  0.074482  1
  Na  Na1  1  0.376401  0.091414  0.925518  1
  Na  Na2  1  0.653755  0.254843  0.797800  1
  Na  Na3  1  0.346245  0.745157  0.202200  1
  Na  Na4  1  0.645827  0.069090  0.429438  1
  Na  Na5  1  0.354173  0.930910  0.570562  1
  P  P6  1  0.735690  0.888000  0.791601  1
  P  P7  1  0.264310  0.112000  0.208399  1
  P  P8  1  0.704812  0.747594  0.494352  1
  P  P9  1  0.295188  0.252406  0.505648  1
  P  P10  1  0.966247  0.008212  0.680843  1
  P  P11  1  0.033753  0.991788  0.319157  1
  H  H12  1  0.731932  0.409405  0.448232  1
  H  H13  1  0.268068  0.590595  0.551768  1
  H  H14  1  0.878666  0.301432  0.461499  1
  H  H15  1  0.121334  0.698568  0.538501  1
  H  H16  1  0.680890  0.602259  0.815698  1
  H  H17  1  0.319110  0.397741  0.184302  1
  H  H18  1  0.504378  0.493062  0.731608  1
  H  H19  1  0.495622  0.506938  0.268392  1
  H  H20  1  0.699831  0.648668  0.134754  1
  H  H21  1  0.300169  0.351332  0.865246  1
  H  H22  1  0.568939  0.600535  0.985296  1
  H  H23  1  0.431061  0.399465  0.014704  1
  H  H24  1  0.919583  0.406057  0.088655  1
  H  H25  1  0.080417  0.593943  0.911345  1
  H  H26  1  0.996800  0.248049  0.031831  1
  H  H27  1  0.003200  0.751951  0.968169  1
  H  H28  1  0.688627  0.222548  0.214122  1
  H  H29  1  0.311373  0.777452  0.785878  1
  H  H30  1  0.742629  0.213412  0.082277  1
  H  H31  1  0.257371  0.786588  0.917723  1
  H  H32  1  0.864333  0.583864  0.295213  1
  H  H33  1  0.135667  0.416136  0.704787  1
  H  H34  1  0.000524  0.680110  0.268027  1
  H  H35  1  0.999476  0.319890  0.731973  1
  O  O36  1  0.691963  0.744672  0.639252  1
  O  O37  1  0.308037  0.255328  0.360748  1
  O  O38  1  0.897500  0.844507  0.545264  1
  O  O39  1  0.102500  0.155493  0.454736  1
  O  O40  1  0.922803  0.965956  0.800838  1
  O  O41  1  0.077197  0.034044  0.199162  1
  O  O42  1  0.594298  0.995609  0.786939  1
  O  O43  1  0.405702  0.004391  0.213061  1
  O  O44  1  0.774763  0.819402  0.897286  1
  O  O45  1  0.225237  0.180598  0.102714  1
  O  O46  1  0.724446  0.586378  0.403482  1
  O  O47  1  0.275554  0.413622  0.596518  1
  O  O48  1  0.561625  0.831738  0.439290  1
  O  O49  1  0.438375  0.168262  0.560710  1
  O  O50  1  0.853768  0.130212  0.658093  1
  O  O51  1  0.146232  0.869788  0.341907  1
  O  O52  1  0.161946  0.028761  0.711825  1
  O  O53  1  0.838054  0.971239  0.288175  1
  O  O54  1  0.750066  0.302278  0.431647  1
  O  O55  1  0.249934  0.697722  0.568353  1
  O  O56  1  0.619435  0.507348  0.802729  1
  O  O57  1  0.380565  0.492652  0.197271  1
  O  O58  1  0.583192  0.668322  0.083709  1
  O  O59  1  0.416808  0.331678  0.916291  1
  O  O60  1  0.887812  0.299501  0.017769  1
  O  O61  1  0.112188  0.700499  0.982231  1
  O  O62  1  0.651401  0.175299  0.111676  1
  O  O63  1  0.348599  0.824701  0.888324  1
  O  O64  1  0.917201  0.586859  0.223544  1
  O  O65  1  0.082799  0.413141  0.776456  1
