# generated using pymatgen
data_Li8Mn3CrO12
_symmetry_space_group_name_H-M   'P 1'
_cell_length_a   4.93142448
_cell_length_b   4.95713646
_cell_length_c   8.43459586
_cell_angle_alpha   89.72350330
_cell_angle_beta   89.75222498
_cell_angle_gamma   89.83003533
_symmetry_Int_Tables_number   1
_chemical_formula_structural   Li8Mn3CrO12
_chemical_formula_sum   'Li8 Mn3 Cr1 O12'
_cell_volume   206.18474866
_cell_formula_units_Z   1
loop_
 _symmetry_equiv_pos_site_id
 _symmetry_equiv_pos_as_xyz
  1  'x, y, z'
loop_
 _atom_site_type_symbol
 _atom_site_label
 _atom_site_symmetry_multiplicity
 _atom_site_fract_x
 _atom_site_fract_y
 _atom_site_fract_z
 _atom_site_occupancy
  Li  Li0  1  0.003048  0.501458  0.079783  1
  Li  Li1  1  0.998974  0.500645  0.769709  1
  Li  Li2  1  0.001306  0.999900  0.433643  1
  Li  Li3  1  0.999553  0.999521  0.746223  1
  Li  Li4  1  0.498439  0.500239  0.243019  1
  Li  Li5  1  0.499243  0.499545  0.929928  1
  Li  Li6  1  0.500259  0.000293  0.583666  1
  Li  Li7  1  0.496083  0.000383  0.270915  1
  Mn  Mn8  1  0.002042  0.498168  0.418544  1
  Mn  Mn9  1  0.500915  0.500346  0.596239  1
  Mn  Mn10  1  0.498289  0.996213  0.915735  1
  Cr  Cr11  1  0.990749  0.000947  0.098348  1
  O  O12  1  0.858628  0.750098  0.255930  1
  O  O13  1  0.821933  0.780341  0.929835  1
  O  O14  1  0.824944  0.715898  0.581696  1
  O  O15  1  0.677355  0.215830  0.079601  1
  O  O16  1  0.675157  0.284321  0.431734  1
  O  O17  1  0.649441  0.249487  0.756394  1
  O  O18  1  0.349842  0.750659  0.756288  1
  O  O19  1  0.326667  0.716863  0.431791  1
  O  O20  1  0.326911  0.784595  0.081559  1
  O  O21  1  0.174656  0.284684  0.582793  1
  O  O22  1  0.175347  0.214337  0.932793  1
  O  O23  1  0.150251  0.255195  0.259702  1
