# generated using pymatgen
data_LiCoPO4
_symmetry_space_group_name_H-M   'P 1'
_cell_length_a   7.58551309
_cell_length_b   4.84683190
_cell_length_c   17.44934371
_cell_angle_alpha   90.00000000
_cell_angle_beta   92.78652388
_cell_angle_gamma   90.00000000
_symmetry_Int_Tables_number   1
_chemical_formula_structural   LiCoPO4
_chemical_formula_sum   'Li8 Co8 P8 O32'
_cell_volume   640.77890069
_cell_formula_units_Z   8
loop_
 _symmetry_equiv_pos_site_id
 _symmetry_equiv_pos_as_xyz
  1  'x, y, z'
loop_
 _atom_site_type_symbol
 _atom_site_label
 _atom_site_symmetry_multiplicity
 _atom_site_fract_x
 _atom_site_fract_y
 _atom_site_fract_z
 _atom_site_occupancy
  Li  Li0  1  0.125760  0.798006  0.225234  1
  Li  Li1  1  0.125760  0.701994  0.725234  1
  Li  Li2  1  0.352236  0.215271  0.489479  1
  Li  Li3  1  0.352236  0.284729  0.989479  1
  Li  Li4  1  0.647764  0.715271  0.010521  1
  Li  Li5  1  0.647764  0.784729  0.510521  1
  Li  Li6  1  0.874240  0.298006  0.274766  1
  Li  Li7  1  0.874240  0.201994  0.774766  1
  Co  Co8  1  0.026484  0.724897  0.402683  1
  Co  Co9  1  0.026484  0.775103  0.902683  1
  Co  Co10  1  0.507403  0.375053  0.176464  1
  Co  Co11  1  0.507403  0.124947  0.676464  1
  Co  Co12  1  0.492597  0.875053  0.323536  1
  Co  Co13  1  0.492597  0.624947  0.823536  1
  Co  Co14  1  0.973516  0.224897  0.097317  1
  Co  Co15  1  0.973516  0.275103  0.597317  1
  P  P16  1  0.255727  0.373553  0.324875  1
  P  P17  1  0.255727  0.126447  0.824875  1
  P  P18  1  0.228478  0.691936  0.069313  1
  P  P19  1  0.228478  0.808064  0.569313  1
  P  P20  1  0.771522  0.191936  0.430687  1
  P  P21  1  0.771522  0.308064  0.930687  1
  P  P22  1  0.744273  0.873553  0.175125  1
  P  P23  1  0.744273  0.626447  0.675125  1
  O  O24  1  0.078117  0.514691  0.298944  1
  O  O25  1  0.078117  0.985309  0.798944  1
  O  O26  1  0.172128  0.593102  0.987402  1
  O  O27  1  0.116858  0.555441  0.131227  1
  O  O28  1  0.285290  0.455927  0.409034  1
  O  O29  1  0.254748  0.060217  0.307414  1
  O  O30  1  0.172128  0.906898  0.487402  1
  O  O31  1  0.116858  0.944559  0.631226  1
  O  O32  1  0.285290  0.044073  0.909034  1
  O  O33  1  0.254748  0.439783  0.807414  1
  O  O34  1  0.216489  0.009461  0.078316  1
  O  O35  1  0.216489  0.490539  0.578316  1
  O  O36  1  0.408712  0.507496  0.277600  1
  O  O37  1  0.408712  0.992504  0.777600  1
  O  O38  1  0.422806  0.574105  0.082168  1
  O  O39  1  0.422806  0.925895  0.582168  1
  O  O40  1  0.577194  0.074105  0.417832  1
  O  O41  1  0.577194  0.425895  0.917832  1
  O  O42  1  0.591288  0.007496  0.222400  1
  O  O43  1  0.591288  0.492504  0.722400  1
  O  O44  1  0.783511  0.509461  0.421684  1
  O  O45  1  0.783511  0.990539  0.921684  1
  O  O46  1  0.745252  0.560217  0.192586  1
  O  O47  1  0.714710  0.955927  0.090966  1
  O  O48  1  0.883142  0.055441  0.368773  1
  O  O49  1  0.827872  0.093102  0.512598  1
  O  O50  1  0.745252  0.939783  0.692586  1
  O  O51  1  0.714710  0.544073  0.590966  1
  O  O52  1  0.883142  0.444559  0.868773  1
  O  O53  1  0.827872  0.406898  0.012598  1
  O  O54  1  0.921883  0.014691  0.201056  1
  O  O55  1  0.921883  0.485309  0.701056  1
