# generated using pymatgen
data_VPO5
_symmetry_space_group_name_H-M   'P 1'
_cell_length_a   5.10599503
_cell_length_b   9.01118099
_cell_length_c   17.79990398
_cell_angle_alpha   90.00000000
_cell_angle_beta   90.38352875
_cell_angle_gamma   90.00000000
_symmetry_Int_Tables_number   1
_chemical_formula_structural   VPO5
_chemical_formula_sum   'V8 P8 O40'
_cell_volume   818.97384114
_cell_formula_units_Z   8
loop_
 _symmetry_equiv_pos_site_id
 _symmetry_equiv_pos_as_xyz
  1  'x, y, z'
loop_
 _atom_site_type_symbol
 _atom_site_label
 _atom_site_symmetry_multiplicity
 _atom_site_fract_x
 _atom_site_fract_y
 _atom_site_fract_z
 _atom_site_occupancy
  V  V0  1  0.499701  0.613918  0.123716  1
  V  V1  1  0.915614  0.080908  0.134859  1
  V  V2  1  0.084386  0.580908  0.365141  1
  V  V3  1  0.500299  0.113918  0.376284  1
  V  V4  1  0.499701  0.886082  0.623716  1
  V  V5  1  0.915614  0.419092  0.634859  1
  V  V6  1  0.084386  0.919092  0.865141  1
  V  V7  1  0.500299  0.386082  0.876284  1
  P  P8  1  0.999136  0.767657  0.032541  1
  P  P9  1  0.000451  0.418141  0.197365  1
  P  P10  1  0.999549  0.918141  0.302635  1
  P  P11  1  0.000864  0.267657  0.467459  1
  P  P12  1  0.999136  0.732343  0.532541  1
  P  P13  1  0.000451  0.081859  0.697365  1
  P  P14  1  0.999549  0.581859  0.802635  1
  P  P15  1  0.000864  0.232343  0.967459  1
  O  O16  1  0.010916  0.204981  0.052759  1
  O  O17  1  0.752292  0.677955  0.052197  1
  O  O18  1  0.247243  0.676845  0.051013  1
  O  O19  1  0.009851  0.916521  0.074861  1
  O  O20  1  0.602596  0.081910  0.131895  1
  O  O21  1  0.752958  0.474735  0.156816  1
  O  O22  1  0.246437  0.476183  0.157596  1
  O  O23  1  0.500340  0.741170  0.186022  1
  O  O24  1  0.004134  0.247156  0.196541  1
  O  O25  1  0.004247  0.965345  0.219575  1
  O  O26  1  0.995753  0.465345  0.280425  1
  O  O27  1  0.995866  0.747156  0.303459  1
  O  O28  1  0.499660  0.241170  0.313978  1
  O  O29  1  0.247042  0.974735  0.343184  1
  O  O30  1  0.753563  0.976183  0.342404  1
  O  O31  1  0.397404  0.581910  0.368105  1
  O  O32  1  0.990149  0.416521  0.425139  1
  O  O33  1  0.752757  0.176845  0.448987  1
  O  O34  1  0.247708  0.177955  0.447803  1
  O  O35  1  0.989084  0.704981  0.447241  1
  O  O36  1  0.010916  0.295019  0.552759  1
  O  O37  1  0.752292  0.822045  0.552197  1
  O  O38  1  0.247243  0.823155  0.551013  1
  O  O39  1  0.009851  0.583479  0.574861  1
  O  O40  1  0.602596  0.418090  0.631895  1
  O  O41  1  0.752958  0.025265  0.656816  1
  O  O42  1  0.246437  0.023817  0.657596  1
  O  O43  1  0.500340  0.758830  0.686022  1
  O  O44  1  0.004134  0.252844  0.696541  1
  O  O45  1  0.004247  0.534655  0.719575  1
  O  O46  1  0.995753  0.034655  0.780425  1
  O  O47  1  0.995866  0.752844  0.803459  1
  O  O48  1  0.499660  0.258830  0.813978  1
  O  O49  1  0.753563  0.523817  0.842404  1
  O  O50  1  0.247042  0.525265  0.843184  1
  O  O51  1  0.397404  0.918090  0.868105  1
  O  O52  1  0.990149  0.083479  0.925139  1
  O  O53  1  0.752757  0.323155  0.948987  1
  O  O54  1  0.247708  0.322045  0.947803  1
  O  O55  1  0.989084  0.795019  0.947241  1
