# generated using pymatgen
data_Cd(BO2)2
_symmetry_space_group_name_H-M   'P 1'
_cell_length_a   7.80156043
_cell_length_b   7.80156043
_cell_length_c   7.80156043
_cell_angle_alpha   96.73042616
_cell_angle_beta   96.73042616
_cell_angle_gamma   96.73042616
_symmetry_Int_Tables_number   1
_chemical_formula_structural   Cd(BO2)2
_chemical_formula_sum   'Cd6 B12 O24'
_cell_volume   464.16955706
_cell_formula_units_Z   6
loop_
 _symmetry_equiv_pos_site_id
 _symmetry_equiv_pos_as_xyz
  1  'x, y, z'
loop_
 _atom_site_type_symbol
 _atom_site_label
 _atom_site_symmetry_multiplicity
 _atom_site_fract_x
 _atom_site_fract_y
 _atom_site_fract_z
 _atom_site_occupancy
  Cd  Cd0  1  0.488289  0.830584  0.191622  1
  Cd  Cd1  1  0.988289  0.691622  0.330584  1
  Cd  Cd2  1  0.330584  0.988289  0.691622  1
  Cd  Cd3  1  0.830584  0.191622  0.488289  1
  Cd  Cd4  1  0.191622  0.488289  0.830584  1
  Cd  Cd5  1  0.691622  0.330584  0.988289  1
  B  B6  1  0.052357  0.818035  0.003450  1
  B  B7  1  0.719900  0.806912  0.564806  1
  B  B8  1  0.552357  0.503450  0.318035  1
  B  B9  1  0.306912  0.219900  0.064806  1
  B  B10  1  0.064806  0.306912  0.219900  1
  B  B11  1  0.318035  0.552357  0.503450  1
  B  B12  1  0.818035  0.003450  0.052357  1
  B  B13  1  0.564806  0.719900  0.806912  1
  B  B14  1  0.806912  0.564806  0.719900  1
  B  B15  1  0.503450  0.318035  0.552357  1
  B  B16  1  0.219900  0.064806  0.306912  1
  B  B17  1  0.003450  0.052357  0.818035  1
  O  O18  1  0.912913  0.867366  0.091903  1
  O  O19  1  0.133744  0.690290  0.057062  1
  O  O20  1  0.239733  0.932236  0.397745  1
  O  O21  1  0.739733  0.897745  0.432236  1
  O  O22  1  0.633744  0.557062  0.190290  1
  O  O23  1  0.176539  0.325350  0.091112  1
  O  O24  1  0.412913  0.591903  0.367366  1
  O  O25  1  0.932236  0.397745  0.239733  1
  O  O26  1  0.591112  0.825350  0.676539  1
  O  O27  1  0.190290  0.633744  0.557062  1
  O  O28  1  0.825350  0.676539  0.591112  1
  O  O29  1  0.091903  0.912913  0.867366  1
  O  O30  1  0.591903  0.367366  0.412913  1
  O  O31  1  0.325350  0.091112  0.176539  1
  O  O32  1  0.690290  0.057062  0.133744  1
  O  O33  1  0.091112  0.176539  0.325350  1
  O  O34  1  0.432236  0.739733  0.897745  1
  O  O35  1  0.367366  0.412913  0.591903  1
  O  O36  1  0.676539  0.591112  0.825350  1
  O  O37  1  0.897745  0.432236  0.739733  1
  O  O38  1  0.557062  0.190290  0.633744  1
  O  O39  1  0.057062  0.133744  0.690290  1
  O  O40  1  0.397745  0.239733  0.932236  1
  O  O41  1  0.867366  0.091903  0.912913  1
