# generated using pymatgen
data_Tb2TiO5
_symmetry_space_group_name_H-M   'P 1'
_cell_length_a   3.64796227
_cell_length_b   7.48769647
_cell_length_c   15.65112189
_cell_angle_alpha   90.00000000
_cell_angle_beta   90.00000000
_cell_angle_gamma   90.00000000
_symmetry_Int_Tables_number   1
_chemical_formula_structural   Tb2TiO5
_chemical_formula_sum   'Tb8 Ti4 O20'
_cell_volume   427.50779965
_cell_formula_units_Z   4
loop_
 _symmetry_equiv_pos_site_id
 _symmetry_equiv_pos_as_xyz
  1  'x, y, z'
loop_
 _atom_site_type_symbol
 _atom_site_label
 _atom_site_symmetry_multiplicity
 _atom_site_fract_x
 _atom_site_fract_y
 _atom_site_fract_z
 _atom_site_occupancy
  Tb  Tb0  1  0.750000  0.886980  0.082594  1
  Tb  Tb1  1  0.750000  0.856777  0.738440  1
  Tb  Tb2  1  0.250000  0.643223  0.238440  1
  Tb  Tb3  1  0.250000  0.613020  0.582594  1
  Tb  Tb4  1  0.750000  0.386980  0.417406  1
  Tb  Tb5  1  0.750000  0.356777  0.761560  1
  Tb  Tb6  1  0.250000  0.143223  0.261560  1
  Tb  Tb7  1  0.250000  0.113020  0.917406  1
  Ti  Ti8  1  0.750000  0.876443  0.423002  1
  Ti  Ti9  1  0.250000  0.623557  0.923002  1
  Ti  Ti10  1  0.750000  0.376443  0.076998  1
  Ti  Ti11  1  0.250000  0.123557  0.576998  1
  O  O12  1  0.250000  0.910572  0.173822  1
  O  O13  1  0.250000  0.916641  0.453929  1
  O  O14  1  0.250000  0.896138  0.649359  1
  O  O15  1  0.250000  0.845745  0.994571  1
  O  O16  1  0.750000  0.734962  0.325532  1
  O  O17  1  0.250000  0.765038  0.825532  1
  O  O18  1  0.750000  0.654255  0.494571  1
  O  O19  1  0.750000  0.603862  0.149359  1
  O  O20  1  0.750000  0.583359  0.953929  1
  O  O21  1  0.750000  0.589428  0.673822  1
  O  O22  1  0.250000  0.410572  0.326178  1
  O  O23  1  0.250000  0.416641  0.046071  1
  O  O24  1  0.250000  0.396138  0.850641  1
  O  O25  1  0.250000  0.345745  0.505429  1
  O  O26  1  0.750000  0.234962  0.174468  1
  O  O27  1  0.250000  0.265038  0.674468  1
  O  O28  1  0.750000  0.154255  0.005429  1
  O  O29  1  0.750000  0.103862  0.350641  1
  O  O30  1  0.750000  0.083359  0.546071  1
  O  O31  1  0.750000  0.089428  0.826178  1
