# generated using pymatgen
data_Mn7CrO16
_symmetry_space_group_name_H-M   'P 1'
_cell_length_a   5.82548266
_cell_length_b   5.82323338
_cell_length_c   8.23928876
_cell_angle_alpha   90.00000000
_cell_angle_beta   90.11428925
_cell_angle_gamma   90.00000000
_symmetry_Int_Tables_number   1
_chemical_formula_structural   Mn7CrO16
_chemical_formula_sum   'Mn7 Cr1 O16'
_cell_volume   279.50203182
_cell_formula_units_Z   1
loop_
 _symmetry_equiv_pos_site_id
 _symmetry_equiv_pos_as_xyz
  1  'x, y, z'
loop_
 _atom_site_type_symbol
 _atom_site_label
 _atom_site_symmetry_multiplicity
 _atom_site_fract_x
 _atom_site_fract_y
 _atom_site_fract_z
 _atom_site_occupancy
  Mn  Mn0  1  0.000000  0.500000  0.000000  1
  Mn  Mn1  1  0.749999  0.249604  0.749597  1
  Mn  Mn2  1  0.749999  0.750396  0.749597  1
  Mn  Mn3  1  0.000000  0.000000  0.500000  1
  Mn  Mn4  1  0.500000  0.000000  0.500000  1
  Mn  Mn5  1  0.250001  0.249604  0.250403  1
  Mn  Mn6  1  0.250001  0.750396  0.250403  1
  Cr  Cr7  1  0.500000  0.500000  0.000000  1
  O  O8  1  0.750762  0.720223  0.984270  1
  O  O9  1  0.750762  0.279777  0.984270  1
  O  O10  1  0.531401  0.500000  0.763647  1
  O  O11  1  0.970414  0.500000  0.764929  1
  O  O12  1  0.529728  0.000000  0.734951  1
  O  O13  1  0.971024  0.000000  0.735022  1
  O  O14  1  0.749986  0.220456  0.514397  1
  O  O15  1  0.749986  0.779544  0.514397  1
  O  O16  1  0.250014  0.220456  0.485603  1
  O  O17  1  0.250014  0.779544  0.485603  1
  O  O18  1  0.470272  0.000000  0.265049  1
  O  O19  1  0.028976  0.000000  0.264978  1
  O  O20  1  0.468599  0.500000  0.236353  1
  O  O21  1  0.029586  0.500000  0.235071  1
  O  O22  1  0.249238  0.279777  0.015730  1
  O  O23  1  0.249238  0.720223  0.015730  1
