# generated using pymatgen
data_Li4Mn7O16
_symmetry_space_group_name_H-M   'P 1'
_cell_length_a   7.61520468
_cell_length_b   7.61520468
_cell_length_c   5.22130440
_cell_angle_alpha   77.80423655
_cell_angle_beta   102.19576345
_cell_angle_gamma   82.00063067
_symmetry_Int_Tables_number   1
_chemical_formula_structural   Li4Mn7O16
_chemical_formula_sum   'Li4 Mn7 O16'
_cell_volume   283.87435029
_cell_formula_units_Z   1
loop_
 _symmetry_equiv_pos_site_id
 _symmetry_equiv_pos_as_xyz
  1  'x, y, z'
loop_
 _atom_site_type_symbol
 _atom_site_label
 _atom_site_symmetry_multiplicity
 _atom_site_fract_x
 _atom_site_fract_y
 _atom_site_fract_z
 _atom_site_occupancy
  Li  Li0  1  0.748076  0.251924  0.507959  1
  Li  Li1  1  0.873104  0.873104  0.500000  1
  Li  Li2  1  0.251924  0.748076  0.492041  1
  Li  Li3  1  0.126896  0.126896  0.500000  1
  Mn  Mn4  1  0.878325  0.368811  0.995149  1
  Mn  Mn5  1  0.754921  0.754921  0.000000  1
  Mn  Mn6  1  0.631189  0.121675  0.995149  1
  Mn  Mn7  1  0.500000  0.500000  0.000000  1
  Mn  Mn8  1  0.245079  0.245079  0.000000  1
  Mn  Mn9  1  0.368811  0.878325  0.004851  1
  Mn  Mn10  1  0.121675  0.631189  0.004851  1
  O  O11  1  0.991791  0.739478  0.216641  1
  O  O12  1  0.852552  0.147448  0.225084  1
  O  O13  1  0.740516  0.504892  0.196171  1
  O  O14  1  0.884909  0.624828  0.795892  1
  O  O15  1  0.739478  0.991791  0.783359  1
  O  O16  1  0.624828  0.884909  0.204108  1
  O  O17  1  0.635280  0.364720  0.791260  1
  O  O18  1  0.495108  0.259484  0.196171  1
  O  O19  1  0.364720  0.635280  0.208740  1
  O  O20  1  0.504892  0.740516  0.803829  1
  O  O21  1  0.260522  0.008209  0.216641  1
  O  O22  1  0.375172  0.115091  0.795892  1
  O  O23  1  0.115091  0.375172  0.204108  1
  O  O24  1  0.259484  0.495108  0.803829  1
  O  O25  1  0.008209  0.260522  0.783359  1
  O  O26  1  0.147448  0.852552  0.774916  1
