# generated using pymatgen
data_LiCr(PO3)3
_symmetry_space_group_name_H-M   'P 1'
_cell_length_a   5.21590834
_cell_length_b   12.49311699
_cell_length_c   12.49905612
_cell_angle_alpha   90.00000000
_cell_angle_beta   90.00000000
_cell_angle_gamma   90.00000000
_symmetry_Int_Tables_number   1
_chemical_formula_structural   LiCr(PO3)3
_chemical_formula_sum   'Li4 Cr4 P12 O36'
_cell_volume   814.47540775
_cell_formula_units_Z   4
loop_
 _symmetry_equiv_pos_site_id
 _symmetry_equiv_pos_as_xyz
  1  'x, y, z'
loop_
 _atom_site_type_symbol
 _atom_site_label
 _atom_site_symmetry_multiplicity
 _atom_site_fract_x
 _atom_site_fract_y
 _atom_site_fract_z
 _atom_site_occupancy
  Li  Li0  1  0.943356  0.750000  0.083649  1
  Li  Li1  1  0.943356  0.250000  0.416351  1
  Li  Li2  1  0.056644  0.750000  0.583649  1
  Li  Li3  1  0.056644  0.250000  0.916351  1
  Cr  Cr4  1  0.000000  0.000000  0.000000  1
  Cr  Cr5  1  0.000000  0.000000  0.500000  1
  Cr  Cr6  1  0.000000  0.500000  0.000000  1
  Cr  Cr7  1  0.000000  0.500000  0.500000  1
  P  P8  1  0.770054  0.000000  0.750000  1
  P  P9  1  0.770054  0.500000  0.750000  1
  P  P10  1  0.495765  0.365601  0.079425  1
  P  P11  1  0.495765  0.865601  0.420575  1
  P  P12  1  0.495765  0.134399  0.079425  1
  P  P13  1  0.495765  0.634399  0.420575  1
  P  P14  1  0.504235  0.365601  0.579425  1
  P  P15  1  0.504235  0.634399  0.920575  1
  P  P16  1  0.504235  0.865601  0.920575  1
  P  P17  1  0.504235  0.134399  0.579425  1
  P  P18  1  0.229946  0.000000  0.250000  1
  P  P19  1  0.229946  0.500000  0.250000  1
  O  O20  1  0.910191  0.924378  0.677678  1
  O  O21  1  0.910191  0.575622  0.677678  1
  O  O22  1  0.910191  0.424378  0.822322  1
  O  O23  1  0.910191  0.075622  0.822322  1
  O  O24  1  0.774010  0.873102  0.452238  1
  O  O25  1  0.774010  0.373102  0.047762  1
  O  O26  1  0.774010  0.626898  0.452238  1
  O  O27  1  0.774010  0.126898  0.047762  1
  O  O28  1  0.702781  0.883218  0.007270  1
  O  O29  1  0.702781  0.616782  0.007270  1
  O  O30  1  0.702781  0.383218  0.492730  1
  O  O31  1  0.702781  0.116782  0.492730  1
  O  O32  1  0.550958  0.750000  0.868879  1
  O  O33  1  0.550958  0.250000  0.631121  1
  O  O34  1  0.552392  0.436620  0.681240  1
  O  O35  1  0.552392  0.936620  0.818760  1
  O  O36  1  0.552392  0.063380  0.681240  1
  O  O37  1  0.552392  0.563380  0.818760  1
  O  O38  1  0.447608  0.436620  0.181240  1
  O  O39  1  0.447608  0.563380  0.318760  1
  O  O40  1  0.447608  0.936620  0.318760  1
  O  O41  1  0.447608  0.063380  0.181240  1
  O  O42  1  0.449042  0.250000  0.131121  1
  O  O43  1  0.449042  0.750000  0.368879  1
  O  O44  1  0.297219  0.616782  0.507270  1
  O  O45  1  0.297219  0.383218  0.992730  1
  O  O46  1  0.297219  0.883218  0.507270  1
  O  O47  1  0.297219  0.116782  0.992730  1
  O  O48  1  0.225990  0.126898  0.547762  1
  O  O49  1  0.225990  0.373102  0.547762  1
  O  O50  1  0.225990  0.873102  0.952238  1
  O  O51  1  0.225990  0.626898  0.952238  1
  O  O52  1  0.089809  0.575622  0.177678  1
  O  O53  1  0.089809  0.424378  0.322322  1
  O  O54  1  0.089809  0.924378  0.177678  1
  O  O55  1  0.089809  0.075622  0.322322  1
