# generated using pymatgen
data_VO2F
_symmetry_space_group_name_H-M   'P 1'
_cell_length_a   5.16037058
_cell_length_b   5.31254625
_cell_length_c   13.01767895
_cell_angle_alpha   90.33680328
_cell_angle_beta   91.27575968
_cell_angle_gamma   118.11440358
_symmetry_Int_Tables_number   1
_chemical_formula_structural   VO2F
_chemical_formula_sum   'V6 O12 F6'
_cell_volume   314.63525898
_cell_formula_units_Z   6
loop_
 _symmetry_equiv_pos_site_id
 _symmetry_equiv_pos_as_xyz
  1  'x, y, z'
loop_
 _atom_site_type_symbol
 _atom_site_label
 _atom_site_symmetry_multiplicity
 _atom_site_fract_x
 _atom_site_fract_y
 _atom_site_fract_z
 _atom_site_occupancy
  V  V0  1  0.314861  0.646884  0.680188  1
  V  V1  1  0.310969  0.624545  0.178802  1
  V  V2  1  0.705096  0.360233  0.852084  1
  V  V3  1  0.639142  0.297442  0.351380  1
  V  V4  1  0.941596  0.971583  0.515072  1
  V  V5  1  0.006285  0.961339  0.015798  1
  O  O6  1  0.755297  0.872448  0.103433  1
  O  O7  1  0.491462  0.512803  0.263228  1
  O  O8  1  0.596215  0.821395  0.556769  1
  O  O9  1  0.862149  0.158640  0.391312  1
  O  O10  1  0.023339  0.522564  0.762259  1
  O  O11  1  0.226929  0.825217  0.058571  1
  O  O12  1  0.838692  0.208086  0.932463  1
  O  O13  1  0.971135  0.467090  0.217251  1
  O  O14  1  0.120404  0.874386  0.601261  1
  O  O15  1  0.785423  0.675867  0.915173  1
  O  O16  1  0.384033  0.193024  0.437592  1
  O  O17  1  0.499620  0.484580  0.722356  1
  F  F18  1  0.273613  0.348997  0.073031  1
  F  F19  1  0.076232  0.353707  0.574682  1
  F  F20  1  0.552241  0.999235  0.745828  1
  F  F21  1  0.892339  0.674313  0.414946  1
  F  F22  1  0.425592  0.988140  0.251087  1
  F  F23  1  0.307335  0.157480  0.885431  1
