# generated using pymatgen
data_LiMn(SiO3)2
_symmetry_space_group_name_H-M   'P 1'
_cell_length_a   5.15479100
_cell_length_b   8.96627540
_cell_length_c   18.60781723
_cell_angle_alpha   90.00000000
_cell_angle_beta   90.00000000
_cell_angle_gamma   90.00000000
_symmetry_Int_Tables_number   1
_chemical_formula_structural   LiMn(SiO3)2
_chemical_formula_sum   'Li8 Mn8 Si16 O48'
_cell_volume   860.03983539
_cell_formula_units_Z   8
loop_
 _symmetry_equiv_pos_site_id
 _symmetry_equiv_pos_as_xyz
  1  'x, y, z'
loop_
 _atom_site_type_symbol
 _atom_site_label
 _atom_site_symmetry_multiplicity
 _atom_site_fract_x
 _atom_site_fract_y
 _atom_site_fract_z
 _atom_site_occupancy
  Li  Li0  1  0.632841  0.660665  0.122800  1
  Li  Li1  1  0.132841  0.839335  0.122800  1
  Li  Li2  1  0.132841  0.339335  0.377200  1
  Li  Li3  1  0.632841  0.160665  0.377200  1
  Li  Li4  1  0.367159  0.839335  0.622800  1
  Li  Li5  1  0.867159  0.660665  0.622800  1
  Li  Li6  1  0.367159  0.339335  0.877200  1
  Li  Li7  1  0.867159  0.160665  0.877200  1
  Mn  Mn8  1  0.638584  0.001896  0.123877  1
  Mn  Mn9  1  0.138584  0.498104  0.123877  1
  Mn  Mn10  1  0.138584  0.998104  0.376123  1
  Mn  Mn11  1  0.638584  0.501896  0.376123  1
  Mn  Mn12  1  0.361416  0.498104  0.623877  1
  Mn  Mn13  1  0.861416  0.001896  0.623877  1
  Mn  Mn14  1  0.361416  0.998104  0.876123  1
  Mn  Mn15  1  0.861416  0.501896  0.876123  1
  Si  Si16  1  0.710299  0.338210  0.027278  1
  Si  Si17  1  0.210299  0.161790  0.027278  1
  Si  Si18  1  0.437113  0.343077  0.228143  1
  Si  Si19  1  0.937113  0.156923  0.228143  1
  Si  Si20  1  0.437113  0.843077  0.271857  1
  Si  Si21  1  0.937113  0.656923  0.271857  1
  Si  Si22  1  0.710299  0.838210  0.472722  1
  Si  Si23  1  0.210299  0.661790  0.472722  1
  Si  Si24  1  0.789701  0.338210  0.527278  1
  Si  Si25  1  0.289701  0.161790  0.527278  1
  Si  Si26  1  0.062887  0.343077  0.728143  1
  Si  Si27  1  0.562887  0.156923  0.728143  1
  Si  Si28  1  0.062887  0.843077  0.771857  1
  Si  Si29  1  0.562887  0.656923  0.771857  1
  Si  Si30  1  0.789701  0.838210  0.972722  1
  Si  Si31  1  0.289701  0.661790  0.972722  1
  O  O32  1  0.900673  0.193909  0.053097  1
  O  O33  1  0.400673  0.306091  0.053097  1
  O  O34  1  0.798943  0.849651  0.059648  1
  O  O35  1  0.298943  0.650349  0.059648  1
  O  O36  1  0.826907  0.481372  0.069266  1
  O  O37  1  0.326907  0.018628  0.069266  1
  O  O38  1  0.455913  0.850334  0.185807  1
  O  O39  1  0.955913  0.649666  0.185807  1
  O  O40  1  0.934005  0.997025  0.186298  1
  O  O41  1  0.434005  0.502975  0.186298  1
  O  O42  1  0.159631  0.273503  0.196303  1
  O  O43  1  0.659631  0.226497  0.196303  1
  O  O44  1  0.159631  0.773503  0.303697  1
  O  O45  1  0.659631  0.726497  0.303697  1
  O  O46  1  0.934005  0.497025  0.313702  1
  O  O47  1  0.434005  0.002975  0.313702  1
  O  O48  1  0.455913  0.350334  0.314193  1
  O  O49  1  0.955913  0.149666  0.314193  1
  O  O50  1  0.826907  0.981372  0.430734  1
  O  O51  1  0.326907  0.518628  0.430734  1
  O  O52  1  0.798943  0.349651  0.440352  1
  O  O53  1  0.298943  0.150349  0.440352  1
  O  O54  1  0.400673  0.806091  0.446903  1
  O  O55  1  0.900673  0.693909  0.446903  1
  O  O56  1  0.099327  0.306091  0.553097  1
  O  O57  1  0.599327  0.193909  0.553097  1
  O  O58  1  0.701057  0.849651  0.559648  1
  O  O59  1  0.201057  0.650349  0.559648  1
  O  O60  1  0.673093  0.481372  0.569266  1
  O  O61  1  0.173093  0.018628  0.569266  1
  O  O62  1  0.044087  0.850334  0.685807  1
  O  O63  1  0.544087  0.649666  0.685807  1
  O  O64  1  0.565995  0.997025  0.686298  1
  O  O65  1  0.065995  0.502975  0.686298  1
  O  O66  1  0.340369  0.273503  0.696303  1
  O  O67  1  0.840369  0.226497  0.696303  1
  O  O68  1  0.340369  0.773503  0.803697  1
  O  O69  1  0.840369  0.726497  0.803697  1
  O  O70  1  0.565995  0.497025  0.813702  1
  O  O71  1  0.065995  0.002975  0.813702  1
  O  O72  1  0.044087  0.350334  0.814193  1
  O  O73  1  0.544087  0.149666  0.814193  1
  O  O74  1  0.673093  0.981372  0.930734  1
  O  O75  1  0.173093  0.518628  0.930734  1
  O  O76  1  0.701057  0.349651  0.940352  1
  O  O77  1  0.201057  0.150349  0.940352  1
  O  O78  1  0.099327  0.806091  0.946903  1
  O  O79  1  0.599327  0.693909  0.946903  1
