# generated using pymatgen
data_Mn3CrO8
_symmetry_space_group_name_H-M   'P 1'
_cell_length_a   5.87235155
_cell_length_b   5.87235155
_cell_length_c   5.87235155
_cell_angle_alpha   59.75183095
_cell_angle_beta   59.75183095
_cell_angle_gamma   59.75183095
_symmetry_Int_Tables_number   1
_chemical_formula_structural   Mn3CrO8
_chemical_formula_sum   'Mn3 Cr1 O8'
_cell_volume   142.38584880
_cell_formula_units_Z   1
loop_
 _symmetry_equiv_pos_site_id
 _symmetry_equiv_pos_as_xyz
  1  'x, y, z'
loop_
 _atom_site_type_symbol
 _atom_site_label
 _atom_site_symmetry_multiplicity
 _atom_site_fract_x
 _atom_site_fract_y
 _atom_site_fract_z
 _atom_site_occupancy
  Mn  Mn0  1  0.000000  0.000000  0.500000  1
  Mn  Mn1  1  0.500000  0.000000  0.000000  1
  Mn  Mn2  1  0.000000  0.500000  0.000000  1
  Cr  Cr3  1  0.500000  0.500000  0.500000  1
  O  O4  1  0.767397  0.767397  0.767397  1
  O  O5  1  0.266420  0.266420  0.769542  1
  O  O6  1  0.769542  0.266420  0.266420  1
  O  O7  1  0.232603  0.232603  0.232603  1
  O  O8  1  0.266420  0.769542  0.266420  1
  O  O9  1  0.733580  0.733580  0.230458  1
  O  O10  1  0.230458  0.733580  0.733580  1
  O  O11  1  0.733580  0.230458  0.733580  1
