# generated using pymatgen
data_Li5Fe2P2(CO7)2
_symmetry_space_group_name_H-M   'P 1'
_cell_length_a   6.49010902
_cell_length_b   9.41754661
_cell_length_c   10.09763998
_cell_angle_alpha   117.03311060
_cell_angle_beta   89.83454052
_cell_angle_gamma   91.05526035
_symmetry_Int_Tables_number   1
_chemical_formula_structural   Li5Fe2P2(CO7)2
_chemical_formula_sum   'Li10 Fe4 P4 C4 O28'
_cell_volume   549.64296561
_cell_formula_units_Z   2
loop_
 _symmetry_equiv_pos_site_id
 _symmetry_equiv_pos_as_xyz
  1  'x, y, z'
loop_
 _atom_site_type_symbol
 _atom_site_label
 _atom_site_symmetry_multiplicity
 _atom_site_fract_x
 _atom_site_fract_y
 _atom_site_fract_z
 _atom_site_occupancy
  Li  Li0  1  0.253700  0.107024  0.440134  1
  Li  Li1  1  0.259260  0.088576  0.924551  1
  Li  Li2  1  0.038825  0.277587  0.270159  1
  Li  Li3  1  0.484402  0.270852  0.758822  1
  Li  Li4  1  0.011292  0.270386  0.759088  1
  Li  Li5  1  0.515598  0.729148  0.241178  1
  Li  Li6  1  0.988708  0.729614  0.240912  1
  Li  Li7  1  0.961175  0.722413  0.729841  1
  Li  Li8  1  0.740740  0.911424  0.075449  1
  Li  Li9  1  0.746300  0.892976  0.559866  1
  Fe  Fe10  1  0.744517  0.330512  0.070299  1
  Fe  Fe11  1  0.745007  0.331394  0.552881  1
  Fe  Fe12  1  0.254993  0.668606  0.447119  1
  Fe  Fe13  1  0.255483  0.669488  0.929701  1
  P  P14  1  0.247863  0.416680  0.064046  1
  P  P15  1  0.238336  0.414773  0.574013  1
  P  P16  1  0.761664  0.585227  0.425987  1
  P  P17  1  0.752137  0.583320  0.935954  1
  C  C18  1  0.755122  0.030388  0.366953  1
  C  C19  1  0.763468  0.045201  0.867409  1
  C  C20  1  0.236532  0.954799  0.132591  1
  C  C21  1  0.244878  0.969612  0.633047  1
  O  O22  1  0.752594  0.079839  0.008561  1
  O  O23  1  0.738995  0.066426  0.507111  1
  O  O24  1  0.218498  0.094199  0.236835  1
  O  O25  1  0.772445  0.143904  0.328721  1
  O  O26  1  0.248605  0.117665  0.736146  1
  O  O27  1  0.754462  0.170468  0.841477  1
  O  O28  1  0.064511  0.306233  0.061423  1
  O  O29  1  0.439052  0.311485  0.042919  1
  O  O30  1  0.059141  0.302806  0.574975  1
  O  O31  1  0.432071  0.320498  0.574648  1
  O  O32  1  0.770910  0.420178  0.285691  1
  O  O33  1  0.222691  0.440379  0.434380  1
  O  O34  1  0.744167  0.423243  0.795761  1
  O  O35  1  0.231556  0.451170  0.925393  1
  O  O36  1  0.768444  0.548830  0.074607  1
  O  O37  1  0.255833  0.576757  0.204239  1
  O  O38  1  0.777309  0.559621  0.565620  1
  O  O39  1  0.229090  0.579822  0.714309  1
  O  O40  1  0.567929  0.679502  0.425352  1
  O  O41  1  0.940859  0.697194  0.425025  1
  O  O42  1  0.935489  0.693767  0.938577  1
  O  O43  1  0.560948  0.688515  0.957081  1
  O  O44  1  0.245538  0.829532  0.158523  1
  O  O45  1  0.751395  0.882335  0.263854  1
  O  O46  1  0.227555  0.856096  0.671279  1
  O  O47  1  0.781502  0.905801  0.763165  1
  O  O48  1  0.261005  0.933574  0.492889  1
  O  O49  1  0.247406  0.920161  0.991439  1
