# generated using pymatgen
data_V3OF11
_symmetry_space_group_name_H-M   'P 1'
_cell_length_a   5.26515447
_cell_length_b   5.46497270
_cell_length_c   14.83636826
_cell_angle_alpha   100.25778574
_cell_angle_beta   90.01132037
_cell_angle_gamma   90.00288957
_symmetry_Int_Tables_number   1
_chemical_formula_structural   V3OF11
_chemical_formula_sum   'V6 O2 F22'
_cell_volume   420.07718270
_cell_formula_units_Z   2
loop_
 _symmetry_equiv_pos_site_id
 _symmetry_equiv_pos_as_xyz
  1  'x, y, z'
loop_
 _atom_site_type_symbol
 _atom_site_label
 _atom_site_symmetry_multiplicity
 _atom_site_fract_x
 _atom_site_fract_y
 _atom_site_fract_z
 _atom_site_occupancy
  V  V0  1  0.000091  0.000282  0.999834  1
  V  V1  1  0.491779  0.845604  0.665826  1
  V  V2  1  0.007946  0.679306  0.332840  1
  V  V3  1  0.500117  0.500304  0.999920  1
  V  V4  1  0.975305  0.373813  0.669560  1
  V  V5  1  0.524352  0.207471  0.336364  1
  O  O6  1  0.795150  0.624481  0.689089  1
  O  O7  1  0.704569  0.458080  0.355653  1
  F  F8  1  0.791845  0.978275  0.358031  1
  F  F9  1  0.696853  0.811074  0.024566  1
  F  F10  1  0.293357  0.861144  0.310068  1
  F  F11  1  0.913402  0.958379  0.883035  1
  F  F12  1  0.588766  0.782700  0.549840  1
  F  F13  1  0.910811  0.616185  0.216681  1
  F  F14  1  0.424447  0.868970  0.783912  1
  F  F15  1  0.075220  0.700404  0.450697  1
  F  F16  1  0.413240  0.538725  0.116642  1
  F  F17  1  0.803213  0.311046  0.024476  1
  F  F18  1  0.197188  0.688976  0.975227  1
  F  F19  1  0.284710  0.531443  0.642216  1
  F  F20  1  0.215094  0.364628  0.309084  1
  F  F21  1  0.587652  0.458701  0.883197  1
  F  F22  1  0.926721  0.271497  0.550831  1
  F  F23  1  0.572677  0.104441  0.217495  1
  F  F24  1  0.093113  0.364435  0.780864  1
  F  F25  1  0.409062  0.197526  0.447764  1
  F  F26  1  0.085230  0.040672  0.116786  1
  F  F27  1  0.708522  0.144706  0.691354  1
  F  F28  1  0.302898  0.188898  0.975118  1
  F  F29  1  0.206672  0.027835  0.643028  1
