# generated using pymatgen
data_Li3Nb3TeO12
_symmetry_space_group_name_H-M   'P 1'
_cell_length_a   5.20824013
_cell_length_b   5.50854332
_cell_length_c   7.64053826
_cell_angle_alpha   94.67706023
_cell_angle_beta   90.22795530
_cell_angle_gamma   90.00899957
_symmetry_Int_Tables_number   1
_chemical_formula_structural   Li3Nb3TeO12
_chemical_formula_sum   'Li3 Nb3 Te1 O12'
_cell_volume   218.47395508
_cell_formula_units_Z   1
loop_
 _symmetry_equiv_pos_site_id
 _symmetry_equiv_pos_as_xyz
  1  'x, y, z'
loop_
 _atom_site_type_symbol
 _atom_site_label
 _atom_site_symmetry_multiplicity
 _atom_site_fract_x
 _atom_site_fract_y
 _atom_site_fract_z
 _atom_site_occupancy
  Li  Li0  1  0.498295  0.007505  0.249340  1
  Li  Li1  1  0.000409  0.508552  0.745417  1
  Li  Li2  1  0.997983  0.499548  0.251493  1
  Nb  Nb3  1  0.508675  0.582482  0.967037  1
  Nb  Nb4  1  0.496467  0.567289  0.474818  1
  Nb  Nb5  1  0.999243  0.065051  0.465689  1
  Te  Te6  1  0.001137  0.081715  0.958917  1
  O  O7  1  0.817196  0.785568  0.887113  1
  O  O8  1  0.684182  0.906850  0.490753  1
  O  O9  1  0.618570  0.604782  0.201230  1
  O  O10  1  0.306553  0.284727  0.383809  1
  O  O11  1  0.823400  0.413580  0.506060  1
  O  O12  1  0.870266  0.109397  0.196048  1
  O  O13  1  0.184400  0.394692  0.011755  1
  O  O14  1  0.714508  0.294340  0.891012  1
  O  O15  1  0.108489  0.101386  0.712460  1
  O  O16  1  0.305276  0.905831  0.020622  1
  O  O17  1  0.371462  0.590035  0.706511  1
  O  O18  1  0.193491  0.783467  0.386520  1
