# generated using pymatgen
data_NaSbO3
_symmetry_space_group_name_H-M   'P 1'
_cell_length_a   8.10530618
_cell_length_b   8.16446324
_cell_length_c   8.24757807
_cell_angle_alpha   109.39925358
_cell_angle_beta   109.31935748
_cell_angle_gamma   108.45155717
_symmetry_Int_Tables_number   1
_chemical_formula_structural   NaSbO3
_chemical_formula_sum   'Na6 Sb6 O18'
_cell_volume   426.44620628
_cell_formula_units_Z   6
loop_
 _symmetry_equiv_pos_site_id
 _symmetry_equiv_pos_as_xyz
  1  'x, y, z'
loop_
 _atom_site_type_symbol
 _atom_site_label
 _atom_site_symmetry_multiplicity
 _atom_site_fract_x
 _atom_site_fract_y
 _atom_site_fract_z
 _atom_site_occupancy
  Na  Na0  1  0.014087  0.982517  0.322082  1
  Na  Na1  1  0.500000  0.000000  0.000000  1
  Na  Na2  1  0.670640  0.651951  0.701799  1
  Na  Na3  1  0.329360  0.348049  0.298201  1
  Na  Na4  1  0.000000  0.500000  0.000000  1
  Na  Na5  1  0.985913  0.017483  0.677918  1
  Sb  Sb6  1  0.498699  0.840216  0.337168  1
  Sb  Sb7  1  0.159288  0.663289  0.501131  1
  Sb  Sb8  1  0.659807  0.496716  0.159524  1
  Sb  Sb9  1  0.340193  0.503284  0.840476  1
  Sb  Sb10  1  0.840712  0.336711  0.498869  1
  Sb  Sb11  1  0.501301  0.159784  0.662832  1
  O  O12  1  0.274395  0.956374  0.660916  1
  O  O13  1  0.335465  0.719768  0.046128  1
  O  O14  1  0.638190  0.991412  0.635487  1
  O  O15  1  0.282613  0.622035  0.328406  1
  O  O16  1  0.663166  0.705165  0.381256  1
  O  O17  1  0.383814  0.672792  0.714083  1
  O  O18  1  0.952117  0.665308  0.282151  1
  O  O19  1  0.010148  0.362967  0.366447  1
  O  O20  1  0.358715  0.363112  0.003445  1
  O  O21  1  0.641285  0.636888  0.996555  1
  O  O22  1  0.989852  0.637033  0.633553  1
  O  O23  1  0.047883  0.334692  0.717849  1
  O  O24  1  0.616186  0.327208  0.285917  1
  O  O25  1  0.336834  0.294835  0.618744  1
  O  O26  1  0.717387  0.377965  0.671594  1
  O  O27  1  0.361810  0.008588  0.364513  1
  O  O28  1  0.664535  0.280232  0.953872  1
  O  O29  1  0.725605  0.043626  0.339084  1
