# generated using pymatgen
data_Fe23O32
_symmetry_space_group_name_H-M   'P 1'
_cell_length_a   8.41857217
_cell_length_b   8.45028163
_cell_length_c   8.46130362
_cell_angle_alpha   90.40275280
_cell_angle_beta   90.06718203
_cell_angle_gamma   90.17142104
_symmetry_Int_Tables_number   1
_chemical_formula_structural   Fe23O32
_chemical_formula_sum   'Fe23 O32'
_cell_volume   601.91327096
_cell_formula_units_Z   1
loop_
 _symmetry_equiv_pos_site_id
 _symmetry_equiv_pos_as_xyz
  1  'x, y, z'
loop_
 _atom_site_type_symbol
 _atom_site_label
 _atom_site_symmetry_multiplicity
 _atom_site_fract_x
 _atom_site_fract_y
 _atom_site_fract_z
 _atom_site_occupancy
  Fe  Fe0  1  0.507487  0.002375  0.503213  1
  Fe  Fe1  1  0.870956  0.125224  0.369347  1
  Fe  Fe2  1  0.121596  0.123851  0.624457  1
  Fe  Fe3  1  0.383038  0.128854  0.882440  1
  Fe  Fe4  1  0.240486  0.251858  0.248627  1
  Fe  Fe5  1  0.748405  0.247435  0.751780  1
  Fe  Fe6  1  0.872417  0.373140  0.124418  1
  Fe  Fe7  1  0.124221  0.375726  0.876024  1
  Fe  Fe8  1  0.624660  0.365587  0.366386  1
  Fe  Fe9  1  0.379081  0.375979  0.625308  1
  Fe  Fe10  1  0.001962  0.494601  0.495709  1
  Fe  Fe11  1  0.506780  0.503160  0.002226  1
  Fe  Fe12  1  0.123208  0.624747  0.125059  1
  Fe  Fe13  1  0.876011  0.624096  0.874720  1
  Fe  Fe14  1  0.376962  0.625729  0.372054  1
  Fe  Fe15  1  0.627311  0.625114  0.624800  1
  Fe  Fe16  1  0.748712  0.751096  0.244453  1
  Fe  Fe17  1  0.249255  0.750483  0.751773  1
  Fe  Fe18  1  0.122519  0.874857  0.372488  1
  Fe  Fe19  1  0.872952  0.873226  0.623438  1
  Fe  Fe20  1  0.379266  0.882891  0.128529  1
  Fe  Fe21  1  0.626906  0.877182  0.879427  1
  Fe  Fe22  1  0.998263  0.002068  0.008540  1
  O  O23  1  0.111062  0.119707  0.383799  1
  O  O24  1  0.354502  0.113249  0.115573  1
  O  O25  1  0.614429  0.105752  0.864374  1
  O  O26  1  0.131221  0.127870  0.864591  1
  O  O27  1  0.884673  0.127815  0.608367  1
  O  O28  1  0.891336  0.144782  0.142841  1
  O  O29  1  0.644289  0.128923  0.387257  1
  O  O30  1  0.364075  0.136567  0.630571  1
  O  O31  1  0.871255  0.363073  0.361007  1
  O  O32  1  0.135932  0.367692  0.630206  1
  O  O33  1  0.373725  0.368586  0.867189  1
  O  O34  1  0.376706  0.380548  0.382731  1
  O  O35  1  0.645163  0.389181  0.126264  1
  O  O36  1  0.110971  0.391097  0.120636  1
  O  O37  1  0.876454  0.382664  0.889066  1
  O  O38  1  0.614921  0.377980  0.627177  1
  O  O39  1  0.889185  0.610981  0.119572  1
  O  O40  1  0.612331  0.623813  0.377075  1
  O  O41  1  0.368611  0.614344  0.614433  1
  O  O42  1  0.882615  0.619876  0.637459  1
  O  O43  1  0.117386  0.623342  0.889730  1
  O  O44  1  0.131098  0.628563  0.358338  1
  O  O45  1  0.358654  0.631181  0.131489  1
  O  O46  1  0.635730  0.640825  0.872442  1
  O  O47  1  0.133673  0.857872  0.126585  1
  O  O48  1  0.863605  0.866888  0.881899  1
  O  O49  1  0.627637  0.871933  0.644261  1
  O  O50  1  0.612438  0.860687  0.104828  1
  O  O51  1  0.374089  0.868004  0.366714  1
  O  O52  1  0.876745  0.889535  0.370287  1
  O  O53  1  0.120916  0.881404  0.620716  1
  O  O54  1  0.387115  0.880986  0.882308  1
