# generated using pymatgen
data_Li4Al3Cr3(SbO8)2
_symmetry_space_group_name_H-M   'P 1'
_cell_length_a   5.85871707
_cell_length_b   5.85871707
_cell_length_c   9.56950975
_cell_angle_alpha   89.50730225
_cell_angle_beta   90.49269775
_cell_angle_gamma   120.11841174
_symmetry_Int_Tables_number   1
_chemical_formula_structural   Li4Al3Cr3(SbO8)2
_chemical_formula_sum   'Li4 Al3 Cr3 Sb2 O16'
_cell_volume   284.10871266
_cell_formula_units_Z   1
loop_
 _symmetry_equiv_pos_site_id
 _symmetry_equiv_pos_as_xyz
  1  'x, y, z'
loop_
 _atom_site_type_symbol
 _atom_site_label
 _atom_site_symmetry_multiplicity
 _atom_site_fract_x
 _atom_site_fract_y
 _atom_site_fract_z
 _atom_site_occupancy
  Li  Li0  1  0.668229  0.331771  0.095289  1
  Li  Li1  1  0.998213  0.001787  0.013910  1
  Li  Li2  1  0.998467  0.001533  0.510517  1
  Li  Li3  1  0.334099  0.665901  0.592712  1
  Al  Al4  1  0.829851  0.170149  0.785363  1
  Al  Al5  1  0.660082  0.828432  0.285500  1
  Al  Al6  1  0.171568  0.339918  0.285500  1
  Cr  Cr7  1  0.831127  0.660460  0.786286  1
  Cr  Cr8  1  0.339540  0.168873  0.786286  1
  Cr  Cr9  1  0.170869  0.829131  0.286122  1
  Sb  Sb10  1  0.667407  0.332593  0.511438  1
  Sb  Sb11  1  0.335072  0.664928  0.013948  1
  O  O12  1  0.829166  0.672914  0.401747  1
  O  O13  1  0.517786  0.482214  0.656009  1
  O  O14  1  0.676978  0.323022  0.889276  1
  O  O15  1  0.989468  0.010532  0.696589  1
  O  O16  1  0.991012  0.008988  0.201923  1
  O  O17  1  0.327086  0.170834  0.401747  1
  O  O18  1  0.966036  0.479487  0.657659  1
  O  O19  1  0.520513  0.033964  0.657659  1
  O  O20  1  0.163013  0.836987  0.908786  1
  O  O21  1  0.833834  0.166166  0.398720  1
  O  O22  1  0.488292  0.962804  0.159538  1
  O  O23  1  0.037196  0.511708  0.159538  1
  O  O24  1  0.343139  0.656861  0.386192  1
  O  O25  1  0.670034  0.841665  0.902046  1
  O  O26  1  0.483748  0.516252  0.159806  1
  O  O27  1  0.158335  0.329966  0.902046  1
