# generated using pymatgen
data_LiCr(CO3)2
_symmetry_space_group_name_H-M   'P 1'
_cell_length_a   5.17540441
_cell_length_b   7.76694116
_cell_length_c   6.32356010
_cell_angle_alpha   90.00000000
_cell_angle_beta   113.08811678
_cell_angle_gamma   90.00000000
_symmetry_Int_Tables_number   1
_chemical_formula_structural   LiCr(CO3)2
_chemical_formula_sum   'Li2 Cr2 C4 O12'
_cell_volume   233.82875688
_cell_formula_units_Z   2
loop_
 _symmetry_equiv_pos_site_id
 _symmetry_equiv_pos_as_xyz
  1  'x, y, z'
loop_
 _atom_site_type_symbol
 _atom_site_label
 _atom_site_symmetry_multiplicity
 _atom_site_fract_x
 _atom_site_fract_y
 _atom_site_fract_z
 _atom_site_occupancy
  Li  Li0  1  0.536714  0.939739  0.911709  1
  Li  Li1  1  0.463286  0.439739  0.088291  1
  Cr  Cr2  1  0.254059  0.996889  0.262370  1
  Cr  Cr3  1  0.745941  0.496889  0.737630  1
  C  C4  1  0.507651  0.733066  0.372958  1
  C  C5  1  0.492349  0.233066  0.627042  1
  C  C6  1  0.022721  0.758540  0.885380  1
  C  C7  1  0.977279  0.258540  0.114620  1
  O  O8  1  0.620199  0.868288  0.323362  1
  O  O9  1  0.631939  0.584614  0.413621  1
  O  O10  1  0.742569  0.254188  0.629714  1
  O  O11  1  0.257431  0.754188  0.370286  1
  O  O12  1  0.368061  0.084614  0.586379  1
  O  O13  1  0.379801  0.368288  0.676638  1
  O  O14  1  0.134684  0.616286  0.854568  1
  O  O15  1  0.161503  0.900473  0.940293  1
  O  O16  1  0.242881  0.249058  0.149243  1
  O  O17  1  0.757119  0.749058  0.850757  1
  O  O18  1  0.838497  0.400473  0.059707  1
  O  O19  1  0.865316  0.116286  0.145432  1
