# generated using pymatgen
data_Li5LaO4
_symmetry_space_group_name_H-M   'P 1'
_cell_length_a   13.84296244
_cell_length_b   13.84296244
_cell_length_c   4.86188794
_cell_angle_alpha   90.00000000
_cell_angle_beta   90.00000000
_cell_angle_gamma   90.00000000
_symmetry_Int_Tables_number   1
_chemical_formula_structural   Li5LaO4
_chemical_formula_sum   'Li40 La8 O32'
_cell_volume   931.67196173
_cell_formula_units_Z   8
loop_
 _symmetry_equiv_pos_site_id
 _symmetry_equiv_pos_as_xyz
  1  'x, y, z'
loop_
 _atom_site_type_symbol
 _atom_site_label
 _atom_site_symmetry_multiplicity
 _atom_site_fract_x
 _atom_site_fract_y
 _atom_site_fract_z
 _atom_site_occupancy
  Li  Li0  1  0.756459  0.243541  0.000000  1
  Li  Li1  1  0.743541  0.256459  0.500000  1
  Li  Li2  1  0.243541  0.243541  0.000000  1
  Li  Li3  1  0.256459  0.256459  0.500000  1
  Li  Li4  1  0.110237  0.358820  0.568193  1
  Li  Li5  1  0.889763  0.358820  0.568193  1
  Li  Li6  1  0.372115  0.372115  0.000000  1
  Li  Li7  1  0.627885  0.372115  0.000000  1
  Li  Li8  1  0.858820  0.389763  0.068193  1
  Li  Li9  1  0.141180  0.389763  0.068193  1
  Li  Li10  1  0.000000  0.500000  0.089263  1
  Li  Li11  1  0.500000  0.500000  0.500000  1
  Li  Li12  1  0.500000  0.500000  0.000000  1
  Li  Li13  1  0.000000  0.500000  0.589263  1
  Li  Li14  1  0.858820  0.610237  0.068193  1
  Li  Li15  1  0.141180  0.610237  0.068193  1
  Li  Li16  1  0.372115  0.627885  0.000000  1
  Li  Li17  1  0.627885  0.627885  0.000000  1
  Li  Li18  1  0.889763  0.641180  0.568193  1
  Li  Li19  1  0.110237  0.641180  0.568193  1
  Li  Li20  1  0.243541  0.756459  0.000000  1
  Li  Li21  1  0.256459  0.743541  0.500000  1
  Li  Li22  1  0.756459  0.756459  0.000000  1
  Li  Li23  1  0.743541  0.743541  0.500000  1
  Li  Li24  1  0.389763  0.858820  0.931807  1
  Li  Li25  1  0.610237  0.858820  0.931807  1
  Li  Li26  1  0.872115  0.872115  0.500000  1
  Li  Li27  1  0.127885  0.872115  0.500000  1
  Li  Li28  1  0.358820  0.889763  0.431807  1
  Li  Li29  1  0.641180  0.889763  0.431807  1
  Li  Li30  1  0.000000  0.000000  0.000000  1
  Li  Li31  1  0.000000  0.000000  0.500000  1
  Li  Li32  1  0.500000  0.000000  0.910737  1
  Li  Li33  1  0.500000  0.000000  0.410737  1
  Li  Li34  1  0.358820  0.110237  0.431807  1
  Li  Li35  1  0.641180  0.110237  0.431807  1
  Li  Li36  1  0.872115  0.127885  0.500000  1
  Li  Li37  1  0.127885  0.127885  0.500000  1
  Li  Li38  1  0.389763  0.141180  0.931807  1
  Li  Li39  1  0.610237  0.141180  0.931807  1
  La  La40  1  0.500000  0.273767  0.454756  1
  La  La41  1  0.273767  0.500000  0.545244  1
  La  La42  1  0.726233  0.500000  0.545244  1
  La  La43  1  0.500000  0.726233  0.454756  1
  La  La44  1  0.000000  0.773767  0.045244  1
  La  La45  1  0.773767  0.000000  0.954756  1
  La  La46  1  0.226233  0.000000  0.954756  1
  La  La47  1  0.000000  0.226233  0.045244  1
  O  O48  1  0.862294  0.261247  0.284415  1
  O  O49  1  0.137706  0.261247  0.284415  1
  O  O50  1  0.761247  0.362294  0.784415  1
  O  O51  1  0.238753  0.362294  0.784415  1
  O  O52  1  0.000000  0.381952  0.833495  1
  O  O53  1  0.500000  0.388128  0.778639  1
  O  O54  1  0.881952  0.500000  0.333495  1
  O  O55  1  0.388128  0.500000  0.221361  1
  O  O56  1  0.611872  0.500000  0.221361  1
  O  O57  1  0.118048  0.500000  0.333495  1
  O  O58  1  0.500000  0.611872  0.778639  1
  O  O59  1  0.000000  0.618048  0.833495  1
  O  O60  1  0.238753  0.637706  0.784415  1
  O  O61  1  0.761247  0.637706  0.784415  1
  O  O62  1  0.862294  0.738753  0.284415  1
  O  O63  1  0.137706  0.738753  0.284415  1
  O  O64  1  0.362294  0.761247  0.215585  1
  O  O65  1  0.637706  0.761247  0.215585  1
  O  O66  1  0.738753  0.862294  0.715585  1
  O  O67  1  0.261247  0.862294  0.715585  1
  O  O68  1  0.500000  0.881952  0.666505  1
  O  O69  1  0.000000  0.888128  0.721361  1
  O  O70  1  0.888128  0.000000  0.278639  1
  O  O71  1  0.111872  0.000000  0.278639  1
  O  O72  1  0.381952  0.000000  0.166505  1
  O  O73  1  0.618048  0.000000  0.166505  1
  O  O74  1  0.000000  0.111872  0.721361  1
  O  O75  1  0.500000  0.118048  0.666505  1
  O  O76  1  0.738753  0.137706  0.715585  1
  O  O77  1  0.261247  0.137706  0.715585  1
  O  O78  1  0.362294  0.238753  0.215585  1
  O  O79  1  0.637706  0.238753  0.215585  1
