# generated using pymatgen
data_BW
_symmetry_space_group_name_H-M   'P 1'
_cell_length_a   8.80738826
_cell_length_b   8.80738826
_cell_length_c   8.80738826
_cell_angle_alpha   159.42524731
_cell_angle_beta   159.42524731
_cell_angle_gamma   29.25786019
_symmetry_Int_Tables_number   1
_chemical_formula_structural   BW
_chemical_formula_sum   'B4 W4'
_cell_volume   84.32982067
_cell_formula_units_Z   4
loop_
 _symmetry_equiv_pos_site_id
 _symmetry_equiv_pos_as_xyz
  1  'x, y, z'
loop_
 _atom_site_type_symbol
 _atom_site_label
 _atom_site_symmetry_multiplicity
 _atom_site_fract_x
 _atom_site_fract_y
 _atom_site_fract_z
 _atom_site_occupancy
  B  B0  1  0.906201  0.406201  0.500000  1
  B  B1  1  0.156201  0.156201  0.000000  1
  B  B2  1  0.843799  0.843799  0.000000  1
  B  B3  1  0.593799  0.093799  0.500000  1
  W  W4  1  0.053139  0.553139  0.500000  1
  W  W5  1  0.303139  0.303139  0.000000  1
  W  W6  1  0.696861  0.696861  0.000000  1
  W  W7  1  0.446861  0.946861  0.500000  1
