# generated using pymatgen
data_Mn4O7F
_symmetry_space_group_name_H-M   'P 1'
_cell_length_a   4.97923031
_cell_length_b   10.98991960
_cell_length_c   6.70368771
_cell_angle_alpha   90.00000000
_cell_angle_beta   138.17643525
_cell_angle_gamma   90.00000000
_symmetry_Int_Tables_number   1
_chemical_formula_structural   Mn4O7F
_chemical_formula_sum   'Mn8 O14 F2'
_cell_volume   244.61974328
_cell_formula_units_Z   2
loop_
 _symmetry_equiv_pos_site_id
 _symmetry_equiv_pos_as_xyz
  1  'x, y, z'
loop_
 _atom_site_type_symbol
 _atom_site_label
 _atom_site_symmetry_multiplicity
 _atom_site_fract_x
 _atom_site_fract_y
 _atom_site_fract_z
 _atom_site_occupancy
  Mn  Mn0  1  0.738524  0.666382  0.986182  1
  Mn  Mn1  1  0.238524  0.333618  0.986182  1
  Mn  Mn2  1  0.229322  0.822030  0.994307  1
  Mn  Mn3  1  0.729322  0.177970  0.994307  1
  Mn  Mn4  1  0.775626  0.067369  0.515483  1
  Mn  Mn5  1  0.243925  0.425979  0.490917  1
  Mn  Mn6  1  0.743925  0.574021  0.490917  1
  Mn  Mn7  1  0.275626  0.932631  0.515483  1
  O  O8  1  0.684944  0.305335  0.765351  1
  O  O9  1  0.184944  0.694665  0.765351  1
  O  O10  1  0.683410  0.806923  0.769467  1
  O  O11  1  0.183410  0.193077  0.769467  1
  O  O12  1  0.150643  0.448001  0.721143  1
  O  O13  1  0.650643  0.551999  0.721143  1
  O  O14  1  0.169552  0.944387  0.743616  1
  O  O15  1  0.669552  0.055613  0.743616  1
  O  O16  1  0.342332  0.445157  0.261828  1
  O  O17  1  0.842332  0.554843  0.261828  1
  O  O18  1  0.355636  0.944146  0.276019  1
  O  O19  1  0.855636  0.055854  0.276019  1
  O  O20  1  0.802795  0.306073  0.229499  1
  O  O21  1  0.302795  0.693927  0.229499  1
  F  F22  1  0.823291  0.810748  0.246187  1
  F  F23  1  0.323291  0.189252  0.246187  1
