# generated using pymatgen
data_LiMnO2
_symmetry_space_group_name_H-M   'P 1'
_cell_length_a   5.25135804
_cell_length_b   5.86962685
_cell_length_c   7.31584438
_cell_angle_alpha   91.01424368
_cell_angle_beta   93.44491229
_cell_angle_gamma   90.71548347
_symmetry_Int_Tables_number   1
_chemical_formula_structural   LiMnO2
_chemical_formula_sum   'Li6 Mn6 O12'
_cell_volume   225.03653542
_cell_formula_units_Z   6
loop_
 _symmetry_equiv_pos_site_id
 _symmetry_equiv_pos_as_xyz
  1  'x, y, z'
loop_
 _atom_site_type_symbol
 _atom_site_label
 _atom_site_symmetry_multiplicity
 _atom_site_fract_x
 _atom_site_fract_y
 _atom_site_fract_z
 _atom_site_occupancy
  Li  Li0  1  0.906425  0.125894  0.678739  1
  Li  Li1  1  0.093575  0.874106  0.321261  1
  Li  Li2  1  0.405381  0.370107  0.673248  1
  Li  Li3  1  0.737208  0.880436  0.008105  1
  Li  Li4  1  0.594619  0.629893  0.326752  1
  Li  Li5  1  0.262792  0.119564  0.991895  1
  Mn  Mn6  1  0.911049  0.623181  0.664795  1
  Mn  Mn7  1  0.088951  0.376819  0.335205  1
  Mn  Mn8  1  0.415858  0.884369  0.667235  1
  Mn  Mn9  1  0.746386  0.365726  0.994919  1
  Mn  Mn10  1  0.584142  0.115631  0.332765  1
  Mn  Mn11  1  0.253614  0.634274  0.005081  1
  O  O12  1  0.780688  0.371368  0.489715  1
  O  O13  1  0.731480  0.860559  0.520600  1
  O  O14  1  0.219312  0.628632  0.510285  1
  O  O15  1  0.268520  0.139441  0.479400  1
  O  O16  1  0.887366  0.137404  0.173278  1
  O  O17  1  0.919270  0.599418  0.166958  1
  O  O18  1  0.389737  0.386776  0.169429  1
  O  O19  1  0.413108  0.869034  0.163535  1
  O  O20  1  0.080730  0.400582  0.833042  1
  O  O21  1  0.112634  0.862596  0.826722  1
  O  O22  1  0.586892  0.130966  0.836465  1
  O  O23  1  0.610263  0.613224  0.830571  1
