# generated using pymatgen
data_Mg4Sc3(SiO3)8
_symmetry_space_group_name_H-M   'P 1'
_cell_length_a   5.44018470
_cell_length_b   8.97921673
_cell_length_c   9.45088408
_cell_angle_alpha   90.00000000
_cell_angle_beta   90.15075510
_cell_angle_gamma   90.00000000
_symmetry_Int_Tables_number   1
_chemical_formula_structural   Mg4Sc3(SiO3)8
_chemical_formula_sum   'Mg4 Sc3 Si8 O24'
_cell_volume   461.66083384
_cell_formula_units_Z   1
loop_
 _symmetry_equiv_pos_site_id
 _symmetry_equiv_pos_as_xyz
  1  'x, y, z'
loop_
 _atom_site_type_symbol
 _atom_site_label
 _atom_site_symmetry_multiplicity
 _atom_site_fract_x
 _atom_site_fract_y
 _atom_site_fract_z
 _atom_site_occupancy
  Mg  Mg0  1  0.500000  0.271124  0.000000  1
  Mg  Mg1  1  0.500000  0.763671  0.500000  1
  Mg  Mg2  1  0.500000  0.397299  0.500000  1
  Mg  Mg3  1  0.000000  0.235643  0.500000  1
  Sc  Sc4  1  0.500000  0.883072  0.000000  1
  Sc  Sc5  1  0.000000  0.088232  0.000000  1
  Sc  Sc6  1  0.000000  0.594928  0.500000  1
  Si  Si7  1  0.176971  0.411052  0.205700  1
  Si  Si8  1  0.677737  0.589203  0.208051  1
  Si  Si9  1  0.179387  0.913498  0.294812  1
  Si  Si10  1  0.674897  0.090919  0.297152  1
  Si  Si11  1  0.820613  0.913498  0.705188  1
  Si  Si12  1  0.325103  0.090919  0.702848  1
  Si  Si13  1  0.322263  0.589203  0.791949  1
  Si  Si14  1  0.823029  0.411052  0.794300  1
  O  O15  1  0.178571  0.920147  0.124166  1
  O  O16  1  0.661421  0.099518  0.123663  1
  O  O17  1  0.655444  0.752482  0.144598  1
  O  O18  1  0.185654  0.254155  0.120439  1
  O  O19  1  0.934660  0.506949  0.157824  1
  O  O20  1  0.448460  0.478660  0.150763  1
  O  O21  1  0.447941  0.983051  0.355145  1
  O  O22  1  0.945791  0.018764  0.350785  1
  O  O23  1  0.183301  0.757288  0.381413  1
  O  O24  1  0.685589  0.246319  0.382594  1
  O  O25  1  0.660316  0.590778  0.383773  1
  O  O26  1  0.176298  0.402181  0.380623  1
  O  O27  1  0.339684  0.590778  0.616227  1
  O  O28  1  0.823702  0.402181  0.619377  1
  O  O29  1  0.816699  0.757288  0.618587  1
  O  O30  1  0.314411  0.246319  0.617406  1
  O  O31  1  0.552059  0.983051  0.644855  1
  O  O32  1  0.054209  0.018764  0.649215  1
  O  O33  1  0.065340  0.506949  0.842176  1
  O  O34  1  0.551540  0.478660  0.849237  1
  O  O35  1  0.344556  0.752482  0.855402  1
  O  O36  1  0.814346  0.254155  0.879561  1
  O  O37  1  0.821429  0.920147  0.875834  1
  O  O38  1  0.338579  0.099518  0.876337  1
