# generated using pymatgen
data_Li2Mn3SbO8
_symmetry_space_group_name_H-M   'P 1'
_cell_length_a   8.64592100
_cell_length_b   8.64592100
_cell_length_c   8.64592100
_cell_angle_alpha   90.00000000
_cell_angle_beta   90.00000000
_cell_angle_gamma   90.00000000
_symmetry_Int_Tables_number   1
_chemical_formula_structural   Li2Mn3SbO8
_chemical_formula_sum   'Li8 Mn12 Sb4 O32'
_cell_volume   646.29945379
_cell_formula_units_Z   4
loop_
 _symmetry_equiv_pos_site_id
 _symmetry_equiv_pos_as_xyz
  1  'x, y, z'
loop_
 _atom_site_type_symbol
 _atom_site_label
 _atom_site_symmetry_multiplicity
 _atom_site_fract_x
 _atom_site_fract_y
 _atom_site_fract_z
 _atom_site_occupancy
  Li  Li0  1  0.007470  0.007470  0.007470  1
  Li  Li1  1  0.242530  0.242530  0.242530  1
  Li  Li2  1  0.257470  0.757470  0.742530  1
  Li  Li3  1  0.492530  0.992530  0.507470  1
  Li  Li4  1  0.507470  0.492530  0.992530  1
  Li  Li5  1  0.742530  0.257470  0.757470  1
  Li  Li6  1  0.757470  0.742530  0.257470  1
  Li  Li7  1  0.992530  0.507470  0.492530  1
  Mn  Mn8  1  0.123864  0.126136  0.625000  1
  Mn  Mn9  1  0.125000  0.376136  0.873864  1
  Mn  Mn10  1  0.126136  0.625000  0.123864  1
  Mn  Mn11  1  0.373864  0.375000  0.623864  1
  Mn  Mn12  1  0.375000  0.623864  0.373864  1
  Mn  Mn13  1  0.376136  0.873864  0.125000  1
  Mn  Mn14  1  0.623864  0.373864  0.375000  1
  Mn  Mn15  1  0.625000  0.123864  0.126136  1
  Mn  Mn16  1  0.626136  0.875000  0.876136  1
  Mn  Mn17  1  0.873864  0.125000  0.376136  1
  Mn  Mn18  1  0.875000  0.876136  0.626136  1
  Mn  Mn19  1  0.876136  0.626136  0.875000  1
  Sb  Sb20  1  0.125000  0.875000  0.375000  1
  Sb  Sb21  1  0.375000  0.125000  0.875000  1
  Sb  Sb22  1  0.625000  0.625000  0.625000  1
  Sb  Sb23  1  0.875000  0.375000  0.125000  1
  O  O24  1  0.106111  0.108599  0.374747  1
  O  O25  1  0.125253  0.893889  0.608599  1
  O  O26  1  0.107696  0.607696  0.892304  1
  O  O27  1  0.141401  0.143889  0.875253  1
  O  O28  1  0.108599  0.374747  0.106111  1
  O  O29  1  0.142304  0.357696  0.642304  1
  O  O30  1  0.124747  0.641401  0.356111  1
  O  O31  1  0.143889  0.875253  0.141401  1
  O  O32  1  0.356111  0.124747  0.641401  1
  O  O33  1  0.375253  0.358599  0.856111  1
  O  O34  1  0.357696  0.642304  0.142304  1
  O  O35  1  0.391401  0.625253  0.606111  1
  O  O36  1  0.358599  0.856111  0.375253  1
  O  O37  1  0.392304  0.392304  0.392304  1
  O  O38  1  0.374747  0.106111  0.108599  1
  O  O39  1  0.393889  0.891401  0.874747  1
  O  O40  1  0.606111  0.391401  0.625253  1
  O  O41  1  0.625253  0.606111  0.391401  1
  O  O42  1  0.607696  0.892304  0.107696  1
  O  O43  1  0.641401  0.356111  0.124747  1
  O  O44  1  0.608599  0.125253  0.893889  1
  O  O45  1  0.642304  0.142304  0.357696  1
  O  O46  1  0.624747  0.858599  0.643889  1
  O  O47  1  0.643889  0.624747  0.858599  1
  O  O48  1  0.856111  0.375253  0.358599  1
  O  O49  1  0.875253  0.141401  0.143889  1
  O  O50  1  0.857696  0.857696  0.857696  1
  O  O51  1  0.891401  0.874747  0.393889  1
  O  O52  1  0.858599  0.643889  0.624747  1
  O  O53  1  0.892304  0.107696  0.607696  1
  O  O54  1  0.874747  0.393889  0.891401  1
  O  O55  1  0.893889  0.608599  0.125253  1
