# generated using pymatgen
data_BaFeO3
_symmetry_space_group_name_H-M   'P 1'
_cell_length_a   13.05038105
_cell_length_b   13.05038105
_cell_length_c   13.05038105
_cell_angle_alpha   27.40377597
_cell_angle_beta   27.40377597
_cell_angle_gamma   27.40377597
_symmetry_Int_Tables_number   1
_chemical_formula_structural   BaFeO3
_chemical_formula_sum   'Ba4 Fe4 O12'
_cell_volume   415.52425587
_cell_formula_units_Z   4
loop_
 _symmetry_equiv_pos_site_id
 _symmetry_equiv_pos_as_xyz
  1  'x, y, z'
loop_
 _atom_site_type_symbol
 _atom_site_label
 _atom_site_symmetry_multiplicity
 _atom_site_fract_x
 _atom_site_fract_y
 _atom_site_fract_z
 _atom_site_occupancy
  Ba  Ba0  1  0.971516  0.971516  0.971516  1
  Ba  Ba1  1  0.563662  0.563662  0.563662  1
  Ba  Ba2  1  0.388168  0.388168  0.388168  1
  Ba  Ba3  1  0.200698  0.200698  0.200698  1
  Fe  Fe4  1  0.837651  0.837651  0.837651  1
  Fe  Fe5  1  0.766340  0.766340  0.766340  1
  Fe  Fe6  1  0.671310  0.671310  0.671310  1
  Fe  Fe7  1  0.293249  0.293249  0.293249  1
  O  O8  1  0.494716  0.494716  0.008511  1
  O  O9  1  0.494716  0.008511  0.494716  1
  O  O10  1  0.400416  0.400416  0.988832  1
  O  O11  1  0.400416  0.988832  0.400416  1
  O  O12  1  0.988832  0.400416  0.400416  1
  O  O13  1  0.154493  0.701198  0.701198  1
  O  O14  1  0.701198  0.154493  0.701198  1
  O  O15  1  0.701198  0.701198  0.154493  1
  O  O16  1  0.612203  0.071804  0.612203  1
  O  O17  1  0.071804  0.612203  0.612203  1
  O  O18  1  0.612203  0.612203  0.071804  1
  O  O19  1  0.008511  0.494716  0.494716  1
