# generated using pymatgen
data_Li2MnF5
_symmetry_space_group_name_H-M   'P 1'
_cell_length_a   6.35248257
_cell_length_b   6.91665535
_cell_length_c   9.87884377
_cell_angle_alpha   90.00000000
_cell_angle_beta   90.00000000
_cell_angle_gamma   90.00000000
_symmetry_Int_Tables_number   1
_chemical_formula_structural   Li2MnF5
_chemical_formula_sum   'Li8 Mn4 F20'
_cell_volume   434.05597127
_cell_formula_units_Z   4
loop_
 _symmetry_equiv_pos_site_id
 _symmetry_equiv_pos_as_xyz
  1  'x, y, z'
loop_
 _atom_site_type_symbol
 _atom_site_label
 _atom_site_symmetry_multiplicity
 _atom_site_fract_x
 _atom_site_fract_y
 _atom_site_fract_z
 _atom_site_occupancy
  Li  Li0  1  0.237982  0.753909  0.953766  1
  Li  Li1  1  0.760797  0.048643  0.824735  1
  Li  Li2  1  0.260797  0.548643  0.675265  1
  Li  Li3  1  0.737982  0.253909  0.546234  1
  Li  Li4  1  0.262018  0.753909  0.453766  1
  Li  Li5  1  0.739203  0.048643  0.324735  1
  Li  Li6  1  0.239203  0.548643  0.175265  1
  Li  Li7  1  0.762018  0.253909  0.046234  1
  Mn  Mn8  1  0.259435  0.237273  0.907915  1
  Mn  Mn9  1  0.759435  0.737273  0.592085  1
  Mn  Mn10  1  0.240565  0.237273  0.407915  1
  Mn  Mn11  1  0.740565  0.737273  0.092085  1
  F  F12  1  0.964025  0.229119  0.901423  1
  F  F13  1  0.554526  0.230998  0.902860  1
  F  F14  1  0.753806  0.799549  0.893545  1
  F  F15  1  0.259938  0.977110  0.858117  1
  F  F16  1  0.258178  0.514017  0.862120  1
  F  F17  1  0.759938  0.477110  0.641883  1
  F  F18  1  0.758178  0.014017  0.637880  1
  F  F19  1  0.253806  0.299549  0.606455  1
  F  F20  1  0.054526  0.730998  0.597140  1
  F  F21  1  0.464025  0.729119  0.598577  1
  F  F22  1  0.535975  0.229119  0.401423  1
  F  F23  1  0.945474  0.230998  0.402860  1
  F  F24  1  0.746194  0.799549  0.393545  1
  F  F25  1  0.240062  0.977110  0.358117  1
  F  F26  1  0.241822  0.514017  0.362120  1
  F  F27  1  0.740062  0.477110  0.141883  1
  F  F28  1  0.741822  0.014017  0.137880  1
  F  F29  1  0.246194  0.299549  0.106455  1
  F  F30  1  0.445474  0.730998  0.097140  1
  F  F31  1  0.035975  0.729119  0.098577  1
