# generated using pymatgen
data_BaTl2O4
_symmetry_space_group_name_H-M   'P 1'
_cell_length_a   6.05333165
_cell_length_b   6.05333165
_cell_length_c   11.05594230
_cell_angle_alpha   90.00000000
_cell_angle_beta   90.00000000
_cell_angle_gamma   145.48235612
_symmetry_Int_Tables_number   1
_chemical_formula_structural   BaTl2O4
_chemical_formula_sum   'Ba2 Tl4 O8'
_cell_volume   229.56583465
_cell_formula_units_Z   2
loop_
 _symmetry_equiv_pos_site_id
 _symmetry_equiv_pos_as_xyz
  1  'x, y, z'
loop_
 _atom_site_type_symbol
 _atom_site_label
 _atom_site_symmetry_multiplicity
 _atom_site_fract_x
 _atom_site_fract_y
 _atom_site_fract_z
 _atom_site_occupancy
  Ba  Ba0  1  0.891948  0.108052  0.250000  1
  Ba  Ba1  1  0.108052  0.891948  0.750000  1
  Tl  Tl2  1  0.636249  0.363751  0.432032  1
  Tl  Tl3  1  0.636249  0.363751  0.067968  1
  Tl  Tl4  1  0.363751  0.636249  0.567968  1
  Tl  Tl5  1  0.363751  0.636249  0.932032  1
  O  O6  1  0.000000  0.000000  0.000000  1
  O  O7  1  0.000000  0.000000  0.500000  1
  O  O8  1  0.560472  0.439528  0.250000  1
  O  O9  1  0.729536  0.270464  0.606835  1
  O  O10  1  0.729536  0.270464  0.893165  1
  O  O11  1  0.439528  0.560472  0.750000  1
  O  O12  1  0.270464  0.729536  0.393165  1
  O  O13  1  0.270464  0.729536  0.106835  1
