# generated using pymatgen
data_LiMnP2O7
_symmetry_space_group_name_H-M   'P 1'
_cell_length_a   7.28930169
_cell_length_b   7.89532530
_cell_length_c   9.26896142
_cell_angle_alpha   90.00000000
_cell_angle_beta   106.76903441
_cell_angle_gamma   90.00000000
_symmetry_Int_Tables_number   1
_chemical_formula_structural   LiMnP2O7
_chemical_formula_sum   'Li4 Mn4 P8 O28'
_cell_volume   510.75747045
_cell_formula_units_Z   4
loop_
 _symmetry_equiv_pos_site_id
 _symmetry_equiv_pos_as_xyz
  1  'x, y, z'
loop_
 _atom_site_type_symbol
 _atom_site_label
 _atom_site_symmetry_multiplicity
 _atom_site_fract_x
 _atom_site_fract_y
 _atom_site_fract_z
 _atom_site_occupancy
  Li  Li0  1  0.686766  0.490067  0.207639  1
  Li  Li1  1  0.686766  0.009933  0.707639  1
  Li  Li2  1  0.313234  0.990067  0.292361  1
  Li  Li3  1  0.313234  0.509933  0.792361  1
  Mn  Mn4  1  0.722711  0.008367  0.242514  1
  Mn  Mn5  1  0.722711  0.491633  0.742514  1
  Mn  Mn6  1  0.277289  0.508367  0.257486  1
  Mn  Mn7  1  0.277289  0.991633  0.757486  1
  P  P8  1  0.897142  0.269375  0.039210  1
  P  P9  1  0.897142  0.230625  0.539210  1
  P  P10  1  0.678084  0.723542  0.456821  1
  P  P11  1  0.321916  0.223542  0.043179  1
  P  P12  1  0.678084  0.776458  0.956821  1
  P  P13  1  0.321916  0.276458  0.543179  1
  P  P14  1  0.102858  0.769375  0.460790  1
  P  P15  1  0.102858  0.730625  0.960790  1
  O  O16  1  0.194122  0.613435  0.411964  1
  O  O17  1  0.912702  0.425865  0.136234  1
  O  O18  1  0.890113  0.699720  0.444276  1
  O  O19  1  0.682587  0.787626  0.123487  1
  O  O20  1  0.797949  0.207695  0.369214  1
  O  O21  1  0.194122  0.886565  0.911964  1
  O  O22  1  0.912702  0.074135  0.636234  1
  O  O23  1  0.565956  0.585865  0.355779  1
  O  O24  1  0.890113  0.800280  0.944276  1
  O  O25  1  0.388469  0.403473  0.105587  1
  O  O26  1  0.682587  0.712374  0.623487  1
  O  O27  1  0.797949  0.292305  0.869214  1
  O  O28  1  0.611531  0.903473  0.394413  1
  O  O29  1  0.434044  0.085865  0.144221  1
  O  O30  1  0.565956  0.914135  0.855779  1
  O  O31  1  0.388469  0.096527  0.605587  1
  O  O32  1  0.202051  0.707695  0.130786  1
  O  O33  1  0.317413  0.287626  0.376513  1
  O  O34  1  0.611531  0.596527  0.894413  1
  O  O35  1  0.109887  0.199720  0.055724  1
  O  O36  1  0.434044  0.414135  0.644221  1
  O  O37  1  0.087298  0.925865  0.363766  1
  O  O38  1  0.805878  0.113435  0.088036  1
  O  O39  1  0.202051  0.792305  0.630786  1
  O  O40  1  0.317413  0.212374  0.876513  1
  O  O41  1  0.109887  0.300280  0.555724  1
  O  O42  1  0.087298  0.574135  0.863766  1
  O  O43  1  0.805878  0.386565  0.588036  1
