# generated using pymatgen
data_Li2CuPO4
_symmetry_space_group_name_H-M   'P 1'
_cell_length_a   5.33748167
_cell_length_b   4.90534614
_cell_length_c   6.87832492
_cell_angle_alpha   90.00000000
_cell_angle_beta   92.21007841
_cell_angle_gamma   90.00000000
_symmetry_Int_Tables_number   1
_chemical_formula_structural   Li2CuPO4
_chemical_formula_sum   'Li4 Cu2 P2 O8'
_cell_volume   179.95568514
_cell_formula_units_Z   2
loop_
 _symmetry_equiv_pos_site_id
 _symmetry_equiv_pos_as_xyz
  1  'x, y, z'
loop_
 _atom_site_type_symbol
 _atom_site_label
 _atom_site_symmetry_multiplicity
 _atom_site_fract_x
 _atom_site_fract_y
 _atom_site_fract_z
 _atom_site_occupancy
  Li  Li0  1  0.086732  0.964059  0.823703  1
  Li  Li1  1  0.200611  0.493001  0.511663  1
  Li  Li2  1  0.799389  0.993001  0.488337  1
  Li  Li3  1  0.913268  0.464059  0.176297  1
  Cu  Cu4  1  0.336092  0.533706  0.999874  1
  Cu  Cu5  1  0.663908  0.033706  0.000126  1
  P  P6  1  0.272532  0.994757  0.262922  1
  P  P7  1  0.727468  0.494757  0.737078  1
  O  O8  1  0.141767  0.136264  0.081882  1
  O  O9  1  0.156792  0.103892  0.449422  1
  O  O10  1  0.228224  0.676851  0.250973  1
  O  O11  1  0.562817  0.051433  0.265818  1
  O  O12  1  0.437183  0.551433  0.734182  1
  O  O13  1  0.771776  0.176851  0.749027  1
  O  O14  1  0.843208  0.603892  0.550578  1
  O  O15  1  0.858233  0.636264  0.918118  1
