# generated using pymatgen
data_Li6Ti2O7
_symmetry_space_group_name_H-M   'P 1'
_cell_length_a   10.08878439
_cell_length_b   10.08878439
_cell_length_c   2.96324059
_cell_angle_alpha   90.00000000
_cell_angle_beta   90.00000000
_cell_angle_gamma   90.00000000
_symmetry_Int_Tables_number   1
_chemical_formula_structural   Li6Ti2O7
_chemical_formula_sum   'Li12 Ti4 O14'
_cell_volume   301.60920741
_cell_formula_units_Z   2
loop_
 _symmetry_equiv_pos_site_id
 _symmetry_equiv_pos_as_xyz
  1  'x, y, z'
loop_
 _atom_site_type_symbol
 _atom_site_label
 _atom_site_symmetry_multiplicity
 _atom_site_fract_x
 _atom_site_fract_y
 _atom_site_fract_z
 _atom_site_occupancy
  Li  Li0  1  0.300160  0.107907  0.031752  1
  Li  Li1  1  0.085076  0.085076  0.535251  1
  Li  Li2  1  0.607907  0.199840  0.531752  1
  Li  Li3  1  0.107907  0.300160  0.031752  1
  Li  Li4  1  0.585076  0.414924  0.035251  1
  Li  Li5  1  0.800160  0.392093  0.531752  1
  Li  Li6  1  0.199840  0.607907  0.531752  1
  Li  Li7  1  0.414924  0.585076  0.035251  1
  Li  Li8  1  0.892093  0.699840  0.031752  1
  Li  Li9  1  0.392093  0.800160  0.531752  1
  Li  Li10  1  0.914924  0.914924  0.535251  1
  Li  Li11  1  0.699840  0.892093  0.031752  1
  Ti  Ti12  1  0.847102  0.152898  0.048147  1
  Ti  Ti13  1  0.347102  0.347102  0.548147  1
  Ti  Ti14  1  0.652898  0.652898  0.548147  1
  Ti  Ti15  1  0.152898  0.847102  0.048147  1
  O  O16  1  0.000000  0.000000  0.035221  1
  O  O17  1  0.755478  0.053187  0.530117  1
  O  O18  1  0.446813  0.255478  0.030117  1
  O  O19  1  0.218311  0.218311  0.531779  1
  O  O20  1  0.718311  0.281689  0.031779  1
  O  O21  1  0.946813  0.244522  0.530117  1
  O  O22  1  0.255478  0.446813  0.030117  1
  O  O23  1  0.500000  0.500000  0.535221  1
  O  O24  1  0.744522  0.553187  0.030117  1
  O  O25  1  0.053187  0.755478  0.530117  1
  O  O26  1  0.281689  0.718311  0.031779  1
  O  O27  1  0.781689  0.781689  0.531779  1
  O  O28  1  0.553187  0.744522  0.030117  1
  O  O29  1  0.244522  0.946813  0.530117  1
