# generated using pymatgen
data_Li3Ti2(NiO4)2
_symmetry_space_group_name_H-M   'P 1'
_cell_length_a   5.87193715
_cell_length_b   5.87193715
_cell_length_c   5.90393403
_cell_angle_alpha   60.03497060
_cell_angle_beta   119.96502940
_cell_angle_gamma   120.10695658
_symmetry_Int_Tables_number   1
_chemical_formula_structural   Li3Ti2(NiO4)2
_chemical_formula_sum   'Li3 Ti2 Ni2 O8'
_cell_volume   143.90172577
_cell_formula_units_Z   1
loop_
 _symmetry_equiv_pos_site_id
 _symmetry_equiv_pos_as_xyz
  1  'x, y, z'
loop_
 _atom_site_type_symbol
 _atom_site_label
 _atom_site_symmetry_multiplicity
 _atom_site_fract_x
 _atom_site_fract_y
 _atom_site_fract_z
 _atom_site_occupancy
  Li  Li0  1  0.000000  0.000000  0.500000  1
  Li  Li1  1  0.000000  0.500000  0.000000  1
  Li  Li2  1  0.500000  0.000000  0.000000  1
  Ti  Ti3  1  0.000000  0.500000  0.500000  1
  Ti  Ti4  1  0.500000  1.000000  0.500000  1
  Ni  Ni5  1  0.500000  0.500000  0.500000  1
  Ni  Ni6  1  0.500000  0.500000  0.000000  1
  O  O7  1  0.751299  0.248701  0.270772  1
  O  O8  1  0.286471  0.262100  0.281039  1
  O  O9  1  0.737900  0.713529  0.281039  1
  O  O10  1  0.755872  0.244128  0.729439  1
  O  O11  1  0.244128  0.755872  0.270561  1
  O  O12  1  0.262100  0.286471  0.718961  1
  O  O13  1  0.713529  0.737900  0.718961  1
  O  O14  1  0.248701  0.751299  0.729228  1
