# generated using pymatgen
data_Fe6O5F7
_symmetry_space_group_name_H-M   'P 1'
_cell_length_a   4.79378424
_cell_length_b   5.72794318
_cell_length_c   7.83666079
_cell_angle_alpha   85.48276412
_cell_angle_beta   88.97838806
_cell_angle_gamma   87.71179324
_symmetry_Int_Tables_number   1
_chemical_formula_structural   Fe6O5F7
_chemical_formula_sum   'Fe6 O5 F7'
_cell_volume   214.32036935
_cell_formula_units_Z   1
loop_
 _symmetry_equiv_pos_site_id
 _symmetry_equiv_pos_as_xyz
  1  'x, y, z'
loop_
 _atom_site_type_symbol
 _atom_site_label
 _atom_site_symmetry_multiplicity
 _atom_site_fract_x
 _atom_site_fract_y
 _atom_site_fract_z
 _atom_site_occupancy
  Fe  Fe0  1  0.496398  0.168744  0.335963  1
  Fe  Fe1  1  0.471762  0.487431  0.999923  1
  Fe  Fe2  1  0.546784  0.836423  0.659386  1
  Fe  Fe3  1  0.010432  0.660504  0.327355  1
  Fe  Fe4  1  0.930060  0.333517  0.671658  1
  Fe  Fe5  1  0.039812  0.017236  0.008122  1
  O  O6  1  0.807418  0.628710  0.564145  1
  O  O7  1  0.801322  0.290494  0.904169  1
  O  O8  1  0.692731  0.126415  0.555373  1
  O  O9  1  0.302746  0.209058  0.116897  1
  O  O10  1  0.200396  0.712952  0.087507  1
  F  F11  1  0.793681  0.974332  0.224482  1
  F  F12  1  0.692471  0.794191  0.896378  1
  F  F13  1  0.686239  0.460424  0.233870  1
  F  F14  1  0.310410  0.872932  0.437366  1
  F  F15  1  0.312828  0.541382  0.761337  1
  F  F16  1  0.203069  0.033509  0.763403  1
  F  F17  1  0.201441  0.351745  0.452668  1
