# generated using pymatgen
data_WOF4
_symmetry_space_group_name_H-M   'P 1'
_cell_length_a   11.07890773
_cell_length_b   5.12076547
_cell_length_c   16.24758811
_cell_angle_alpha   90.00000000
_cell_angle_beta   116.38144146
_cell_angle_gamma   90.00000000
_symmetry_Int_Tables_number   1
_chemical_formula_structural   WOF4
_chemical_formula_sum   'W8 O8 F32'
_cell_volume   825.76944620
_cell_formula_units_Z   8
loop_
 _symmetry_equiv_pos_site_id
 _symmetry_equiv_pos_as_xyz
  1  'x, y, z'
loop_
 _atom_site_type_symbol
 _atom_site_label
 _atom_site_symmetry_multiplicity
 _atom_site_fract_x
 _atom_site_fract_y
 _atom_site_fract_z
 _atom_site_occupancy
  W  W0  1  0.581101  0.075007  0.420951  1
  W  W1  1  0.418899  0.575007  0.079049  1
  W  W2  1  0.917433  0.016034  0.829147  1
  W  W3  1  0.082567  0.516034  0.670853  1
  W  W4  1  0.917433  0.483966  0.329147  1
  W  W5  1  0.082567  0.983966  0.170853  1
  W  W6  1  0.581101  0.424993  0.920951  1
  W  W7  1  0.418899  0.924993  0.579049  1
  O  O8  1  0.179576  0.198823  0.145215  1
  O  O9  1  0.313741  0.788051  0.097240  1
  O  O10  1  0.686259  0.288051  0.402760  1
  O  O11  1  0.820424  0.698823  0.354785  1
  O  O12  1  0.179576  0.301177  0.645215  1
  O  O13  1  0.313741  0.711949  0.597240  1
  O  O14  1  0.686259  0.211949  0.902760  1
  O  O15  1  0.820424  0.801177  0.854785  1
  F  F16  1  0.413417  0.243824  0.356992  1
  F  F17  1  0.575274  0.207929  0.531444  1
  F  F18  1  0.296189  0.325788  0.001147  1
  F  F19  1  0.793343  0.263872  0.751017  1
  F  F20  1  0.529149  0.837588  0.323102  1
  F  F21  1  0.470851  0.337588  0.176898  1
  F  F22  1  0.971874  0.265717  0.924072  1
  F  F23  1  0.703811  0.825788  0.498853  1
  F  F24  1  0.916554  0.863338  0.720667  1
  F  F25  1  0.586583  0.743824  0.143008  1
  F  F26  1  0.091314  0.870595  0.891073  1
  F  F27  1  0.908686  0.370595  0.608927  1
  F  F28  1  0.575274  0.292071  0.031444  1
  F  F29  1  0.083446  0.363338  0.779333  1
  F  F30  1  0.793343  0.236128  0.251017  1
  F  F31  1  0.028126  0.765717  0.575928  1
  F  F32  1  0.971874  0.234283  0.424072  1
  F  F33  1  0.206657  0.763872  0.748983  1
  F  F34  1  0.916554  0.636662  0.220667  1
  F  F35  1  0.424726  0.707929  0.968556  1
  F  F36  1  0.091314  0.629405  0.391073  1
  F  F37  1  0.908686  0.129405  0.108927  1
  F  F38  1  0.413417  0.256176  0.856992  1
  F  F39  1  0.083446  0.136662  0.279333  1
  F  F40  1  0.296189  0.174212  0.501147  1
  F  F41  1  0.028126  0.734283  0.075928  1
  F  F42  1  0.529149  0.662412  0.823102  1
  F  F43  1  0.470851  0.162412  0.676898  1
  F  F44  1  0.206657  0.736128  0.248983  1
  F  F45  1  0.703811  0.674212  0.998853  1
  F  F46  1  0.424726  0.792071  0.468556  1
  F  F47  1  0.586583  0.756176  0.643008  1
