# generated using pymatgen
data_Mg2(TeO3)3
_symmetry_space_group_name_H-M   'P 1'
_cell_length_a   9.18411539
_cell_length_b   7.25875756
_cell_length_c   12.59304160
_cell_angle_alpha   90.00000000
_cell_angle_beta   121.94867922
_cell_angle_gamma   90.00000000
_symmetry_Int_Tables_number   1
_chemical_formula_structural   Mg2(TeO3)3
_chemical_formula_sum   'Mg8 Te12 O36'
_cell_volume   712.35024740
_cell_formula_units_Z   4
loop_
 _symmetry_equiv_pos_site_id
 _symmetry_equiv_pos_as_xyz
  1  'x, y, z'
loop_
 _atom_site_type_symbol
 _atom_site_label
 _atom_site_symmetry_multiplicity
 _atom_site_fract_x
 _atom_site_fract_y
 _atom_site_fract_z
 _atom_site_occupancy
  Mg  Mg0  1  0.395515  0.869111  0.859070  1
  Mg  Mg1  1  0.404813  0.376961  0.862291  1
  Mg  Mg2  1  0.595187  0.876961  0.637709  1
  Mg  Mg3  1  0.604485  0.369111  0.640930  1
  Mg  Mg4  1  0.395515  0.630889  0.359070  1
  Mg  Mg5  1  0.404813  0.123039  0.362291  1
  Mg  Mg6  1  0.595187  0.623039  0.137709  1
  Mg  Mg7  1  0.604485  0.130889  0.140930  1
  Te  Te8  1  0.004354  0.126921  0.751469  1
  Te  Te9  1  0.223236  0.114788  0.559499  1
  Te  Te10  1  0.239671  0.619140  0.571475  1
  Te  Te11  1  0.004354  0.373079  0.251469  1
  Te  Te12  1  0.760329  0.119140  0.928525  1
  Te  Te13  1  0.776764  0.614788  0.940501  1
  Te  Te14  1  0.223236  0.385212  0.059499  1
  Te  Te15  1  0.239671  0.880860  0.071475  1
  Te  Te16  1  0.995646  0.626921  0.748531  1
  Te  Te17  1  0.760329  0.380860  0.428525  1
  Te  Te18  1  0.776764  0.885212  0.440501  1
  Te  Te19  1  0.995646  0.873079  0.248531  1
  O  O20  1  0.069359  0.566382  0.925116  1
  O  O21  1  0.083086  0.191730  0.925719  1
  O  O22  1  0.040669  0.876149  0.814411  1
  O  O23  1  0.227593  0.613466  0.792141  1
  O  O24  1  0.238472  0.133461  0.794815  1
  O  O25  1  0.069359  0.933618  0.425116  1
  O  O26  1  0.083086  0.308270  0.425719  1
  O  O27  1  0.040669  0.623851  0.314411  1
  O  O28  1  0.327027  0.844520  0.670300  1
  O  O29  1  0.362529  0.412442  0.677268  1
  O  O30  1  0.582641  0.140524  0.966299  1
  O  O31  1  0.582336  0.611913  0.958098  1
  O  O32  1  0.417664  0.111913  0.541902  1
  O  O33  1  0.417359  0.640524  0.533701  1
  O  O34  1  0.227593  0.886534  0.292141  1
  O  O35  1  0.637471  0.912442  0.822732  1
  O  O36  1  0.238472  0.366539  0.294815  1
  O  O37  1  0.672973  0.344520  0.829700  1
  O  O38  1  0.327027  0.655480  0.170300  1
  O  O39  1  0.761528  0.633461  0.705185  1
  O  O40  1  0.362529  0.087558  0.177268  1
  O  O41  1  0.772407  0.113466  0.707859  1
  O  O42  1  0.582641  0.359476  0.466299  1
  O  O43  1  0.582336  0.888087  0.458098  1
  O  O44  1  0.417664  0.388087  0.041902  1
  O  O45  1  0.417359  0.859476  0.033701  1
  O  O46  1  0.637471  0.587558  0.322732  1
  O  O47  1  0.672973  0.155480  0.329700  1
  O  O48  1  0.959331  0.376149  0.685589  1
  O  O49  1  0.916914  0.691730  0.574281  1
  O  O50  1  0.930641  0.066382  0.574884  1
  O  O51  1  0.761528  0.866539  0.205185  1
  O  O52  1  0.772407  0.386534  0.207859  1
  O  O53  1  0.959331  0.123851  0.185589  1
  O  O54  1  0.916914  0.808270  0.074281  1
  O  O55  1  0.930641  0.433618  0.074884  1
