# generated using pymatgen
data_ErBO3
_symmetry_space_group_name_H-M   'P 1'
_cell_length_a   3.91566631
_cell_length_b   3.91566631
_cell_length_c   8.60604530
_cell_angle_alpha   90.00000000
_cell_angle_beta   90.00000000
_cell_angle_gamma   117.34165948
_symmetry_Int_Tables_number   1
_chemical_formula_structural   ErBO3
_chemical_formula_sum   'Er2 B2 O6'
_cell_volume   117.21051630
_cell_formula_units_Z   2
loop_
 _symmetry_equiv_pos_site_id
 _symmetry_equiv_pos_as_xyz
  1  'x, y, z'
loop_
 _atom_site_type_symbol
 _atom_site_label
 _atom_site_symmetry_multiplicity
 _atom_site_fract_x
 _atom_site_fract_y
 _atom_site_fract_z
 _atom_site_occupancy
  Er  Er0  1  0.051380  0.051380  0.500000  1
  Er  Er1  1  0.051380  0.051380  0.000000  1
  B  B2  1  0.502462  0.759818  0.750000  1
  B  B3  1  0.759818  0.502462  0.250000  1
  O  O4  1  0.333829  0.675253  0.602617  1
  O  O5  1  0.333829  0.675253  0.897383  1
  O  O6  1  0.895902  0.962118  0.750000  1
  O  O7  1  0.675253  0.333829  0.102617  1
  O  O8  1  0.675253  0.333829  0.397383  1
  O  O9  1  0.962118  0.895902  0.250000  1
