# generated using pymatgen
data_LiFe2(BO3)2
_symmetry_space_group_name_H-M   'P 1'
_cell_length_a   5.24665356
_cell_length_b   9.11349174
_cell_length_c   11.33475663
_cell_angle_alpha   112.81580937
_cell_angle_beta   103.08971694
_cell_angle_gamma   89.36196464
_symmetry_Int_Tables_number   1
_chemical_formula_structural   LiFe2(BO3)2
_chemical_formula_sum   'Li4 Fe8 B8 O24'
_cell_volume   484.81027034
_cell_formula_units_Z   4
loop_
 _symmetry_equiv_pos_site_id
 _symmetry_equiv_pos_as_xyz
  1  'x, y, z'
loop_
 _atom_site_type_symbol
 _atom_site_label
 _atom_site_symmetry_multiplicity
 _atom_site_fract_x
 _atom_site_fract_y
 _atom_site_fract_z
 _atom_site_occupancy
  Li  Li0  1  0.285336  0.277019  0.900368  1
  Li  Li1  1  0.472160  0.489089  0.633689  1
  Li  Li2  1  0.782262  0.780045  0.905163  1
  Li  Li3  1  0.771488  0.752571  0.165847  1
  Fe  Fe4  1  0.015602  0.355299  0.374961  1
  Fe  Fe5  1  0.267843  0.934592  0.879746  1
  Fe  Fe6  1  0.487896  0.146128  0.629365  1
  Fe  Fe7  1  0.250791  0.553362  0.133438  1
  Fe  Fe8  1  0.762266  0.440861  0.882232  1
  Fe  Fe9  1  0.510645  0.848757  0.379960  1
  Fe  Fe10  1  0.965134  0.661346  0.626667  1
  Fe  Fe11  1  0.749057  0.076709  0.133992  1
  B  B12  1  0.017847  0.683260  0.375352  1
  B  B13  1  0.263873  0.604825  0.874147  1
  B  B14  1  0.466272  0.814893  0.634028  1
  B  B15  1  0.235631  0.888065  0.121731  1
  B  B16  1  0.529023  0.192629  0.387025  1
  B  B17  1  0.771656  0.098764  0.874358  1
  B  B18  1  0.988924  0.319620  0.631417  1
  B  B19  1  0.734671  0.400610  0.125931  1
  O  O20  1  0.034086  0.098687  0.878859  1
  O  O21  1  0.105969  0.720136  0.846783  1
  O  O22  1  0.158763  0.496309  0.911675  1
  O  O23  1  0.152042  0.208316  0.650404  1
  O  O24  1  0.071720  0.428831  0.586728  1
  O  O25  1  0.245878  0.847346  0.685841  1
  O  O26  1  0.258226  0.676594  0.342543  1
  O  O27  1  0.520376  0.605035  0.862555  1
  O  O28  1  0.618003  0.203634  0.831483  1
  O  O29  1  0.463448  0.076030  0.431454  1
  O  O30  1  0.371561  0.313230  0.393449  1
  O  O31  1  0.651658  0.995800  0.914237  1
  O  O32  1  0.358937  0.978121  0.072569  1
  O  O33  1  0.600631  0.688132  0.636615  1
  O  O34  1  0.545130  0.918574  0.580912  1
  O  O35  1  0.393851  0.795661  0.178626  1
  O  O36  1  0.468255  0.374409  0.096558  1
  O  O37  1  0.738434  0.328223  0.659810  1
  O  O38  1  0.756733  0.181836  0.342469  1
  O  O39  1  0.949645  0.577241  0.424839  1
  O  O40  1  0.849052  0.792220  0.355766  1
  O  O41  1  0.848358  0.515055  0.093992  1
  O  O42  1  0.895557  0.307811  0.180568  1
  O  O43  1  0.967860  0.884367  0.110336  1
