# generated using pymatgen
data_Li4Mn3V2Sb3O16
_symmetry_space_group_name_H-M   'P 1'
_cell_length_a   6.15179518
_cell_length_b   6.24524849
_cell_length_c   9.81734212
_cell_angle_alpha   92.53576784
_cell_angle_beta   89.95937958
_cell_angle_gamma   119.16156995
_symmetry_Int_Tables_number   1
_chemical_formula_structural   Li4Mn3V2Sb3O16
_chemical_formula_sum   'Li4 Mn3 V2 Sb3 O16'
_cell_volume   328.95321096
_cell_formula_units_Z   1
loop_
 _symmetry_equiv_pos_site_id
 _symmetry_equiv_pos_as_xyz
  1  'x, y, z'
loop_
 _atom_site_type_symbol
 _atom_site_label
 _atom_site_symmetry_multiplicity
 _atom_site_fract_x
 _atom_site_fract_y
 _atom_site_fract_z
 _atom_site_occupancy
  Li  Li0  1  0.658375  0.322738  0.885643  1
  Li  Li1  1  0.991519  0.976800  0.985339  1
  Li  Li2  1  0.999786  0.995086  0.502917  1
  Li  Li3  1  0.316712  0.638026  0.403789  1
  Mn  Mn4  1  0.829517  0.661344  0.213712  1
  Mn  Mn5  1  0.168073  0.829514  0.710288  1
  Mn  Mn6  1  0.664998  0.839371  0.709527  1
  V  V7  1  0.681049  0.356051  0.499197  1
  V  V8  1  0.346717  0.701817  0.973200  1
  Sb  Sb9  1  0.337399  0.168195  0.216313  1
  Sb  Sb10  1  0.831667  0.166619  0.214457  1
  Sb  Sb11  1  0.171790  0.344520  0.716292  1
  O  O12  1  0.342066  0.194020  0.597012  1
  O  O13  1  0.519817  0.036905  0.336505  1
  O  O14  1  0.652642  0.306424  0.102221  1
  O  O15  1  0.010500  0.017941  0.317611  1
  O  O16  1  0.023190  0.016576  0.803256  1
  O  O17  1  0.855451  0.183800  0.598729  1
  O  O18  1  0.501828  0.463294  0.341094  1
  O  O19  1  0.956670  0.457712  0.341642  1
  O  O20  1  0.155725  0.308893  0.106407  1
  O  O21  1  0.854090  0.676911  0.588579  1
  O  O22  1  0.030102  0.502124  0.846405  1
  O  O23  1  0.466787  0.511626  0.850836  1
  O  O24  1  0.313500  0.651716  0.606747  1
  O  O25  1  0.178777  0.856941  0.098910  1
  O  O26  1  0.454535  0.952945  0.845056  1
  O  O27  1  0.686426  0.862096  0.096157  1
