# generated using pymatgen
data_Li2Co(SiO3)2
_symmetry_space_group_name_H-M   'P 1'
_cell_length_a   5.49910373
_cell_length_b   4.78309315
_cell_length_c   9.71412523
_cell_angle_alpha   90.00000000
_cell_angle_beta   92.80655098
_cell_angle_gamma   90.00000000
_symmetry_Int_Tables_number   1
_chemical_formula_structural   Li2Co(SiO3)2
_chemical_formula_sum   'Li4 Co2 Si4 O12'
_cell_volume   255.20149791
_cell_formula_units_Z   2
loop_
 _symmetry_equiv_pos_site_id
 _symmetry_equiv_pos_as_xyz
  1  'x, y, z'
loop_
 _atom_site_type_symbol
 _atom_site_label
 _atom_site_symmetry_multiplicity
 _atom_site_fract_x
 _atom_site_fract_y
 _atom_site_fract_z
 _atom_site_occupancy
  Li  Li0  1  0.645389  0.201447  0.833607  1
  Li  Li1  1  0.837623  0.701079  0.986837  1
  Li  Li2  1  0.162377  0.201079  0.013163  1
  Li  Li3  1  0.354611  0.701447  0.166393  1
  Co  Co4  1  0.766572  0.694595  0.647943  1
  Co  Co5  1  0.233428  0.194595  0.352057  1
  Si  Si6  1  0.122980  0.209333  0.676545  1
  Si  Si7  1  0.306090  0.707191  0.839194  1
  Si  Si8  1  0.693910  0.207191  0.160806  1
  Si  Si9  1  0.877020  0.709333  0.323455  1
  O  O10  1  0.261725  0.279290  0.541354  1
  O  O11  1  0.842661  0.302555  0.687914  1
  O  O12  1  0.126129  0.864913  0.717625  1
  O  O13  1  0.281891  0.358993  0.813986  1
  O  O14  1  0.589805  0.792693  0.820605  1
  O  O15  1  0.199502  0.783605  0.986496  1
  O  O16  1  0.800498  0.283605  0.013504  1
  O  O17  1  0.410195  0.292693  0.179395  1
  O  O18  1  0.718109  0.858993  0.186014  1
  O  O19  1  0.873871  0.364913  0.282375  1
  O  O20  1  0.157339  0.802555  0.312086  1
  O  O21  1  0.738275  0.779290  0.458646  1
