# generated using pymatgen
data_CaB3H13O12
_symmetry_space_group_name_H-M   'P 1'
_cell_length_a   8.39379508
_cell_length_b   12.11318039
_cell_length_c   10.66701792
_cell_angle_alpha   90.00000000
_cell_angle_beta   114.19641473
_cell_angle_gamma   90.00000000
_symmetry_Int_Tables_number   1
_chemical_formula_structural   CaB3H13O12
_chemical_formula_sum   'Ca4 B12 H52 O48'
_cell_volume   989.29045365
_cell_formula_units_Z   4
loop_
 _symmetry_equiv_pos_site_id
 _symmetry_equiv_pos_as_xyz
  1  'x, y, z'
loop_
 _atom_site_type_symbol
 _atom_site_label
 _atom_site_symmetry_multiplicity
 _atom_site_fract_x
 _atom_site_fract_y
 _atom_site_fract_z
 _atom_site_occupancy
  Ca  Ca0  1  0.838910  0.871271  0.979439  1
  Ca  Ca1  1  0.838910  0.628729  0.479439  1
  Ca  Ca2  1  0.161090  0.128729  0.020561  1
  Ca  Ca3  1  0.161090  0.371271  0.520561  1
  B  B4  1  0.833580  0.107624  0.079887  1
  B  B5  1  0.833580  0.392376  0.579887  1
  B  B6  1  0.166420  0.892376  0.920113  1
  B  B7  1  0.166420  0.607624  0.420113  1
  B  B8  1  0.026854  0.962500  0.263347  1
  B  B9  1  0.026854  0.537500  0.763347  1
  B  B10  1  0.973146  0.037500  0.736653  1
  B  B11  1  0.973146  0.462500  0.236653  1
  B  B12  1  0.794994  0.073051  0.295399  1
  B  B13  1  0.794994  0.426949  0.795399  1
  B  B14  1  0.205006  0.926949  0.704601  1
  B  B15  1  0.205006  0.573051  0.204601  1
  H  H16  1  0.824359  0.257120  0.976173  1
  H  H17  1  0.824359  0.242880  0.476173  1
  H  H18  1  0.175641  0.742880  0.023827  1
  H  H19  1  0.175641  0.757120  0.523827  1
  H  H20  1  0.677598  0.097846  0.868559  1
  H  H21  1  0.677598  0.402154  0.368559  1
  H  H22  1  0.322402  0.902154  0.131441  1
  H  H23  1  0.322402  0.597846  0.631441  1
  H  H24  1  0.038223  0.793340  0.292509  1
  H  H25  1  0.038223  0.706660  0.792509  1
  H  H26  1  0.961777  0.206660  0.707491  1
  H  H27  1  0.961777  0.293340  0.207491  1
  H  H28  1  0.292572  0.934835  0.350184  1
  H  H29  1  0.292572  0.565165  0.850184  1
  H  H30  1  0.707428  0.065165  0.649816  1
  H  H31  1  0.707428  0.434835  0.149816  1
  H  H32  1  0.749101  0.062054  0.467425  1
  H  H33  1  0.749101  0.437946  0.967425  1
  H  H34  1  0.250899  0.937946  0.532575  1
  H  H35  1  0.250899  0.562054  0.032575  1
  H  H36  1  0.838927  0.622023  0.909224  1
  H  H37  1  0.838927  0.877977  0.409224  1
  H  H38  1  0.161073  0.377977  0.090776  1
  H  H39  1  0.161073  0.122023  0.590776  1
  H  H40  1  0.795129  0.617925  0.036660  1
  H  H41  1  0.795129  0.882075  0.536660  1
  H  H42  1  0.204871  0.382075  0.963340  1
  H  H43  1  0.204871  0.117925  0.463340  1
  H  H44  1  0.690775  0.906151  0.690528  1
  H  H45  1  0.690775  0.593849  0.190528  1
  H  H46  1  0.309225  0.093849  0.309472  1
  H  H47  1  0.309225  0.406151  0.809472  1
  H  H48  1  0.517432  0.863444  0.699242  1
  H  H49  1  0.517432  0.636556  0.199242  1
  H  H50  1  0.482568  0.136556  0.300758  1
  H  H51  1  0.482568  0.363444  0.800758  1
  H  H52  1  0.507809  0.887424  0.041317  1
  H  H53  1  0.507809  0.612576  0.541317  1
  H  H54  1  0.492191  0.112576  0.958683  1
  H  H55  1  0.492191  0.387424  0.458683  1
  H  H56  1  0.626350  0.789820  0.128741  1
  H  H57  1  0.626350  0.710180  0.628741  1
  H  H58  1  0.373650  0.210180  0.871259  1
  H  H59  1  0.373650  0.289820  0.371259  1
  H  H60  1  0.358806  0.764608  0.316431  1
  H  H61  1  0.358806  0.735392  0.816431  1
  H  H62  1  0.641194  0.235392  0.683569  1
  H  H63  1  0.641194  0.264608  0.183569  1
  H  H64  1  0.537426  0.831171  0.361914  1
  H  H65  1  0.537426  0.668829  0.861914  1
  H  H66  1  0.462574  0.168829  0.638086  1
  H  H67  1  0.462574  0.331171  0.138086  1
  O  O68  1  0.907844  0.208877  0.046348  1
  O  O69  1  0.907844  0.291123  0.546348  1
  O  O70  1  0.092156  0.791123  0.953652  1
  O  O71  1  0.092156  0.708877  0.453652  1
  O  O72  1  0.696084  0.057246  0.953665  1
  O  O73  1  0.696084  0.442754  0.453665  1
  O  O74  1  0.303916  0.942754  0.046335  1
  O  O75  1  0.303916  0.557246  0.546335  1
  O  O76  1  0.013166  0.847626  0.217946  1
  O  O77  1  0.013166  0.652374  0.717946  1
  O  O78  1  0.986834  0.152374  0.782054  1
  O  O79  1  0.986834  0.347626  0.282054  1
  O  O80  1  0.211054  0.987144  0.367641  1
  O  O81  1  0.211054  0.512856  0.867641  1
  O  O82  1  0.788946  0.012856  0.632359  1
  O  O83  1  0.788946  0.487144  0.132359  1
  O  O84  1  0.710759  0.104221  0.379157  1
  O  O85  1  0.710759  0.395779  0.879157  1
  O  O86  1  0.289241  0.895779  0.620843  1
  O  O87  1  0.289241  0.604221  0.120843  1
  O  O88  1  0.784491  0.666786  0.959971  1
  O  O89  1  0.784491  0.833214  0.459971  1
  O  O90  1  0.215509  0.333214  0.040029  1
  O  O91  1  0.215509  0.166786  0.540029  1
  O  O92  1  0.644413  0.848544  0.734228  1
  O  O93  1  0.644413  0.651456  0.234228  1
  O  O94  1  0.355587  0.151456  0.265772  1
  O  O95  1  0.355587  0.348544  0.765772  1
  O  O96  1  0.616001  0.845220  0.058649  1
  O  O97  1  0.616001  0.654780  0.558649  1
  O  O98  1  0.383999  0.154780  0.941351  1
  O  O99  1  0.383999  0.345220  0.441351  1
  O  O100  1  0.409054  0.837226  0.309642  1
  O  O101  1  0.409054  0.662774  0.809642  1
  O  O102  1  0.590946  0.162774  0.690358  1
  O  O103  1  0.590946  0.337226  0.190358  1
  O  O104  1  0.981434  0.030164  0.138444  1
  O  O105  1  0.981434  0.469836  0.638444  1
  O  O106  1  0.018566  0.969836  0.861556  1
  O  O107  1  0.018566  0.530164  0.361556  1
  O  O108  1  0.755648  0.133872  0.178934  1
  O  O109  1  0.755648  0.366128  0.678934  1
  O  O110  1  0.244352  0.866128  0.821066  1
  O  O111  1  0.244352  0.633872  0.321066  1
  O  O112  1  0.910737  0.986841  0.334340  1
  O  O113  1  0.910737  0.513159  0.834340  1
  O  O114  1  0.089263  0.013159  0.665660  1
  O  O115  1  0.089263  0.486841  0.165660  1
