# generated using pymatgen
data_Mn2O3F
_symmetry_space_group_name_H-M   'P 1'
_cell_length_a   4.57351662
_cell_length_b   6.05903159
_cell_length_c   9.61620064
_cell_angle_alpha   108.28635111
_cell_angle_beta   90.97211828
_cell_angle_gamma   89.99558574
_symmetry_Int_Tables_number   1
_chemical_formula_structural   Mn2O3F
_chemical_formula_sum   'Mn8 O12 F4'
_cell_volume   252.97810477
_cell_formula_units_Z   4
loop_
 _symmetry_equiv_pos_site_id
 _symmetry_equiv_pos_as_xyz
  1  'x, y, z'
loop_
 _atom_site_type_symbol
 _atom_site_label
 _atom_site_symmetry_multiplicity
 _atom_site_fract_x
 _atom_site_fract_y
 _atom_site_fract_z
 _atom_site_occupancy
  Mn  Mn0  1  0.528794  0.866796  0.238490  1
  Mn  Mn1  1  0.478188  0.384547  0.263119  1
  Mn  Mn2  1  0.491087  0.127911  0.743919  1
  Mn  Mn3  1  0.470471  0.618131  0.753902  1
  Mn  Mn4  1  0.009003  0.499037  0.994964  1
  Mn  Mn5  1  0.989029  0.245287  0.497504  1
  Mn  Mn6  1  0.030200  0.001611  0.005466  1
  Mn  Mn7  1  0.997308  0.753808  0.500915  1
  O  O8  1  0.187882  0.454472  0.408586  1
  O  O9  1  0.195664  0.699564  0.901652  1
  O  O10  1  0.193480  0.200330  0.902149  1
  O  O11  1  0.316225  0.080124  0.156061  1
  O  O12  1  0.310208  0.575504  0.153957  1
  O  O13  1  0.299795  0.323834  0.650868  1
  O  O14  1  0.305722  0.826815  0.655509  1
  O  O15  1  0.694202  0.171691  0.343221  1
  O  O16  1  0.685135  0.421308  0.844840  1
  O  O17  1  0.695634  0.672474  0.344877  1
  O  O18  1  0.807763  0.048091  0.596594  1
  O  O19  1  0.814271  0.796043  0.090525  1
  F  F20  1  0.220500  0.945253  0.389616  1
  F  F21  1  0.698240  0.928010  0.851708  1
  F  F22  1  0.784322  0.556355  0.609672  1
  F  F23  1  0.796876  0.302998  0.101887  1
