# generated using pymatgen
data_Zn2Hg2H2S2O11
_symmetry_space_group_name_H-M   'P 1'
_cell_length_a   6.20824750
_cell_length_b   11.41969807
_cell_length_c   13.27055390
_cell_angle_alpha   90.00000000
_cell_angle_beta   90.00000000
_cell_angle_gamma   90.00000000
_symmetry_Int_Tables_number   1
_chemical_formula_structural   Zn2Hg2H2S2O11
_chemical_formula_sum   'Zn8 Hg8 H8 S8 O44'
_cell_volume   940.83332963
_cell_formula_units_Z   4
loop_
 _symmetry_equiv_pos_site_id
 _symmetry_equiv_pos_as_xyz
  1  'x, y, z'
loop_
 _atom_site_type_symbol
 _atom_site_label
 _atom_site_symmetry_multiplicity
 _atom_site_fract_x
 _atom_site_fract_y
 _atom_site_fract_z
 _atom_site_occupancy
  Zn  Zn0  1  0.016957  0.166002  0.124737  1
  Zn  Zn1  1  0.016957  0.166002  0.375263  1
  Zn  Zn2  1  0.016957  0.333998  0.624737  1
  Zn  Zn3  1  0.016957  0.333998  0.875263  1
  Zn  Zn4  1  0.983043  0.666002  0.124737  1
  Zn  Zn5  1  0.983043  0.666002  0.375263  1
  Zn  Zn6  1  0.983043  0.833998  0.875263  1
  Zn  Zn7  1  0.983043  0.833998  0.624737  1
  Hg  Hg8  1  0.202607  0.418623  0.250000  1
  Hg  Hg9  1  0.202607  0.081377  0.750000  1
  Hg  Hg10  1  0.477712  0.669529  0.250000  1
  Hg  Hg11  1  0.477712  0.830471  0.750000  1
  Hg  Hg12  1  0.522288  0.169529  0.250000  1
  Hg  Hg13  1  0.522288  0.330471  0.750000  1
  Hg  Hg14  1  0.797393  0.581377  0.750000  1
  Hg  Hg15  1  0.797393  0.918623  0.250000  1
  H  H16  1  0.305928  0.307820  0.030702  1
  H  H17  1  0.305928  0.307820  0.469298  1
  H  H18  1  0.305928  0.192180  0.530702  1
  H  H19  1  0.305928  0.192180  0.969298  1
  H  H20  1  0.694072  0.692180  0.530702  1
  H  H21  1  0.694072  0.807820  0.030702  1
  H  H22  1  0.694072  0.807820  0.469298  1
  H  H23  1  0.694072  0.692180  0.969298  1
  S  S24  1  0.269081  0.910142  0.077595  1
  S  S25  1  0.269081  0.589858  0.577595  1
  S  S26  1  0.269081  0.589858  0.922405  1
  S  S27  1  0.269081  0.910142  0.422405  1
  S  S28  1  0.730919  0.410142  0.422405  1
  S  S29  1  0.730919  0.410142  0.077595  1
  S  S30  1  0.730919  0.089858  0.577595  1
  S  S31  1  0.730919  0.089858  0.922405  1
  O  O32  1  0.112164  0.835741  0.134947  1
  O  O33  1  0.112164  0.835741  0.365053  1
  O  O34  1  0.112164  0.664259  0.865053  1
  O  O35  1  0.112164  0.664259  0.634947  1
  O  O36  1  0.167324  0.601676  0.250000  1
  O  O37  1  0.167324  0.898324  0.750000  1
  O  O38  1  0.203837  0.250000  0.000000  1
  O  O39  1  0.203837  0.250000  0.500000  1
  O  O40  1  0.211379  0.233007  0.250000  1
  O  O41  1  0.211379  0.266993  0.750000  1
  O  O42  1  0.222141  0.595927  0.032345  1
  O  O43  1  0.222141  0.595927  0.467655  1
  O  O44  1  0.222141  0.904073  0.967655  1
  O  O45  1  0.222141  0.904073  0.532345  1
  O  O46  1  0.246871  0.033150  0.114750  1
  O  O47  1  0.246871  0.033150  0.385250  1
  O  O48  1  0.246871  0.466850  0.614750  1
  O  O49  1  0.246871  0.466850  0.885250  1
  O  O50  1  0.490883  0.869280  0.098604  1
  O  O51  1  0.490883  0.869280  0.401396  1
  O  O52  1  0.490883  0.630720  0.598604  1
  O  O53  1  0.490883  0.630720  0.901396  1
  O  O54  1  0.509117  0.130720  0.598604  1
  O  O55  1  0.509117  0.130720  0.901396  1
  O  O56  1  0.509117  0.369280  0.098604  1
  O  O57  1  0.509117  0.369280  0.401396  1
  O  O58  1  0.753129  0.533150  0.114750  1
  O  O59  1  0.753129  0.533150  0.385250  1
  O  O60  1  0.753129  0.966850  0.614750  1
  O  O61  1  0.753129  0.966850  0.885250  1
  O  O62  1  0.777859  0.095927  0.032345  1
  O  O63  1  0.777859  0.095927  0.467655  1
  O  O64  1  0.777859  0.404073  0.532345  1
  O  O65  1  0.777859  0.404073  0.967655  1
  O  O66  1  0.788621  0.733007  0.250000  1
  O  O67  1  0.788621  0.766993  0.750000  1
  O  O68  1  0.796163  0.750000  0.500000  1
  O  O69  1  0.796163  0.750000  0.000000  1
  O  O70  1  0.832676  0.101676  0.250000  1
  O  O71  1  0.832676  0.398324  0.750000  1
  O  O72  1  0.887836  0.335741  0.134947  1
  O  O73  1  0.887836  0.335741  0.365053  1
  O  O74  1  0.887836  0.164259  0.634947  1
  O  O75  1  0.887836  0.164259  0.865053  1
