# generated using pymatgen
data_NaVPCO7
_symmetry_space_group_name_H-M   'P 1'
_cell_length_a   5.29342022
_cell_length_b   6.32957322
_cell_length_c   9.10800791
_cell_angle_alpha   90.00000000
_cell_angle_beta   92.65316209
_cell_angle_gamma   90.00000000
_symmetry_Int_Tables_number   1
_chemical_formula_structural   NaVPCO7
_chemical_formula_sum   'Na2 V2 P2 C2 O14'
_cell_volume   304.83751134
_cell_formula_units_Z   2
loop_
 _symmetry_equiv_pos_site_id
 _symmetry_equiv_pos_as_xyz
  1  'x, y, z'
loop_
 _atom_site_type_symbol
 _atom_site_label
 _atom_site_symmetry_multiplicity
 _atom_site_fract_x
 _atom_site_fract_y
 _atom_site_fract_z
 _atom_site_occupancy
  Na  Na0  1  0.760606  0.522044  0.232788  1
  Na  Na1  1  0.239394  0.022044  0.767212  1
  V  V2  1  0.211682  0.229699  0.334585  1
  V  V3  1  0.788318  0.729699  0.665415  1
  P  P4  1  0.281321  0.739141  0.436665  1
  P  P5  1  0.718679  0.239141  0.563335  1
  C  C6  1  0.275910  0.258684  0.075850  1
  C  C7  1  0.724090  0.758684  0.924150  1
  O  O8  1  0.691638  0.757493  0.055949  1
  O  O9  1  0.050740  0.255428  0.138719  1
  O  O10  1  0.459627  0.260673  0.183087  1
  O  O11  1  0.219212  0.938864  0.338618  1
  O  O12  1  0.205612  0.548409  0.339094  1
  O  O13  1  0.874361  0.254023  0.425738  1
  O  O14  1  0.568611  0.737693  0.475962  1
  O  O15  1  0.431389  0.237693  0.524038  1
  O  O16  1  0.125639  0.754023  0.574262  1
  O  O17  1  0.794388  0.048409  0.660906  1
  O  O18  1  0.780788  0.438864  0.661382  1
  O  O19  1  0.540373  0.760673  0.816913  1
  O  O20  1  0.949260  0.755428  0.861281  1
  O  O21  1  0.308362  0.257493  0.944051  1
