# generated using pymatgen
data_Li3LaO3
_symmetry_space_group_name_H-M   'P 1'
_cell_length_a   6.06189300
_cell_length_b   6.06189300
_cell_length_c   11.15924522
_cell_angle_alpha   90.00000000
_cell_angle_beta   90.00000000
_cell_angle_gamma   120.00000000
_symmetry_Int_Tables_number   1
_chemical_formula_structural   Li3LaO3
_chemical_formula_sum   'Li12 La4 O12'
_cell_volume   355.12560410
_cell_formula_units_Z   4
loop_
 _symmetry_equiv_pos_site_id
 _symmetry_equiv_pos_as_xyz
  1  'x, y, z'
loop_
 _atom_site_type_symbol
 _atom_site_label
 _atom_site_symmetry_multiplicity
 _atom_site_fract_x
 _atom_site_fract_y
 _atom_site_fract_z
 _atom_site_occupancy
  Li  Li0  1  0.306332  0.941544  0.557616  1
  Li  Li1  1  0.364788  0.058456  0.057616  1
  Li  Li2  1  0.693668  0.635212  0.057616  1
  Li  Li3  1  0.635212  0.941544  0.942384  1
  Li  Li4  1  0.635212  0.693668  0.557616  1
  Li  Li5  1  0.693668  0.058456  0.442384  1
  Li  Li6  1  0.941544  0.635212  0.442384  1
  Li  Li7  1  0.058456  0.364788  0.557616  1
  Li  Li8  1  0.941544  0.306332  0.057616  1
  Li  Li9  1  0.058456  0.693668  0.942384  1
  Li  Li10  1  0.306332  0.364788  0.942384  1
  Li  Li11  1  0.364788  0.306332  0.442384  1
  La  La12  1  0.333333  0.666667  0.250000  1
  La  La13  1  0.666667  0.333333  0.750000  1
  La  La14  1  0.000000  0.000000  0.750000  1
  La  La15  1  0.000000  0.000000  0.250000  1
  O  O16  1  0.297037  0.964443  0.382781  1
  O  O17  1  0.332594  0.035557  0.882781  1
  O  O18  1  0.667406  0.964443  0.117219  1
  O  O19  1  0.702963  0.035557  0.617219  1
  O  O20  1  0.667406  0.702963  0.382781  1
  O  O21  1  0.702963  0.667406  0.882781  1
  O  O22  1  0.964443  0.297037  0.882781  1
  O  O23  1  0.964443  0.667406  0.617219  1
  O  O24  1  0.035557  0.332594  0.382781  1
  O  O25  1  0.035557  0.702963  0.117219  1
  O  O26  1  0.297037  0.332594  0.117219  1
  O  O27  1  0.332594  0.297037  0.617219  1
