# generated using pymatgen
data_Co2O3F
_symmetry_space_group_name_H-M   'P 1'
_cell_length_a   5.29413610
_cell_length_b   5.29413610
_cell_length_c   8.48607830
_cell_angle_alpha   89.09836386
_cell_angle_beta   90.90163614
_cell_angle_gamma   106.30852864
_symmetry_Int_Tables_number   1
_chemical_formula_structural   Co2O3F
_chemical_formula_sum   'Co8 O12 F4'
_cell_volume   228.23250195
_cell_formula_units_Z   4
loop_
 _symmetry_equiv_pos_site_id
 _symmetry_equiv_pos_as_xyz
  1  'x, y, z'
loop_
 _atom_site_type_symbol
 _atom_site_label
 _atom_site_symmetry_multiplicity
 _atom_site_fract_x
 _atom_site_fract_y
 _atom_site_fract_z
 _atom_site_occupancy
  Co  Co0  1  0.892910  0.142191  0.374440  1
  Co  Co1  1  0.625077  0.374494  0.124584  1
  Co  Co2  1  0.483540  0.483540  0.500000  1
  Co  Co3  1  0.227402  0.726594  0.251147  1
  Co  Co4  1  0.726594  0.227402  0.748853  1
  Co  Co5  1  0.142191  0.892910  0.625560  1
  Co  Co6  1  0.374494  0.625077  0.875416  1
  Co  Co7  1  0.031120  0.031120  0.000000  1
  O  O8  1  0.944567  0.445994  0.249864  1
  O  O9  1  0.227010  0.782455  0.029204  1
  O  O10  1  0.466020  0.521226  0.278953  1
  O  O11  1  0.977329  0.030689  0.777464  1
  O  O12  1  0.715963  0.272003  0.525335  1
  O  O13  1  0.272003  0.715963  0.474665  1
  O  O14  1  0.030689  0.977329  0.222536  1
  O  O15  1  0.782455  0.227010  0.970796  1
  O  O16  1  0.521226  0.466020  0.721047  1
  O  O17  1  0.204595  0.204595  0.500000  1
  O  O18  1  0.445994  0.944567  0.750136  1
  O  O19  1  0.309369  0.309369  0.000000  1
  F  F20  1  0.540067  0.030743  0.253977  1
  F  F21  1  0.805975  0.805975  0.500000  1
  F  F22  1  0.722668  0.722668  0.000000  1
  F  F23  1  0.030743  0.540067  0.746023  1
