# generated using pymatgen
data_Ti2N2O
_symmetry_space_group_name_H-M   'P 1'
_cell_length_a   8.21508565
_cell_length_b   8.21865473
_cell_length_c   8.22688115
_cell_angle_alpha   109.48816793
_cell_angle_beta   109.44636581
_cell_angle_gamma   109.39916238
_symmetry_Int_Tables_number   1
_chemical_formula_structural   Ti2N2O
_chemical_formula_sum   'Ti16 N16 O8'
_cell_volume   428.00991265
_cell_formula_units_Z   8
loop_
 _symmetry_equiv_pos_site_id
 _symmetry_equiv_pos_as_xyz
  1  'x, y, z'
loop_
 _atom_site_type_symbol
 _atom_site_label
 _atom_site_symmetry_multiplicity
 _atom_site_fract_x
 _atom_site_fract_y
 _atom_site_fract_z
 _atom_site_occupancy
  Ti  Ti0  1  0.498866  0.997901  0.011143  1
  Ti  Ti1  1  0.539840  0.291053  0.740534  1
  Ti  Ti2  1  0.747548  0.459621  0.218183  1
  Ti  Ti3  1  0.751157  0.961783  0.708624  1
  Ti  Ti4  1  0.961902  0.208072  0.265779  1
  Ti  Ti5  1  0.513430  0.514688  0.515701  1
  Ti  Ti6  1  0.208502  0.742671  0.444815  1
  Ti  Ti7  1  0.292693  0.249108  0.041834  1
  Ti  Ti8  1  0.005248  0.496997  0.985400  1
  Ti  Ti9  1  0.998431  0.996232  0.499490  1
  Ti  Ti10  1  0.709246  0.751655  0.962806  1
  Ti  Ti11  1  0.793728  0.260466  0.548400  1
  Ti  Ti12  1  0.037294  0.797977  0.746963  1
  Ti  Ti13  1  0.249203  0.037022  0.283496  1
  Ti  Ti14  1  0.253221  0.541898  0.794382  1
  Ti  Ti15  1  0.452486  0.699673  0.244272  1
  N  N16  1  0.269530  0.994101  0.041516  1
  N  N17  1  0.724178  0.235947  0.270268  1
  N  N18  1  0.766407  0.225196  0.775515  1
  N  N19  1  0.534475  0.260509  0.487227  1
  N  N20  1  0.953046  0.726169  0.458444  1
  N  N21  1  0.040250  0.052943  0.774169  1
  N  N22  1  0.776054  0.726375  0.736462  1
  N  N23  1  0.546669  0.505276  0.272037  1
  N  N24  1  0.458936  0.736497  0.511110  1
  N  N25  1  0.225078  0.450307  0.987935  1
  N  N26  1  0.990018  0.540784  0.765456  1
  N  N27  1  0.229531  0.773237  0.225693  1
  N  N28  1  0.959346  0.949603  0.225156  1
  N  N29  1  0.049728  0.274765  0.537343  1
  N  N30  1  0.452637  0.489524  0.728021  1
  N  N31  1  0.511687  0.780533  0.053093  1
  O  O32  1  0.729938  0.004510  0.955130  1
  O  O33  1  0.277337  0.042514  0.554932  1
  O  O34  1  0.488232  0.223530  0.945849  1
  O  O35  1  0.276016  0.768676  0.726419  1
  O  O36  1  0.012977  0.459702  0.238107  1
  O  O37  1  0.727049  0.955993  0.450141  1
  O  O38  1  0.770699  0.544477  0.010724  1
  O  O39  1  0.217383  0.272015  0.257425  1
