# generated using pymatgen
data_LiFe4(BO3)4
_symmetry_space_group_name_H-M   'P 1'
_cell_length_a   5.25182489
_cell_length_b   9.13413914
_cell_length_c   11.47883915
_cell_angle_alpha   113.13567455
_cell_angle_beta   101.99177655
_cell_angle_gamma   90.92618253
_symmetry_Int_Tables_number   1
_chemical_formula_structural   LiFe4(BO3)4
_chemical_formula_sum   'Li2 Fe8 B8 O24'
_cell_volume   492.37879932
_cell_formula_units_Z   2
loop_
 _symmetry_equiv_pos_site_id
 _symmetry_equiv_pos_as_xyz
  1  'x, y, z'
loop_
 _atom_site_type_symbol
 _atom_site_label
 _atom_site_symmetry_multiplicity
 _atom_site_fract_x
 _atom_site_fract_y
 _atom_site_fract_z
 _atom_site_occupancy
  Li  Li0  1  0.510360  0.844682  0.340131  1
  Li  Li1  1  0.229876  0.590746  0.836927  1
  Fe  Fe2  1  0.984901  0.979448  0.625469  1
  Fe  Fe3  1  0.732515  0.051517  0.114487  1
  Fe  Fe4  1  0.511581  0.517056  0.371182  1
  Fe  Fe5  1  0.765004  0.437694  0.877008  1
  Fe  Fe6  1  0.226203  0.551692  0.119808  1
  Fe  Fe7  1  0.491300  0.468878  0.621503  1
  Fe  Fe8  1  0.020421  0.027666  0.368496  1
  Fe  Fe9  1  0.262110  0.945448  0.875004  1
  B  B10  1  0.979185  0.308886  0.626322  1
  B  B11  1  0.743052  0.734986  0.128667  1
  B  B12  1  0.532830  0.182646  0.374165  1
  B  B13  1  0.763251  0.758800  0.873033  1
  B  B14  1  0.469462  0.804636  0.615570  1
  B  B15  1  0.236745  0.226749  0.128577  1
  B  B16  1  0.018662  0.693860  0.375814  1
  B  B17  1  0.261677  0.271313  0.863646  1
  O  O18  1  0.978112  0.205401  0.123410  1
  O  O19  1  0.893495  0.886050  0.174477  1
  O  O20  1  0.858489  0.599298  0.062666  1
  O  O21  1  0.855213  0.573081  0.367823  1
  O  O22  1  0.937416  0.850444  0.416106  1
  O  O23  1  0.754204  0.157208  0.323924  1
  O  O24  1  0.753120  0.341202  0.673051  1
  O  O25  1  0.506569  0.728731  0.154013  1
  O  O26  1  0.369100  0.381102  0.183454  1
  O  O27  1  0.526607  0.643597  0.569293  1
  O  O28  1  0.637527  0.918357  0.614949  1
  O  O29  1  0.372399  0.096331  0.077206  1
  O  O30  1  0.638426  0.894043  0.926165  1
  O  O31  1  0.382618  0.058197  0.372833  1
  O  O32  1  0.467876  0.339105  0.427990  1
  O  O33  1  0.599576  0.608844  0.823759  1
  O  O34  1  0.521586  0.282908  0.868978  1
  O  O35  1  0.262155  0.675687  0.344212  1
  O  O36  1  0.240148  0.838550  0.657189  1
  O  O37  1  0.023375  0.150419  0.563173  1
  O  O38  1  0.155570  0.431936  0.647021  1
  O  O39  1  0.142663  0.414663  0.907188  1
  O  O40  1  0.111150  0.125134  0.816395  1
  O  O41  1  0.013144  0.759014  0.864595  1
