# generated using pymatgen
data_Na3NiO2
_symmetry_space_group_name_H-M   'P 1'
_cell_length_a   9.47567147
_cell_length_b   9.47567147
_cell_length_c   4.61184506
_cell_angle_alpha   90.00000000
_cell_angle_beta   90.00000000
_cell_angle_gamma   90.00000000
_symmetry_Int_Tables_number   1
_chemical_formula_structural   Na3NiO2
_chemical_formula_sum   'Na12 Ni4 O8'
_cell_volume   414.08995746
_cell_formula_units_Z   4
loop_
 _symmetry_equiv_pos_site_id
 _symmetry_equiv_pos_as_xyz
  1  'x, y, z'
loop_
 _atom_site_type_symbol
 _atom_site_label
 _atom_site_symmetry_multiplicity
 _atom_site_fract_x
 _atom_site_fract_y
 _atom_site_fract_z
 _atom_site_occupancy
  Na  Na0  1  0.154992  0.478571  0.500000  1
  Na  Na1  1  0.021429  0.654992  0.000000  1
  Na  Na2  1  0.356399  0.643601  0.000000  1
  Na  Na3  1  0.856399  0.856399  0.500000  1
  Na  Na4  1  0.521429  0.845008  0.500000  1
  Na  Na5  1  0.654992  0.021429  0.000000  1
  Na  Na6  1  0.345008  0.978571  0.000000  1
  Na  Na7  1  0.478571  0.154992  0.500000  1
  Na  Na8  1  0.143601  0.143601  0.500000  1
  Na  Na9  1  0.643601  0.356399  0.000000  1
  Na  Na10  1  0.978571  0.345008  0.000000  1
  Na  Na11  1  0.845008  0.521429  0.500000  1
  Ni  Ni12  1  0.672478  0.672478  0.000000  1
  Ni  Ni13  1  0.172478  0.827522  0.500000  1
  Ni  Ni14  1  0.827522  0.172478  0.500000  1
  Ni  Ni15  1  0.327522  0.327522  0.000000  1
  O  O16  1  0.803166  0.535916  0.000000  1
  O  O17  1  0.035916  0.696834  0.500000  1
  O  O18  1  0.535916  0.803166  0.000000  1
  O  O19  1  0.303166  0.964084  0.500000  1
  O  O20  1  0.696834  0.035916  0.500000  1
  O  O21  1  0.464084  0.196834  0.000000  1
  O  O22  1  0.964084  0.303166  0.500000  1
  O  O23  1  0.196834  0.464084  0.000000  1
