# generated using pymatgen
data_Li2MnCr3O8
_symmetry_space_group_name_H-M   'P 1'
_cell_length_a   5.96377099
_cell_length_b   5.96377099
_cell_length_c   5.96377099
_cell_angle_alpha   59.43351601
_cell_angle_beta   59.43351601
_cell_angle_gamma   59.43351601
_symmetry_Int_Tables_number   1
_chemical_formula_structural   Li2MnCr3O8
_chemical_formula_sum   'Li2 Mn1 Cr3 O8'
_cell_volume   148.05192770
_cell_formula_units_Z   1
loop_
 _symmetry_equiv_pos_site_id
 _symmetry_equiv_pos_as_xyz
  1  'x, y, z'
loop_
 _atom_site_type_symbol
 _atom_site_label
 _atom_site_symmetry_multiplicity
 _atom_site_fract_x
 _atom_site_fract_y
 _atom_site_fract_z
 _atom_site_occupancy
  Li  Li0  1  0.876660  0.876660  0.876660  1
  Li  Li1  1  0.500465  0.500465  0.500465  1
  Mn  Mn2  1  0.120159  0.120159  0.120159  1
  Cr  Cr3  1  0.501367  0.501367  0.993342  1
  Cr  Cr4  1  0.993342  0.501367  0.501367  1
  Cr  Cr5  1  0.501367  0.993342  0.501367  1
  O  O6  1  0.739415  0.739415  0.739415  1
  O  O7  1  0.751281  0.291556  0.751281  1
  O  O8  1  0.291556  0.751281  0.751281  1
  O  O9  1  0.751281  0.751281  0.291556  1
  O  O10  1  0.254197  0.254197  0.704998  1
  O  O11  1  0.704998  0.254197  0.254197  1
  O  O12  1  0.254197  0.704998  0.254197  1
  O  O13  1  0.259714  0.259714  0.259714  1
