# generated using pymatgen
data_K2VPCO7
_symmetry_space_group_name_H-M   'P 1'
_cell_length_a   5.62904440
_cell_length_b   6.71282125
_cell_length_c   9.72771957
_cell_angle_alpha   90.00000000
_cell_angle_beta   91.09468778
_cell_angle_gamma   90.00000000
_symmetry_Int_Tables_number   1
_chemical_formula_structural   K2VPCO7
_chemical_formula_sum   'K4 V2 P2 C2 O14'
_cell_volume   367.51200330
_cell_formula_units_Z   2
loop_
 _symmetry_equiv_pos_site_id
 _symmetry_equiv_pos_as_xyz
  1  'x, y, z'
loop_
 _atom_site_type_symbol
 _atom_site_label
 _atom_site_symmetry_multiplicity
 _atom_site_fract_x
 _atom_site_fract_y
 _atom_site_fract_z
 _atom_site_occupancy
  K  K0  1  0.245282  0.479057  0.242719  1
  K  K1  1  0.245282  0.020943  0.242719  1
  K  K2  1  0.754718  0.520943  0.757281  1
  K  K3  1  0.754718  0.979057  0.757281  1
  V  V4  1  0.770430  0.750000  0.354363  1
  V  V5  1  0.229570  0.250000  0.645637  1
  P  P6  1  0.715266  0.250000  0.431980  1
  P  P7  1  0.284734  0.750000  0.568020  1
  C  C8  1  0.729301  0.750000  0.097820  1
  C  C9  1  0.270699  0.250000  0.902180  1
  O  O10  1  0.287712  0.250000  0.030357  1
  O  O11  1  0.934275  0.750000  0.167466  1
  O  O12  1  0.546239  0.750000  0.181158  1
  O  O13  1  0.755052  0.060351  0.342947  1
  O  O14  1  0.755052  0.439649  0.342947  1
  O  O15  1  0.109089  0.750000  0.442584  1
  O  O16  1  0.451652  0.250000  0.479258  1
  O  O17  1  0.548348  0.750000  0.520742  1
  O  O18  1  0.890911  0.250000  0.557416  1
  O  O19  1  0.244948  0.560351  0.657053  1
  O  O20  1  0.244948  0.939649  0.657053  1
  O  O21  1  0.453761  0.250000  0.818842  1
  O  O22  1  0.065725  0.250000  0.832534  1
  O  O23  1  0.712288  0.750000  0.969643  1
