# generated using pymatgen
data_Li4MnFe3(BO3)4
_symmetry_space_group_name_H-M   'P 1'
_cell_length_a   5.22779607
_cell_length_b   5.23009528
_cell_length_c   10.40636884
_cell_angle_alpha   90.77013767
_cell_angle_beta   91.23040819
_cell_angle_gamma   119.89853966
_symmetry_Int_Tables_number   1
_chemical_formula_structural   Li4MnFe3(BO3)4
_chemical_formula_sum   'Li4 Mn1 Fe3 B4 O12'
_cell_volume   246.50881937
_cell_formula_units_Z   1
loop_
 _symmetry_equiv_pos_site_id
 _symmetry_equiv_pos_as_xyz
  1  'x, y, z'
loop_
 _atom_site_type_symbol
 _atom_site_label
 _atom_site_symmetry_multiplicity
 _atom_site_fract_x
 _atom_site_fract_y
 _atom_site_fract_z
 _atom_site_occupancy
  Li  Li0  1  0.351714  0.333078  0.331424  1
  Li  Li1  1  0.319996  0.340727  0.834343  1
  Li  Li2  1  0.672038  0.654639  0.581589  1
  Li  Li3  1  0.639254  0.656652  0.083701  1
  Mn  Mn4  1  0.998571  0.671654  0.865928  1
  Fe  Fe5  1  0.985388  0.318140  0.119514  1
  Fe  Fe6  1  0.681626  0.017694  0.369362  1
  Fe  Fe7  1  0.332485  0.000154  0.616991  1
  B  B8  1  0.660453  0.998076  0.873810  1
  B  B9  1  0.001553  0.331444  0.622044  1
  B  B10  1  0.007151  0.669653  0.373493  1
  B  B11  1  0.319878  0.988398  0.125560  1
  O  O12  1  0.753446  0.066985  0.583785  1
  O  O13  1  0.933104  0.249438  0.905720  1
  O  O14  1  0.423051  0.030428  0.831774  1
  O  O15  1  0.979959  0.582669  0.650332  1
  O  O16  1  0.335712  0.261941  0.139396  1
  O  O17  1  0.276763  0.351803  0.635546  1
  O  O18  1  0.734478  0.646600  0.385569  1
  O  O19  1  0.629465  0.721389  0.887216  1
  O  O20  1  0.029657  0.422619  0.334898  1
  O  O21  1  0.570944  0.968101  0.155837  1
  O  O22  1  0.058712  0.739386  0.084102  1
  O  O23  1  0.264002  0.937731  0.404264  1
