# generated using pymatgen
data_LiSn(PO3)4
_symmetry_space_group_name_H-M   'P 1'
_cell_length_a   7.61398133
_cell_length_b   7.63291148
_cell_length_c   10.26459299
_cell_angle_alpha   108.46970326
_cell_angle_beta   99.52692541
_cell_angle_gamma   110.46099667
_symmetry_Int_Tables_number   1
_chemical_formula_structural   LiSn(PO3)4
_chemical_formula_sum   'Li2 Sn2 P8 O24'
_cell_volume   503.85482453
_cell_formula_units_Z   2
loop_
 _symmetry_equiv_pos_site_id
 _symmetry_equiv_pos_as_xyz
  1  'x, y, z'
loop_
 _atom_site_type_symbol
 _atom_site_label
 _atom_site_symmetry_multiplicity
 _atom_site_fract_x
 _atom_site_fract_y
 _atom_site_fract_z
 _atom_site_occupancy
  Li  Li0  1  0.248653  0.002151  0.751248  1
  Li  Li1  1  0.751347  0.997849  0.248752  1
  Sn  Sn2  1  0.000000  0.500000  0.000000  1
  Sn  Sn3  1  0.000000  0.000000  0.500000  1
  P  P4  1  0.996105  0.681823  0.309691  1
  P  P5  1  0.265774  0.726353  0.475529  1
  P  P6  1  0.699543  0.741107  0.024076  1
  P  P7  1  0.506476  0.692642  0.811597  1
  P  P8  1  0.493524  0.307358  0.188403  1
  P  P9  1  0.300457  0.258893  0.975924  1
  P  P10  1  0.734226  0.273647  0.524471  1
  P  P11  1  0.003895  0.318177  0.690309  1
  O  O12  1  0.037714  0.656512  0.163085  1
  O  O13  1  0.131805  0.802745  0.571981  1
  O  O14  1  0.183085  0.682865  0.349974  1
  O  O15  1  0.490825  0.834738  0.407786  1
  O  O16  1  0.307036  0.709871  0.828814  1
  O  O17  1  0.208177  0.504983  0.566925  1
  O  O18  1  0.122688  0.292652  0.074951  1
  O  O19  1  0.739044  0.897634  0.092001  1
  O  O20  1  0.569478  0.773329  0.932216  1
  O  O21  1  0.677977  0.796127  0.664823  1
  O  O22  1  0.528612  0.532188  0.147479  1
  O  O23  1  0.042763  0.139251  0.671617  1
  O  O24  1  0.957237  0.860749  0.328383  1
  O  O25  1  0.471388  0.467812  0.852521  1
  O  O26  1  0.322023  0.203873  0.335177  1
  O  O27  1  0.430522  0.226671  0.067784  1
  O  O28  1  0.260956  0.102366  0.907999  1
  O  O29  1  0.877312  0.707348  0.925049  1
  O  O30  1  0.791823  0.495017  0.433075  1
  O  O31  1  0.692964  0.290129  0.171186  1
  O  O32  1  0.509175  0.165262  0.592214  1
  O  O33  1  0.816915  0.317135  0.650026  1
  O  O34  1  0.868195  0.197255  0.428019  1
  O  O35  1  0.962286  0.343488  0.836915  1
