# generated using pymatgen
data_TaSb3O8
_symmetry_space_group_name_H-M   'P 1'
_cell_length_a   4.96108963
_cell_length_b   5.57879795
_cell_length_c   23.91264098
_cell_angle_alpha   90.04287023
_cell_angle_beta   90.00410307
_cell_angle_gamma   90.02807904
_symmetry_Int_Tables_number   1
_chemical_formula_structural   TaSb3O8
_chemical_formula_sum   'Ta4 Sb12 O32'
_cell_volume   661.82790524
_cell_formula_units_Z   4
loop_
 _symmetry_equiv_pos_site_id
 _symmetry_equiv_pos_as_xyz
  1  'x, y, z'
loop_
 _atom_site_type_symbol
 _atom_site_label
 _atom_site_symmetry_multiplicity
 _atom_site_fract_x
 _atom_site_fract_y
 _atom_site_fract_z
 _atom_site_occupancy
  Ta  Ta0  1  0.003051  0.129321  0.572317  1
  Ta  Ta1  1  0.497432  0.365428  0.822213  1
  Ta  Ta2  1  0.497515  0.629648  0.572371  1
  Ta  Ta3  1  0.502637  0.634524  0.072270  1
  Sb  Sb4  1  0.548184  0.982226  0.697773  1
  Sb  Sb5  1  0.543012  0.981740  0.197886  1
  Sb  Sb6  1  0.002203  0.134270  0.073117  1
  Sb  Sb7  1  0.499401  0.366170  0.322138  1
  Sb  Sb8  1  0.046613  0.516983  0.947727  1
  Sb  Sb9  1  0.044945  0.514675  0.447501  1
  Sb  Sb10  1  0.951686  0.479881  0.697557  1
  Sb  Sb11  1  0.956512  0.483887  0.197675  1
  Sb  Sb12  1  0.997259  0.865855  0.822959  1
  Sb  Sb13  1  0.000480  0.866132  0.322253  1
  Sb  Sb14  1  0.453941  0.016955  0.948049  1
  Sb  Sb15  1  0.455408  0.014902  0.447446  1
  O  O16  1  0.710393  0.081054  0.850615  1
  O  O17  1  0.704686  0.078077  0.351728  1
  O  O18  1  0.210252  0.143903  0.293512  1
  O  O19  1  0.215127  0.137439  0.796215  1
  O  O20  1  0.834762  0.154935  0.650859  1
  O  O21  1  0.836968  0.156166  0.152261  1
  O  O22  1  0.162532  0.178470  0.494978  1
  O  O23  1  0.158778  0.179665  0.995224  1
  O  O24  1  0.658106  0.319889  0.745603  1
  O  O25  1  0.657036  0.320927  0.244833  1
  O  O26  1  0.338835  0.342135  0.401233  1
  O  O27  1  0.335558  0.343868  0.901400  1
  O  O28  1  0.716300  0.362655  0.047892  1
  O  O29  1  0.720294  0.368291  0.547628  1
  O  O30  1  0.211541  0.423538  0.599175  1
  O  O31  1  0.208907  0.421434  0.099674  1
  O  O32  1  0.795519  0.577572  0.351710  1
  O  O33  1  0.790608  0.578885  0.849417  1
  O  O34  1  0.289755  0.644104  0.293674  1
  O  O35  1  0.283344  0.636973  0.797872  1
  O  O36  1  0.665155  0.654857  0.651293  1
  O  O37  1  0.665562  0.656266  0.151267  1
  O  O38  1  0.337608  0.678449  0.495088  1
  O  O39  1  0.341863  0.678598  0.995432  1
  O  O40  1  0.843047  0.819442  0.744772  1
  O  O41  1  0.841191  0.820547  0.245408  1
  O  O42  1  0.161865  0.843993  0.901892  1
  O  O43  1  0.161385  0.842174  0.401268  1
  O  O44  1  0.780366  0.868039  0.547567  1
  O  O45  1  0.784320  0.862605  0.046210  1
  O  O46  1  0.289094  0.918875  0.100686  1
  O  O47  1  0.288962  0.923576  0.599163  1
