# generated using pymatgen
data_Na5Mn2P(CO4)4
_symmetry_space_group_name_H-M   'P 1'
_cell_length_a   9.90450423
_cell_length_b   9.90450423
_cell_length_c   9.89790209
_cell_angle_alpha   61.19663800
_cell_angle_beta   118.80336200
_cell_angle_gamma   88.99586383
_symmetry_Int_Tables_number   1
_chemical_formula_structural   Na5Mn2P(CO4)4
_chemical_formula_sum   'Na10 Mn4 P2 C8 O32'
_cell_volume   705.06816173
_cell_formula_units_Z   2
loop_
 _symmetry_equiv_pos_site_id
 _symmetry_equiv_pos_as_xyz
  1  'x, y, z'
loop_
 _atom_site_type_symbol
 _atom_site_label
 _atom_site_symmetry_multiplicity
 _atom_site_fract_x
 _atom_site_fract_y
 _atom_site_fract_z
 _atom_site_occupancy
  Na  Na0  1  0.915120  0.340772  0.838405  1
  Na  Na1  1  0.915776  0.915776  0.250000  1
  Na  Na2  1  0.911832  0.340306  0.242062  1
  Na  Na3  1  0.659228  0.084880  0.338405  1
  Na  Na4  1  0.340306  0.911832  0.257938  1
  Na  Na5  1  0.659694  0.088168  0.742062  1
  Na  Na6  1  0.340772  0.915120  0.661595  1
  Na  Na7  1  0.088168  0.659694  0.757938  1
  Na  Na8  1  0.084224  0.084224  0.750000  1
  Na  Na9  1  0.084880  0.659228  0.161595  1
  Mn  Mn10  1  0.500000  1.000000  0.000000  1
  Mn  Mn11  1  0.500000  0.500000  0.500000  1
  Mn  Mn12  1  0.500000  0.500000  0.000000  1
  Mn  Mn13  1  0.000000  0.500000  0.500000  1
  P  P14  1  0.875315  0.875315  0.750000  1
  P  P15  1  0.124685  0.124685  0.250000  1
  C  C16  1  0.711512  0.713475  0.431437  1
  C  C17  1  0.649389  0.279453  0.940034  1
  C  C18  1  0.279453  0.649389  0.559966  1
  C  C19  1  0.286525  0.288488  0.931437  1
  C  C20  1  0.713475  0.711512  0.068563  1
  C  C21  1  0.720547  0.350611  0.440034  1
  C  C22  1  0.350611  0.720547  0.059966  1
  C  C23  1  0.288488  0.286525  0.568563  1
  O  O24  1  0.856714  0.692235  0.463570  1
  O  O25  1  0.657736  0.300776  0.805812  1
  O  O26  1  0.684915  0.590621  0.536841  1
  O  O27  1  0.653378  0.139042  0.058036  1
  O  O28  1  0.600583  0.854004  0.301423  1
  O  O29  1  0.941606  0.937115  0.624140  1
  O  O30  1  0.941191  0.686928  0.874401  1
  O  O31  1  0.645146  0.398975  0.962519  1
  O  O32  1  0.307765  0.143286  0.963570  1
  O  O33  1  0.398975  0.645146  0.537481  1
  O  O34  1  0.937115  0.941606  0.875860  1
  O  O35  1  0.686928  0.941191  0.625599  1
  O  O36  1  0.699224  0.342264  0.305812  1
  O  O37  1  0.854004  0.600583  0.198577  1
  O  O38  1  0.409379  0.315085  0.036841  1
  O  O39  1  0.139042  0.653378  0.441964  1
  O  O40  1  0.860958  0.346622  0.558036  1
  O  O41  1  0.590621  0.684915  0.963159  1
  O  O42  1  0.300776  0.657736  0.694188  1
  O  O43  1  0.145996  0.399417  0.801423  1
  O  O44  1  0.313072  0.058809  0.374401  1
  O  O45  1  0.062885  0.058394  0.124140  1
  O  O46  1  0.601025  0.354854  0.462519  1
  O  O47  1  0.692235  0.856714  0.036430  1
  O  O48  1  0.354854  0.601025  0.037481  1
  O  O49  1  0.058809  0.313072  0.125599  1
  O  O50  1  0.058394  0.062885  0.375860  1
  O  O51  1  0.399417  0.145996  0.698577  1
  O  O52  1  0.346622  0.860958  0.941964  1
  O  O53  1  0.315085  0.409379  0.463159  1
  O  O54  1  0.342264  0.699224  0.194188  1
  O  O55  1  0.143286  0.307765  0.536430  1
