# generated using pymatgen
data_Li5CuP3O11
_symmetry_space_group_name_H-M   'P 1'
_cell_length_a   5.39043672
_cell_length_b   8.26558547
_cell_length_c   9.59864681
_cell_angle_alpha   96.24415560
_cell_angle_beta   90.69792001
_cell_angle_gamma   95.07948514
_symmetry_Int_Tables_number   1
_chemical_formula_structural   Li5CuP3O11
_chemical_formula_sum   'Li10 Cu2 P6 O22'
_cell_volume   423.35933654
_cell_formula_units_Z   2
loop_
 _symmetry_equiv_pos_site_id
 _symmetry_equiv_pos_as_xyz
  1  'x, y, z'
loop_
 _atom_site_type_symbol
 _atom_site_label
 _atom_site_symmetry_multiplicity
 _atom_site_fract_x
 _atom_site_fract_y
 _atom_site_fract_z
 _atom_site_occupancy
  Li  Li0  1  0.236145  0.669010  0.336465  1
  Li  Li1  1  0.262632  0.350886  0.823735  1
  Li  Li2  1  0.305044  0.618271  0.688363  1
  Li  Li3  1  0.189488  0.373194  0.149725  1
  Li  Li4  1  0.499751  0.004959  0.848662  1
  Li  Li5  1  0.500249  0.995041  0.151338  1
  Li  Li6  1  0.810512  0.626806  0.850275  1
  Li  Li7  1  0.694956  0.381729  0.311637  1
  Li  Li8  1  0.737368  0.649114  0.176265  1
  Li  Li9  1  0.763855  0.330990  0.663535  1
  Cu  Cu10  1  0.000000  0.000000  0.000000  1
  Cu  Cu11  1  0.500000  0.000000  0.500000  1
  P  P12  1  0.034522  0.034097  0.304641  1
  P  P13  1  0.248103  0.696774  0.012725  1
  P  P14  1  0.265225  0.322770  0.475140  1
  P  P15  1  0.734775  0.677230  0.524860  1
  P  P16  1  0.751897  0.303226  0.987275  1
  P  P17  1  0.965478  0.965903  0.695359  1
  O  O18  1  0.000910  0.772472  0.066614  1
  O  O19  1  0.036589  0.184527  0.428818  1
  O  O20  1  0.116727  0.120152  0.174689  1
  O  O21  1  0.178070  0.581817  0.876157  1
  O  O22  1  0.180049  0.399448  0.615489  1
  O  O23  1  0.231052  0.042848  0.705357  1
  O  O24  1  0.242736  0.928141  0.341853  1
  O  O25  1  0.296960  0.432959  0.357319  1
  O  O26  1  0.353275  0.606176  0.130757  1
  O  O27  1  0.436136  0.838249  0.980128  1
  O  O28  1  0.490724  0.764232  0.518218  1
  O  O29  1  0.509276  0.235768  0.481782  1
  O  O30  1  0.563864  0.161751  0.019872  1
  O  O31  1  0.646725  0.393824  0.869243  1
  O  O32  1  0.703040  0.567041  0.642681  1
  O  O33  1  0.757264  0.071859  0.658147  1
  O  O34  1  0.768948  0.957152  0.294643  1
  O  O35  1  0.819951  0.600552  0.384511  1
  O  O36  1  0.821930  0.418183  0.123843  1
  O  O37  1  0.883273  0.879848  0.825311  1
  O  O38  1  0.963411  0.815473  0.571182  1
  O  O39  1  0.999090  0.227528  0.933386  1
