# generated using pymatgen
data_SrSc2O4
_symmetry_space_group_name_H-M   'P 1'
_cell_length_a   5.50941678
_cell_length_b   5.50941678
_cell_length_c   10.68560000
_cell_angle_alpha   90.00000000
_cell_angle_beta   90.00000000
_cell_angle_gamma   146.12450097
_symmetry_Int_Tables_number   1
_chemical_formula_structural   SrSc2O4
_chemical_formula_sum   'Sr2 Sc4 O8'
_cell_volume   180.78793260
_cell_formula_units_Z   2
loop_
 _symmetry_equiv_pos_site_id
 _symmetry_equiv_pos_as_xyz
  1  'x, y, z'
loop_
 _atom_site_type_symbol
 _atom_site_label
 _atom_site_symmetry_multiplicity
 _atom_site_fract_x
 _atom_site_fract_y
 _atom_site_fract_z
 _atom_site_occupancy
  Sr  Sr0  1  0.109934  0.890066  0.750000  1
  Sr  Sr1  1  0.890066  0.109934  0.250000  1
  Sc  Sc2  1  0.364452  0.635548  0.570562  1
  Sc  Sc3  1  0.635548  0.364452  0.429438  1
  Sc  Sc4  1  0.364452  0.635548  0.929438  1
  Sc  Sc5  1  0.635548  0.364452  0.070562  1
  O  O6  1  0.000000  0.000000  0.000000  1
  O  O7  1  0.000000  0.000000  0.500000  1
  O  O8  1  0.262921  0.737079  0.395243  1
  O  O9  1  0.435080  0.564920  0.750000  1
  O  O10  1  0.564920  0.435080  0.250000  1
  O  O11  1  0.737079  0.262921  0.604757  1
  O  O12  1  0.262921  0.737079  0.104757  1
  O  O13  1  0.737079  0.262921  0.895243  1
