# generated using pymatgen
data_V2Bi4O11
_symmetry_space_group_name_H-M   'P 1'
_cell_length_a   5.53156359
_cell_length_b   6.77319750
_cell_length_c   7.92508211
_cell_angle_alpha   83.50845045
_cell_angle_beta   87.49190544
_cell_angle_gamma   73.03612250
_symmetry_Int_Tables_number   1
_chemical_formula_structural   V2Bi4O11
_chemical_formula_sum   'V2 Bi4 O11'
_cell_volume   282.16556627
_cell_formula_units_Z   1
loop_
 _symmetry_equiv_pos_site_id
 _symmetry_equiv_pos_as_xyz
  1  'x, y, z'
loop_
 _atom_site_type_symbol
 _atom_site_label
 _atom_site_symmetry_multiplicity
 _atom_site_fract_x
 _atom_site_fract_y
 _atom_site_fract_z
 _atom_site_occupancy
  V  V0  1  0.948871  0.543542  0.588933  1
  V  V1  1  0.136395  0.058094  0.181385  1
  Bi  Bi2  1  0.126554  0.982331  0.637471  1
  Bi  Bi3  1  0.678922  0.805874  0.968149  1
  Bi  Bi4  1  0.432436  0.390749  0.843857  1
  Bi  Bi5  1  0.588282  0.278025  0.324801  1
  O  O6  1  0.341110  0.936487  0.344085  1
  O  O7  1  0.775228  0.040115  0.793349  1
  O  O8  1  0.899347  0.945823  0.160503  1
  O  O9  1  0.325013  0.083971  0.991887  1
  O  O10  1  0.925347  0.799400  0.515080  1
  O  O11  1  0.482972  0.470515  0.095793  1
  O  O12  1  0.707560  0.444967  0.535941  1
  O  O13  1  0.979195  0.525656  0.814494  1
  O  O14  1  0.239974  0.380012  0.537758  1
  O  O15  1  0.400428  0.738994  0.784750  1
  O  O16  1  0.978965  0.299445  0.244866  1
