# generated using pymatgen
data_Li6NiO4
_symmetry_space_group_name_H-M   'P 1'
_cell_length_a   4.65888084
_cell_length_b   6.54680141
_cell_length_c   6.64025724
_cell_angle_alpha   90.00000000
_cell_angle_beta   90.00000000
_cell_angle_gamma   90.00000000
_symmetry_Int_Tables_number   1
_chemical_formula_structural   Li6NiO4
_chemical_formula_sum   'Li12 Ni2 O8'
_cell_volume   202.53294313
_cell_formula_units_Z   2
loop_
 _symmetry_equiv_pos_site_id
 _symmetry_equiv_pos_as_xyz
  1  'x, y, z'
loop_
 _atom_site_type_symbol
 _atom_site_label
 _atom_site_symmetry_multiplicity
 _atom_site_fract_x
 _atom_site_fract_y
 _atom_site_fract_z
 _atom_site_occupancy
  Li  Li0  1  0.250107  0.216335  0.716909  1
  Li  Li1  1  0.250107  0.783665  0.716909  1
  Li  Li2  1  0.300745  0.500000  0.500000  1
  Li  Li3  1  0.800914  0.500000  0.500000  1
  Li  Li4  1  0.250107  0.216335  0.283091  1
  Li  Li5  1  0.250107  0.783665  0.283091  1
  Li  Li6  1  0.749893  0.716335  0.216909  1
  Li  Li7  1  0.749893  0.283665  0.216909  1
  Li  Li8  1  0.699255  0.000000  0.000000  1
  Li  Li9  1  0.199086  0.000000  0.000000  1
  Li  Li10  1  0.749893  0.716335  0.783091  1
  Li  Li11  1  0.749893  0.283665  0.783091  1
  Ni  Ni12  1  0.756641  0.000000  0.500000  1
  Ni  Ni13  1  0.243359  0.500000  0.000000  1
  O  O14  1  0.040468  0.500000  0.733856  1
  O  O15  1  0.538728  0.738009  0.500000  1
  O  O16  1  0.538728  0.261991  0.500000  1
  O  O17  1  0.040468  0.500000  0.266144  1
  O  O18  1  0.959532  0.000000  0.233856  1
  O  O19  1  0.461272  0.761991  0.000000  1
  O  O20  1  0.461272  0.238009  0.000000  1
  O  O21  1  0.959532  0.000000  0.766144  1
