# generated using pymatgen
data_Li4MnSb(WO6)2
_symmetry_space_group_name_H-M   'P 1'
_cell_length_a   5.14187878
_cell_length_b   5.41556153
_cell_length_c   7.61510797
_cell_angle_alpha   85.94413806
_cell_angle_beta   89.33071254
_cell_angle_gamma   89.79966881
_symmetry_Int_Tables_number   1
_chemical_formula_structural   Li4MnSb(WO6)2
_chemical_formula_sum   'Li4 Mn1 Sb1 W2 O12'
_cell_volume   211.50526381
_cell_formula_units_Z   1
loop_
 _symmetry_equiv_pos_site_id
 _symmetry_equiv_pos_as_xyz
  1  'x, y, z'
loop_
 _atom_site_type_symbol
 _atom_site_label
 _atom_site_symmetry_multiplicity
 _atom_site_fract_x
 _atom_site_fract_y
 _atom_site_fract_z
 _atom_site_occupancy
  Li  Li0  1  0.003194  0.568897  0.301892  1
  Li  Li1  1  0.496350  0.092119  0.769594  1
  Li  Li2  1  0.002101  0.526139  0.749875  1
  Li  Li3  1  0.499861  0.063106  0.293256  1
  Mn  Mn4  1  0.499177  0.504178  0.499828  1
  Sb  Sb5  1  0.002151  0.003784  0.003182  1
  W  W6  1  0.996925  0.001192  0.502952  1
  W  W7  1  0.504999  0.506317  0.000508  1
  O  O8  1  0.700937  0.804800  0.440724  1
  O  O9  1  0.877227  0.985000  0.749996  1
  O  O10  1  0.679250  0.179028  0.066062  1
  O  O11  1  0.803723  0.296757  0.440555  1
  O  O12  1  0.197437  0.304363  0.920464  1
  O  O13  1  0.625932  0.473722  0.766998  1
  O  O14  1  0.365933  0.483368  0.228786  1
  O  O15  1  0.815923  0.681338  0.064899  1
  O  O16  1  0.184904  0.689486  0.546440  1
  O  O17  1  0.314789  0.808298  0.927010  1
  O  O18  1  0.125651  0.985850  0.250878  1
  O  O19  1  0.303538  0.184661  0.547302  1
