# generated using pymatgen
data_Zn2Hg2H2Se2O11
_symmetry_space_group_name_H-M   'P 1'
_cell_length_a   6.30183519
_cell_length_b   11.63805904
_cell_length_c   13.69536254
_cell_angle_alpha   90.00000000
_cell_angle_beta   90.00000000
_cell_angle_gamma   90.00000000
_symmetry_Int_Tables_number   1
_chemical_formula_structural   Zn2Hg2H2Se2O11
_chemical_formula_sum   'Zn8 Hg8 H8 Se8 O44'
_cell_volume   1004.43336446
_cell_formula_units_Z   4
loop_
 _symmetry_equiv_pos_site_id
 _symmetry_equiv_pos_as_xyz
  1  'x, y, z'
loop_
 _atom_site_type_symbol
 _atom_site_label
 _atom_site_symmetry_multiplicity
 _atom_site_fract_x
 _atom_site_fract_y
 _atom_site_fract_z
 _atom_site_occupancy
  Zn  Zn0  1  0.020260  0.169418  0.130794  1
  Zn  Zn1  1  0.020260  0.169418  0.369206  1
  Zn  Zn2  1  0.020260  0.330582  0.630794  1
  Zn  Zn3  1  0.020260  0.330582  0.869206  1
  Zn  Zn4  1  0.979740  0.669418  0.130794  1
  Zn  Zn5  1  0.979740  0.669418  0.369206  1
  Zn  Zn6  1  0.979740  0.830582  0.869206  1
  Zn  Zn7  1  0.979740  0.830582  0.630794  1
  Hg  Hg8  1  0.206277  0.420172  0.250000  1
  Hg  Hg9  1  0.206277  0.079828  0.750000  1
  Hg  Hg10  1  0.475976  0.670810  0.250000  1
  Hg  Hg11  1  0.475976  0.829190  0.750000  1
  Hg  Hg12  1  0.524024  0.170810  0.250000  1
  Hg  Hg13  1  0.524024  0.329190  0.750000  1
  Hg  Hg14  1  0.793723  0.579828  0.750000  1
  Hg  Hg15  1  0.793723  0.920172  0.250000  1
  H  H16  1  0.283616  0.308268  0.027554  1
  H  H17  1  0.283616  0.308268  0.472446  1
  H  H18  1  0.283616  0.191732  0.527554  1
  H  H19  1  0.283616  0.191732  0.972446  1
  H  H20  1  0.716384  0.691732  0.527554  1
  H  H21  1  0.716384  0.808268  0.027554  1
  H  H22  1  0.716384  0.808268  0.472446  1
  H  H23  1  0.716384  0.691732  0.972446  1
  Se  Se24  1  0.274409  0.911933  0.075959  1
  Se  Se25  1  0.274409  0.588067  0.924041  1
  Se  Se26  1  0.274409  0.588067  0.575959  1
  Se  Se27  1  0.274409  0.911933  0.424041  1
  Se  Se28  1  0.725591  0.411933  0.424041  1
  Se  Se29  1  0.725591  0.411933  0.075959  1
  Se  Se30  1  0.725591  0.088067  0.575959  1
  Se  Se31  1  0.725591  0.088067  0.924041  1
  O  O32  1  0.101289  0.834349  0.142441  1
  O  O33  1  0.101289  0.834349  0.357559  1
  O  O34  1  0.101289  0.665651  0.642441  1
  O  O35  1  0.101289  0.665651  0.857559  1
  O  O36  1  0.168230  0.602156  0.250000  1
  O  O37  1  0.168230  0.897844  0.750000  1
  O  O38  1  0.183294  0.250000  0.000000  1
  O  O39  1  0.183294  0.250000  0.500000  1
  O  O40  1  0.220045  0.595792  0.043534  1
  O  O41  1  0.220045  0.595792  0.456466  1
  O  O42  1  0.220045  0.904208  0.543534  1
  O  O43  1  0.220045  0.904208  0.956466  1
  O  O44  1  0.215869  0.235112  0.250000  1
  O  O45  1  0.215869  0.264888  0.750000  1
  O  O46  1  0.257377  0.047705  0.117144  1
  O  O47  1  0.257377  0.047705  0.382856  1
  O  O48  1  0.257377  0.452295  0.617144  1
  O  O49  1  0.257377  0.452295  0.882856  1
  O  O50  1  0.481251  0.135370  0.600421  1
  O  O51  1  0.481251  0.364630  0.100421  1
  O  O52  1  0.481251  0.135370  0.899579  1
  O  O53  1  0.481251  0.364630  0.399579  1
  O  O54  1  0.518749  0.635370  0.600421  1
  O  O55  1  0.518749  0.864630  0.100421  1
  O  O56  1  0.518749  0.864630  0.399579  1
  O  O57  1  0.518749  0.635370  0.899579  1
  O  O58  1  0.742623  0.547705  0.117144  1
  O  O59  1  0.742623  0.547705  0.382856  1
  O  O60  1  0.742623  0.952295  0.617144  1
  O  O61  1  0.742623  0.952295  0.882856  1
  O  O62  1  0.784131  0.735112  0.250000  1
  O  O63  1  0.784131  0.764888  0.750000  1
  O  O64  1  0.779955  0.095792  0.456466  1
  O  O65  1  0.779955  0.404208  0.543534  1
  O  O66  1  0.779955  0.095792  0.043534  1
  O  O67  1  0.779955  0.404208  0.956466  1
  O  O68  1  0.816706  0.750000  0.500000  1
  O  O69  1  0.816706  0.750000  0.000000  1
  O  O70  1  0.831770  0.102156  0.250000  1
  O  O71  1  0.831770  0.397844  0.750000  1
  O  O72  1  0.898711  0.334349  0.142441  1
  O  O73  1  0.898711  0.334349  0.357559  1
  O  O74  1  0.898711  0.165651  0.642441  1
  O  O75  1  0.898711  0.165651  0.857559  1
