# generated using pymatgen
data_LiB5H2O9
_symmetry_space_group_name_H-M   'P 1'
_cell_length_a   5.60631820
_cell_length_b   9.18943759
_cell_length_c   13.74806773
_cell_angle_alpha   90.00000000
_cell_angle_beta   91.46998752
_cell_angle_gamma   90.00000000
_symmetry_Int_Tables_number   1
_chemical_formula_structural   LiB5H2O9
_chemical_formula_sum   'Li4 B20 H8 O36'
_cell_volume   708.05238374
_cell_formula_units_Z   4
loop_
 _symmetry_equiv_pos_site_id
 _symmetry_equiv_pos_as_xyz
  1  'x, y, z'
loop_
 _atom_site_type_symbol
 _atom_site_label
 _atom_site_symmetry_multiplicity
 _atom_site_fract_x
 _atom_site_fract_y
 _atom_site_fract_z
 _atom_site_occupancy
  Li  Li0  1  0.476044  0.095283  0.803021  1
  Li  Li1  1  0.523956  0.595283  0.696979  1
  Li  Li2  1  0.523956  0.904717  0.196979  1
  Li  Li3  1  0.476044  0.404717  0.303021  1
  B  B4  1  0.812641  0.827061  0.814548  1
  B  B5  1  0.187359  0.327061  0.685452  1
  B  B6  1  0.187359  0.172939  0.185452  1
  B  B7  1  0.812641  0.672939  0.314548  1
  B  B8  1  0.766385  0.966187  0.657759  1
  B  B9  1  0.233615  0.466187  0.842241  1
  B  B10  1  0.233615  0.033813  0.342241  1
  B  B11  1  0.766385  0.533813  0.157759  1
  B  B12  1  0.095009  0.803269  0.681647  1
  B  B13  1  0.904991  0.303269  0.818353  1
  B  B14  1  0.904991  0.196731  0.318353  1
  B  B15  1  0.095009  0.696731  0.181647  1
  B  B16  1  0.718090  0.859394  0.989866  1
  B  B17  1  0.281910  0.359394  0.510134  1
  B  B18  1  0.281910  0.140606  0.010134  1
  B  B19  1  0.718090  0.640606  0.489866  1
  B  B20  1  0.514014  0.669182  0.898671  1
  B  B21  1  0.485986  0.169182  0.601329  1
  B  B22  1  0.485986  0.330818  0.101329  1
  B  B23  1  0.514014  0.830818  0.398671  1
  H  H24  1  0.339436  0.765268  0.579486  1
  H  H25  1  0.660564  0.265268  0.920514  1
  H  H26  1  0.660564  0.234732  0.420514  1
  H  H27  1  0.339436  0.734732  0.079486  1
  H  H28  1  0.879383  0.000278  0.079829  1
  H  H29  1  0.120617  0.500278  0.420171  1
  H  H30  1  0.120617  0.999722  0.920171  1
  H  H31  1  0.879383  0.499722  0.579829  1
  O  O32  1  0.649796  0.059846  0.594898  1
  O  O33  1  0.350204  0.559846  0.905102  1
  O  O34  1  0.350204  0.940154  0.405102  1
  O  O35  1  0.649796  0.440154  0.094898  1
  O  O36  1  0.960368  0.893691  0.620676  1
  O  O37  1  0.039632  0.393691  0.879324  1
  O  O38  1  0.039632  0.106309  0.379324  1
  O  O39  1  0.960368  0.606309  0.120676  1
  O  O40  1  0.294731  0.737542  0.645959  1
  O  O41  1  0.705269  0.237542  0.854041  1
  O  O42  1  0.705269  0.262458  0.354041  1
  O  O43  1  0.294731  0.762458  0.145959  1
  O  O44  1  0.694627  0.941237  0.751235  1
  O  O45  1  0.305373  0.441237  0.748765  1
  O  O46  1  0.305373  0.058763  0.248765  1
  O  O47  1  0.694627  0.558763  0.251235  1
  O  O48  1  0.037023  0.778734  0.775733  1
  O  O49  1  0.962977  0.278734  0.724267  1
  O  O50  1  0.962977  0.221266  0.224267  1
  O  O51  1  0.037023  0.721266  0.275733  1
  O  O52  1  0.858518  0.890493  0.912991  1
  O  O53  1  0.141482  0.390493  0.587009  1
  O  O54  1  0.141482  0.109507  0.087009  1
  O  O55  1  0.858518  0.609507  0.412991  1
  O  O56  1  0.646394  0.698612  0.819137  1
  O  O57  1  0.353606  0.198612  0.680863  1
  O  O58  1  0.353606  0.301388  0.180863  1
  O  O59  1  0.646394  0.801388  0.319137  1
  O  O60  1  0.741837  0.931501  0.078100  1
  O  O61  1  0.258163  0.431501  0.421900  1
  O  O62  1  0.258163  0.068499  0.921900  1
  O  O63  1  0.741837  0.568499  0.578100  1
  O  O64  1  0.540035  0.754537  0.982565  1
  O  O65  1  0.459965  0.254537  0.517435  1
  O  O66  1  0.459965  0.245463  0.017435  1
  O  O67  1  0.540035  0.745463  0.482565  1
