# generated using pymatgen
data_Ba8Ta7O24
_symmetry_space_group_name_H-M   'P 1'
_cell_length_a   5.91210378
_cell_length_b   5.91210378
_cell_length_c   19.18488986
_cell_angle_alpha   90.00000000
_cell_angle_beta   90.00000000
_cell_angle_gamma   120.00000000
_symmetry_Int_Tables_number   1
_chemical_formula_structural   Ba8Ta7O24
_chemical_formula_sum   'Ba8 Ta7 O24'
_cell_volume   580.72970371
_cell_formula_units_Z   1
loop_
 _symmetry_equiv_pos_site_id
 _symmetry_equiv_pos_as_xyz
  1  'x, y, z'
loop_
 _atom_site_type_symbol
 _atom_site_label
 _atom_site_symmetry_multiplicity
 _atom_site_fract_x
 _atom_site_fract_y
 _atom_site_fract_z
 _atom_site_occupancy
  Ba  Ba0  1  0.666667  0.333333  0.249870  1
  Ba  Ba1  1  0.666667  0.333333  0.852764  1
  Ba  Ba2  1  0.333333  0.666667  0.983126  1
  Ba  Ba3  1  0.333333  0.666667  0.503345  1
  Ba  Ba4  1  0.666667  0.333333  0.633484  1
  Ba  Ba5  1  0.000000  0.000000  0.131812  1
  Ba  Ba6  1  0.000000  0.000000  0.758174  1
  Ba  Ba7  1  0.000000  0.000000  0.365978  1
  Ta  Ta8  1  0.666667  0.333333  0.060934  1
  Ta  Ta9  1  0.333333  0.666667  0.183014  1
  Ta  Ta10  1  0.333333  0.666667  0.318448  1
  Ta  Ta11  1  0.333333  0.666667  0.694778  1
  Ta  Ta12  1  0.666667  0.333333  0.438996  1
  Ta  Ta13  1  0.000000  0.000000  0.562614  1
  Ta  Ta14  1  0.000000  0.000000  0.936044  1
  O  O15  1  0.495726  0.504274  0.740255  1
  O  O16  1  0.337537  0.168769  0.008608  1
  O  O17  1  0.331495  0.165748  0.498456  1
  O  O18  1  0.503890  0.496110  0.127357  1
  O  O19  1  0.502931  0.497069  0.377279  1
  O  O20  1  0.503890  0.007779  0.127357  1
  O  O21  1  0.502931  0.005863  0.377279  1
  O  O22  1  0.495726  0.991451  0.740255  1
  O  O23  1  0.654231  0.827116  0.250477  1
  O  O24  1  0.994137  0.497069  0.377279  1
  O  O25  1  0.992221  0.496110  0.127357  1
  O  O26  1  0.831231  0.168769  0.008608  1
  O  O27  1  0.834252  0.165748  0.498456  1
  O  O28  1  0.672434  0.836217  0.619146  1
  O  O29  1  0.689011  0.844505  0.884165  1
  O  O30  1  0.008549  0.504274  0.740255  1
  O  O31  1  0.163783  0.327566  0.619146  1
  O  O32  1  0.831231  0.662463  0.008608  1
  O  O33  1  0.834252  0.668505  0.498456  1
  O  O34  1  0.155495  0.310989  0.884165  1
  O  O35  1  0.172884  0.345769  0.250477  1
  O  O36  1  0.155495  0.844505  0.884165  1
  O  O37  1  0.163783  0.836217  0.619146  1
  O  O38  1  0.172884  0.827116  0.250477  1
