# generated using pymatgen
data_Na2FePCO7
_symmetry_space_group_name_H-M   'P 1'
_cell_length_a   8.95327037
_cell_length_b   6.53492271
_cell_length_c   10.47406216
_cell_angle_alpha   90.00000000
_cell_angle_beta   90.24667719
_cell_angle_gamma   90.00000000
_symmetry_Int_Tables_number   1
_chemical_formula_structural   Na2FePCO7
_chemical_formula_sum   'Na8 Fe4 P4 C4 O28'
_cell_volume   612.82048853
_cell_formula_units_Z   4
loop_
 _symmetry_equiv_pos_site_id
 _symmetry_equiv_pos_as_xyz
  1  'x, y, z'
loop_
 _atom_site_type_symbol
 _atom_site_label
 _atom_site_symmetry_multiplicity
 _atom_site_fract_x
 _atom_site_fract_y
 _atom_site_fract_z
 _atom_site_occupancy
  Na  Na0  1  0.919692  0.759749  0.382484  1
  Na  Na1  1  0.919692  0.740251  0.882484  1
  Na  Na2  1  0.736879  0.987224  0.125803  1
  Na  Na3  1  0.736879  0.512776  0.625803  1
  Na  Na4  1  0.263121  0.487224  0.374197  1
  Na  Na5  1  0.263121  0.012776  0.874197  1
  Na  Na6  1  0.080308  0.259749  0.117516  1
  Na  Na7  1  0.080308  0.240251  0.617516  1
  Fe  Fe8  1  0.653581  0.244485  0.392425  1
  Fe  Fe9  1  0.653581  0.255515  0.892425  1
  Fe  Fe10  1  0.346419  0.744485  0.107575  1
  Fe  Fe11  1  0.346419  0.755515  0.607575  1
  P  P12  1  0.576212  0.748050  0.354191  1
  P  P13  1  0.576212  0.751950  0.854191  1
  P  P14  1  0.423788  0.248050  0.145809  1
  P  P15  1  0.423788  0.251950  0.645809  1
  C  C16  1  0.935411  0.255511  0.364802  1
  C  C17  1  0.935411  0.244489  0.864802  1
  C  C18  1  0.064589  0.755511  0.135198  1
  C  C19  1  0.064589  0.744489  0.635198  1
  O  O20  1  0.923567  0.762026  0.148675  1
  O  O21  1  0.923567  0.737974  0.648675  1
  O  O22  1  0.871576  0.265132  0.477573  1
  O  O23  1  0.871576  0.234868  0.977573  1
  O  O24  1  0.843356  0.237326  0.268007  1
  O  O25  1  0.843356  0.262674  0.768007  1
  O  O26  1  0.676399  0.938085  0.378746  1
  O  O27  1  0.675854  0.561202  0.389003  1
  O  O28  1  0.675854  0.938798  0.889003  1
  O  O29  1  0.676399  0.561915  0.878746  1
  O  O30  1  0.568663  0.246893  0.066004  1
  O  O31  1  0.568663  0.253107  0.566004  1
  O  O32  1  0.531903  0.748909  0.210083  1
  O  O33  1  0.531903  0.751091  0.710083  1
  O  O34  1  0.468097  0.248909  0.289917  1
  O  O35  1  0.468097  0.251091  0.789917  1
  O  O36  1  0.431337  0.746893  0.433996  1
  O  O37  1  0.431337  0.753107  0.933996  1
  O  O38  1  0.323601  0.438085  0.121254  1
  O  O39  1  0.324146  0.061202  0.110997  1
  O  O40  1  0.324146  0.438798  0.610997  1
  O  O41  1  0.323601  0.061915  0.621254  1
  O  O42  1  0.156644  0.737326  0.231993  1
  O  O43  1  0.156644  0.762674  0.731993  1
  O  O44  1  0.128424  0.765132  0.022427  1
  O  O45  1  0.128424  0.734868  0.522427  1
  O  O46  1  0.076433  0.262026  0.351325  1
  O  O47  1  0.076433  0.237974  0.851325  1
