# generated using pymatgen
data_Ti2V3Cr(PO4)6
_symmetry_space_group_name_H-M   'P 1'
_cell_length_a   8.44284883
_cell_length_b   8.44284883
_cell_length_c   8.44284883
_cell_angle_alpha   61.98404590
_cell_angle_beta   61.98404590
_cell_angle_gamma   61.98404590
_symmetry_Int_Tables_number   1
_chemical_formula_structural   Ti2V3Cr(PO4)6
_chemical_formula_sum   'Ti2 V3 Cr1 P6 O24'
_cell_volume   444.43884177
_cell_formula_units_Z   1
loop_
 _symmetry_equiv_pos_site_id
 _symmetry_equiv_pos_as_xyz
  1  'x, y, z'
loop_
 _atom_site_type_symbol
 _atom_site_label
 _atom_site_symmetry_multiplicity
 _atom_site_fract_x
 _atom_site_fract_y
 _atom_site_fract_z
 _atom_site_occupancy
  Ti  Ti0  1  0.997566  0.997566  0.997566  1
  Ti  Ti1  1  0.499331  0.499331  0.499331  1
  V  V2  1  0.642585  0.642585  0.642585  1
  V  V3  1  0.858414  0.858414  0.858414  1
  V  V4  1  0.358923  0.358923  0.358923  1
  Cr  Cr5  1  0.141943  0.141943  0.141943  1
  P  P6  1  0.956230  0.251123  0.541526  1
  P  P7  1  0.541526  0.956230  0.251123  1
  P  P8  1  0.251123  0.541526  0.956230  1
  P  P9  1  0.752400  0.454387  0.044736  1
  P  P10  1  0.454387  0.044736  0.752400  1
  P  P11  1  0.044736  0.752400  0.454387  1
  O  O12  1  0.503777  0.107770  0.323215  1
  O  O13  1  0.323215  0.503777  0.107770  1
  O  O14  1  0.107770  0.323215  0.503777  1
  O  O15  1  0.939260  0.098318  0.747096  1
  O  O16  1  0.993171  0.179229  0.389942  1
  O  O17  1  0.750375  0.402381  0.561523  1
  O  O18  1  0.747096  0.939260  0.098318  1
  O  O19  1  0.561523  0.750375  0.402381  1
  O  O20  1  0.822629  0.607611  0.005636  1
  O  O21  1  0.402381  0.561523  0.750375  1
  O  O22  1  0.905213  0.249514  0.061766  1
  O  O23  1  0.607611  0.005636  0.822629  1
  O  O24  1  0.389942  0.993171  0.179229  1
  O  O25  1  0.098318  0.747096  0.939260  1
  O  O26  1  0.600163  0.436683  0.250239  1
  O  O27  1  0.179229  0.389942  0.993171  1
  O  O28  1  0.436683  0.250239  0.600163  1
  O  O29  1  0.249514  0.061766  0.905213  1
  O  O30  1  0.250239  0.600163  0.436683  1
  O  O31  1  0.005636  0.822629  0.607611  1
  O  O32  1  0.061766  0.905213  0.249514  1
  O  O33  1  0.893569  0.678885  0.492858  1
  O  O34  1  0.678885  0.492858  0.893569  1
  O  O35  1  0.492858  0.893569  0.678885  1
