# generated using pymatgen
data_La2BiO5
_symmetry_space_group_name_H-M   'P 1'
_cell_length_a   5.72205184
_cell_length_b   5.77438971
_cell_length_c   8.80612112
_cell_angle_alpha   71.71955252
_cell_angle_beta   86.36333212
_cell_angle_gamma   86.52152769
_symmetry_Int_Tables_number   1
_chemical_formula_structural   La2BiO5
_chemical_formula_sum   'La4 Bi2 O10'
_cell_volume   275.47013846
_cell_formula_units_Z   2
loop_
 _symmetry_equiv_pos_site_id
 _symmetry_equiv_pos_as_xyz
  1  'x, y, z'
loop_
 _atom_site_type_symbol
 _atom_site_label
 _atom_site_symmetry_multiplicity
 _atom_site_fract_x
 _atom_site_fract_y
 _atom_site_fract_z
 _atom_site_occupancy
  La  La0  1  0.974422  0.001299  0.016849  1
  La  La1  1  0.981185  0.670442  0.666663  1
  La  La2  1  0.507982  0.147221  0.665829  1
  La  La3  1  0.021311  0.316858  0.342913  1
  Bi  Bi4  1  0.497683  0.511722  0.995441  1
  Bi  Bi5  1  0.486791  0.785483  0.368657  1
  O  O6  1  0.712270  0.342410  0.831487  1
  O  O7  1  0.268684  0.784884  0.832327  1
  O  O8  1  0.762955  0.509438  0.478750  1
  O  O9  1  0.742153  0.799965  0.899173  1
  O  O10  1  0.759765  0.989500  0.514747  1
  O  O11  1  0.252948  0.995166  0.490302  1
  O  O12  1  0.249098  0.238040  0.041630  1
  O  O13  1  0.264084  0.487559  0.524070  1
  O  O14  1  0.736161  0.268995  0.159477  1
  O  O15  1  0.282508  0.651019  0.171684  1
