# generated using pymatgen
data_SrLaCl5
_symmetry_space_group_name_H-M   'P 1'
_cell_length_a   7.55261848
_cell_length_b   13.75807691
_cell_length_c   10.49631050
_cell_angle_alpha   90.00000000
_cell_angle_beta   109.89962749
_cell_angle_gamma   90.00000000
_symmetry_Int_Tables_number   1
_chemical_formula_structural   SrLaCl5
_chemical_formula_sum   'Sr4 La4 Cl20'
_cell_volume   1025.54311648
_cell_formula_units_Z   4
loop_
 _symmetry_equiv_pos_site_id
 _symmetry_equiv_pos_as_xyz
  1  'x, y, z'
loop_
 _atom_site_type_symbol
 _atom_site_label
 _atom_site_symmetry_multiplicity
 _atom_site_fract_x
 _atom_site_fract_y
 _atom_site_fract_z
 _atom_site_occupancy
  Sr  Sr0  1  0.470822  0.982184  0.744767  1
  Sr  Sr1  1  0.529178  0.482184  0.755233  1
  Sr  Sr2  1  0.470822  0.517816  0.244767  1
  Sr  Sr3  1  0.529178  0.017816  0.255233  1
  La  La4  1  0.104233  0.746570  0.899360  1
  La  La5  1  0.104233  0.753430  0.399360  1
  La  La6  1  0.895767  0.246570  0.600640  1
  La  La7  1  0.895767  0.253430  0.100640  1
  Cl  Cl8  1  0.134795  0.093513  0.695018  1
  Cl  Cl9  1  0.175435  0.812571  0.668144  1
  Cl  Cl10  1  0.192676  0.370375  0.643824  1
  Cl  Cl11  1  0.370348  0.896262  0.001997  1
  Cl  Cl12  1  0.401340  0.610058  0.942559  1
  Cl  Cl13  1  0.134795  0.406487  0.195018  1
  Cl  Cl14  1  0.175435  0.687429  0.168144  1
  Cl  Cl15  1  0.192676  0.129625  0.143824  1
  Cl  Cl16  1  0.370348  0.603738  0.501997  1
  Cl  Cl17  1  0.401340  0.889942  0.442559  1
  Cl  Cl18  1  0.598660  0.110058  0.557441  1
  Cl  Cl19  1  0.629652  0.396262  0.498003  1
  Cl  Cl20  1  0.807324  0.870375  0.856176  1
  Cl  Cl21  1  0.824565  0.312571  0.831856  1
  Cl  Cl22  1  0.865205  0.593513  0.804982  1
  Cl  Cl23  1  0.598660  0.389942  0.057441  1
  Cl  Cl24  1  0.629652  0.103738  0.998003  1
  Cl  Cl25  1  0.807324  0.629625  0.356176  1
  Cl  Cl26  1  0.824565  0.187429  0.331856  1
  Cl  Cl27  1  0.865205  0.906487  0.304982  1
