# generated using pymatgen
data_NiTeO4
_symmetry_space_group_name_H-M   'P 1'
_cell_length_a   5.06837351
_cell_length_b   3.08888859
_cell_length_c   5.33141930
_cell_angle_alpha   90.00000000
_cell_angle_beta   110.09963044
_cell_angle_gamma   90.00000000
_symmetry_Int_Tables_number   1
_chemical_formula_structural   NiTeO4
_chemical_formula_sum   'Ni1 Te1 O4'
_cell_volume   78.38336508
_cell_formula_units_Z   1
loop_
 _symmetry_equiv_pos_site_id
 _symmetry_equiv_pos_as_xyz
  1  'x, y, z'
loop_
 _atom_site_type_symbol
 _atom_site_label
 _atom_site_symmetry_multiplicity
 _atom_site_fract_x
 _atom_site_fract_y
 _atom_site_fract_z
 _atom_site_occupancy
  Ni  Ni0  1  0.500000  0.500000  0.500000  1
  Te  Te1  1  0.500000  0.000000  0.000000  1
  O  O2  1  0.694017  0.000000  0.753361  1
  O  O3  1  0.724449  0.500000  0.218843  1
  O  O4  1  0.305983  0.000000  0.246639  1
  O  O5  1  0.275551  0.500000  0.781157  1
