# generated using pymatgen
data_LiV3F10
_symmetry_space_group_name_H-M   'P 1'
_cell_length_a   3.98679020
_cell_length_b   6.03795720
_cell_length_c   15.57089193
_cell_angle_alpha   90.00000000
_cell_angle_beta   90.73230629
_cell_angle_gamma   90.00000000
_symmetry_Int_Tables_number   1
_chemical_formula_structural   LiV3F10
_chemical_formula_sum   'Li2 V6 F20'
_cell_volume   374.79296377
_cell_formula_units_Z   2
loop_
 _symmetry_equiv_pos_site_id
 _symmetry_equiv_pos_as_xyz
  1  'x, y, z'
loop_
 _atom_site_type_symbol
 _atom_site_label
 _atom_site_symmetry_multiplicity
 _atom_site_fract_x
 _atom_site_fract_y
 _atom_site_fract_z
 _atom_site_occupancy
  Li  Li0  1  0.092353  0.492092  0.606630  1
  Li  Li1  1  0.092353  0.507908  0.106630  1
  V  V2  1  0.010117  0.057064  0.996248  1
  V  V3  1  0.005245  0.036291  0.713475  1
  V  V4  1  0.020386  0.502944  0.861746  1
  V  V5  1  0.010117  0.942936  0.496248  1
  V  V6  1  0.005245  0.963709  0.213475  1
  V  V7  1  0.020386  0.497056  0.361746  1
  F  F8  1  0.005386  0.771102  0.938122  1
  F  F9  1  0.026978  0.767579  0.781097  1
  F  F10  1  0.986189  0.797836  0.620114  1
  F  F11  1  0.005386  0.228898  0.438122  1
  F  F12  1  0.025358  0.184022  0.596397  1
  F  F13  1  0.028243  0.364576  0.738881  1
  F  F14  1  0.026978  0.232421  0.281097  1
  F  F15  1  0.986189  0.202164  0.120114  1
  F  F16  1  0.025358  0.815978  0.096397  1
  F  F17  1  0.028243  0.635424  0.238881  1
  F  F18  1  0.076152  0.393963  0.987886  1
  F  F19  1  0.076152  0.606037  0.487886  1
  F  F20  1  0.520075  0.502335  0.860375  1
  F  F21  1  0.509322  0.042745  0.714675  1
  F  F22  1  0.511421  0.946407  0.503633  1
  F  F23  1  0.520075  0.497665  0.360375  1
  F  F24  1  0.509322  0.957255  0.214675  1
  F  F25  1  0.511421  0.053593  0.003633  1
  F  F26  1  0.970942  0.158072  0.870153  1
  F  F27  1  0.970942  0.841928  0.370153  1
