# generated using pymatgen
data_LiTi2P4H3O16
_symmetry_space_group_name_H-M   'P 1'
_cell_length_a   5.02172371
_cell_length_b   7.42692219
_cell_length_c   8.06822767
_cell_angle_alpha   90.18767512
_cell_angle_beta   92.35186853
_cell_angle_gamma   102.25941243
_symmetry_Int_Tables_number   1
_chemical_formula_structural   LiTi2P4H3O16
_chemical_formula_sum   'Li1 Ti2 P4 H3 O16'
_cell_volume   293.78045285
_cell_formula_units_Z   1
loop_
 _symmetry_equiv_pos_site_id
 _symmetry_equiv_pos_as_xyz
  1  'x, y, z'
loop_
 _atom_site_type_symbol
 _atom_site_label
 _atom_site_symmetry_multiplicity
 _atom_site_fract_x
 _atom_site_fract_y
 _atom_site_fract_z
 _atom_site_occupancy
  Li  Li0  1  0.393222  0.850656  0.121266  1
  Ti  Ti1  1  0.984683  0.485869  0.001846  1
  Ti  Ti2  1  0.493887  0.006102  0.505179  1
  P  P3  1  0.100654  0.250678  0.665220  1
  P  P4  1  0.388378  0.236529  0.153067  1
  P  P5  1  0.607086  0.753876  0.843978  1
  P  P6  1  0.896415  0.751287  0.332234  1
  H  H7  1  0.407202  0.429977  0.553069  1
  H  H8  1  0.596071  0.573518  0.450659  1
  H  H9  1  0.938533  0.975577  0.980346  1
  O  O10  1  0.146110  0.858565  0.432327  1
  O  O11  1  0.030135  0.306044  0.837513  1
  O  O12  1  0.200532  0.377549  0.162958  1
  O  O13  1  0.218740  0.436948  0.571403  1
  O  O14  1  0.348485  0.667322  0.935031  1
  O  O15  1  0.541912  0.816684  0.666931  1
  O  O16  1  0.256397  0.062974  0.057404  1
  O  O17  1  0.326314  0.138252  0.667853  1
  O  O18  1  0.661916  0.856623  0.321691  1
  O  O19  1  0.736465  0.930348  0.953331  1
  O  O20  1  0.466877  0.184594  0.334142  1
  O  O21  1  0.656828  0.344439  0.073996  1
  O  O22  1  0.780721  0.564053  0.425189  1
  O  O23  1  0.804201  0.621293  0.835909  1
  O  O24  1  0.991636  0.697051  0.164430  1
  O  O25  1  0.846848  0.147937  0.567792  1
