# generated using pymatgen
data_Ti5O9
_symmetry_space_group_name_H-M   'P 1'
_cell_length_a   5.61974157
_cell_length_b   7.18326235
_cell_length_c   8.55562137
_cell_angle_alpha   69.48555559
_cell_angle_beta   75.18853313
_cell_angle_gamma   71.30848440
_symmetry_Int_Tables_number   1
_chemical_formula_structural   Ti5O9
_chemical_formula_sum   'Ti10 O18'
_cell_volume   302.38584851
_cell_formula_units_Z   2
loop_
 _symmetry_equiv_pos_site_id
 _symmetry_equiv_pos_as_xyz
  1  'x, y, z'
loop_
 _atom_site_type_symbol
 _atom_site_label
 _atom_site_symmetry_multiplicity
 _atom_site_fract_x
 _atom_site_fract_y
 _atom_site_fract_z
 _atom_site_occupancy
  Ti  Ti0  1  0.721802  0.325505  0.425177  1
  Ti  Ti1  1  0.278198  0.674495  0.574823  1
  Ti  Ti2  1  0.718930  0.828868  0.421829  1
  Ti  Ti3  1  0.281070  0.171132  0.578171  1
  Ti  Ti4  1  0.346971  0.656781  0.205395  1
  Ti  Ti5  1  0.653029  0.343219  0.794605  1
  Ti  Ti6  1  0.345148  0.158653  0.204633  1
  Ti  Ti7  1  0.654852  0.841347  0.795367  1
  Ti  Ti8  1  0.000000  0.000000  0.000000  1
  Ti  Ti9  1  0.000000  0.500000  0.000000  1
  O  O10  1  0.312949  0.467379  0.458590  1
  O  O11  1  0.687051  0.532621  0.541410  1
  O  O12  1  0.069328  0.196172  0.420965  1
  O  O13  1  0.930672  0.803828  0.579035  1
  O  O14  1  0.585307  0.131985  0.366676  1
  O  O15  1  0.414693  0.868015  0.633324  1
  O  O16  1  0.409713  0.848865  0.322875  1
  O  O17  1  0.590287  0.151135  0.677125  1
  O  O18  1  0.979308  0.808925  0.238953  1
  O  O19  1  0.020692  0.191075  0.761047  1
  O  O20  1  0.373511  0.851429  0.978374  1
  O  O21  1  0.626489  0.148571  0.021626  1
  O  O22  1  0.917112  0.804007  0.918658  1
  O  O23  1  0.082888  0.195993  0.081342  1
  O  O24  1  0.740078  0.538816  0.861676  1
  O  O25  1  0.259922  0.461184  0.138324  1
  O  O26  1  0.284004  0.489082  0.796816  1
  O  O27  1  0.715996  0.510918  0.203184  1
