# generated using pymatgen
data_Na3SiBSbO7
_symmetry_space_group_name_H-M   'P 1'
_cell_length_a   5.32460169
_cell_length_b   6.83999765
_cell_length_c   9.18799344
_cell_angle_alpha   90.00000000
_cell_angle_beta   90.58674668
_cell_angle_gamma   90.00000000
_symmetry_Int_Tables_number   1
_chemical_formula_structural   Na3SiBSbO7
_chemical_formula_sum   'Na6 Si2 B2 Sb2 O14'
_cell_volume   334.61159178
_cell_formula_units_Z   2
loop_
 _symmetry_equiv_pos_site_id
 _symmetry_equiv_pos_as_xyz
  1  'x, y, z'
loop_
 _atom_site_type_symbol
 _atom_site_label
 _atom_site_symmetry_multiplicity
 _atom_site_fract_x
 _atom_site_fract_y
 _atom_site_fract_z
 _atom_site_occupancy
  Na  Na0  1  0.759467  0.250000  0.076309  1
  Na  Na1  1  0.253545  0.007593  0.249159  1
  Na  Na2  1  0.253545  0.492407  0.249159  1
  Na  Na3  1  0.746455  0.507593  0.750841  1
  Na  Na4  1  0.746455  0.992407  0.750841  1
  Na  Na5  1  0.240533  0.750000  0.923691  1
  Si  Si6  1  0.707034  0.250000  0.417312  1
  Si  Si7  1  0.292966  0.750000  0.582688  1
  B  B8  1  0.732674  0.750000  0.059196  1
  B  B9  1  0.267326  0.250000  0.940804  1
  Sb  Sb10  1  0.783164  0.750000  0.341827  1
  Sb  Sb11  1  0.216836  0.250000  0.658173  1
  O  O12  1  0.287240  0.250000  0.085747  1
  O  O13  1  0.964861  0.750000  0.137041  1
  O  O14  1  0.524367  0.750000  0.154045  1
  O  O15  1  0.793691  0.061846  0.315974  1
  O  O16  1  0.793691  0.438154  0.315974  1
  O  O17  1  0.398347  0.250000  0.436608  1
  O  O18  1  0.161332  0.750000  0.419140  1
  O  O19  1  0.838668  0.250000  0.580860  1
  O  O20  1  0.601653  0.750000  0.563392  1
  O  O21  1  0.206309  0.561846  0.684026  1
  O  O22  1  0.206309  0.938154  0.684026  1
  O  O23  1  0.475633  0.250000  0.845955  1
  O  O24  1  0.035139  0.250000  0.862959  1
  O  O25  1  0.712760  0.750000  0.914253  1
