# generated using pymatgen
data_Ba2Ga6O11
_symmetry_space_group_name_H-M   'P 1'
_cell_length_a   5.16121101
_cell_length_b   8.93236349
_cell_length_c   23.22310128
_cell_angle_alpha   90.00000000
_cell_angle_beta   90.00000000
_cell_angle_gamma   90.00000000
_symmetry_Int_Tables_number   1
_chemical_formula_structural   Ba2Ga6O11
_chemical_formula_sum   'Ba8 Ga24 O44'
_cell_volume   1070.62706761
_cell_formula_units_Z   4
loop_
 _symmetry_equiv_pos_site_id
 _symmetry_equiv_pos_as_xyz
  1  'x, y, z'
loop_
 _atom_site_type_symbol
 _atom_site_label
 _atom_site_symmetry_multiplicity
 _atom_site_fract_x
 _atom_site_fract_y
 _atom_site_fract_z
 _atom_site_occupancy
  Ba  Ba0  1  0.397711  0.000000  0.140651  1
  Ba  Ba1  1  0.473606  0.500000  0.155169  1
  Ba  Ba2  1  0.973606  0.000000  0.344831  1
  Ba  Ba3  1  0.897711  0.500000  0.359349  1
  Ba  Ba4  1  0.102289  0.500000  0.640651  1
  Ba  Ba5  1  0.026394  0.000000  0.655169  1
  Ba  Ba6  1  0.526394  0.500000  0.844831  1
  Ba  Ba7  1  0.602289  0.000000  0.859349  1
  Ga  Ga8  1  0.000000  0.000000  0.000000  1
  Ga  Ga9  1  0.500000  0.832973  0.000000  1
  Ga  Ga10  1  0.500000  0.500000  0.000000  1
  Ga  Ga11  1  0.500000  0.167027  0.000000  1
  Ga  Ga12  1  0.994496  0.679413  0.073184  1
  Ga  Ga13  1  0.994496  0.320587  0.073184  1
  Ga  Ga14  1  0.888933  0.206133  0.213514  1
  Ga  Ga15  1  0.888933  0.793867  0.213514  1
  Ga  Ga16  1  0.388933  0.706133  0.286486  1
  Ga  Ga17  1  0.388933  0.293867  0.286486  1
  Ga  Ga18  1  0.494496  0.820587  0.426816  1
  Ga  Ga19  1  0.494496  0.179413  0.426816  1
  Ga  Ga20  1  0.000000  0.000000  0.500000  1
  Ga  Ga21  1  0.000000  0.667027  0.500000  1
  Ga  Ga22  1  0.000000  0.332973  0.500000  1
  Ga  Ga23  1  0.500000  0.500000  0.500000  1
  Ga  Ga24  1  0.505504  0.179413  0.573184  1
  Ga  Ga25  1  0.505504  0.820587  0.573184  1
  Ga  Ga26  1  0.611067  0.706133  0.713514  1
  Ga  Ga27  1  0.611067  0.293867  0.713514  1
  Ga  Ga28  1  0.111067  0.793867  0.786486  1
  Ga  Ga29  1  0.111067  0.206133  0.786486  1
  Ga  Ga30  1  0.005504  0.679413  0.926816  1
  Ga  Ga31  1  0.005504  0.320587  0.926816  1
  O  O32  1  0.673730  0.000000  0.043959  1
  O  O33  1  0.179660  0.843534  0.049221  1
  O  O34  1  0.179660  0.156466  0.049221  1
  O  O35  1  0.650234  0.663451  0.048371  1
  O  O36  1  0.650234  0.336549  0.048371  1
  O  O37  1  0.179518  0.500000  0.056207  1
  O  O38  1  0.007545  0.323496  0.153666  1
  O  O39  1  0.007545  0.676504  0.153666  1
  O  O40  1  0.950341  0.000000  0.202342  1
  O  O41  1  0.529195  0.235825  0.215747  1
  O  O42  1  0.529195  0.764175  0.215747  1
  O  O43  1  0.029195  0.735825  0.284253  1
  O  O44  1  0.029195  0.264175  0.284253  1
  O  O45  1  0.450341  0.500000  0.297658  1
  O  O46  1  0.507545  0.823496  0.346334  1
  O  O47  1  0.507545  0.176504  0.346334  1
  O  O48  1  0.679518  0.000000  0.443793  1
  O  O49  1  0.150234  0.836549  0.451629  1
  O  O50  1  0.150234  0.163451  0.451629  1
  O  O51  1  0.679660  0.343534  0.450779  1
  O  O52  1  0.679660  0.656466  0.450779  1
  O  O53  1  0.173730  0.500000  0.456041  1
  O  O54  1  0.826270  0.500000  0.543959  1
  O  O55  1  0.320340  0.656466  0.549221  1
  O  O56  1  0.320340  0.343534  0.549221  1
  O  O57  1  0.849766  0.836549  0.548371  1
  O  O58  1  0.849766  0.163451  0.548371  1
  O  O59  1  0.320482  0.000000  0.556207  1
  O  O60  1  0.492455  0.176504  0.653666  1
  O  O61  1  0.492455  0.823496  0.653666  1
  O  O62  1  0.549659  0.500000  0.702342  1
  O  O63  1  0.970805  0.264175  0.715747  1
  O  O64  1  0.970805  0.735825  0.715747  1
  O  O65  1  0.470805  0.764175  0.784253  1
  O  O66  1  0.470805  0.235825  0.784253  1
  O  O67  1  0.049659  0.000000  0.797658  1
  O  O68  1  0.992455  0.323496  0.846334  1
  O  O69  1  0.992455  0.676504  0.846334  1
  O  O70  1  0.820482  0.500000  0.943793  1
  O  O71  1  0.349766  0.663451  0.951629  1
  O  O72  1  0.349766  0.336549  0.951629  1
  O  O73  1  0.820340  0.843534  0.950779  1
  O  O74  1  0.820340  0.156466  0.950779  1
  O  O75  1  0.326270  0.000000  0.956041  1
