# generated using pymatgen
data_LiV2O5
_symmetry_space_group_name_H-M   'P 1'
_cell_length_a   6.68705550
_cell_length_b   7.64442036
_cell_length_c   7.70509427
_cell_angle_alpha   90.00000000
_cell_angle_beta   90.00000000
_cell_angle_gamma   90.00000000
_symmetry_Int_Tables_number   1
_chemical_formula_structural   LiV2O5
_chemical_formula_sum   'Li4 V8 O20'
_cell_volume   393.87411901
_cell_formula_units_Z   4
loop_
 _symmetry_equiv_pos_site_id
 _symmetry_equiv_pos_as_xyz
  1  'x, y, z'
loop_
 _atom_site_type_symbol
 _atom_site_label
 _atom_site_symmetry_multiplicity
 _atom_site_fract_x
 _atom_site_fract_y
 _atom_site_fract_z
 _atom_site_occupancy
  Li  Li0  1  0.000000  0.000000  0.000000  1
  Li  Li1  1  0.500000  0.000000  0.000000  1
  Li  Li2  1  0.000000  0.500000  0.500000  1
  Li  Li3  1  0.500000  0.500000  0.500000  1
  V  V4  1  0.250000  0.729694  0.169285  1
  V  V5  1  0.750000  0.229694  0.330715  1
  V  V6  1  0.250000  0.770306  0.669285  1
  V  V7  1  0.750000  0.270306  0.830715  1
  V  V8  1  0.750000  0.628809  0.124512  1
  V  V9  1  0.250000  0.128809  0.375488  1
  V  V10  1  0.750000  0.871191  0.624512  1
  V  V11  1  0.250000  0.371191  0.875488  1
  O  O12  1  0.250000  0.502630  0.055626  1
  O  O13  1  0.750000  0.164834  0.121038  1
  O  O14  1  0.538380  0.763120  0.122367  1
  O  O15  1  0.961620  0.763120  0.122367  1
  O  O16  1  0.250000  0.996008  0.190157  1
  O  O17  1  0.750000  0.496008  0.309843  1
  O  O18  1  0.038380  0.263120  0.377633  1
  O  O19  1  0.461620  0.263120  0.377633  1
  O  O20  1  0.250000  0.664834  0.378962  1
  O  O21  1  0.750000  0.002630  0.444374  1
  O  O22  1  0.250000  0.997370  0.555626  1
  O  O23  1  0.750000  0.335166  0.621038  1
  O  O24  1  0.538380  0.736880  0.622367  1
  O  O25  1  0.961620  0.736880  0.622367  1
  O  O26  1  0.250000  0.503992  0.690157  1
  O  O27  1  0.750000  0.003992  0.809843  1
  O  O28  1  0.038380  0.236880  0.877633  1
  O  O29  1  0.461620  0.236880  0.877633  1
  O  O30  1  0.250000  0.835166  0.878962  1
  O  O31  1  0.750000  0.497370  0.944374  1
