# generated using pymatgen
data_Li2MnCr(PO4)2
_symmetry_space_group_name_H-M   'P 1'
_cell_length_a   4.78782595
_cell_length_b   6.26757517
_cell_length_c   10.41570507
_cell_angle_alpha   90.00000000
_cell_angle_beta   91.55169244
_cell_angle_gamma   90.00000000
_symmetry_Int_Tables_number   1
_chemical_formula_structural   Li2MnCr(PO4)2
_chemical_formula_sum   'Li4 Mn2 Cr2 P4 O16'
_cell_volume   312.44047914
_cell_formula_units_Z   2
loop_
 _symmetry_equiv_pos_site_id
 _symmetry_equiv_pos_as_xyz
  1  'x, y, z'
loop_
 _atom_site_type_symbol
 _atom_site_label
 _atom_site_symmetry_multiplicity
 _atom_site_fract_x
 _atom_site_fract_y
 _atom_site_fract_z
 _atom_site_occupancy
  Li  Li0  1  0.000000  0.000000  0.000000  1
  Li  Li1  1  0.000000  0.500000  0.000000  1
  Li  Li2  1  0.500000  0.000000  0.500000  1
  Li  Li3  1  0.500000  0.500000  0.500000  1
  Mn  Mn4  1  0.027148  0.750000  0.280911  1
  Mn  Mn5  1  0.972852  0.250000  0.719089  1
  Cr  Cr6  1  0.545036  0.250000  0.217476  1
  Cr  Cr7  1  0.454964  0.750000  0.782524  1
  P  P8  1  0.580247  0.750000  0.089375  1
  P  P9  1  0.087837  0.250000  0.405363  1
  P  P10  1  0.912163  0.750000  0.594637  1
  P  P11  1  0.419753  0.250000  0.910625  1
  O  O12  1  0.302691  0.250000  0.049364  1
  O  O13  1  0.259234  0.750000  0.091048  1
  O  O14  1  0.716057  0.946513  0.159815  1
  O  O15  1  0.716057  0.553487  0.159815  1
  O  O16  1  0.213819  0.450164  0.338292  1
  O  O17  1  0.213819  0.049836  0.338292  1
  O  O18  1  0.763737  0.250000  0.398424  1
  O  O19  1  0.790424  0.750000  0.454577  1
  O  O20  1  0.209576  0.250000  0.545423  1
  O  O21  1  0.236263  0.750000  0.601576  1
  O  O22  1  0.786181  0.950164  0.661708  1
  O  O23  1  0.786181  0.549836  0.661708  1
  O  O24  1  0.283943  0.446513  0.840185  1
  O  O25  1  0.283943  0.053487  0.840185  1
  O  O26  1  0.740766  0.250000  0.908952  1
  O  O27  1  0.697309  0.750000  0.950636  1
