# generated using pymatgen
data_Ti3Mn3(SnO8)2
_symmetry_space_group_name_H-M   'P 1'
_cell_length_a   5.89911745
_cell_length_b   5.89911745
_cell_length_c   9.52037737
_cell_angle_alpha   89.27704764
_cell_angle_beta   90.72295236
_cell_angle_gamma   119.95614522
_symmetry_Int_Tables_number   1
_chemical_formula_structural   Ti3Mn3(SnO8)2
_chemical_formula_sum   'Ti3 Mn3 Sn2 O16'
_cell_volume   287.01494529
_cell_formula_units_Z   1
loop_
 _symmetry_equiv_pos_site_id
 _symmetry_equiv_pos_as_xyz
  1  'x, y, z'
loop_
 _atom_site_type_symbol
 _atom_site_label
 _atom_site_symmetry_multiplicity
 _atom_site_fract_x
 _atom_site_fract_y
 _atom_site_fract_z
 _atom_site_occupancy
  Ti  Ti0  1  0.160242  0.839758  0.287325  1
  Ti  Ti1  1  0.828131  0.670455  0.787493  1
  Ti  Ti2  1  0.329545  0.171869  0.787493  1
  Mn  Mn3  1  0.827829  0.172171  0.786672  1
  Mn  Mn4  1  0.659574  0.833113  0.287616  1
  Mn  Mn5  1  0.166887  0.340426  0.287616  1
  Sn  Sn6  1  0.669779  0.330221  0.507415  1
  Sn  Sn7  1  0.334078  0.665922  0.010664  1
  O  O8  1  0.838989  0.673474  0.393868  1
  O  O9  1  0.521279  0.478721  0.665906  1
  O  O10  1  0.670162  0.329838  0.893787  1
  O  O11  1  0.995907  0.004093  0.688714  1
  O  O12  1  0.995034  0.004966  0.188445  1
  O  O13  1  0.326526  0.161011  0.393868  1
  O  O14  1  0.961008  0.474036  0.668969  1
  O  O15  1  0.525964  0.038992  0.668969  1
  O  O16  1  0.165781  0.834219  0.892592  1
  O  O17  1  0.841263  0.158737  0.393639  1
  O  O18  1  0.484784  0.960287  0.169067  1
  O  O19  1  0.039713  0.515216  0.169067  1
  O  O20  1  0.337946  0.662054  0.391575  1
  O  O21  1  0.673766  0.835213  0.894607  1
  O  O22  1  0.481186  0.518814  0.174313  1
  O  O23  1  0.164787  0.326234  0.894607  1
