# generated using pymatgen
data_Li4Ni2C4SO16
_symmetry_space_group_name_H-M   'P 1'
_cell_length_a   9.66290311
_cell_length_b   9.58966429
_cell_length_c   9.27853957
_cell_angle_alpha   61.58499091
_cell_angle_beta   60.79244046
_cell_angle_gamma   57.62256862
_symmetry_Int_Tables_number   1
_chemical_formula_structural   Li4Ni2C4SO16
_chemical_formula_sum   'Li8 Ni4 C8 S2 O32'
_cell_volume   606.36465817
_cell_formula_units_Z   2
loop_
 _symmetry_equiv_pos_site_id
 _symmetry_equiv_pos_as_xyz
  1  'x, y, z'
loop_
 _atom_site_type_symbol
 _atom_site_label
 _atom_site_symmetry_multiplicity
 _atom_site_fract_x
 _atom_site_fract_y
 _atom_site_fract_z
 _atom_site_occupancy
  Li  Li0  1  0.540596  0.959404  0.540596  1
  Li  Li1  1  0.957844  0.542156  0.542156  1
  Li  Li2  1  0.707844  0.292156  0.292156  1
  Li  Li3  1  0.290596  0.709404  0.290596  1
  Li  Li4  1  0.959404  0.540596  0.959404  1
  Li  Li5  1  0.542156  0.957844  0.957844  1
  Li  Li6  1  0.292156  0.707844  0.707844  1
  Li  Li7  1  0.709404  0.290596  0.709404  1
  Ni  Ni8  1  0.125000  0.125000  0.625000  1
  Ni  Ni9  1  0.125000  0.125000  0.125000  1
  Ni  Ni10  1  0.625000  0.125000  0.125000  1
  Ni  Ni11  1  0.125000  0.625000  0.125000  1
  C  C12  1  0.909754  0.913530  0.282784  1
  C  C13  1  0.336470  0.340246  0.356069  1
  C  C14  1  0.282784  0.893931  0.909754  1
  C  C15  1  0.893931  0.282784  0.913530  1
  C  C16  1  0.356069  0.967216  0.336470  1
  C  C17  1  0.967216  0.356069  0.340246  1
  C  C18  1  0.913530  0.909754  0.893931  1
  C  C19  1  0.340246  0.336470  0.967216  1
  S  S20  1  0.500000  0.500000  0.500000  1
  S  S21  1  0.750000  0.750000  0.750000  1
  O  O22  1  0.766190  0.930595  0.288220  1
  O  O23  1  0.577779  0.306391  0.557429  1
  O  O24  1  0.920438  0.045971  0.272993  1
  O  O25  1  0.204029  0.329562  0.489403  1
  O  O26  1  0.272993  0.760597  0.920438  1
  O  O27  1  0.484196  0.210411  0.347087  1
  O  O28  1  0.557429  0.558401  0.577779  1
  O  O29  1  0.306391  0.577779  0.558401  1
  O  O30  1  0.958305  0.347087  0.210411  1
  O  O31  1  0.760597  0.272993  0.045971  1
  O  O32  1  0.319405  0.483810  0.235005  1
  O  O33  1  0.558401  0.557429  0.306391  1
  O  O34  1  0.288220  0.014995  0.766190  1
  O  O35  1  0.014995  0.288220  0.930595  1
  O  O36  1  0.039589  0.765804  0.291695  1
  O  O37  1  0.347087  0.958305  0.484196  1
  O  O38  1  0.902913  0.291695  0.765804  1
  O  O39  1  0.210411  0.484196  0.958305  1
  O  O40  1  0.235005  0.961780  0.319405  1
  O  O41  1  0.961780  0.235005  0.483810  1
  O  O42  1  0.691599  0.692571  0.943609  1
  O  O43  1  0.930595  0.766190  0.014995  1
  O  O44  1  0.489403  0.977007  0.204029  1
  O  O45  1  0.291695  0.902913  0.039589  1
  O  O46  1  0.943609  0.672221  0.691599  1
  O  O47  1  0.692571  0.691599  0.672221  1
  O  O48  1  0.765804  0.039589  0.902913  1
  O  O49  1  0.977007  0.489403  0.329562  1
  O  O50  1  0.045971  0.920438  0.760597  1
  O  O51  1  0.329562  0.204029  0.977007  1
  O  O52  1  0.672221  0.943609  0.692571  1
  O  O53  1  0.483810  0.319405  0.961780  1
