# generated using pymatgen
data_SrLiLa7Fe3O16
_symmetry_space_group_name_H-M   'P 1'
_cell_length_a   5.50097885
_cell_length_b   5.50097885
_cell_length_c   12.79508832
_cell_angle_alpha   90.00000000
_cell_angle_beta   90.00000000
_cell_angle_gamma   90.00000000
_symmetry_Int_Tables_number   1
_chemical_formula_structural   SrLiLa7Fe3O16
_chemical_formula_sum   'Sr1 Li1 La7 Fe3 O16'
_cell_volume   387.18920313
_cell_formula_units_Z   1
loop_
 _symmetry_equiv_pos_site_id
 _symmetry_equiv_pos_as_xyz
  1  'x, y, z'
loop_
 _atom_site_type_symbol
 _atom_site_label
 _atom_site_symmetry_multiplicity
 _atom_site_fract_x
 _atom_site_fract_y
 _atom_site_fract_z
 _atom_site_occupancy
  Sr  Sr0  1  0.500000  0.500000  0.355789  1
  Li  Li1  1  0.000000  0.000000  0.999154  1
  La  La2  1  0.000000  0.500000  0.136809  1
  La  La3  1  0.000000  0.000000  0.358231  1
  La  La4  1  0.000000  0.000000  0.642755  1
  La  La5  1  0.000000  0.500000  0.865541  1
  La  La6  1  0.500000  0.000000  0.136809  1
  La  La7  1  0.500000  0.500000  0.640631  1
  La  La8  1  0.500000  0.000000  0.865541  1
  Fe  Fe9  1  0.000000  0.500000  0.497393  1
  Fe  Fe10  1  0.500000  0.500000  0.004524  1
  Fe  Fe11  1  0.500000  0.000000  0.497393  1
  O  O12  1  0.000000  0.000000  0.182693  1
  O  O13  1  0.000000  0.500000  0.319431  1
  O  O14  1  0.000000  0.000000  0.817875  1
  O  O15  1  0.000000  0.500000  0.681023  1
  O  O16  1  0.250316  0.250316  0.504050  1
  O  O17  1  0.250316  0.749684  0.504050  1
  O  O18  1  0.250391  0.250391  0.998440  1
  O  O19  1  0.250391  0.749610  0.998440  1
  O  O20  1  0.500000  0.500000  0.165707  1
  O  O21  1  0.500000  0.000000  0.681023  1
  O  O22  1  0.500000  0.500000  0.822284  1
  O  O23  1  0.500000  0.000000  0.319431  1
  O  O24  1  0.749610  0.250391  0.998440  1
  O  O25  1  0.749610  0.749610  0.998440  1
  O  O26  1  0.749684  0.250316  0.504050  1
  O  O27  1  0.749684  0.749684  0.504050  1
