# generated using pymatgen
data_Sm(FeO2)2
_symmetry_space_group_name_H-M   'P 1'
_cell_length_a   8.65529010
_cell_length_b   8.65529010
_cell_length_c   8.65529010
_cell_angle_alpha   24.10767659
_cell_angle_beta   24.10767659
_cell_angle_gamma   24.10767659
_symmetry_Int_Tables_number   1
_chemical_formula_structural   Sm(FeO2)2
_chemical_formula_sum   'Sm1 Fe2 O4'
_cell_volume   95.06394679
_cell_formula_units_Z   1
loop_
 _symmetry_equiv_pos_site_id
 _symmetry_equiv_pos_as_xyz
  1  'x, y, z'
loop_
 _atom_site_type_symbol
 _atom_site_label
 _atom_site_symmetry_multiplicity
 _atom_site_fract_x
 _atom_site_fract_y
 _atom_site_fract_z
 _atom_site_occupancy
  Sm  Sm0  1  0.999840  0.999840  0.999840  1
  Fe  Fe1  1  0.211331  0.211331  0.211331  1
  Fe  Fe2  1  0.786663  0.786663  0.786663  1
  O  O3  1  0.121705  0.121705  0.121705  1
  O  O4  1  0.292262  0.292262  0.292262  1
  O  O5  1  0.710095  0.710095  0.710095  1
  O  O6  1  0.864900  0.864900  0.864900  1
