# generated using pymatgen
data_Te3WO12
_symmetry_space_group_name_H-M   'P 1'
_cell_length_a   4.98630832
_cell_length_b   8.53986764
_cell_length_c   5.23885442
_cell_angle_alpha   90.00000000
_cell_angle_beta   91.29017434
_cell_angle_gamma   90.00000000
_symmetry_Int_Tables_number   1
_chemical_formula_structural   Te3WO12
_chemical_formula_sum   'Te3 W1 O12'
_cell_volume   223.02650806
_cell_formula_units_Z   1
loop_
 _symmetry_equiv_pos_site_id
 _symmetry_equiv_pos_as_xyz
  1  'x, y, z'
loop_
 _atom_site_type_symbol
 _atom_site_label
 _atom_site_symmetry_multiplicity
 _atom_site_fract_x
 _atom_site_fract_y
 _atom_site_fract_z
 _atom_site_occupancy
  Te  Te0  1  0.500000  0.579646  0.000000  1
  Te  Te1  1  0.000000  0.087697  0.500000  1
  Te  Te2  1  0.500000  0.397845  0.500000  1
  W  W3  1  0.000000  0.898569  0.000000  1
  O  O4  1  0.255782  0.742729  0.105757  1
  O  O5  1  0.285683  0.419728  0.183175  1
  O  O6  1  0.203599  0.063223  0.190621  1
  O  O7  1  0.707682  0.563613  0.318862  1
  O  O8  1  0.790919  0.927303  0.309466  1
  O  O9  1  0.749283  0.245283  0.362855  1
  O  O10  1  0.250717  0.245283  0.637145  1
  O  O11  1  0.209081  0.927303  0.690534  1
  O  O12  1  0.292318  0.563613  0.681138  1
  O  O13  1  0.796401  0.063223  0.809379  1
  O  O14  1  0.714317  0.419728  0.816825  1
  O  O15  1  0.744218  0.742729  0.894243  1
