# generated using pymatgen
data_Li2Mn3(PO4)3
_symmetry_space_group_name_H-M   'P 1'
_cell_length_a   8.73217788
_cell_length_b   8.73217788
_cell_length_c   6.67910773
_cell_angle_alpha   71.55649884
_cell_angle_beta   108.44350116
_cell_angle_gamma   87.51156229
_symmetry_Int_Tables_number   1
_chemical_formula_structural   Li2Mn3(PO4)3
_chemical_formula_sum   'Li4 Mn6 P6 O24'
_cell_volume   452.44870905
_cell_formula_units_Z   2
loop_
 _symmetry_equiv_pos_site_id
 _symmetry_equiv_pos_as_xyz
  1  'x, y, z'
loop_
 _atom_site_type_symbol
 _atom_site_label
 _atom_site_symmetry_multiplicity
 _atom_site_fract_x
 _atom_site_fract_y
 _atom_site_fract_z
 _atom_site_occupancy
  Li  Li0  1  0.500000  0.500000  0.500000  1
  Li  Li1  1  0.500000  0.500000  0.000000  1
  Li  Li2  1  0.990030  0.990030  0.750000  1
  Li  Li3  1  0.009970  0.009970  0.250000  1
  Mn  Mn4  1  0.619878  0.062782  0.362362  1
  Mn  Mn5  1  0.937218  0.380122  0.862362  1
  Mn  Mn6  1  0.273696  0.273696  0.750000  1
  Mn  Mn7  1  0.726304  0.726304  0.250000  1
  Mn  Mn8  1  0.062782  0.619878  0.137638  1
  Mn  Mn9  1  0.380122  0.937218  0.637638  1
  P  P10  1  0.662056  0.123178  0.874696  1
  P  P11  1  0.876822  0.337944  0.374696  1
  P  P12  1  0.707470  0.707470  0.750000  1
  P  P13  1  0.292530  0.292530  0.250000  1
  P  P14  1  0.123178  0.662056  0.625304  1
  P  P15  1  0.337944  0.876822  0.125304  1
  O  O16  1  0.840449  0.158110  0.903114  1
  O  O17  1  0.841890  0.159551  0.403114  1
  O  O18  1  0.956029  0.396037  0.190124  1
  O  O19  1  0.603963  0.043971  0.690124  1
  O  O20  1  0.325752  0.005724  0.895203  1
  O  O21  1  0.994276  0.674248  0.395203  1
  O  O22  1  0.721551  0.462172  0.309957  1
  O  O23  1  0.537828  0.278449  0.809957  1
  O  O24  1  0.724692  0.534295  0.733056  1
  O  O25  1  0.465705  0.275308  0.233056  1
  O  O26  1  0.825247  0.733326  0.962355  1
  O  O27  1  0.266674  0.174753  0.462355  1
  O  O28  1  0.174753  0.266674  0.037645  1
  O  O29  1  0.733326  0.825247  0.537645  1
  O  O30  1  0.534295  0.724692  0.766944  1
  O  O31  1  0.275308  0.465705  0.266944  1
  O  O32  1  0.278449  0.537828  0.690043  1
  O  O33  1  0.462172  0.721551  0.190043  1
  O  O34  1  0.005724  0.325752  0.604797  1
  O  O35  1  0.674248  0.994276  0.104797  1
  O  O36  1  0.396037  0.956029  0.309876  1
  O  O37  1  0.043971  0.603963  0.809876  1
  O  O38  1  0.159551  0.841890  0.096886  1
  O  O39  1  0.158110  0.840449  0.596886  1
