# generated using pymatgen
data_V4O3F5
_symmetry_space_group_name_H-M   'P 1'
_cell_length_a   5.73175700
_cell_length_b   5.73175700
_cell_length_c   5.73175700
_cell_angle_alpha   114.17138956
_cell_angle_beta   109.94219418
_cell_angle_gamma   104.44559376
_symmetry_Int_Tables_number   1
_chemical_formula_structural   V4O3F5
_chemical_formula_sum   'V4 O3 F5'
_cell_volume   143.91496950
_cell_formula_units_Z   1
loop_
 _symmetry_equiv_pos_site_id
 _symmetry_equiv_pos_as_xyz
  1  'x, y, z'
loop_
 _atom_site_type_symbol
 _atom_site_label
 _atom_site_symmetry_multiplicity
 _atom_site_fract_x
 _atom_site_fract_y
 _atom_site_fract_z
 _atom_site_occupancy
  V  V0  1  0.510080  0.230646  0.740726  1
  V  V1  1  0.510080  0.769354  0.279434  1
  V  V2  1  0.972233  0.500000  0.472233  1
  V  V3  1  0.008755  1.000000  0.008755  1
  O  O4  1  0.687130  0.500000  0.187130  1
  O  O5  1  0.718061  0.000000  0.718061  1
  O  O6  1  0.297753  0.000000  0.297753  1
  F  F7  1  0.807077  0.061571  0.256370  1
  F  F8  1  0.807077  0.550708  0.745506  1
  F  F9  1  0.292157  0.500000  0.792157  1
  F  F10  1  0.194798  0.449292  0.256370  1
  F  F11  1  0.194798  0.938429  0.745506  1
