# generated using pymatgen
data_Na4AlP2HO9
_symmetry_space_group_name_H-M   'P 1'
_cell_length_a   7.00741848
_cell_length_b   14.86862884
_cell_length_c   15.46785063
_cell_angle_alpha   90.00000000
_cell_angle_beta   90.00000000
_cell_angle_gamma   90.00000000
_symmetry_Int_Tables_number   1
_chemical_formula_structural   Na4AlP2HO9
_chemical_formula_sum   'Na32 Al8 P16 H8 O72'
_cell_volume   1611.60625433
_cell_formula_units_Z   8
loop_
 _symmetry_equiv_pos_site_id
 _symmetry_equiv_pos_as_xyz
  1  'x, y, z'
loop_
 _atom_site_type_symbol
 _atom_site_label
 _atom_site_symmetry_multiplicity
 _atom_site_fract_x
 _atom_site_fract_y
 _atom_site_fract_z
 _atom_site_occupancy
  Na  Na0  1  0.250000  0.889585  0.131079  1
  Na  Na1  1  0.750000  0.110415  0.868921  1
  Na  Na2  1  0.750000  0.610415  0.131079  1
  Na  Na3  1  0.250000  0.389585  0.868921  1
  Na  Na4  1  0.479865  0.482982  0.254841  1
  Na  Na5  1  0.979865  0.517018  0.745159  1
  Na  Na6  1  0.520135  0.017018  0.254841  1
  Na  Na7  1  0.020135  0.982982  0.745159  1
  Na  Na8  1  0.520135  0.517018  0.745159  1
  Na  Na9  1  0.020135  0.482982  0.254841  1
  Na  Na10  1  0.479865  0.982982  0.745159  1
  Na  Na11  1  0.979865  0.017018  0.254841  1
  Na  Na12  1  0.500000  0.250000  0.527989  1
  Na  Na13  1  0.000000  0.750000  0.472011  1
  Na  Na14  1  0.500000  0.750000  0.472011  1
  Na  Na15  1  0.000000  0.250000  0.527989  1
  Na  Na16  1  0.500000  0.250000  0.221957  1
  Na  Na17  1  0.000000  0.750000  0.778043  1
  Na  Na18  1  0.500000  0.750000  0.778043  1
  Na  Na19  1  0.000000  0.250000  0.221957  1
  Na  Na20  1  0.500000  0.250000  0.991634  1
  Na  Na21  1  0.000000  0.750000  0.008366  1
  Na  Na22  1  0.500000  0.750000  0.008366  1
  Na  Na23  1  0.000000  0.250000  0.991634  1
  Na  Na24  1  0.500000  0.750000  0.255822  1
  Na  Na25  1  0.000000  0.250000  0.744178  1
  Na  Na26  1  0.500000  0.250000  0.744178  1
  Na  Na27  1  0.000000  0.750000  0.255822  1
  Na  Na28  1  0.250000  0.632884  0.625304  1
  Na  Na29  1  0.750000  0.367116  0.374696  1
  Na  Na30  1  0.750000  0.867116  0.625304  1
  Na  Na31  1  0.250000  0.132884  0.374696  1
  Al  Al32  1  0.500000  0.500000  0.500000  1
  Al  Al33  1  0.000000  0.500000  0.500000  1
  Al  Al34  1  0.500000  0.000000  0.500000  1
  Al  Al35  1  0.000000  0.000000  0.500000  1
  Al  Al36  1  0.500000  0.000000  0.000000  1
  Al  Al37  1  0.000000  0.000000  0.000000  1
  Al  Al38  1  0.500000  0.500000  0.000000  1
  Al  Al39  1  0.000000  0.500000  0.000000  1
  P  P40  1  0.250000  0.364271  0.379650  1
  P  P41  1  0.750000  0.635729  0.620350  1
  P  P42  1  0.750000  0.135729  0.379650  1
  P  P43  1  0.250000  0.864271  0.620350  1
  P  P44  1  0.250000  0.120516  0.128673  1
  P  P45  1  0.750000  0.879484  0.871327  1
  P  P46  1  0.750000  0.379484  0.128673  1
  P  P47  1  0.250000  0.620516  0.871327  1
  P  P48  1  0.750000  0.120166  0.633057  1
  P  P49  1  0.250000  0.879834  0.366943  1
  P  P50  1  0.250000  0.379834  0.633057  1
  P  P51  1  0.750000  0.620166  0.366943  1
  P  P52  1  0.750000  0.370077  0.875076  1
  P  P53  1  0.250000  0.629923  0.124924  1
  P  P54  1  0.250000  0.129923  0.875076  1
  P  P55  1  0.750000  0.870077  0.124924  1
  H  H56  1  0.250000  0.919968  0.933786  1
  H  H57  1  0.750000  0.080032  0.066214  1
  H  H58  1  0.750000  0.580032  0.933786  1
  H  H59  1  0.250000  0.419968  0.066214  1
  H  H60  1  0.250000  0.587536  0.445999  1
  H  H61  1  0.750000  0.412464  0.554001  1
  H  H62  1  0.750000  0.912464  0.445999  1
  H  H63  1  0.250000  0.087536  0.554001  1
  O  O64  1  0.250000  0.273329  0.426812  1
  O  O65  1  0.750000  0.726671  0.573188  1
  O  O66  1  0.750000  0.226671  0.426812  1
  O  O67  1  0.250000  0.773329  0.573188  1
  O  O68  1  0.250000  0.352960  0.279847  1
  O  O69  1  0.750000  0.647040  0.720153  1
  O  O70  1  0.750000  0.147040  0.279847  1
  O  O71  1  0.250000  0.852960  0.720153  1
  O  O72  1  0.433583  0.419919  0.403893  1
  O  O73  1  0.933583  0.580081  0.596107  1
  O  O74  1  0.566417  0.080081  0.403893  1
  O  O75  1  0.066417  0.919919  0.596107  1
  O  O76  1  0.566417  0.580081  0.596107  1
  O  O77  1  0.066417  0.419919  0.403893  1
  O  O78  1  0.433583  0.919919  0.596107  1
  O  O79  1  0.933583  0.080081  0.403893  1
  O  O80  1  0.250000  0.215571  0.089314  1
  O  O81  1  0.750000  0.784429  0.910686  1
  O  O82  1  0.750000  0.284429  0.089314  1
  O  O83  1  0.250000  0.715571  0.910686  1
  O  O84  1  0.431064  0.064656  0.102809  1
  O  O85  1  0.931064  0.935344  0.897191  1
  O  O86  1  0.568936  0.435344  0.102809  1
  O  O87  1  0.068936  0.564656  0.897191  1
  O  O88  1  0.568936  0.935344  0.897191  1
  O  O89  1  0.068936  0.064656  0.102809  1
  O  O90  1  0.431064  0.564656  0.897191  1
  O  O91  1  0.931064  0.435344  0.102809  1
  O  O92  1  0.250000  0.129547  0.228646  1
  O  O93  1  0.750000  0.870453  0.771354  1
  O  O94  1  0.750000  0.370453  0.228646  1
  O  O95  1  0.250000  0.629547  0.771354  1
  O  O96  1  0.750000  0.224074  0.639159  1
  O  O97  1  0.250000  0.775926  0.360841  1
  O  O98  1  0.250000  0.275926  0.639159  1
  O  O99  1  0.750000  0.724074  0.360841  1
  O  O100  1  0.750000  0.079078  0.725025  1
  O  O101  1  0.250000  0.920922  0.274975  1
  O  O102  1  0.250000  0.420922  0.725025  1
  O  O103  1  0.750000  0.579078  0.274975  1
  O  O104  1  0.567856  0.089397  0.582790  1
  O  O105  1  0.067856  0.910603  0.417210  1
  O  O106  1  0.432144  0.410603  0.582790  1
  O  O107  1  0.932144  0.589397  0.417210  1
  O  O108  1  0.432144  0.910603  0.417210  1
  O  O109  1  0.932144  0.089397  0.582790  1
  O  O110  1  0.567856  0.589397  0.417210  1
  O  O111  1  0.067856  0.410603  0.582790  1
  O  O112  1  0.750000  0.265852  0.867257  1
  O  O113  1  0.250000  0.734148  0.132743  1
  O  O114  1  0.250000  0.234148  0.867257  1
  O  O115  1  0.750000  0.765852  0.132743  1
  O  O116  1  0.566745  0.397776  0.927600  1
  O  O117  1  0.066745  0.602224  0.072400  1
  O  O118  1  0.433255  0.102224  0.927600  1
  O  O119  1  0.933255  0.897776  0.072400  1
  O  O120  1  0.433255  0.602224  0.072400  1
  O  O121  1  0.933255  0.397776  0.927600  1
  O  O122  1  0.566745  0.897776  0.072400  1
  O  O123  1  0.066745  0.102224  0.927600  1
  O  O124  1  0.750000  0.413714  0.785326  1
  O  O125  1  0.250000  0.586286  0.214674  1
  O  O126  1  0.250000  0.086286  0.785326  1
  O  O127  1  0.750000  0.913714  0.214674  1
  O  O128  1  0.250000  0.950633  0.989529  1
  O  O129  1  0.750000  0.049367  0.010471  1
  O  O130  1  0.750000  0.549367  0.989529  1
  O  O131  1  0.250000  0.450633  0.010471  1
  O  O132  1  0.250000  0.550877  0.498144  1
  O  O133  1  0.750000  0.449123  0.501856  1
  O  O134  1  0.750000  0.949123  0.498144  1
  O  O135  1  0.250000  0.050877  0.501856  1
