# generated using pymatgen
data_EuSeO3
_symmetry_space_group_name_H-M   'P 1'
_cell_length_a   4.47221038
_cell_length_b   5.51394183
_cell_length_c   6.57938055
_cell_angle_alpha   90.00000000
_cell_angle_beta   107.11548226
_cell_angle_gamma   90.00000000
_symmetry_Int_Tables_number   1
_chemical_formula_structural   EuSeO3
_chemical_formula_sum   'Eu2 Se2 O6'
_cell_volume   155.05905895
_cell_formula_units_Z   2
loop_
 _symmetry_equiv_pos_site_id
 _symmetry_equiv_pos_as_xyz
  1  'x, y, z'
loop_
 _atom_site_type_symbol
 _atom_site_label
 _atom_site_symmetry_multiplicity
 _atom_site_fract_x
 _atom_site_fract_y
 _atom_site_fract_z
 _atom_site_occupancy
  Eu  Eu0  1  0.657902  0.250000  0.300682  1
  Eu  Eu1  1  0.342098  0.750000  0.699318  1
  Se  Se2  1  0.929170  0.250000  0.846363  1
  Se  Se3  1  0.070830  0.750000  0.153637  1
  O  O4  1  0.668241  0.750000  0.107935  1
  O  O5  1  0.817106  0.491289  0.666588  1
  O  O6  1  0.817106  0.008711  0.666588  1
  O  O7  1  0.182894  0.991289  0.333412  1
  O  O8  1  0.182894  0.508711  0.333412  1
  O  O9  1  0.331759  0.250000  0.892065  1
