# generated using pymatgen
data_Li2Cu5F12
_symmetry_space_group_name_H-M   'P 1'
_cell_length_a   7.15198777
_cell_length_b   8.82290552
_cell_length_c   10.11438548
_cell_angle_alpha   90.00000000
_cell_angle_beta   134.31270092
_cell_angle_gamma   90.00000000
_symmetry_Int_Tables_number   1
_chemical_formula_structural   Li2Cu5F12
_chemical_formula_sum   'Li4 Cu10 F24'
_cell_volume   456.67846597
_cell_formula_units_Z   2
loop_
 _symmetry_equiv_pos_site_id
 _symmetry_equiv_pos_as_xyz
  1  'x, y, z'
loop_
 _atom_site_type_symbol
 _atom_site_label
 _atom_site_symmetry_multiplicity
 _atom_site_fract_x
 _atom_site_fract_y
 _atom_site_fract_z
 _atom_site_occupancy
  Li  Li0  1  0.000000  0.000000  0.000000  1
  Li  Li1  1  0.000000  0.919917  0.250000  1
  Li  Li2  1  0.000000  0.000000  0.500000  1
  Li  Li3  1  0.000000  0.080083  0.750000  1
  Cu  Cu4  1  0.500000  0.500000  0.500000  1
  Cu  Cu5  1  0.998526  0.670508  0.999761  1
  Cu  Cu6  1  0.472844  0.169071  0.492330  1
  Cu  Cu7  1  0.527156  0.169071  0.007670  1
  Cu  Cu8  1  0.500000  0.500000  0.000000  1
  Cu  Cu9  1  0.001474  0.670508  0.500239  1
  Cu  Cu10  1  0.998526  0.329492  0.499761  1
  Cu  Cu11  1  0.472844  0.830929  0.992330  1
  Cu  Cu12  1  0.527156  0.830929  0.507670  1
  Cu  Cu13  1  0.001474  0.329492  0.000239  1
  F  F14  1  0.671296  0.330524  0.675706  1
  F  F15  1  0.683155  0.663487  0.683571  1
  F  F16  1  0.307291  0.996516  0.318779  1
  F  F17  1  0.832629  0.166966  0.010682  1
  F  F18  1  0.824503  0.500432  0.002884  1
  F  F19  1  0.835297  0.833202  0.021403  1
  F  F20  1  0.164703  0.833202  0.478597  1
  F  F21  1  0.175497  0.500432  0.497116  1
  F  F22  1  0.167371  0.166966  0.489318  1
  F  F23  1  0.692709  0.996516  0.181221  1
  F  F24  1  0.316845  0.663487  0.816429  1
  F  F25  1  0.328704  0.330524  0.824294  1
  F  F26  1  0.683155  0.336513  0.183571  1
  F  F27  1  0.671296  0.669476  0.175706  1
  F  F28  1  0.307291  0.003484  0.818779  1
  F  F29  1  0.832629  0.833034  0.510682  1
  F  F30  1  0.824503  0.499568  0.502884  1
  F  F31  1  0.835297  0.166798  0.521403  1
  F  F32  1  0.164703  0.166798  0.978597  1
  F  F33  1  0.175497  0.499568  0.997116  1
  F  F34  1  0.167371  0.833034  0.989318  1
  F  F35  1  0.692709  0.003484  0.681221  1
  F  F36  1  0.316845  0.336513  0.316429  1
  F  F37  1  0.328704  0.669476  0.324294  1
