# generated using pymatgen
data_Li2CuCO4
_symmetry_space_group_name_H-M   'P 1'
_cell_length_a   6.90131294
_cell_length_b   5.05213829
_cell_length_c   10.71298397
_cell_angle_alpha   90.00000000
_cell_angle_beta   98.79250420
_cell_angle_gamma   90.00000000
_symmetry_Int_Tables_number   1
_chemical_formula_structural   Li2CuCO4
_chemical_formula_sum   'Li8 Cu4 C4 O16'
_cell_volume   369.13355068
_cell_formula_units_Z   4
loop_
 _symmetry_equiv_pos_site_id
 _symmetry_equiv_pos_as_xyz
  1  'x, y, z'
loop_
 _atom_site_type_symbol
 _atom_site_label
 _atom_site_symmetry_multiplicity
 _atom_site_fract_x
 _atom_site_fract_y
 _atom_site_fract_z
 _atom_site_occupancy
  Li  Li0  1  0.116488  0.660982  0.791233  1
  Li  Li1  1  0.116488  0.839018  0.291233  1
  Li  Li2  1  0.223804  0.824083  0.567677  1
  Li  Li3  1  0.223804  0.675917  0.067677  1
  Li  Li4  1  0.776196  0.324083  0.932323  1
  Li  Li5  1  0.776196  0.175917  0.432323  1
  Li  Li6  1  0.883512  0.160982  0.708767  1
  Li  Li7  1  0.883512  0.339018  0.208767  1
  Cu  Cu8  1  0.537458  0.837742  0.821735  1
  Cu  Cu9  1  0.462542  0.337742  0.678265  1
  Cu  Cu10  1  0.537458  0.662258  0.321735  1
  Cu  Cu11  1  0.462542  0.162258  0.178265  1
  C  C12  1  0.184056  0.173947  0.939101  1
  C  C13  1  0.184056  0.326053  0.439101  1
  C  C14  1  0.815944  0.673947  0.560899  1
  C  C15  1  0.815944  0.826053  0.060899  1
  O  O16  1  0.059627  0.307854  0.859524  1
  O  O17  1  0.059627  0.192146  0.359524  1
  O  O18  1  0.205037  0.923654  0.927402  1
  O  O19  1  0.205037  0.576346  0.427402  1
  O  O20  1  0.285880  0.194424  0.531831  1
  O  O21  1  0.353508  0.654971  0.715816  1
  O  O22  1  0.285880  0.305576  0.031831  1
  O  O23  1  0.353508  0.845029  0.215816  1
  O  O24  1  0.646492  0.154971  0.784184  1
  O  O25  1  0.714120  0.694424  0.968169  1
  O  O26  1  0.646492  0.345029  0.284184  1
  O  O27  1  0.714120  0.805576  0.468169  1
  O  O28  1  0.794963  0.423654  0.572598  1
  O  O29  1  0.794963  0.076346  0.072598  1
  O  O30  1  0.940373  0.807854  0.640476  1
  O  O31  1  0.940373  0.692146  0.140476  1
