# generated using pymatgen
data_MnP6(WO8)3
_symmetry_space_group_name_H-M   'P 1'
_cell_length_a   8.98415435
_cell_length_b   8.98415435
_cell_length_c   8.98415435
_cell_angle_alpha   58.83083957
_cell_angle_beta   58.83083957
_cell_angle_gamma   58.83083957
_symmetry_Int_Tables_number   1
_chemical_formula_structural   MnP6(WO8)3
_chemical_formula_sum   'Mn1 P6 W3 O24'
_cell_volume   499.07457704
_cell_formula_units_Z   1
loop_
 _symmetry_equiv_pos_site_id
 _symmetry_equiv_pos_as_xyz
  1  'x, y, z'
loop_
 _atom_site_type_symbol
 _atom_site_label
 _atom_site_symmetry_multiplicity
 _atom_site_fract_x
 _atom_site_fract_y
 _atom_site_fract_z
 _atom_site_occupancy
  Mn  Mn0  1  0.139367  0.139367  0.139367  1
  P  P1  1  0.248006  0.536113  0.963232  1
  P  P2  1  0.963232  0.248006  0.536113  1
  P  P3  1  0.536113  0.963232  0.248006  1
  P  P4  1  0.465820  0.037789  0.745685  1
  P  P5  1  0.037789  0.745685  0.465820  1
  P  P6  1  0.745685  0.465820  0.037789  1
  W  W7  1  0.856783  0.856783  0.856783  1
  W  W8  1  0.642752  0.642752  0.642752  1
  W  W9  1  0.356552  0.356552  0.356552  1
  O  O10  1  0.696735  0.517576  0.868239  1
  O  O11  1  0.517576  0.868239  0.696735  1
  O  O12  1  0.077401  0.715502  0.938353  1
  O  O13  1  0.868239  0.696735  0.517576  1
  O  O14  1  0.419045  0.584224  0.784917  1
  O  O15  1  0.238529  0.370604  0.973664  1
  O  O16  1  0.938353  0.077401  0.715502  1
  O  O17  1  0.784917  0.419045  0.584224  1
  O  O18  1  0.584224  0.784917  0.419045  1
  O  O19  1  0.637626  0.009558  0.774078  1
  O  O20  1  0.294628  0.047154  0.909552  1
  O  O21  1  0.009558  0.774078  0.637626  1
  O  O22  1  0.973664  0.238529  0.370604  1
  O  O23  1  0.715502  0.938353  0.077401  1
  O  O24  1  0.370604  0.973664  0.238529  1
  O  O25  1  0.447836  0.211085  0.568966  1
  O  O26  1  0.211085  0.568966  0.447836  1
  O  O27  1  0.047154  0.909552  0.294628  1
  O  O28  1  0.774078  0.637626  0.009558  1
  O  O29  1  0.568966  0.447836  0.211085  1
  O  O30  1  0.130497  0.281024  0.511105  1
  O  O31  1  0.909552  0.294628  0.047154  1
  O  O32  1  0.511105  0.130497  0.281024  1
  O  O33  1  0.281024  0.511105  0.130497  1
