# generated using pymatgen
data_RbHO
_symmetry_space_group_name_H-M   'P 1'
_cell_length_a   4.06895305
_cell_length_b   6.64732947
_cell_length_c   8.07205934
_cell_angle_alpha   90.00000000
_cell_angle_beta   90.00000000
_cell_angle_gamma   90.00000000
_symmetry_Int_Tables_number   1
_chemical_formula_structural   RbHO
_chemical_formula_sum   'Rb4 H4 O4'
_cell_volume   218.33040953
_cell_formula_units_Z   4
loop_
 _symmetry_equiv_pos_site_id
 _symmetry_equiv_pos_as_xyz
  1  'x, y, z'
loop_
 _atom_site_type_symbol
 _atom_site_label
 _atom_site_symmetry_multiplicity
 _atom_site_fract_x
 _atom_site_fract_y
 _atom_site_fract_z
 _atom_site_occupancy
  Rb  Rb0  1  0.250000  0.968675  0.806222  1
  Rb  Rb1  1  0.750000  0.531325  0.306222  1
  Rb  Rb2  1  0.250000  0.468675  0.693778  1
  Rb  Rb3  1  0.750000  0.031325  0.193778  1
  H  H4  1  0.750000  0.067163  0.537715  1
  H  H5  1  0.250000  0.432837  0.037715  1
  H  H6  1  0.750000  0.567163  0.962285  1
  H  H7  1  0.250000  0.932837  0.462285  1
  O  O8  1  0.250000  0.792538  0.428040  1
  O  O9  1  0.750000  0.707462  0.928040  1
  O  O10  1  0.250000  0.292538  0.071960  1
  O  O11  1  0.750000  0.207462  0.571960  1
