# generated using pymatgen
data_LiV3O5F3
_symmetry_space_group_name_H-M   'P 1'
_cell_length_a   6.65582449
_cell_length_b   3.83493221
_cell_length_c   12.05330104
_cell_angle_alpha   90.00000000
_cell_angle_beta   102.59441243
_cell_angle_gamma   90.00000000
_symmetry_Int_Tables_number   1
_chemical_formula_structural   LiV3O5F3
_chemical_formula_sum   'Li2 V6 O10 F6'
_cell_volume   300.25330621
_cell_formula_units_Z   2
loop_
 _symmetry_equiv_pos_site_id
 _symmetry_equiv_pos_as_xyz
  1  'x, y, z'
loop_
 _atom_site_type_symbol
 _atom_site_label
 _atom_site_symmetry_multiplicity
 _atom_site_fract_x
 _atom_site_fract_y
 _atom_site_fract_z
 _atom_site_occupancy
  Li  Li0  1  0.181378  0.000000  0.687370  1
  Li  Li1  1  0.811884  0.500000  0.321027  1
  V  V2  1  0.135612  0.500000  0.943666  1
  V  V3  1  0.321236  0.500000  0.455793  1
  V  V4  1  0.270542  0.500000  0.201399  1
  V  V5  1  0.727137  0.000000  0.798993  1
  V  V6  1  0.680070  0.000000  0.538934  1
  V  V7  1  0.920418  0.000000  0.075230  1
  O  O8  1  0.034769  0.000000  0.930416  1
  O  O9  1  0.126068  0.500000  0.329509  1
  O  O10  1  0.181731  0.000000  0.171063  1
  O  O11  1  0.491901  0.000000  0.720011  1
  O  O12  1  0.388091  0.000000  0.475977  1
  O  O13  1  0.351846  0.500000  0.046546  1
  O  O14  1  0.616050  0.500000  0.523968  1
  O  O15  1  0.501135  0.500000  0.289455  1
  O  O16  1  0.864024  0.000000  0.670403  1
  O  O17  1  0.966580  0.500000  0.064603  1
  F  F18  1  0.205673  0.500000  0.800774  1
  F  F19  1  0.179679  0.500000  0.573566  1
  F  F20  1  0.661535  0.000000  0.953354  1
  F  F21  1  0.794509  0.500000  0.824301  1
  F  F22  1  0.821343  0.000000  0.420618  1
  F  F23  1  0.766788  0.000000  0.183019  1
