# generated using pymatgen
data_Lu2TiO5
_symmetry_space_group_name_H-M   'P 1'
_cell_length_a   3.63521712
_cell_length_b   10.29169499
_cell_length_c   11.09708923
_cell_angle_alpha   90.00000000
_cell_angle_beta   90.00000000
_cell_angle_gamma   90.00000000
_symmetry_Int_Tables_number   1
_chemical_formula_structural   Lu2TiO5
_chemical_formula_sum   'Lu8 Ti4 O20'
_cell_volume   415.17035930
_cell_formula_units_Z   4
loop_
 _symmetry_equiv_pos_site_id
 _symmetry_equiv_pos_as_xyz
  1  'x, y, z'
loop_
 _atom_site_type_symbol
 _atom_site_label
 _atom_site_symmetry_multiplicity
 _atom_site_fract_x
 _atom_site_fract_y
 _atom_site_fract_z
 _atom_site_occupancy
  Lu  Lu0  1  0.250000  0.114994  0.775677  1
  Lu  Lu1  1  0.250000  0.134670  0.442919  1
  Lu  Lu2  1  0.750000  0.365330  0.942919  1
  Lu  Lu3  1  0.750000  0.385006  0.275677  1
  Lu  Lu4  1  0.250000  0.614994  0.724323  1
  Lu  Lu5  1  0.250000  0.634670  0.057081  1
  Lu  Lu6  1  0.750000  0.865330  0.557081  1
  Lu  Lu7  1  0.750000  0.885006  0.224323  1
  Ti  Ti8  1  0.250000  0.176062  0.119561  1
  Ti  Ti9  1  0.750000  0.323938  0.619561  1
  Ti  Ti10  1  0.250000  0.676062  0.380439  1
  Ti  Ti11  1  0.750000  0.823938  0.880439  1
  O  O12  1  0.750000  0.007421  0.395502  1
  O  O13  1  0.250000  0.007103  0.158846  1
  O  O14  1  0.250000  0.225930  0.954142  1
  O  O15  1  0.750000  0.244431  0.115961  1
  O  O16  1  0.750000  0.240051  0.773240  1
  O  O17  1  0.250000  0.259949  0.273240  1
  O  O18  1  0.250000  0.255569  0.615961  1
  O  O19  1  0.750000  0.274070  0.454142  1
  O  O20  1  0.750000  0.492897  0.658846  1
  O  O21  1  0.250000  0.492579  0.895502  1
  O  O22  1  0.750000  0.507421  0.104498  1
  O  O23  1  0.250000  0.507103  0.341154  1
  O  O24  1  0.250000  0.725930  0.545858  1
  O  O25  1  0.750000  0.744431  0.384039  1
  O  O26  1  0.750000  0.740051  0.726760  1
  O  O27  1  0.250000  0.759949  0.226760  1
  O  O28  1  0.250000  0.755569  0.884039  1
  O  O29  1  0.750000  0.774070  0.045858  1
  O  O30  1  0.750000  0.992897  0.841154  1
  O  O31  1  0.250000  0.992579  0.604498  1
