# generated using pymatgen
data_CrH18(O3F)3
_symmetry_space_group_name_H-M   'P 1'
_cell_length_a   6.84654101
_cell_length_b   6.84654101
_cell_length_c   6.84654101
_cell_angle_alpha   105.18622100
_cell_angle_beta   105.18622100
_cell_angle_gamma   105.18622100
_symmetry_Int_Tables_number   1
_chemical_formula_structural   CrH18(O3F)3
_chemical_formula_sum   'Cr1 H18 O9 F3'
_cell_volume   279.44789990
_cell_formula_units_Z   1
loop_
 _symmetry_equiv_pos_site_id
 _symmetry_equiv_pos_as_xyz
  1  'x, y, z'
loop_
 _atom_site_type_symbol
 _atom_site_label
 _atom_site_symmetry_multiplicity
 _atom_site_fract_x
 _atom_site_fract_y
 _atom_site_fract_z
 _atom_site_occupancy
  Cr  Cr0  1  0.000648  0.000648  0.000648  1
  H  H1  1  0.311150  0.572816  0.680021  1
  H  H2  1  0.680021  0.311150  0.572816  1
  H  H3  1  0.572816  0.680021  0.311150  1
  H  H4  1  0.316390  0.694618  0.510513  1
  H  H5  1  0.510513  0.316390  0.694618  1
  H  H6  1  0.694618  0.510513  0.316390  1
  H  H7  1  0.099167  0.207977  0.429947  1
  H  H8  1  0.429947  0.099167  0.207977  1
  H  H9  1  0.207977  0.429947  0.099167  1
  H  H10  1  0.854702  0.196264  0.293313  1
  H  H11  1  0.293313  0.854702  0.196264  1
  H  H12  1  0.196264  0.293313  0.854702  1
  H  H13  1  0.800638  0.708398  0.140158  1
  H  H14  1  0.140158  0.800638  0.708398  1
  H  H15  1  0.708398  0.140158  0.800638  1
  H  H16  1  0.790705  0.571898  0.894853  1
  H  H17  1  0.894853  0.790705  0.571898  1
  H  H18  1  0.571898  0.894853  0.790705  1
  O  O19  1  0.847145  0.718228  0.013588  1
  O  O20  1  0.013588  0.847145  0.718228  1
  O  O21  1  0.718228  0.013588  0.847145  1
  O  O22  1  0.979095  0.146570  0.284386  1
  O  O23  1  0.284386  0.979095  0.146570  1
  O  O24  1  0.146570  0.284386  0.979095  1
  O  O25  1  0.329190  0.717944  0.665764  1
  O  O26  1  0.665764  0.329190  0.717944  1
  O  O27  1  0.717944  0.665764  0.329190  1
  F  F28  1  0.275162  0.324798  0.667349  1
  F  F29  1  0.667349  0.275162  0.324798  1
  F  F30  1  0.324798  0.667349  0.275162  1
