# generated using pymatgen
data_Co3OF5
_symmetry_space_group_name_H-M   'P 1'
_cell_length_a   5.67268717
_cell_length_b   5.70857706
_cell_length_c   7.52107644
_cell_angle_alpha   71.89066964
_cell_angle_beta   71.55612282
_cell_angle_gamma   70.37802273
_symmetry_Int_Tables_number   1
_chemical_formula_structural   Co3OF5
_chemical_formula_sum   'Co6 O2 F10'
_cell_volume   211.84612465
_cell_formula_units_Z   2
loop_
 _symmetry_equiv_pos_site_id
 _symmetry_equiv_pos_as_xyz
  1  'x, y, z'
loop_
 _atom_site_type_symbol
 _atom_site_label
 _atom_site_symmetry_multiplicity
 _atom_site_fract_x
 _atom_site_fract_y
 _atom_site_fract_z
 _atom_site_occupancy
  Co  Co0  1  0.000000  0.000000  0.000000  1
  Co  Co1  1  0.000000  0.000000  0.500000  1
  Co  Co2  1  0.366985  0.303371  0.166958  1
  Co  Co3  1  0.330105  0.322558  0.673476  1
  Co  Co4  1  0.669895  0.677442  0.326524  1
  Co  Co5  1  0.633015  0.696629  0.833042  1
  O  O6  1  0.653640  0.032497  0.158481  1
  O  O7  1  0.346360  0.967503  0.841519  1
  F  F8  1  0.694223  0.308250  0.497699  1
  F  F9  1  0.054693  0.621455  0.165300  1
  F  F10  1  0.109855  0.105714  0.204415  1
  F  F11  1  0.764294  0.765838  0.537089  1
  F  F12  1  0.431121  0.435231  0.869293  1
  F  F13  1  0.235706  0.234162  0.462911  1
  F  F14  1  0.890145  0.894286  0.795585  1
  F  F15  1  0.568879  0.564769  0.130707  1
  F  F16  1  0.305777  0.691750  0.502301  1
  F  F17  1  0.945307  0.378545  0.834700  1
