# generated using pymatgen
data_Li4Ti2Co3O10
_symmetry_space_group_name_H-M   'P 1'
_cell_length_a   6.55718197
_cell_length_b   7.70525290
_cell_length_c   7.76809923
_cell_angle_alpha   94.31203407
_cell_angle_beta   91.59098265
_cell_angle_gamma   114.69728940
_symmetry_Int_Tables_number   1
_chemical_formula_structural   Li4Ti2Co3O10
_chemical_formula_sum   'Li8 Ti4 Co6 O20'
_cell_volume   354.81138461
_cell_formula_units_Z   2
loop_
 _symmetry_equiv_pos_site_id
 _symmetry_equiv_pos_as_xyz
  1  'x, y, z'
loop_
 _atom_site_type_symbol
 _atom_site_label
 _atom_site_symmetry_multiplicity
 _atom_site_fract_x
 _atom_site_fract_y
 _atom_site_fract_z
 _atom_site_occupancy
  Li  Li0  1  0.091943  0.405295  0.594359  1
  Li  Li1  1  0.191731  0.803760  0.700881  1
  Li  Li2  1  0.742585  0.493286  0.754063  1
  Li  Li3  1  0.257415  0.506714  0.245937  1
  Li  Li4  1  0.808269  0.196240  0.299119  1
  Li  Li5  1  0.908057  0.594705  0.405641  1
  Li  Li6  1  0.580715  0.397321  0.087637  1
  Li  Li7  1  0.419285  0.602679  0.912363  1
  Ti  Ti8  1  0.454605  0.301402  0.466932  1
  Ti  Ti9  1  0.545395  0.698598  0.533068  1
  Ti  Ti10  1  0.972985  0.306595  0.944584  1
  Ti  Ti11  1  0.027015  0.693405  0.055416  1
  Co  Co12  1  0.646000  0.099239  0.653196  1
  Co  Co13  1  0.354000  0.900761  0.346804  1
  Co  Co14  1  0.000000  0.000000  0.500000  1
  Co  Co15  1  0.500000  0.000000  0.000000  1
  Co  Co16  1  0.147056  0.097491  0.151782  1
  Co  Co17  1  0.852944  0.902509  0.848218  1
  O  O18  1  0.658150  0.955181  0.439421  1
  O  O19  1  0.247611  0.667185  0.469688  1
  O  O20  1  0.752389  0.332815  0.530312  1
  O  O21  1  0.863891  0.763419  0.630749  1
  O  O22  1  0.341850  0.044819  0.560579  1
  O  O23  1  0.428073  0.462294  0.651669  1
  O  O24  1  0.353271  0.766180  0.127460  1
  O  O25  1  0.054873  0.860107  0.273385  1
  O  O26  1  0.945127  0.139893  0.726615  1
  O  O27  1  0.923282  0.453678  0.154823  1
  O  O28  1  0.571927  0.537706  0.348331  1
  O  O29  1  0.552547  0.861649  0.764348  1
  O  O30  1  0.447453  0.138351  0.235652  1
  O  O31  1  0.136109  0.236581  0.369251  1
  O  O32  1  0.076718  0.546322  0.845177  1
  O  O33  1  0.150883  0.943488  0.940765  1
  O  O34  1  0.646729  0.233820  0.872540  1
  O  O35  1  0.747597  0.667011  0.961905  1
  O  O36  1  0.252403  0.332989  0.038095  1
  O  O37  1  0.849117  0.056512  0.059235  1
