# generated using pymatgen
data_Mn9CdO10
_symmetry_space_group_name_H-M   'P 1'
_cell_length_a   8.50715710
_cell_length_b   8.50715710
_cell_length_c   5.56955301
_cell_angle_alpha   83.71744007
_cell_angle_beta   96.28255993
_cell_angle_gamma   38.21325261
_symmetry_Int_Tables_number   1
_chemical_formula_structural   Mn9CdO10
_chemical_formula_sum   'Mn9 Cd1 O10'
_cell_volume   234.99311192
_cell_formula_units_Z   1
loop_
 _symmetry_equiv_pos_site_id
 _symmetry_equiv_pos_as_xyz
  1  'x, y, z'
loop_
 _atom_site_type_symbol
 _atom_site_label
 _atom_site_symmetry_multiplicity
 _atom_site_fract_x
 _atom_site_fract_y
 _atom_site_fract_z
 _atom_site_occupancy
  Mn  Mn0  1  0.299140  0.299140  0.500000  1
  Mn  Mn1  1  0.600953  0.600953  0.000000  1
  Mn  Mn2  1  0.100998  0.100998  0.500000  1
  Mn  Mn3  1  0.399047  0.399047  0.000000  1
  Mn  Mn4  1  0.201396  0.201396  0.000000  1
  Mn  Mn5  1  0.700860  0.700860  0.500000  1
  Mn  Mn6  1  0.899002  0.899002  0.500000  1
  Mn  Mn7  1  0.798604  0.798604  0.000000  1
  Mn  Mn8  1  0.000000  0.000000  0.000000  1
  Cd  Cd9  1  0.500000  0.500000  0.500000  1
  O  O10  1  0.347510  0.861161  0.243104  1
  O  O11  1  0.548896  0.052104  0.251495  1
  O  O12  1  0.947896  0.451104  0.251495  1
  O  O13  1  0.138839  0.652490  0.243104  1
  O  O14  1  0.451104  0.947896  0.748505  1
  O  O15  1  0.240155  0.759845  0.759786  1
  O  O16  1  0.759845  0.240155  0.240214  1
  O  O17  1  0.861161  0.347510  0.756896  1
  O  O18  1  0.052104  0.548896  0.748505  1
  O  O19  1  0.652490  0.138839  0.756896  1
