# generated using pymatgen
data_V3O5F
_symmetry_space_group_name_H-M   'P 1'
_cell_length_a   5.50530778
_cell_length_b   5.50530778
_cell_length_c   7.27417947
_cell_angle_alpha   71.86061075
_cell_angle_beta   108.13938925
_cell_angle_gamma   108.99272471
_symmetry_Int_Tables_number   1
_chemical_formula_structural   V3O5F
_chemical_formula_sum   'V6 O10 F2'
_cell_volume   192.61962395
_cell_formula_units_Z   2
loop_
 _symmetry_equiv_pos_site_id
 _symmetry_equiv_pos_as_xyz
  1  'x, y, z'
loop_
 _atom_site_type_symbol
 _atom_site_label
 _atom_site_symmetry_multiplicity
 _atom_site_fract_x
 _atom_site_fract_y
 _atom_site_fract_z
 _atom_site_occupancy
  V  V0  1  0.500000  0.500000  0.000000  1
  V  V1  1  0.828382  0.171618  0.842468  1
  V  V2  1  0.500000  0.500000  0.500000  1
  V  V3  1  0.845783  0.154217  0.315601  1
  V  V4  1  0.154217  0.845783  0.684399  1
  V  V5  1  0.171618  0.828382  0.157532  1
  O  O6  1  0.133644  0.469556  0.828545  1
  O  O7  1  0.807278  0.807278  0.500000  1
  O  O8  1  0.935931  0.064069  0.131069  1
  O  O9  1  0.600645  0.399355  0.804061  1
  O  O10  1  0.064069  0.935931  0.868931  1
  O  O11  1  0.399355  0.600645  0.195939  1
  O  O12  1  0.866356  0.530444  0.171455  1
  O  O13  1  0.530444  0.866356  0.828545  1
  O  O14  1  0.192722  0.192722  0.500000  1
  O  O15  1  0.469556  0.133644  0.171455  1
  F  F16  1  0.262307  0.737693  0.466387  1
  F  F17  1  0.737693  0.262307  0.533613  1
