# generated using pymatgen
data_Li4V3OF11
_symmetry_space_group_name_H-M   'P 1'
_cell_length_a   5.67588471
_cell_length_b   6.13700183
_cell_length_c   6.34263551
_cell_angle_alpha   102.07880376
_cell_angle_beta   100.69927555
_cell_angle_gamma   98.14984590
_symmetry_Int_Tables_number   1
_chemical_formula_structural   Li4V3OF11
_chemical_formula_sum   'Li4 V3 O1 F11'
_cell_volume   208.50136260
_cell_formula_units_Z   1
loop_
 _symmetry_equiv_pos_site_id
 _symmetry_equiv_pos_as_xyz
  1  'x, y, z'
loop_
 _atom_site_type_symbol
 _atom_site_label
 _atom_site_symmetry_multiplicity
 _atom_site_fract_x
 _atom_site_fract_y
 _atom_site_fract_z
 _atom_site_occupancy
  Li  Li0  1  0.861298  0.672614  0.434909  1
  Li  Li1  1  0.610154  0.148290  0.353331  1
  Li  Li2  1  0.385809  0.868616  0.649365  1
  Li  Li3  1  0.132753  0.323792  0.549507  1
  V  V4  1  0.298029  0.615721  0.138523  1
  V  V5  1  0.990513  0.975888  0.998663  1
  V  V6  1  0.695004  0.397269  0.868262  1
  O  O7  1  0.944294  0.669691  0.033034  1
  F  F8  1  0.935238  0.105490  0.289096  1
  F  F9  1  0.565409  0.408843  0.157301  1
  F  F10  1  0.336487  0.950940  0.126051  1
  F  F11  1  0.829460  0.419782  0.601275  1
  F  F12  1  0.570241  0.799713  0.398892  1
  F  F13  1  0.421093  0.207125  0.602801  1
  F  F14  1  0.171750  0.573872  0.403451  1
  F  F15  1  0.670917  0.059559  0.876392  1
  F  F16  1  0.438471  0.600917  0.851058  1
  F  F17  1  0.056079  0.898073  0.701645  1
  F  F18  1  0.086999  0.303805  0.966446  1
