# generated using pymatgen
data_VF5
_symmetry_space_group_name_H-M   'P 1'
_cell_length_a   6.33907715
_cell_length_b   8.71972341
_cell_length_c   8.77270342
_cell_angle_alpha   90.00000000
_cell_angle_beta   131.11060325
_cell_angle_gamma   90.00000000
_symmetry_Int_Tables_number   1
_chemical_formula_structural   VF5
_chemical_formula_sum   'V4 F20'
_cell_volume   365.35231305
_cell_formula_units_Z   4
loop_
 _symmetry_equiv_pos_site_id
 _symmetry_equiv_pos_as_xyz
  1  'x, y, z'
loop_
 _atom_site_type_symbol
 _atom_site_label
 _atom_site_symmetry_multiplicity
 _atom_site_fract_x
 _atom_site_fract_y
 _atom_site_fract_z
 _atom_site_occupancy
  V  V0  1  0.115623  0.629348  0.938137  1
  V  V1  1  0.884377  0.129348  0.561863  1
  V  V2  1  0.115623  0.870652  0.438137  1
  V  V3  1  0.884377  0.370652  0.061863  1
  F  F4  1  0.084353  0.400060  0.958825  1
  F  F5  1  0.104327  0.828274  0.943329  1
  F  F6  1  0.287599  0.600987  0.846806  1
  F  F7  1  0.574809  0.383555  0.804050  1
  F  F8  1  0.221518  0.113437  0.805145  1
  F  F9  1  0.425191  0.883555  0.695950  1
  F  F10  1  0.778482  0.613437  0.694855  1
  F  F11  1  0.712401  0.100987  0.653194  1
  F  F12  1  0.895673  0.328274  0.556671  1
  F  F13  1  0.915647  0.900060  0.541175  1
  F  F14  1  0.084353  0.099940  0.458825  1
  F  F15  1  0.104327  0.671726  0.443329  1
  F  F16  1  0.287599  0.899013  0.346806  1
  F  F17  1  0.221518  0.386563  0.305145  1
  F  F18  1  0.574809  0.116445  0.304050  1
  F  F19  1  0.778482  0.886563  0.194855  1
  F  F20  1  0.425191  0.616445  0.195950  1
  F  F21  1  0.712401  0.399013  0.153194  1
  F  F22  1  0.895673  0.171726  0.056671  1
  F  F23  1  0.915647  0.599940  0.041175  1
