# generated using pymatgen
data_Sc2H6(SeO4)3
_symmetry_space_group_name_H-M   'P 1'
_cell_length_a   9.04317368
_cell_length_b   9.04317368
_cell_length_c   9.04317368
_cell_angle_alpha   65.94271385
_cell_angle_beta   65.94271385
_cell_angle_gamma   65.94271385
_symmetry_Int_Tables_number   1
_chemical_formula_structural   Sc2H6(SeO4)3
_chemical_formula_sum   'Sc4 H12 Se6 O24'
_cell_volume   590.22186765
_cell_formula_units_Z   2
loop_
 _symmetry_equiv_pos_site_id
 _symmetry_equiv_pos_as_xyz
  1  'x, y, z'
loop_
 _atom_site_type_symbol
 _atom_site_label
 _atom_site_symmetry_multiplicity
 _atom_site_fract_x
 _atom_site_fract_y
 _atom_site_fract_z
 _atom_site_occupancy
  Sc  Sc0  1  0.841797  0.841797  0.841797  1
  Sc  Sc1  1  0.607930  0.607930  0.607930  1
  Sc  Sc2  1  0.107930  0.107930  0.107930  1
  Sc  Sc3  1  0.341797  0.341797  0.341797  1
  H  H4  1  0.794115  0.078668  0.116261  1
  H  H5  1  0.755856  0.113909  0.287927  1
  H  H6  1  0.613909  0.255856  0.787927  1
  H  H7  1  0.578668  0.294115  0.616261  1
  H  H8  1  0.787927  0.613909  0.255856  1
  H  H9  1  0.616261  0.578668  0.294115  1
  H  H10  1  0.078668  0.116261  0.794115  1
  H  H11  1  0.113909  0.287927  0.755856  1
  H  H12  1  0.294115  0.616261  0.578668  1
  H  H13  1  0.287927  0.755856  0.113909  1
  H  H14  1  0.255856  0.787927  0.613909  1
  H  H15  1  0.116261  0.794115  0.078668  1
  Se  Se16  1  0.541259  0.001006  0.626513  1
  Se  Se17  1  0.501006  0.041259  0.126513  1
  Se  Se18  1  0.626513  0.541259  0.001006  1
  Se  Se19  1  0.041259  0.126513  0.501006  1
  Se  Se20  1  0.126513  0.501006  0.041259  1
  Se  Se21  1  0.001006  0.626513  0.541259  1
  O  O22  1  0.846633  0.090232  0.185889  1
  O  O23  1  0.693183  0.034810  0.967732  1
  O  O24  1  0.857473  0.515927  0.601380  1
  O  O25  1  0.534810  0.193183  0.467732  1
  O  O26  1  0.977269  0.645626  0.731386  1
  O  O27  1  0.967732  0.693183  0.034810  1
  O  O28  1  0.357473  0.101380  0.015927  1
  O  O29  1  0.477269  0.231386  0.145626  1
  O  O30  1  0.590232  0.346633  0.685889  1
  O  O31  1  0.685889  0.590232  0.346633  1
  O  O32  1  0.231386  0.145626  0.477269  1
  O  O33  1  0.101380  0.015927  0.357473  1
  O  O34  1  0.467732  0.534810  0.193183  1
  O  O35  1  0.515927  0.601380  0.857473  1
  O  O36  1  0.645626  0.731386  0.977269  1
  O  O37  1  0.090232  0.185889  0.846633  1
  O  O38  1  0.731386  0.977269  0.645626  1
  O  O39  1  0.601380  0.857473  0.515927  1
  O  O40  1  0.193183  0.467732  0.534810  1
  O  O41  1  0.346633  0.685889  0.590232  1
  O  O42  1  0.145626  0.477269  0.231386  1
  O  O43  1  0.015927  0.357473  0.101380  1
  O  O44  1  0.185889  0.846633  0.090232  1
  O  O45  1  0.034810  0.967732  0.693183  1
