# generated using pymatgen
data_ZrMnO3
_symmetry_space_group_name_H-M   'P 1'
_cell_length_a   5.81724401
_cell_length_b   5.81724401
_cell_length_c   5.81724401
_cell_angle_alpha   56.51721202
_cell_angle_beta   56.51721202
_cell_angle_gamma   56.51721202
_symmetry_Int_Tables_number   1
_chemical_formula_structural   ZrMnO3
_chemical_formula_sum   'Zr2 Mn2 O6'
_cell_volume   127.99465705
_cell_formula_units_Z   2
loop_
 _symmetry_equiv_pos_site_id
 _symmetry_equiv_pos_as_xyz
  1  'x, y, z'
loop_
 _atom_site_type_symbol
 _atom_site_label
 _atom_site_symmetry_multiplicity
 _atom_site_fract_x
 _atom_site_fract_y
 _atom_site_fract_z
 _atom_site_occupancy
  Zr  Zr0  1  0.855224  0.855224  0.855224  1
  Zr  Zr1  1  0.144776  0.144776  0.144776  1
  Mn  Mn2  1  0.639736  0.639736  0.639736  1
  Mn  Mn3  1  0.360264  0.360264  0.360264  1
  O  O4  1  0.232867  0.553080  0.954007  1
  O  O5  1  0.954007  0.232867  0.553080  1
  O  O6  1  0.553080  0.954007  0.232867  1
  O  O7  1  0.446920  0.045993  0.767133  1
  O  O8  1  0.045993  0.767133  0.446920  1
  O  O9  1  0.767133  0.446920  0.045993  1
