# generated using pymatgen
data_Sr3WO6
_symmetry_space_group_name_H-M   'P 1'
_cell_length_a   5.89359681
_cell_length_b   6.14842730
_cell_length_c   10.30914538
_cell_angle_alpha   90.00000000
_cell_angle_beta   124.82300916
_cell_angle_gamma   90.00000000
_symmetry_Int_Tables_number   1
_chemical_formula_structural   Sr3WO6
_chemical_formula_sum   'Sr6 W2 O12'
_cell_volume   306.66763210
_cell_formula_units_Z   2
loop_
 _symmetry_equiv_pos_site_id
 _symmetry_equiv_pos_as_xyz
  1  'x, y, z'
loop_
 _atom_site_type_symbol
 _atom_site_label
 _atom_site_symmetry_multiplicity
 _atom_site_fract_x
 _atom_site_fract_y
 _atom_site_fract_z
 _atom_site_occupancy
  Sr  Sr0  1  0.000000  0.500000  0.000000  1
  Sr  Sr1  1  0.230455  0.948988  0.244557  1
  Sr  Sr2  1  0.769545  0.448988  0.255443  1
  Sr  Sr3  1  0.000000  0.000000  0.500000  1
  Sr  Sr4  1  0.230455  0.551012  0.744557  1
  Sr  Sr5  1  0.769545  0.051012  0.755443  1
  W  W6  1  0.500000  0.500000  0.500000  1
  W  W7  1  0.500000  0.000000  0.000000  1
  O  O8  1  0.611672  0.449018  0.717672  1
  O  O9  1  0.266403  0.236306  0.432091  1
  O  O10  1  0.816626  0.174115  0.045551  1
  O  O11  1  0.183374  0.674115  0.454449  1
  O  O12  1  0.733597  0.736306  0.067909  1
  O  O13  1  0.388328  0.949018  0.782328  1
  O  O14  1  0.611672  0.050982  0.217672  1
  O  O15  1  0.266403  0.263694  0.932091  1
  O  O16  1  0.816626  0.325885  0.545551  1
  O  O17  1  0.183374  0.825885  0.954449  1
  O  O18  1  0.733597  0.763694  0.567909  1
  O  O19  1  0.388328  0.550982  0.282328  1
