# generated using pymatgen
data_Li2NiP2O7
_symmetry_space_group_name_H-M   'P 1'
_cell_length_a   7.56002583
_cell_length_b   7.56002583
_cell_length_c   10.95965030
_cell_angle_alpha   88.74569253
_cell_angle_beta   91.25430747
_cell_angle_gamma   62.85046998
_symmetry_Int_Tables_number   1
_chemical_formula_structural   Li2NiP2O7
_chemical_formula_sum   'Li8 Ni4 P8 O28'
_cell_volume   556.88006259
_cell_formula_units_Z   4
loop_
 _symmetry_equiv_pos_site_id
 _symmetry_equiv_pos_as_xyz
  1  'x, y, z'
loop_
 _atom_site_type_symbol
 _atom_site_label
 _atom_site_symmetry_multiplicity
 _atom_site_fract_x
 _atom_site_fract_y
 _atom_site_fract_z
 _atom_site_occupancy
  Li  Li0  1  0.718917  0.704895  0.001760  1
  Li  Li1  1  0.295105  0.281083  0.501760  1
  Li  Li2  1  0.715737  0.715737  0.250000  1
  Li  Li3  1  0.293320  0.293320  0.250000  1
  Li  Li4  1  0.706680  0.706680  0.750000  1
  Li  Li5  1  0.284263  0.284263  0.750000  1
  Li  Li6  1  0.704895  0.718917  0.498240  1
  Li  Li7  1  0.281083  0.295105  0.998240  1
  Ni  Ni8  1  0.697027  0.304077  0.112916  1
  Ni  Ni9  1  0.695923  0.302973  0.612916  1
  Ni  Ni10  1  0.304077  0.697027  0.387084  1
  Ni  Ni11  1  0.302973  0.695923  0.887084  1
  P  P12  1  0.702836  0.085194  0.367701  1
  P  P13  1  0.914806  0.297164  0.867701  1
  P  P14  1  0.909341  0.318266  0.366048  1
  P  P15  1  0.681734  0.090659  0.866048  1
  P  P16  1  0.318266  0.909341  0.133952  1
  P  P17  1  0.090659  0.681734  0.633952  1
  P  P18  1  0.085194  0.702836  0.132299  1
  P  P19  1  0.297164  0.914806  0.632299  1
  O  O20  1  0.913645  0.098579  0.372559  1
  O  O21  1  0.901421  0.086355  0.872559  1
  O  O22  1  0.585426  0.196817  0.479499  1
  O  O23  1  0.803183  0.414574  0.979499  1
  O  O24  1  0.802247  0.420487  0.243457  1
  O  O25  1  0.579513  0.197753  0.743457  1
  O  O26  1  0.591859  0.197024  0.248142  1
  O  O27  1  0.802976  0.408141  0.748142  1
  O  O28  1  0.781949  0.431113  0.474574  1
  O  O29  1  0.568887  0.218051  0.974574  1
  O  O30  1  0.281499  0.121850  0.126399  1
  O  O31  1  0.878150  0.718501  0.626399  1
  O  O32  1  0.867488  0.757625  0.126363  1
  O  O33  1  0.242375  0.132512  0.626363  1
  O  O34  1  0.757625  0.867488  0.373637  1
  O  O35  1  0.132512  0.242375  0.873637  1
  O  O36  1  0.121850  0.281499  0.373601  1
  O  O37  1  0.718501  0.878150  0.873601  1
  O  O38  1  0.431113  0.781949  0.025426  1
  O  O39  1  0.218051  0.568887  0.525426  1
  O  O40  1  0.197024  0.591859  0.251858  1
  O  O41  1  0.408141  0.802976  0.751858  1
  O  O42  1  0.420487  0.802247  0.256543  1
  O  O43  1  0.197753  0.579513  0.756543  1
  O  O44  1  0.196817  0.585426  0.020501  1
  O  O45  1  0.414574  0.803183  0.520501  1
  O  O46  1  0.098579  0.913645  0.127441  1
  O  O47  1  0.086355  0.901421  0.627441  1
