# generated using pymatgen
data_Na2MnO3
_symmetry_space_group_name_H-M   'P 1'
_cell_length_a   10.14600046
_cell_length_b   9.67854688
_cell_length_c   5.46748793
_cell_angle_alpha   78.76156502
_cell_angle_beta   69.33104267
_cell_angle_gamma   31.90739231
_symmetry_Int_Tables_number   1
_chemical_formula_structural   Na2MnO3
_chemical_formula_sum   'Na8 Mn4 O12'
_cell_volume   259.48787595
_cell_formula_units_Z   4
loop_
 _symmetry_equiv_pos_site_id
 _symmetry_equiv_pos_as_xyz
  1  'x, y, z'
loop_
 _atom_site_type_symbol
 _atom_site_label
 _atom_site_symmetry_multiplicity
 _atom_site_fract_x
 _atom_site_fract_y
 _atom_site_fract_z
 _atom_site_occupancy
  Na  Na0  1  0.993961  0.993961  0.506039  1
  Na  Na1  1  0.421406  0.421406  0.578594  1
  Na  Na2  1  0.828594  0.828594  0.671406  1
  Na  Na3  1  0.256039  0.256039  0.743961  1
  Na  Na4  1  0.743961  0.743961  0.256039  1
  Na  Na5  1  0.671406  0.671406  0.828594  1
  Na  Na6  1  0.578594  0.578594  0.421406  1
  Na  Na7  1  0.506039  0.506039  0.993961  1
  Mn  Mn8  1  0.915312  0.915312  0.084688  1
  Mn  Mn9  1  0.334688  0.334688  0.165312  1
  Mn  Mn10  1  0.165312  0.165312  0.334688  1
  Mn  Mn11  1  0.084688  0.084688  0.915312  1
  O  O12  1  0.153998  0.657708  0.297027  1
  O  O13  1  0.657708  0.153998  0.891266  1
  O  O14  1  0.096002  0.592292  0.952973  1
  O  O15  1  0.592292  0.096002  0.358734  1
  O  O16  1  0.053608  0.446392  0.446392  1
  O  O17  1  0.446392  0.053608  0.053608  1
  O  O18  1  0.358734  0.952973  0.592292  1
  O  O19  1  0.952973  0.358734  0.096002  1
  O  O20  1  0.891266  0.297027  0.657708  1
  O  O21  1  0.297027  0.891266  0.153998  1
  O  O22  1  0.196392  0.803608  0.803608  1
  O  O23  1  0.803608  0.196392  0.196392  1
