# generated using pymatgen
data_Li3Mn2Fe(BO3)3
_symmetry_space_group_name_H-M   'P 1'
_cell_length_a   8.27475791
_cell_length_b   3.17140830
_cell_length_c   14.30438165
_cell_angle_alpha   90.00000000
_cell_angle_beta   90.03605350
_cell_angle_gamma   90.00000000
_symmetry_Int_Tables_number   1
_chemical_formula_structural   Li3Mn2Fe(BO3)3
_chemical_formula_sum   'Li6 Mn4 Fe2 B6 O18'
_cell_volume   375.38460516
_cell_formula_units_Z   2
loop_
 _symmetry_equiv_pos_site_id
 _symmetry_equiv_pos_as_xyz
  1  'x, y, z'
loop_
 _atom_site_type_symbol
 _atom_site_label
 _atom_site_symmetry_multiplicity
 _atom_site_fract_x
 _atom_site_fract_y
 _atom_site_fract_z
 _atom_site_occupancy
  Li  Li0  1  0.707746  0.500000  0.009887  1
  Li  Li1  1  0.660711  0.500000  0.641158  1
  Li  Li2  1  0.635150  0.500000  0.349612  1
  Li  Li3  1  0.206912  0.500000  0.508068  1
  Li  Li4  1  0.157708  0.500000  0.143277  1
  Li  Li5  1  0.132831  0.500000  0.849214  1
  Mn  Mn6  1  0.808429  0.000000  0.820126  1
  Mn  Mn7  1  0.365689  0.000000  0.994530  1
  Mn  Mn8  1  0.325934  0.000000  0.685383  1
  Mn  Mn9  1  0.307986  0.000000  0.320046  1
  Fe  Fe10  1  0.862353  0.000000  0.495659  1
  Fe  Fe11  1  0.824306  0.000000  0.183809  1
  B  B12  1  0.997338  0.500000  0.333762  1
  B  B13  1  0.000731  0.000000  0.001200  1
  B  B14  1  0.999040  0.500000  0.665481  1
  B  B15  1  0.500040  0.500000  0.833296  1
  B  B16  1  0.501298  0.000000  0.499109  1
  B  B17  1  0.502072  0.500000  0.166666  1
  O  O18  1  0.987661  0.500000  0.568541  1
  O  O19  1  0.980221  0.500000  0.236823  1
  O  O20  1  0.862119  0.500000  0.391479  1
  O  O21  1  0.859853  0.500000  0.719855  1
  O  O22  1  0.847175  0.000000  0.041762  1
  O  O23  1  0.652232  0.500000  0.875059  1
  O  O24  1  0.653120  0.500000  0.209521  1
  O  O25  1  0.638998  0.000000  0.555819  1
  O  O26  1  0.518476  0.000000  0.402457  1
  O  O27  1  0.490799  0.500000  0.069775  1
  O  O28  1  0.486445  0.500000  0.736179  1
  O  O29  1  0.361561  0.500000  0.888395  1
  O  O30  1  0.362064  0.500000  0.220194  1
  O  O31  1  0.347807  0.000000  0.539244  1
  O  O32  1  0.151495  0.500000  0.373637  1
  O  O33  1  0.149555  0.500000  0.708694  1
  O  O34  1  0.137033  0.000000  0.058143  1
  O  O35  1  0.017111  0.000000  0.904140  1
