# generated using pymatgen
data_Li2Cr(SiO3)2
_symmetry_space_group_name_H-M   'P 1'
_cell_length_a   5.82256135
_cell_length_b   5.82256135
_cell_length_c   9.13687532
_cell_angle_alpha   89.99776524
_cell_angle_beta   90.00223476
_cell_angle_gamma   62.46798302
_symmetry_Int_Tables_number   1
_chemical_formula_structural   Li2Cr(SiO3)2
_chemical_formula_sum   'Li4 Cr2 Si4 O12'
_cell_volume   274.68082834
_cell_formula_units_Z   2
loop_
 _symmetry_equiv_pos_site_id
 _symmetry_equiv_pos_as_xyz
  1  'x, y, z'
loop_
 _atom_site_type_symbol
 _atom_site_label
 _atom_site_symmetry_multiplicity
 _atom_site_fract_x
 _atom_site_fract_y
 _atom_site_fract_z
 _atom_site_occupancy
  Li  Li0  1  0.402144  0.290012  0.115601  1
  Li  Li1  1  0.709988  0.597856  0.615601  1
  Li  Li2  1  0.290012  0.402144  0.384399  1
  Li  Li3  1  0.597856  0.709988  0.884399  1
  Cr  Cr4  1  0.753527  0.753527  0.250000  1
  Cr  Cr5  1  0.246473  0.246473  0.750000  1
  Si  Si6  1  0.868012  0.198459  0.362567  1
  Si  Si7  1  0.801541  0.131988  0.862567  1
  Si  Si8  1  0.198459  0.868012  0.137433  1
  Si  Si9  1  0.131988  0.801541  0.637433  1
  O  O10  1  0.641042  0.147439  0.285880  1
  O  O11  1  0.852561  0.358958  0.785880  1
  O  O12  1  0.768313  0.496028  0.409347  1
  O  O13  1  0.503972  0.231687  0.909347  1
  O  O14  1  0.120522  0.120522  0.250000  1
  O  O15  1  0.000000  1.000000  0.500000  1
  O  O16  1  0.879478  0.879478  0.750000  1
  O  O17  1  0.000000  0.000000  0.000000  1
  O  O18  1  0.496028  0.768313  0.090653  1
  O  O19  1  0.231687  0.503972  0.590653  1
  O  O20  1  0.147439  0.641042  0.214120  1
  O  O21  1  0.358958  0.852561  0.714120  1
