# generated using pymatgen
data_LiCuO2
_symmetry_space_group_name_H-M   'P 1'
_cell_length_a   6.58691776
_cell_length_b   7.79196098
_cell_length_c   7.92809347
_cell_angle_alpha   66.06330944
_cell_angle_beta   81.64451421
_cell_angle_gamma   82.98311923
_symmetry_Int_Tables_number   1
_chemical_formula_structural   LiCuO2
_chemical_formula_sum   'Li8 Cu8 O16'
_cell_volume   367.06540355
_cell_formula_units_Z   8
loop_
 _symmetry_equiv_pos_site_id
 _symmetry_equiv_pos_as_xyz
  1  'x, y, z'
loop_
 _atom_site_type_symbol
 _atom_site_label
 _atom_site_symmetry_multiplicity
 _atom_site_fract_x
 _atom_site_fract_y
 _atom_site_fract_z
 _atom_site_occupancy
  Li  Li0  1  0.586541  0.847096  0.315030  1
  Li  Li1  1  0.835784  0.582475  0.532457  1
  Li  Li2  1  0.913621  0.619298  0.835542  1
  Li  Li3  1  0.674024  0.901891  0.955792  1
  Li  Li4  1  0.325976  0.098109  0.044208  1
  Li  Li5  1  0.086379  0.380702  0.164458  1
  Li  Li6  1  0.164216  0.417525  0.467543  1
  Li  Li7  1  0.413459  0.152904  0.684970  1
  Cu  Cu8  1  0.365185  0.671833  0.079699  1
  Cu  Cu9  1  0.875796  0.083373  0.174222  1
  Cu  Cu10  1  0.623897  0.421366  0.321952  1
  Cu  Cu11  1  0.124725  0.837660  0.426506  1
  Cu  Cu12  1  0.875275  0.162340  0.573494  1
  Cu  Cu13  1  0.376103  0.578634  0.678048  1
  Cu  Cu14  1  0.124204  0.916627  0.825778  1
  Cu  Cu15  1  0.634815  0.328167  0.920301  1
  O  O16  1  0.883664  0.833407  0.334981  1
  O  O17  1  0.874408  0.914925  0.749624  1
  O  O18  1  0.865074  0.338032  0.024307  1
  O  O19  1  0.603082  0.676705  0.173861  1
  O  O20  1  0.883501  0.409259  0.398884  1
  O  O21  1  0.370556  0.825753  0.514360  1
  O  O22  1  0.638727  0.570315  0.745410  1
  O  O23  1  0.368536  0.922778  0.915235  1
  O  O24  1  0.631464  0.077222  0.084765  1
  O  O25  1  0.361273  0.429685  0.254590  1
  O  O26  1  0.629444  0.174247  0.485640  1
  O  O27  1  0.116499  0.590741  0.601116  1
  O  O28  1  0.396918  0.323295  0.826139  1
  O  O29  1  0.134926  0.661968  0.975693  1
  O  O30  1  0.125592  0.085075  0.250376  1
  O  O31  1  0.116336  0.166593  0.665019  1
