# generated using pymatgen
data_Ba7Pb17O24
_symmetry_space_group_name_H-M   'P 1'
_cell_length_a   7.93425999
_cell_length_b   19.08901110
_cell_length_c   8.02466545
_cell_angle_alpha   90.00000000
_cell_angle_beta   118.90325540
_cell_angle_gamma   90.00000000
_symmetry_Int_Tables_number   1
_chemical_formula_structural   Ba7Pb17O24
_chemical_formula_sum   'Ba7 Pb17 O24'
_cell_volume   1064.00023613
_cell_formula_units_Z   1
loop_
 _symmetry_equiv_pos_site_id
 _symmetry_equiv_pos_as_xyz
  1  'x, y, z'
loop_
 _atom_site_type_symbol
 _atom_site_label
 _atom_site_symmetry_multiplicity
 _atom_site_fract_x
 _atom_site_fract_y
 _atom_site_fract_z
 _atom_site_occupancy
  Ba  Ba0  1  0.332796  0.000000  0.634696  1
  Ba  Ba1  1  0.335634  0.333800  0.667952  1
  Ba  Ba2  1  0.335634  0.666200  0.667952  1
  Ba  Ba3  1  0.666419  0.500000  0.333030  1
  Ba  Ba4  1  0.666875  0.830928  0.341568  1
  Ba  Ba5  1  0.666875  0.169072  0.341568  1
  Ba  Ba6  1  0.333931  0.000000  0.127334  1
  Pb  Pb7  1  0.654736  0.500000  0.838546  1
  Pb  Pb8  1  0.651240  0.165547  0.842965  1
  Pb  Pb9  1  0.651240  0.834453  0.842965  1
  Pb  Pb10  1  0.160197  0.500000  0.816566  1
  Pb  Pb11  1  0.163209  0.829760  0.821316  1
  Pb  Pb12  1  0.163209  0.170240  0.821316  1
  Pb  Pb13  1  0.182820  0.500000  0.351881  1
  Pb  Pb14  1  0.185725  0.830395  0.352673  1
  Pb  Pb15  1  0.185725  0.169605  0.352673  1
  Pb  Pb16  1  0.831024  0.334911  0.650760  1
  Pb  Pb17  1  0.831024  0.665089  0.650760  1
  Pb  Pb18  1  0.831041  0.000000  0.644393  1
  Pb  Pb19  1  0.818010  0.333476  0.160970  1
  Pb  Pb20  1  0.810694  0.000000  0.146357  1
  Pb  Pb21  1  0.818010  0.666524  0.160970  1
  Pb  Pb22  1  0.348791  0.665625  0.184458  1
  Pb  Pb23  1  0.348791  0.334375  0.184458  1
  O  O24  1  0.602487  0.416436  0.000699  1
  O  O25  1  0.604723  0.750434  0.006628  1
  O  O26  1  0.584324  0.081056  0.996596  1
  O  O27  1  0.604723  0.249566  0.006628  1
  O  O28  1  0.602487  0.583564  0.000699  1
  O  O29  1  0.584324  0.918944  0.996596  1
  O  O30  1  0.334708  0.173234  0.671008  1
  O  O31  1  0.334708  0.826766  0.671008  1
  O  O32  1  0.335680  0.500000  0.669109  1
  O  O33  1  0.020073  0.918497  0.626969  1
  O  O34  1  0.993907  0.249787  0.603829  1
  O  O35  1  0.001244  0.416917  0.603490  1
  O  O36  1  0.993907  0.750213  0.603829  1
  O  O37  1  0.001244  0.583083  0.603490  1
  O  O38  1  0.020073  0.081503  0.626969  1
  O  O39  1  0.669446  0.334218  0.334377  1
  O  O40  1  0.689852  0.000000  0.338215  1
  O  O41  1  0.669446  0.665782  0.334377  1
  O  O42  1  0.397602  0.582430  0.396486  1
  O  O43  1  0.400629  0.253047  0.401266  1
  O  O44  1  0.397602  0.417570  0.396486  1
  O  O45  1  0.391265  0.912105  0.385928  1
  O  O46  1  0.391265  0.087895  0.385928  1
  O  O47  1  0.400629  0.746953  0.401266  1
