# generated using pymatgen
data_Li2TiCo3(PO4)6
_symmetry_space_group_name_H-M   'P 1'
_cell_length_a   8.57004592
_cell_length_b   8.57004592
_cell_length_c   8.57004592
_cell_angle_alpha   59.92858347
_cell_angle_beta   59.92858347
_cell_angle_gamma   59.92858347
_symmetry_Int_Tables_number   1
_chemical_formula_structural   Li2TiCo3(PO4)6
_chemical_formula_sum   'Li2 Ti1 Co3 P6 O24'
_cell_volume   444.35529291
_cell_formula_units_Z   1
loop_
 _symmetry_equiv_pos_site_id
 _symmetry_equiv_pos_as_xyz
  1  'x, y, z'
loop_
 _atom_site_type_symbol
 _atom_site_label
 _atom_site_symmetry_multiplicity
 _atom_site_fract_x
 _atom_site_fract_y
 _atom_site_fract_z
 _atom_site_occupancy
  Li  Li0  1  0.991028  0.991028  0.991028  1
  Li  Li1  1  0.497473  0.497473  0.497473  1
  Ti  Ti2  1  0.141716  0.141716  0.141716  1
  Co  Co3  1  0.854735  0.854735  0.854735  1
  Co  Co4  1  0.643339  0.643339  0.643339  1
  Co  Co5  1  0.357438  0.357438  0.357438  1
  P  P6  1  0.249669  0.540283  0.964067  1
  P  P7  1  0.964067  0.249669  0.540283  1
  P  P8  1  0.540283  0.964067  0.249669  1
  P  P9  1  0.460260  0.045179  0.742565  1
  P  P10  1  0.045179  0.742565  0.460260  1
  P  P11  1  0.742565  0.460260  0.045179  1
  O  O12  1  0.694210  0.495290  0.877615  1
  O  O13  1  0.495290  0.877615  0.694210  1
  O  O14  1  0.085733  0.734554  0.941079  1
  O  O15  1  0.877615  0.694210  0.495290  1
  O  O16  1  0.417746  0.553078  0.771784  1
  O  O17  1  0.191573  0.376503  0.004637  1
  O  O18  1  0.941079  0.085733  0.734554  1
  O  O19  1  0.771784  0.417746  0.553078  1
  O  O20  1  0.553078  0.771784  0.417746  1
  O  O21  1  0.624031  0.012816  0.793695  1
  O  O22  1  0.267740  0.067038  0.909595  1
  O  O23  1  0.012816  0.793695  0.624031  1
  O  O24  1  0.004637  0.191573  0.376503  1
  O  O25  1  0.734554  0.941079  0.085733  1
  O  O26  1  0.376503  0.004637  0.191573  1
  O  O27  1  0.443775  0.238326  0.572940  1
  O  O28  1  0.238326  0.572940  0.443775  1
  O  O29  1  0.067038  0.909595  0.267740  1
  O  O30  1  0.793695  0.624031  0.012816  1
  O  O31  1  0.572940  0.443775  0.238326  1
  O  O32  1  0.130722  0.296772  0.510997  1
  O  O33  1  0.909595  0.267740  0.067038  1
  O  O34  1  0.510997  0.130722  0.296772  1
  O  O35  1  0.296772  0.510997  0.130722  1
