# generated using pymatgen
data_NaLi5Fe2P2(CO7)2
_symmetry_space_group_name_H-M   'P 1'
_cell_length_a   8.54731429
_cell_length_b   6.53117425
_cell_length_c   10.07591524
_cell_angle_alpha   90.00000000
_cell_angle_beta   94.09083740
_cell_angle_gamma   90.00000000
_symmetry_Int_Tables_number   1
_chemical_formula_structural   NaLi5Fe2P2(CO7)2
_chemical_formula_sum   'Na2 Li10 Fe4 P4 C4 O28'
_cell_volume   561.04480323
_cell_formula_units_Z   2
loop_
 _symmetry_equiv_pos_site_id
 _symmetry_equiv_pos_as_xyz
  1  'x, y, z'
loop_
 _atom_site_type_symbol
 _atom_site_label
 _atom_site_symmetry_multiplicity
 _atom_site_fract_x
 _atom_site_fract_y
 _atom_site_fract_z
 _atom_site_occupancy
  Na  Na0  1  0.255496  0.001291  0.372556  1
  Na  Na1  1  0.744504  0.501291  0.627444  1
  Li  Li2  1  0.090490  0.262661  0.122626  1
  Li  Li3  1  0.088032  0.241643  0.626576  1
  Li  Li4  1  0.276172  0.477437  0.379470  1
  Li  Li5  1  0.273339  0.019654  0.875447  1
  Li  Li6  1  0.273250  0.478446  0.875777  1
  Li  Li7  1  0.726661  0.519654  0.124553  1
  Li  Li8  1  0.726750  0.978446  0.124223  1
  Li  Li9  1  0.723828  0.977437  0.620530  1
  Li  Li10  1  0.911968  0.741643  0.373424  1
  Li  Li11  1  0.909510  0.762661  0.877374  1
  Fe  Fe12  1  0.336622  0.751652  0.103611  1
  Fe  Fe13  1  0.342806  0.743245  0.609214  1
  Fe  Fe14  1  0.657194  0.243245  0.390786  1
  Fe  Fe15  1  0.663378  0.251652  0.896389  1
  P  P16  1  0.410859  0.256975  0.141812  1
  P  P17  1  0.408888  0.243078  0.645890  1
  P  P18  1  0.591112  0.743078  0.354110  1
  P  P19  1  0.589141  0.756975  0.858188  1
  C  C20  1  0.033934  0.747628  0.141144  1
  C  C21  1  0.041141  0.758213  0.646876  1
  C  C22  1  0.958859  0.258213  0.353124  1
  C  C23  1  0.966066  0.247628  0.858856  1
  O  O24  1  0.101321  0.282477  0.321355  1
  O  O25  1  0.111962  0.245063  0.831115  1
  O  O26  1  0.075114  0.754125  0.020204  1
  O  O27  1  0.076396  0.755326  0.523132  1
  O  O28  1  0.143005  0.743610  0.239029  1
  O  O29  1  0.152737  0.735647  0.741353  1
  O  O30  1  0.309944  0.065786  0.097720  1
  O  O31  1  0.308844  0.438895  0.083622  1
  O  O32  1  0.301210  0.057138  0.605766  1
  O  O33  1  0.311590  0.430213  0.589502  1
  O  O34  1  0.427532  0.270778  0.296792  1
  O  O35  1  0.429125  0.728516  0.411553  1
  O  O36  1  0.430172  0.256245  0.801148  1
  O  O37  1  0.423286  0.754261  0.909222  1
  O  O38  1  0.576714  0.254261  0.090778  1
  O  O39  1  0.569828  0.756245  0.198852  1
  O  O40  1  0.570875  0.228516  0.588447  1
  O  O41  1  0.572468  0.770778  0.703208  1
  O  O42  1  0.698790  0.557138  0.394234  1
  O  O43  1  0.688410  0.930213  0.410498  1
  O  O44  1  0.690056  0.565786  0.902280  1
  O  O45  1  0.691156  0.938895  0.916378  1
  O  O46  1  0.847263  0.235647  0.258647  1
  O  O47  1  0.856995  0.243610  0.760971  1
  O  O48  1  0.923604  0.255326  0.476868  1
  O  O49  1  0.924886  0.254125  0.979796  1
  O  O50  1  0.888038  0.745063  0.168885  1
  O  O51  1  0.898679  0.782477  0.678645  1
