# generated using pymatgen
data_Li3Sn3(PO4)4
_symmetry_space_group_name_H-M   'P 1'
_cell_length_a   7.72843350
_cell_length_b   8.60596265
_cell_length_c   10.64701081
_cell_angle_alpha   90.00000000
_cell_angle_beta   92.65181913
_cell_angle_gamma   90.00000000
_symmetry_Int_Tables_number   1
_chemical_formula_structural   Li3Sn3(PO4)4
_chemical_formula_sum   'Li6 Sn6 P8 O32'
_cell_volume   707.38086255
_cell_formula_units_Z   2
loop_
 _symmetry_equiv_pos_site_id
 _symmetry_equiv_pos_as_xyz
  1  'x, y, z'
loop_
 _atom_site_type_symbol
 _atom_site_label
 _atom_site_symmetry_multiplicity
 _atom_site_fract_x
 _atom_site_fract_y
 _atom_site_fract_z
 _atom_site_occupancy
  Li  Li0  1  0.146803  0.626313  0.836679  1
  Li  Li1  1  0.853197  0.126313  0.163321  1
  Li  Li2  1  0.627729  0.856542  0.575579  1
  Li  Li3  1  0.648024  0.878530  0.082639  1
  Li  Li4  1  0.372271  0.356542  0.424421  1
  Li  Li5  1  0.351976  0.378530  0.917361  1
  Sn  Sn6  1  0.254144  0.011702  0.364256  1
  Sn  Sn7  1  0.254373  0.005823  0.884451  1
  Sn  Sn8  1  0.116557  0.626229  0.340676  1
  Sn  Sn9  1  0.883443  0.126229  0.659324  1
  Sn  Sn10  1  0.745856  0.511702  0.635744  1
  Sn  Sn11  1  0.745627  0.505823  0.115549  1
  P  P12  1  0.055970  0.799721  0.619241  1
  P  P13  1  0.036846  0.812434  0.091849  1
  P  P14  1  0.944030  0.299721  0.380759  1
  P  P15  1  0.963154  0.312434  0.908151  1
  P  P16  1  0.552942  0.686973  0.357562  1
  P  P17  1  0.534826  0.699150  0.862599  1
  P  P18  1  0.465174  0.199150  0.137401  1
  P  P19  1  0.447058  0.186973  0.642438  1
  O  O20  1  0.182907  0.843199  0.196909  1
  O  O21  1  0.169040  0.884358  0.723011  1
  O  O22  1  0.164062  0.806555  0.498567  1
  O  O23  1  0.119991  0.379750  0.406306  1
  O  O24  1  0.126268  0.818473  0.962290  1
  O  O25  1  0.109781  0.426376  0.903727  1
  O  O26  1  0.975964  0.128228  0.341626  1
  O  O27  1  0.977493  0.638604  0.108867  1
  O  O28  1  0.022507  0.138604  0.891133  1
  O  O29  1  0.024036  0.628228  0.658374  1
  O  O30  1  0.880009  0.879750  0.593694  1
  O  O31  1  0.835938  0.306555  0.501433  1
  O  O32  1  0.890219  0.926376  0.096273  1
  O  O33  1  0.830960  0.384358  0.276989  1
  O  O34  1  0.873732  0.318473  0.037710  1
  O  O35  1  0.817093  0.343199  0.803091  1
  O  O36  1  0.691380  0.645110  0.463036  1
  O  O37  1  0.633887  0.679565  0.224105  1
  O  O38  1  0.678452  0.652751  0.965478  1
  O  O39  1  0.611868  0.084822  0.143059  1
  O  O40  1  0.621814  0.711027  0.732854  1
  O  O41  1  0.600867  0.071521  0.638160  1
  O  O42  1  0.501480  0.357188  0.615524  1
  O  O43  1  0.498520  0.857188  0.384476  1
  O  O44  1  0.518913  0.369054  0.095753  1
  O  O45  1  0.481087  0.869054  0.904247  1
  O  O46  1  0.399133  0.571521  0.361840  1
  O  O47  1  0.378186  0.211027  0.267146  1
  O  O48  1  0.388132  0.584822  0.856941  1
  O  O49  1  0.366113  0.179565  0.775895  1
  O  O50  1  0.308620  0.145110  0.536964  1
  O  O51  1  0.321548  0.152751  0.034522  1
