# generated using pymatgen
data_Sr3LaI9
_symmetry_space_group_name_H-M   'P 1'
_cell_length_a   8.40495976
_cell_length_b   7.80233031
_cell_length_c   33.10699701
_cell_angle_alpha   90.00000000
_cell_angle_beta   91.79229030
_cell_angle_gamma   90.00000000
_symmetry_Int_Tables_number   1
_chemical_formula_structural   Sr3LaI9
_chemical_formula_sum   'Sr12 La4 I36'
_cell_volume   2170.03751416
_cell_formula_units_Z   4
loop_
 _symmetry_equiv_pos_site_id
 _symmetry_equiv_pos_as_xyz
  1  'x, y, z'
loop_
 _atom_site_type_symbol
 _atom_site_label
 _atom_site_symmetry_multiplicity
 _atom_site_fract_x
 _atom_site_fract_y
 _atom_site_fract_z
 _atom_site_occupancy
  Sr  Sr0  1  0.668392  0.967041  0.067235  1
  Sr  Sr1  1  0.700160  0.001548  0.307825  1
  Sr  Sr2  1  0.668392  0.032959  0.567235  1
  Sr  Sr3  1  0.700160  0.998452  0.807825  1
  Sr  Sr4  1  0.320732  0.984611  0.431390  1
  Sr  Sr5  1  0.286265  0.981852  0.190399  1
  Sr  Sr6  1  0.320732  0.015389  0.931390  1
  Sr  Sr7  1  0.286265  0.018148  0.690399  1
  Sr  Sr8  1  0.210460  0.522552  0.307921  1
  Sr  Sr9  1  0.171922  0.516774  0.068223  1
  Sr  Sr10  1  0.210460  0.477448  0.807921  1
  Sr  Sr11  1  0.171922  0.483226  0.568223  1
  La  La12  1  0.798864  0.521300  0.193152  1
  La  La13  1  0.822996  0.546592  0.432319  1
  La  La14  1  0.798864  0.478700  0.693152  1
  La  La15  1  0.822996  0.453408  0.932319  1
  I  I16  1  0.985412  0.801420  0.130387  1
  I  I17  1  0.991118  0.822756  0.248790  1
  I  I18  1  0.998870  0.820243  0.371065  1
  I  I19  1  0.985412  0.198580  0.630387  1
  I  I20  1  0.991118  0.177244  0.748790  1
  I  I21  1  0.889307  0.709897  0.008502  1
  I  I22  1  0.998870  0.179757  0.871065  1
  I  I23  1  0.848211  0.324859  0.104996  1
  I  I24  1  0.889307  0.290103  0.508502  1
  I  I25  1  0.843036  0.391168  0.294109  1
  I  I26  1  0.848211  0.675141  0.604996  1
  I  I27  1  0.843036  0.608832  0.794109  1
  I  I28  1  0.642997  0.152728  0.204064  1
  I  I29  1  0.648072  0.199926  0.400643  1
  I  I30  1  0.642997  0.847272  0.704064  1
  I  I31  1  0.648072  0.800074  0.900643  1
  I  I32  1  0.587157  0.753568  0.490108  1
  I  I33  1  0.502456  0.682039  0.131888  1
  I  I34  1  0.505635  0.694174  0.249111  1
  I  I35  1  0.516703  0.701051  0.371207  1
  I  I36  1  0.587157  0.246432  0.990108  1
  I  I37  1  0.502456  0.317961  0.631888  1
  I  I38  1  0.505635  0.305826  0.749111  1
  I  I39  1  0.516703  0.298949  0.871207  1
  I  I40  1  0.391438  0.762253  0.010603  1
  I  I41  1  0.391438  0.237747  0.510603  1
  I  I42  1  0.343595  0.159626  0.099606  1
  I  I43  1  0.329174  0.123166  0.300739  1
  I  I44  1  0.343595  0.840374  0.599606  1
  I  I45  1  0.329174  0.876834  0.800739  1
  I  I46  1  0.154385  0.384003  0.202745  1
  I  I47  1  0.134460  0.349000  0.400918  1
  I  I48  1  0.154385  0.615997  0.702745  1
  I  I49  1  0.134460  0.651000  0.900918  1
  I  I50  1  0.077446  0.757542  0.490240  1
  I  I51  1  0.077446  0.242458  0.990240  1
