# generated using pymatgen
data_Na3SiH11O9
_symmetry_space_group_name_H-M   'P 1'
_cell_length_a   11.05074830
_cell_length_b   11.79089846
_cell_length_c   12.98761543
_cell_angle_alpha   90.00000000
_cell_angle_beta   90.00000000
_cell_angle_gamma   90.00000000
_symmetry_Int_Tables_number   1
_chemical_formula_structural   Na3SiH11O9
_chemical_formula_sum   'Na24 Si8 H88 O72'
_cell_volume   1692.26357665
_cell_formula_units_Z   8
loop_
 _symmetry_equiv_pos_site_id
 _symmetry_equiv_pos_as_xyz
  1  'x, y, z'
loop_
 _atom_site_type_symbol
 _atom_site_label
 _atom_site_symmetry_multiplicity
 _atom_site_fract_x
 _atom_site_fract_y
 _atom_site_fract_z
 _atom_site_occupancy
  Na  Na0  1  0.365183  0.174386  0.129412  1
  Na  Na1  1  0.134817  0.674386  0.870588  1
  Na  Na2  1  0.865183  0.825614  0.370588  1
  Na  Na3  1  0.634817  0.325614  0.629412  1
  Na  Na4  1  0.634817  0.825614  0.870588  1
  Na  Na5  1  0.865183  0.325614  0.129412  1
  Na  Na6  1  0.134817  0.174386  0.629412  1
  Na  Na7  1  0.365183  0.674386  0.370588  1
  Na  Na8  1  0.393541  0.317590  0.916842  1
  Na  Na9  1  0.106459  0.817590  0.083158  1
  Na  Na10  1  0.893541  0.682410  0.583158  1
  Na  Na11  1  0.606459  0.182410  0.416842  1
  Na  Na12  1  0.606459  0.682410  0.083158  1
  Na  Na13  1  0.893541  0.182410  0.916842  1
  Na  Na14  1  0.106459  0.317590  0.416842  1
  Na  Na15  1  0.393541  0.817590  0.583158  1
  Na  Na16  1  0.626161  0.163409  0.821903  1
  Na  Na17  1  0.873839  0.663409  0.178097  1
  Na  Na18  1  0.126161  0.836591  0.678097  1
  Na  Na19  1  0.373839  0.336591  0.321903  1
  Na  Na20  1  0.373839  0.836591  0.178097  1
  Na  Na21  1  0.126161  0.336591  0.821903  1
  Na  Na22  1  0.873839  0.163409  0.321903  1
  Na  Na23  1  0.626161  0.663409  0.678097  1
  Si  Si24  1  0.376749  0.022131  0.871135  1
  Si  Si25  1  0.123251  0.522131  0.128865  1
  Si  Si26  1  0.876749  0.977869  0.628865  1
  Si  Si27  1  0.623251  0.477869  0.371135  1
  Si  Si28  1  0.623251  0.977869  0.128865  1
  Si  Si29  1  0.876749  0.477869  0.871135  1
  Si  Si30  1  0.123251  0.022131  0.371135  1
  Si  Si31  1  0.376749  0.522131  0.628865  1
  H  H32  1  0.491352  0.074356  0.276615  1
  H  H33  1  0.008648  0.574356  0.723385  1
  H  H34  1  0.991352  0.925644  0.223385  1
  H  H35  1  0.508648  0.425644  0.776615  1
  H  H36  1  0.508648  0.925644  0.723385  1
  H  H37  1  0.991352  0.425644  0.276615  1
  H  H38  1  0.008648  0.074356  0.776615  1
  H  H39  1  0.491352  0.574356  0.223385  1
  H  H40  1  0.368930  0.093455  0.341930  1
  H  H41  1  0.131070  0.593455  0.658070  1
  H  H42  1  0.868930  0.906545  0.158070  1
  H  H43  1  0.631070  0.406545  0.841930  1
  H  H44  1  0.631070  0.906545  0.658070  1
  H  H45  1  0.868930  0.406545  0.341930  1
  H  H46  1  0.131070  0.093455  0.841930  1
  H  H47  1  0.368930  0.593455  0.158070  1
  H  H48  1  0.345016  0.186420  0.741581  1
  H  H49  1  0.154984  0.686420  0.258419  1
  H  H50  1  0.845016  0.813580  0.758419  1
  H  H51  1  0.654984  0.313580  0.241581  1
  H  H52  1  0.654984  0.813580  0.258419  1
  H  H53  1  0.845016  0.313580  0.741581  1
  H  H54  1  0.154984  0.186420  0.241581  1
  H  H55  1  0.345016  0.686420  0.758419  1
  H  H56  1  0.353220  0.309973  0.689572  1
  H  H57  1  0.146780  0.809973  0.310428  1
  H  H58  1  0.853220  0.690027  0.810428  1
  H  H59  1  0.646780  0.190027  0.189572  1
  H  H60  1  0.646780  0.690027  0.310428  1
  H  H61  1  0.853220  0.190027  0.689572  1
  H  H62  1  0.146780  0.309973  0.189572  1
  H  H63  1  0.353220  0.809973  0.810428  1
  H  H64  1  0.300925  0.168771  0.469832  1
  H  H65  1  0.199075  0.668771  0.530168  1
  H  H66  1  0.800925  0.831229  0.030168  1
  H  H67  1  0.699075  0.331229  0.969832  1
  H  H68  1  0.699075  0.831229  0.530168  1
  H  H69  1  0.800925  0.331229  0.469832  1
  H  H70  1  0.199075  0.168771  0.969832  1
  H  H71  1  0.300925  0.668771  0.030168  1
  H  H72  1  0.345734  0.286430  0.531535  1
  H  H73  1  0.154266  0.786430  0.468465  1
  H  H74  1  0.845734  0.713570  0.968465  1
  H  H75  1  0.654266  0.213570  0.031535  1
  H  H76  1  0.654266  0.713570  0.468465  1
  H  H77  1  0.845734  0.213570  0.531535  1
  H  H78  1  0.154266  0.286430  0.031535  1
  H  H79  1  0.345734  0.786430  0.968465  1
  H  H80  1  0.189457  0.016551  0.163778  1
  H  H81  1  0.310543  0.516551  0.836222  1
  H  H82  1  0.689457  0.983449  0.336222  1
  H  H83  1  0.810543  0.483449  0.663778  1
  H  H84  1  0.810543  0.983449  0.836222  1
  H  H85  1  0.689457  0.483449  0.163778  1
  H  H86  1  0.310543  0.016551  0.663778  1
  H  H87  1  0.189457  0.516551  0.336222  1
  H  H88  1  0.237852  0.006598  0.041125  1
  H  H89  1  0.262148  0.506598  0.958875  1
  H  H90  1  0.737852  0.993402  0.458875  1
  H  H91  1  0.762148  0.493402  0.541125  1
  H  H92  1  0.762148  0.993402  0.958875  1
  H  H93  1  0.737852  0.493402  0.041125  1
  H  H94  1  0.262148  0.006598  0.541125  1
  H  H95  1  0.237852  0.506598  0.458875  1
  H  H96  1  0.636859  0.071896  0.603906  1
  H  H97  1  0.863141  0.571896  0.396094  1
  H  H98  1  0.136859  0.928104  0.896094  1
  H  H99  1  0.363141  0.428104  0.103906  1
  H  H100  1  0.363141  0.928104  0.396094  1
  H  H101  1  0.136859  0.428104  0.603906  1
  H  H102  1  0.863141  0.071896  0.103906  1
  H  H103  1  0.636859  0.571896  0.896094  1
  H  H104  1  0.506380  0.101611  0.650876  1
  H  H105  1  0.993620  0.601611  0.349124  1
  H  H106  1  0.006380  0.898389  0.849124  1
  H  H107  1  0.493620  0.398389  0.150876  1
  H  H108  1  0.493620  0.898389  0.349124  1
  H  H109  1  0.006380  0.398389  0.650876  1
  H  H110  1  0.993620  0.101611  0.150876  1
  H  H111  1  0.506380  0.601611  0.849124  1
  H  H112  1  0.504353  0.106498  0.999882  1
  H  H113  1  0.995647  0.606498  0.000118  1
  H  H114  1  0.004353  0.893502  0.500118  1
  H  H115  1  0.495647  0.393502  0.499882  1
  H  H116  1  0.495647  0.893502  0.000118  1
  H  H117  1  0.004353  0.393502  0.999882  1
  H  H118  1  0.995647  0.106498  0.499882  1
  H  H119  1  0.504353  0.606498  0.500118  1
  O  O120  1  0.456697  0.123627  0.933035  1
  O  O121  1  0.043303  0.623627  0.066965  1
  O  O122  1  0.956697  0.876373  0.566965  1
  O  O123  1  0.543303  0.376373  0.433035  1
  O  O124  1  0.543303  0.876373  0.066965  1
  O  O125  1  0.956697  0.376373  0.933035  1
  O  O126  1  0.043303  0.123627  0.433035  1
  O  O127  1  0.456697  0.623627  0.566965  1
  O  O128  1  0.233900  0.034836  0.907131  1
  O  O129  1  0.266100  0.534836  0.092869  1
  O  O130  1  0.733900  0.965164  0.592869  1
  O  O131  1  0.766100  0.465164  0.407131  1
  O  O132  1  0.766100  0.965164  0.092869  1
  O  O133  1  0.733900  0.465164  0.907131  1
  O  O134  1  0.266100  0.034836  0.407131  1
  O  O135  1  0.233900  0.534836  0.592869  1
  O  O136  1  0.428326  0.895233  0.898677  1
  O  O137  1  0.071674  0.395233  0.101323  1
  O  O138  1  0.928326  0.104767  0.601323  1
  O  O139  1  0.571674  0.604767  0.398677  1
  O  O140  1  0.571674  0.104767  0.101323  1
  O  O141  1  0.928326  0.604767  0.898677  1
  O  O142  1  0.071674  0.895233  0.398677  1
  O  O143  1  0.428326  0.395233  0.601323  1
  O  O144  1  0.402176  0.052946  0.748927  1
  O  O145  1  0.097824  0.552946  0.251073  1
  O  O146  1  0.902176  0.947054  0.751073  1
  O  O147  1  0.597824  0.447054  0.248927  1
  O  O148  1  0.597824  0.947054  0.251073  1
  O  O149  1  0.902176  0.447054  0.748927  1
  O  O150  1  0.097824  0.052946  0.248927  1
  O  O151  1  0.402176  0.552946  0.751073  1
  O  O152  1  0.439089  0.134580  0.306229  1
  O  O153  1  0.060911  0.634580  0.693771  1
  O  O154  1  0.939089  0.865420  0.193771  1
  O  O155  1  0.560911  0.365420  0.806229  1
  O  O156  1  0.560911  0.865420  0.693771  1
  O  O157  1  0.939089  0.365420  0.306229  1
  O  O158  1  0.060911  0.134580  0.806229  1
  O  O159  1  0.439089  0.634580  0.193771  1
  O  O160  1  0.305087  0.263302  0.739710  1
  O  O161  1  0.194913  0.763302  0.260290  1
  O  O162  1  0.805087  0.736698  0.760290  1
  O  O163  1  0.694913  0.236698  0.239710  1
  O  O164  1  0.694913  0.736698  0.260290  1
  O  O165  1  0.805087  0.236698  0.739710  1
  O  O166  1  0.194913  0.263302  0.239710  1
  O  O167  1  0.305087  0.763302  0.760290  1
  O  O168  1  0.283121  0.248767  0.488383  1
  O  O169  1  0.216879  0.748767  0.511617  1
  O  O170  1  0.783121  0.751233  0.011617  1
  O  O171  1  0.716879  0.251233  0.988383  1
  O  O172  1  0.716879  0.751233  0.511617  1
  O  O173  1  0.783121  0.251233  0.488383  1
  O  O174  1  0.216879  0.248767  0.988383  1
  O  O175  1  0.283121  0.748767  0.011617  1
  O  O176  1  0.256019  0.988678  0.114829  1
  O  O177  1  0.243981  0.488678  0.885171  1
  O  O178  1  0.756019  0.011322  0.385171  1
  O  O179  1  0.743981  0.511322  0.614829  1
  O  O180  1  0.743981  0.011322  0.885171  1
  O  O181  1  0.756019  0.511322  0.114829  1
  O  O182  1  0.243981  0.988678  0.614829  1
  O  O183  1  0.256019  0.488678  0.385171  1
  O  O184  1  0.572664  0.133350  0.607896  1
  O  O185  1  0.927336  0.633350  0.392104  1
  O  O186  1  0.072664  0.866650  0.892104  1
  O  O187  1  0.427336  0.366650  0.107896  1
  O  O188  1  0.427336  0.866650  0.392104  1
  O  O189  1  0.072664  0.366650  0.607896  1
  O  O190  1  0.927336  0.133350  0.107896  1
  O  O191  1  0.572664  0.633350  0.892104  1
