# generated using pymatgen
data_Li2VF4
_symmetry_space_group_name_H-M   'P 1'
_cell_length_a   5.41575508
_cell_length_b   6.04925493
_cell_length_c   9.84083160
_cell_angle_alpha   90.00000000
_cell_angle_beta   90.00000000
_cell_angle_gamma   90.00000000
_symmetry_Int_Tables_number   1
_chemical_formula_structural   Li2VF4
_chemical_formula_sum   'Li8 V4 F16'
_cell_volume   322.39827016
_cell_formula_units_Z   4
loop_
 _symmetry_equiv_pos_site_id
 _symmetry_equiv_pos_as_xyz
  1  'x, y, z'
loop_
 _atom_site_type_symbol
 _atom_site_label
 _atom_site_symmetry_multiplicity
 _atom_site_fract_x
 _atom_site_fract_y
 _atom_site_fract_z
 _atom_site_occupancy
  Li  Li0  1  0.202478  0.025008  0.783068  1
  Li  Li1  1  0.814216  0.859100  0.909072  1
  Li  Li2  1  0.314216  0.640900  0.409072  1
  Li  Li3  1  0.702478  0.474992  0.283068  1
  Li  Li4  1  0.202478  0.525008  0.716932  1
  Li  Li5  1  0.814216  0.359100  0.590928  1
  Li  Li6  1  0.314216  0.140900  0.090928  1
  Li  Li7  1  0.702478  0.974992  0.216932  1
  V  V8  1  0.670301  0.841150  0.609634  1
  V  V9  1  0.170301  0.658850  0.109634  1
  V  V10  1  0.670301  0.341150  0.890366  1
  V  V11  1  0.170301  0.158850  0.390366  1
  F  F12  1  0.829569  0.093984  0.490762  1
  F  F13  1  0.049535  0.930852  0.236815  1
  F  F14  1  0.200190  0.917702  0.967700  1
  F  F15  1  0.489712  0.715648  0.231453  1
  F  F16  1  0.989712  0.784352  0.731453  1
  F  F17  1  0.700190  0.582298  0.467700  1
  F  F18  1  0.549535  0.569148  0.736815  1
  F  F19  1  0.329569  0.406016  0.990762  1
  F  F20  1  0.829569  0.593984  0.009238  1
  F  F21  1  0.049535  0.430852  0.263185  1
  F  F22  1  0.200190  0.417702  0.532300  1
  F  F23  1  0.489712  0.215648  0.268547  1
  F  F24  1  0.989712  0.284352  0.768547  1
  F  F25  1  0.700190  0.082298  0.032300  1
  F  F26  1  0.549535  0.069148  0.763185  1
  F  F27  1  0.329569  0.906016  0.509238  1
