# generated using pymatgen
data_Li2CrP4(H4O5)4
_symmetry_space_group_name_H-M   'P 1'
_cell_length_a   7.18496553
_cell_length_b   10.70109103
_cell_length_c   12.12169201
_cell_angle_alpha   90.00000000
_cell_angle_beta   116.48491899
_cell_angle_gamma   90.00000000
_symmetry_Int_Tables_number   1
_chemical_formula_structural   Li2CrP4(H4O5)4
_chemical_formula_sum   'Li4 Cr2 P8 H32 O40'
_cell_volume   834.18840902
_cell_formula_units_Z   2
loop_
 _symmetry_equiv_pos_site_id
 _symmetry_equiv_pos_as_xyz
  1  'x, y, z'
loop_
 _atom_site_type_symbol
 _atom_site_label
 _atom_site_symmetry_multiplicity
 _atom_site_fract_x
 _atom_site_fract_y
 _atom_site_fract_z
 _atom_site_occupancy
  Li  Li0  1  0.795801  0.336297  0.542240  1
  Li  Li1  1  0.204199  0.836297  0.957760  1
  Li  Li2  1  0.795801  0.163703  0.042240  1
  Li  Li3  1  0.204199  0.663703  0.457760  1
  Cr  Cr4  1  0.500000  0.000000  0.500000  1
  Cr  Cr5  1  0.500000  0.500000  0.000000  1
  P  P6  1  0.316109  0.239939  0.083675  1
  P  P7  1  0.683891  0.739939  0.416325  1
  P  P8  1  0.959496  0.044890  0.721974  1
  P  P9  1  0.040504  0.544890  0.778026  1
  P  P10  1  0.959496  0.455110  0.221974  1
  P  P11  1  0.040504  0.955110  0.278026  1
  P  P12  1  0.316109  0.260061  0.583675  1
  P  P13  1  0.683891  0.760061  0.916325  1
  H  H14  1  0.253959  0.598373  0.106855  1
  H  H15  1  0.334372  0.961114  0.191715  1
  H  H16  1  0.517125  0.567039  0.395298  1
  H  H17  1  0.493481  0.377164  0.310758  1
  H  H18  1  0.535457  0.172975  0.341613  1
  H  H19  1  0.863336  0.709822  0.788586  1
  H  H20  1  0.464543  0.672975  0.158387  1
  H  H21  1  0.506519  0.877164  0.189242  1
  H  H22  1  0.089421  0.413941  0.924918  1
  H  H23  1  0.097422  0.105972  0.945137  1
  H  H24  1  0.482875  0.067039  0.104702  1
  H  H25  1  0.665628  0.461114  0.308285  1
  H  H26  1  0.746041  0.098373  0.393145  1
  H  H27  1  0.902578  0.605972  0.554863  1
  H  H28  1  0.910579  0.913941  0.575082  1
  H  H29  1  0.136664  0.209822  0.711414  1
  H  H30  1  0.863336  0.790178  0.288586  1
  H  H31  1  0.089421  0.086059  0.424918  1
  H  H32  1  0.097422  0.394028  0.445137  1
  H  H33  1  0.253959  0.901627  0.606855  1
  H  H34  1  0.334372  0.538886  0.691715  1
  H  H35  1  0.517125  0.932961  0.895298  1
  H  H36  1  0.902578  0.894028  0.054863  1
  H  H37  1  0.910579  0.586059  0.075082  1
  H  H38  1  0.493481  0.122836  0.810758  1
  H  H39  1  0.535457  0.327025  0.841613  1
  H  H40  1  0.136664  0.290178  0.211414  1
  H  H41  1  0.464543  0.827025  0.658387  1
  H  H42  1  0.506519  0.622836  0.689242  1
  H  H43  1  0.482875  0.432961  0.604702  1
  H  H44  1  0.665628  0.038886  0.808285  1
  H  H45  1  0.746041  0.401627  0.893145  1
  O  O46  1  0.103642  0.166907  0.015377  1
  O  O47  1  0.350496  0.258279  0.217071  1
  O  O48  1  0.503871  0.656705  0.420989  1
  O  O49  1  0.727806  0.025892  0.680867  1
  O  O50  1  0.398969  0.938556  0.136616  1
  O  O51  1  0.344635  0.646182  0.080752  1
  O  O52  1  0.305998  0.361303  0.015875  1
  O  O53  1  0.694002  0.861303  0.484125  1
  O  O54  1  0.655365  0.146182  0.419248  1
  O  O55  1  0.601031  0.438556  0.363384  1
  O  O56  1  0.965710  0.461512  0.859745  1
  O  O57  1  0.012920  0.687201  0.806221  1
  O  O58  1  0.496129  0.156705  0.079011  1
  O  O59  1  0.901911  0.514053  0.642739  1
  O  O60  1  0.649504  0.758279  0.282929  1
  O  O61  1  0.098089  0.014053  0.857261  1
  O  O62  1  0.987080  0.187201  0.693779  1
  O  O63  1  0.896358  0.666907  0.484623  1
  O  O64  1  0.034290  0.961512  0.640255  1
  O  O65  1  0.727806  0.474108  0.180867  1
  O  O66  1  0.272194  0.525892  0.819133  1
  O  O67  1  0.965710  0.038488  0.359745  1
  O  O68  1  0.103642  0.333093  0.515377  1
  O  O69  1  0.012920  0.812799  0.306221  1
  O  O70  1  0.901911  0.985947  0.142739  1
  O  O71  1  0.350496  0.241721  0.717071  1
  O  O72  1  0.098089  0.485947  0.357261  1
  O  O73  1  0.503871  0.843295  0.920989  1
  O  O74  1  0.987080  0.312799  0.193779  1
  O  O75  1  0.034290  0.538488  0.140255  1
  O  O76  1  0.398969  0.561444  0.636616  1
  O  O77  1  0.344635  0.853818  0.580752  1
  O  O78  1  0.305998  0.138697  0.515875  1
  O  O79  1  0.694002  0.638697  0.984125  1
  O  O80  1  0.655365  0.353818  0.919248  1
  O  O81  1  0.601031  0.061444  0.863384  1
  O  O82  1  0.272194  0.974108  0.319133  1
  O  O83  1  0.496129  0.343295  0.579011  1
  O  O84  1  0.649504  0.741721  0.782929  1
  O  O85  1  0.896358  0.833093  0.984623  1
