# generated using pymatgen
data_Mg11AlFeSi11O36
_symmetry_space_group_name_H-M   'P 1'
_cell_length_a   5.00545316
_cell_length_b   7.00227646
_cell_length_c   14.51612149
_cell_angle_alpha   90.00228081
_cell_angle_beta   90.08585151
_cell_angle_gamma   90.10274359
_symmetry_Int_Tables_number   1
_chemical_formula_structural   Mg11AlFeSi11O36
_chemical_formula_sum   'Mg11 Al1 Fe1 Si11 O36'
_cell_volume   508.78238108
_cell_formula_units_Z   1
loop_
 _symmetry_equiv_pos_site_id
 _symmetry_equiv_pos_as_xyz
  1  'x, y, z'
loop_
 _atom_site_type_symbol
 _atom_site_label
 _atom_site_symmetry_multiplicity
 _atom_site_fract_x
 _atom_site_fract_y
 _atom_site_fract_z
 _atom_site_occupancy
  Mg  Mg0  1  0.059376  0.745376  0.996549  1
  Mg  Mg1  1  0.557348  0.746876  0.836549  1
  Mg  Mg2  1  0.444189  0.253132  0.828185  1
  Mg  Mg3  1  0.941169  0.249237  0.671193  1
  Mg  Mg4  1  0.058818  0.749537  0.660304  1
  Mg  Mg5  1  0.558081  0.750401  0.504898  1
  Mg  Mg6  1  0.441599  0.249656  0.495308  1
  Mg  Mg7  1  0.940849  0.250240  0.339707  1
  Mg  Mg8  1  0.058202  0.750906  0.329185  1
  Mg  Mg9  1  0.556640  0.748250  0.171756  1
  Mg  Mg10  1  0.439707  0.252184  0.162637  1
  Al  Al11  1  0.499034  0.503597  0.998915  1
  Fe  Fe12  1  0.932729  0.256652  0.005617  1
  Si  Si13  1  0.001955  0.995566  0.832755  1
  Si  Si14  1  0.005778  0.505333  0.831714  1
  Si  Si15  1  0.500658  0.499135  0.666142  1
  Si  Si16  1  0.500207  0.000211  0.666910  1
  Si  Si17  1  0.999866  0.500016  0.500062  1
  Si  Si18  1  0.999873  0.999994  0.500124  1
  Si  Si19  1  0.499424  0.500163  0.334064  1
  Si  Si20  1  0.499842  0.000566  0.333434  1
  Si  Si21  1  0.998593  0.001322  0.168382  1
  Si  Si22  1  0.995767  0.498235  0.169372  1
  Si  Si23  1  0.499885  0.996671  0.998102  1
  O  O24  1  0.540180  0.238370  0.964638  1
  O  O25  1  0.803730  0.941086  0.934443  1
  O  O26  1  0.815926  0.547659  0.932566  1
  O  O27  1  0.300392  0.551509  0.892666  1
  O  O28  1  0.299144  0.942834  0.897594  1
  O  O29  1  0.033881  0.245779  0.869793  1
  O  O30  1  0.963178  0.751351  0.796102  1
  O  O31  1  0.703928  0.446448  0.766738  1
  O  O32  1  0.701483  0.053579  0.767934  1
  O  O33  1  0.200030  0.444712  0.730464  1
  O  O34  1  0.201655  0.054334  0.732279  1
  O  O35  1  0.464897  0.749745  0.700224  1
  O  O36  1  0.534399  0.249524  0.631892  1
  O  O37  1  0.798852  0.553341  0.600643  1
  O  O38  1  0.798995  0.946874  0.601191  1
  O  O39  1  0.299225  0.553142  0.565022  1
  O  O40  1  0.298715  0.946944  0.565422  1
  O  O41  1  0.034025  0.249831  0.534119  1
  O  O42  1  0.965710  0.750201  0.465827  1
  O  O43  1  0.700923  0.053257  0.434708  1
  O  O44  1  0.700491  0.446709  0.434983  1
  O  O45  1  0.200639  0.052804  0.398645  1
  O  O46  1  0.200681  0.446967  0.399080  1
  O  O47  1  0.464992  0.750451  0.367904  1
  O  O48  1  0.534345  0.250383  0.299593  1
  O  O49  1  0.799070  0.554336  0.269671  1
  O  O50  1  0.797300  0.946693  0.268222  1
  O  O51  1  0.298441  0.553168  0.232478  1
  O  O52  1  0.300681  0.947432  0.231367  1
  O  O53  1  0.036207  0.248414  0.204433  1
  O  O54  1  0.963702  0.753246  0.133453  1
  O  O55  1  0.706331  0.061303  0.100246  1
  O  O56  1  0.704844  0.444113  0.105150  1
  O  O57  1  0.185824  0.446234  0.067749  1
  O  O58  1  0.195641  0.062129  0.064802  1
  O  O59  1  0.461955  0.761842  0.036094  1
