# generated using pymatgen
data_Li4Ti3V3O12
_symmetry_space_group_name_H-M   'P 1'
_cell_length_a   5.18987880
_cell_length_b   6.05010815
_cell_length_c   7.91346171
_cell_angle_alpha   77.74818037
_cell_angle_beta   77.10510631
_cell_angle_gamma   72.97901548
_symmetry_Int_Tables_number   1
_chemical_formula_structural   Li4Ti3V3O12
_chemical_formula_sum   'Li4 Ti3 V3 O12'
_cell_volume   228.70780148
_cell_formula_units_Z   1
loop_
 _symmetry_equiv_pos_site_id
 _symmetry_equiv_pos_as_xyz
  1  'x, y, z'
loop_
 _atom_site_type_symbol
 _atom_site_label
 _atom_site_symmetry_multiplicity
 _atom_site_fract_x
 _atom_site_fract_y
 _atom_site_fract_z
 _atom_site_occupancy
  Li  Li0  1  0.502424  0.165611  0.334551  1
  Li  Li1  1  0.497576  0.834389  0.665449  1
  Li  Li2  1  0.997046  0.333681  0.166935  1
  Li  Li3  1  0.002954  0.666319  0.833065  1
  Ti  Ti4  1  0.506722  0.332012  0.667772  1
  Ti  Ti5  1  0.500000  0.000000  0.000000  1
  Ti  Ti6  1  0.493278  0.667988  0.332228  1
  V  V7  1  0.000000  0.500000  0.500000  1
  V  V8  1  0.996721  0.168907  0.831820  1
  V  V9  1  0.003279  0.831093  0.168180  1
  O  O10  1  0.755922  0.482352  0.735778  1
  O  O11  1  0.275050  0.641226  0.578591  1
  O  O12  1  0.724950  0.358774  0.421409  1
  O  O13  1  0.727576  0.014981  0.763794  1
  O  O14  1  0.244078  0.517648  0.264222  1
  O  O15  1  0.259966  0.190035  0.594771  1
  O  O16  1  0.755451  0.138641  0.076477  1
  O  O17  1  0.740034  0.809965  0.405229  1
  O  O18  1  0.263072  0.312838  0.906402  1
  O  O19  1  0.272424  0.985019  0.236206  1
  O  O20  1  0.736928  0.687162  0.093598  1
  O  O21  1  0.244549  0.861359  0.923523  1
