# generated using pymatgen
data_V4O7F5
_symmetry_space_group_name_H-M   'P 1'
_cell_length_a   5.15185813
_cell_length_b   5.37351814
_cell_length_c   7.55434502
_cell_angle_alpha   88.01595945
_cell_angle_beta   89.90675080
_cell_angle_gamma   88.33165542
_symmetry_Int_Tables_number   1
_chemical_formula_structural   V4O7F5
_chemical_formula_sum   'V4 O7 F5'
_cell_volume   208.91747860
_cell_formula_units_Z   1
loop_
 _symmetry_equiv_pos_site_id
 _symmetry_equiv_pos_as_xyz
  1  'x, y, z'
loop_
 _atom_site_type_symbol
 _atom_site_label
 _atom_site_symmetry_multiplicity
 _atom_site_fract_x
 _atom_site_fract_y
 _atom_site_fract_z
 _atom_site_occupancy
  V  V0  1  0.519793  0.549022  0.502928  1
  V  V1  1  0.499833  0.446260  0.002187  1
  V  V2  1  0.030526  0.037224  0.491269  1
  V  V3  1  0.979835  0.946900  0.996481  1
  O  O4  1  0.786803  0.705828  0.538744  1
  O  O5  1  0.783226  0.291059  0.963147  1
  O  O6  1  0.711653  0.791082  0.960324  1
  O  O7  1  0.293839  0.780650  0.465060  1
  O  O8  1  0.290522  0.221745  0.039058  1
  O  O9  1  0.211636  0.724180  0.037039  1
  O  O10  1  0.210553  0.285807  0.461672  1
  F  F11  1  0.906447  0.005177  0.246297  1
  F  F12  1  0.697501  0.210988  0.541207  1
  F  F13  1  0.586714  0.498223  0.252343  1
  F  F14  1  0.410790  0.502453  0.750249  1
  F  F15  1  0.080328  0.003403  0.751993  1
