# generated using pymatgen
data_LiVP2O7
_symmetry_space_group_name_H-M   'P 1'
_cell_length_a   5.22759401
_cell_length_b   8.23185637
_cell_length_c   13.94990401
_cell_angle_alpha   90.00000000
_cell_angle_beta   108.94643764
_cell_angle_gamma   90.00000000
_symmetry_Int_Tables_number   1
_chemical_formula_structural   LiVP2O7
_chemical_formula_sum   'Li4 V4 P8 O28'
_cell_volume   567.78054020
_cell_formula_units_Z   4
loop_
 _symmetry_equiv_pos_site_id
 _symmetry_equiv_pos_as_xyz
  1  'x, y, z'
loop_
 _atom_site_type_symbol
 _atom_site_label
 _atom_site_symmetry_multiplicity
 _atom_site_fract_x
 _atom_site_fract_y
 _atom_site_fract_z
 _atom_site_occupancy
  Li  Li0  1  0.071573  0.742218  0.267740  1
  Li  Li1  1  0.928427  0.242218  0.232260  1
  Li  Li2  1  0.071573  0.757782  0.767740  1
  Li  Li3  1  0.928427  0.257782  0.732260  1
  V  V4  1  0.653946  0.648177  0.870974  1
  V  V5  1  0.346054  0.148177  0.629026  1
  V  V6  1  0.653946  0.851823  0.370974  1
  V  V7  1  0.346054  0.351823  0.129026  1
  P  P8  1  0.293470  0.795441  0.518041  1
  P  P9  1  0.457520  0.544447  0.679395  1
  P  P10  1  0.542480  0.044447  0.820605  1
  P  P11  1  0.706530  0.295441  0.981959  1
  P  P12  1  0.293470  0.704559  0.018041  1
  P  P13  1  0.457520  0.955553  0.179395  1
  P  P14  1  0.542480  0.455553  0.320605  1
  P  P15  1  0.706530  0.204559  0.481959  1
  O  O16  1  0.280111  0.934695  0.247595  1
  O  O17  1  0.718874  0.641477  0.733979  1
  O  O18  1  0.439143  0.175735  0.501941  1
  O  O19  1  0.749977  0.413457  0.904150  1
  O  O20  1  0.527893  0.368019  0.665757  1
  O  O21  1  0.946547  0.279683  0.079763  1
  O  O22  1  0.312772  0.614678  0.568377  1
  O  O23  1  0.687228  0.114678  0.931623  1
  O  O24  1  0.053453  0.779683  0.420237  1
  O  O25  1  0.472107  0.868019  0.834243  1
  O  O26  1  0.250023  0.913457  0.595850  1
  O  O27  1  0.560857  0.675735  0.998059  1
  O  O28  1  0.281126  0.141477  0.766021  1
  O  O29  1  0.719889  0.434695  0.252405  1
  O  O30  1  0.280111  0.565305  0.747595  1
  O  O31  1  0.718874  0.858523  0.233979  1
  O  O32  1  0.439143  0.324265  0.001941  1
  O  O33  1  0.749977  0.086543  0.404150  1
  O  O34  1  0.527893  0.131981  0.165757  1
  O  O35  1  0.946547  0.220317  0.579763  1
  O  O36  1  0.312772  0.885322  0.068377  1
  O  O37  1  0.687228  0.385322  0.431623  1
  O  O38  1  0.053453  0.720317  0.920237  1
  O  O39  1  0.472107  0.631981  0.334243  1
  O  O40  1  0.250023  0.586543  0.095850  1
  O  O41  1  0.560857  0.824265  0.498059  1
  O  O42  1  0.281126  0.358523  0.266021  1
  O  O43  1  0.719889  0.065305  0.752405  1
