# generated using pymatgen
data_LiCr(SO4)2
_symmetry_space_group_name_H-M   'P 1'
_cell_length_a   8.32109344
_cell_length_b   8.33027215
_cell_length_c   8.90489472
_cell_angle_alpha   90.18649390
_cell_angle_beta   117.65108008
_cell_angle_gamma   119.87063242
_symmetry_Int_Tables_number   1
_chemical_formula_structural   LiCr(SO4)2
_chemical_formula_sum   'Li3 Cr3 S6 O24'
_cell_volume   451.51311656
_cell_formula_units_Z   3
loop_
 _symmetry_equiv_pos_site_id
 _symmetry_equiv_pos_as_xyz
  1  'x, y, z'
loop_
 _atom_site_type_symbol
 _atom_site_label
 _atom_site_symmetry_multiplicity
 _atom_site_fract_x
 _atom_site_fract_y
 _atom_site_fract_z
 _atom_site_occupancy
  Li  Li0  1  0.676329  0.842806  0.541125  1
  Li  Li1  1  0.041029  0.222006  0.627620  1
  Li  Li2  1  0.809202  0.587693  0.627428  1
  Cr  Cr3  1  0.295687  0.650961  0.942767  1
  Cr  Cr4  1  0.715266  0.356917  0.070086  1
  Cr  Cr5  1  0.297905  0.145979  0.446839  1
  S  S6  1  0.496408  0.533226  0.752029  1
  S  S7  1  0.788118  0.251734  0.751012  1
  S  S8  1  0.219251  0.966787  0.749419  1
  S  S9  1  0.794841  0.045982  0.251299  1
  S  S10  1  0.207286  0.745321  0.251588  1
  S  S11  1  0.502490  0.457468  0.250820  1
  O  O12  1  0.382137  0.489580  0.081822  1
  O  O13  1  0.593730  0.894717  0.082675  1
  O  O14  1  0.650019  0.654341  0.700793  1
  O  O15  1  0.178909  0.699406  0.073837  1
  O  O16  1  0.310037  0.336786  0.608026  1
  O  O17  1  0.384628  0.619263  0.770067  1
  O  O18  1  0.006480  0.386121  0.765639  1
  O  O19  1  0.717534  0.053184  0.700880  1
  O  O20  1  0.139955  0.763725  0.765425  1
  O  O21  1  0.970213  0.015900  0.287623  1
  O  O22  1  0.762266  0.038688  0.400306  1
  O  O23  1  0.362323  0.714284  0.387836  1
  O  O24  1  0.636086  0.296851  0.609125  1
  O  O25  1  0.266978  0.975811  0.606131  1
  O  O26  1  0.045316  0.997033  0.704416  1
  O  O27  1  0.863041  0.241152  0.225889  1
  O  O28  1  0.275041  0.951685  0.291414  1
  O  O29  1  0.986276  0.619515  0.227173  1
  O  O30  1  0.604019  0.363595  0.224262  1
  O  O31  1  0.676289  0.639039  0.399106  1
  O  O32  1  0.820161  0.312382  0.922823  1
  O  O33  1  0.336269  0.318430  0.289431  1
  O  O34  1  0.419681  0.103844  0.922248  1
  O  O35  1  0.610199  0.502590  0.922221  1
