# generated using pymatgen
data_Li4Mn3Cu2Sb3O16
_symmetry_space_group_name_H-M   'P 1'
_cell_length_a   6.07972188
_cell_length_b   6.10985769
_cell_length_c   9.91239980
_cell_angle_alpha   90.83033090
_cell_angle_beta   90.63804566
_cell_angle_gamma   119.15625520
_symmetry_Int_Tables_number   1
_chemical_formula_structural   Li4Mn3Cu2Sb3O16
_chemical_formula_sum   'Li4 Mn3 Cu2 Sb3 O16'
_cell_volume   321.45066165
_cell_formula_units_Z   1
loop_
 _symmetry_equiv_pos_site_id
 _symmetry_equiv_pos_as_xyz
  1  'x, y, z'
loop_
 _atom_site_type_symbol
 _atom_site_label
 _atom_site_symmetry_multiplicity
 _atom_site_fract_x
 _atom_site_fract_y
 _atom_site_fract_z
 _atom_site_occupancy
  Li  Li0  1  0.318949  0.655361  0.124291  1
  Li  Li1  1  0.983320  0.998762  0.005275  1
  Li  Li2  1  0.998770  0.000205  0.494201  1
  Li  Li3  1  0.651661  0.321660  0.606086  1
  Mn  Mn4  1  0.666515  0.834565  0.782385  1
  Mn  Mn5  1  0.830649  0.165831  0.286196  1
  Mn  Mn6  1  0.831495  0.662781  0.282922  1
  Cu  Cu7  1  0.358121  0.679224  0.478693  1
  Cu  Cu8  1  0.686157  0.341795  0.016762  1
  Sb  Sb9  1  0.171600  0.341469  0.785572  1
  Sb  Sb10  1  0.170864  0.832259  0.785547  1
  Sb  Sb11  1  0.341975  0.168592  0.283620  1
  O  O12  1  0.162477  0.318651  0.395342  1
  O  O13  1  0.018160  0.510006  0.673714  1
  O  O14  1  0.310611  0.657214  0.905243  1
  O  O15  1  0.026441  0.014321  0.676307  1
  O  O16  1  0.006913  0.023275  0.184192  1
  O  O17  1  0.162160  0.848253  0.390624  1
  O  O18  1  0.478671  0.512124  0.676568  1
  O  O19  1  0.477292  0.962945  0.676391  1
  O  O20  1  0.316717  0.160148  0.900858  1
  O  O21  1  0.696300  0.850346  0.388343  1
  O  O22  1  0.510533  0.022318  0.170297  1
  O  O23  1  0.510775  0.476845  0.171014  1
  O  O24  1  0.659673  0.308402  0.399471  1
  O  O25  1  0.851980  0.162164  0.890067  1
  O  O26  1  0.947261  0.467566  0.171929  1
  O  O27  1  0.853958  0.702619  0.890247  1
