# generated using pymatgen
data_LiCoSbO4
_symmetry_space_group_name_H-M   'P 1'
_cell_length_a   6.12979121
_cell_length_b   6.12979121
_cell_length_c   8.57242611
_cell_angle_alpha   90.00000000
_cell_angle_beta   90.00000000
_cell_angle_gamma   90.00000000
_symmetry_Int_Tables_number   1
_chemical_formula_structural   LiCoSbO4
_chemical_formula_sum   'Li4 Co4 Sb4 O16'
_cell_volume   322.10325567
_cell_formula_units_Z   4
loop_
 _symmetry_equiv_pos_site_id
 _symmetry_equiv_pos_as_xyz
  1  'x, y, z'
loop_
 _atom_site_type_symbol
 _atom_site_label
 _atom_site_symmetry_multiplicity
 _atom_site_fract_x
 _atom_site_fract_y
 _atom_site_fract_z
 _atom_site_occupancy
  Li  Li0  1  0.000000  0.209068  0.000000  1
  Li  Li1  1  0.000000  0.790932  0.500000  1
  Li  Li2  1  0.209068  0.000000  0.250000  1
  Li  Li3  1  0.790932  0.000000  0.750000  1
  Co  Co4  1  0.251033  0.251033  0.625000  1
  Co  Co5  1  0.251033  0.748967  0.875000  1
  Co  Co6  1  0.748967  0.251033  0.375000  1
  Co  Co7  1  0.748967  0.748967  0.125000  1
  Sb  Sb8  1  0.227246  0.500000  0.250000  1
  Sb  Sb9  1  0.500000  0.227246  0.000000  1
  Sb  Sb10  1  0.500000  0.772754  0.500000  1
  Sb  Sb11  1  0.772754  0.500000  0.750000  1
  O  O12  1  0.016524  0.261372  0.251685  1
  O  O13  1  0.016524  0.738628  0.248315  1
  O  O14  1  0.261372  0.016524  0.998315  1
  O  O15  1  0.261372  0.983476  0.501685  1
  O  O16  1  0.267320  0.476761  0.013740  1
  O  O17  1  0.267320  0.523239  0.486260  1
  O  O18  1  0.476761  0.267320  0.236260  1
  O  O19  1  0.476761  0.732680  0.263740  1
  O  O20  1  0.523239  0.267320  0.763740  1
  O  O21  1  0.523239  0.732680  0.736260  1
  O  O22  1  0.732680  0.523239  0.513740  1
  O  O23  1  0.732680  0.476761  0.986260  1
  O  O24  1  0.738628  0.016524  0.001685  1
  O  O25  1  0.738628  0.983476  0.498315  1
  O  O26  1  0.983476  0.261372  0.748315  1
  O  O27  1  0.983476  0.738628  0.751685  1
