# generated using pymatgen
data_LiSiBiO4
_symmetry_space_group_name_H-M   'P 1'
_cell_length_a   10.11593210
_cell_length_b   10.11593210
_cell_length_c   8.21303062
_cell_angle_alpha   90.00000000
_cell_angle_beta   90.00000000
_cell_angle_gamma   120.00000000
_symmetry_Int_Tables_number   1
_chemical_formula_structural   LiSiBiO4
_chemical_formula_sum   'Li8 Si8 Bi8 O32'
_cell_volume   727.85670126
_cell_formula_units_Z   8
loop_
 _symmetry_equiv_pos_site_id
 _symmetry_equiv_pos_as_xyz
  1  'x, y, z'
loop_
 _atom_site_type_symbol
 _atom_site_label
 _atom_site_symmetry_multiplicity
 _atom_site_fract_x
 _atom_site_fract_y
 _atom_site_fract_z
 _atom_site_occupancy
  Li  Li0  1  0.234374  0.917151  0.695615  1
  Li  Li1  1  0.082849  0.317223  0.695615  1
  Li  Li2  1  0.333333  0.666667  0.213910  1
  Li  Li3  1  0.317223  0.234374  0.195615  1
  Li  Li4  1  0.682777  0.765626  0.695615  1
  Li  Li5  1  0.666667  0.333333  0.713910  1
  Li  Li6  1  0.917151  0.682777  0.195615  1
  Li  Li7  1  0.765626  0.082849  0.195615  1
  Si  Si8  1  0.221281  0.906871  0.323666  1
  Si  Si9  1  0.093129  0.314410  0.323666  1
  Si  Si10  1  0.333333  0.666667  0.755029  1
  Si  Si11  1  0.314410  0.221281  0.823666  1
  Si  Si12  1  0.685590  0.778719  0.323666  1
  Si  Si13  1  0.666667  0.333333  0.255029  1
  Si  Si14  1  0.906871  0.685590  0.823666  1
  Si  Si15  1  0.778719  0.093129  0.823666  1
  Bi  Bi16  1  0.025782  0.490785  0.979584  1
  Bi  Bi17  1  0.465002  0.974218  0.979584  1
  Bi  Bi18  1  0.000000  0.000000  0.048278  1
  Bi  Bi19  1  0.000000  0.000000  0.548278  1
  Bi  Bi20  1  0.490785  0.465002  0.479584  1
  Bi  Bi21  1  0.509215  0.534998  0.979584  1
  Bi  Bi22  1  0.534998  0.025782  0.479584  1
  Bi  Bi23  1  0.974218  0.509215  0.479584  1
  O  O24  1  0.065108  0.748882  0.367171  1
  O  O25  1  0.013093  0.830272  0.700649  1
  O  O26  1  0.299844  0.016453  0.485141  1
  O  O27  1  0.983547  0.283391  0.485141  1
  O  O28  1  0.129491  0.485054  0.257560  1
  O  O29  1  0.158617  0.540764  0.698242  1
  O  O30  1  0.355562  0.870509  0.257560  1
  O  O31  1  0.382147  0.841383  0.698242  1
  O  O32  1  0.333333  0.666667  0.959791  1
  O  O33  1  0.251118  0.316226  0.367171  1
  O  O34  1  0.169728  0.182821  0.700649  1
  O  O35  1  0.514946  0.644438  0.257560  1
  O  O36  1  0.459236  0.617853  0.698242  1
  O  O37  1  0.283391  0.299844  0.985141  1
  O  O38  1  0.817179  0.986907  0.700649  1
  O  O39  1  0.683774  0.934892  0.367171  1
  O  O40  1  0.182821  0.013093  0.200649  1
  O  O41  1  0.316226  0.065108  0.867171  1
  O  O42  1  0.716609  0.700156  0.485141  1
  O  O43  1  0.485054  0.355562  0.757560  1
  O  O44  1  0.540764  0.382147  0.198242  1
  O  O45  1  0.830272  0.817179  0.200649  1
  O  O46  1  0.748882  0.683774  0.867171  1
  O  O47  1  0.666667  0.333333  0.459791  1
  O  O48  1  0.644438  0.129491  0.757560  1
  O  O49  1  0.617853  0.158617  0.198242  1
  O  O50  1  0.870509  0.514946  0.757560  1
  O  O51  1  0.841383  0.459236  0.198242  1
  O  O52  1  0.016453  0.716609  0.985141  1
  O  O53  1  0.700156  0.983547  0.985141  1
  O  O54  1  0.934892  0.251118  0.867171  1
  O  O55  1  0.986907  0.169728  0.200649  1
