# generated using pymatgen
data_Li5V5O9F
_symmetry_space_group_name_H-M   'P 1'
_cell_length_a   5.20393089
_cell_length_b   5.26314362
_cell_length_c   7.95779108
_cell_angle_alpha   70.77056877
_cell_angle_beta   70.96197273
_cell_angle_gamma   80.58575633
_symmetry_Int_Tables_number   1
_chemical_formula_structural   Li5V5O9F
_chemical_formula_sum   'Li5 V5 O9 F1'
_cell_volume   194.15413245
_cell_formula_units_Z   1
loop_
 _symmetry_equiv_pos_site_id
 _symmetry_equiv_pos_as_xyz
  1  'x, y, z'
loop_
 _atom_site_type_symbol
 _atom_site_label
 _atom_site_symmetry_multiplicity
 _atom_site_fract_x
 _atom_site_fract_y
 _atom_site_fract_z
 _atom_site_occupancy
  Li  Li0  1  0.514214  0.303701  0.911252  1
  Li  Li1  1  0.506482  0.877738  0.694247  1
  Li  Li2  1  0.509604  0.511752  0.482871  1
  Li  Li3  1  0.497517  0.099638  0.303851  1
  Li  Li4  1  0.493522  0.702170  0.103168  1
  V  V5  1  0.990675  0.620074  0.802393  1
  V  V6  1  0.990125  0.200519  0.594886  1
  V  V7  1  0.998470  0.794730  0.402318  1
  V  V8  1  0.999038  0.394916  0.198222  1
  V  V9  1  0.994013  0.991158  0.008014  1
  O  O10  1  0.765579  0.975042  0.846327  1
  O  O11  1  0.233914  0.655680  0.961302  1
  O  O12  1  0.769811  0.543313  0.641606  1
  O  O13  1  0.766539  0.148323  0.441541  1
  O  O14  1  0.229051  0.866067  0.546684  1
  O  O15  1  0.769205  0.741856  0.250907  1
  O  O16  1  0.225309  0.441623  0.355719  1
  O  O17  1  0.774736  0.336687  0.049443  1
  O  O18  1  0.225959  0.040534  0.155191  1
  F  F19  1  0.246239  0.254478  0.750059  1
