# generated using pymatgen
data_Na2FeO3
_symmetry_space_group_name_H-M   'P 1'
_cell_length_a   4.84370975
_cell_length_b   10.00080905
_cell_length_c   6.61261129
_cell_angle_alpha   90.00000000
_cell_angle_beta   91.82061746
_cell_angle_gamma   90.00000000
_symmetry_Int_Tables_number   1
_chemical_formula_structural   Na2FeO3
_chemical_formula_sum   'Na8 Fe4 O12'
_cell_volume   320.15991090
_cell_formula_units_Z   4
loop_
 _symmetry_equiv_pos_site_id
 _symmetry_equiv_pos_as_xyz
  1  'x, y, z'
loop_
 _atom_site_type_symbol
 _atom_site_label
 _atom_site_symmetry_multiplicity
 _atom_site_fract_x
 _atom_site_fract_y
 _atom_site_fract_z
 _atom_site_occupancy
  Na  Na0  1  0.262950  0.728053  0.642131  1
  Na  Na1  1  0.262950  0.771947  0.142131  1
  Na  Na2  1  0.260929  0.396854  0.618606  1
  Na  Na3  1  0.260929  0.103146  0.118606  1
  Na  Na4  1  0.739071  0.896854  0.881394  1
  Na  Na5  1  0.739071  0.603146  0.381394  1
  Na  Na6  1  0.737050  0.228053  0.857869  1
  Na  Na7  1  0.737050  0.271947  0.357869  1
  Fe  Fe8  1  0.182768  0.040104  0.659548  1
  Fe  Fe9  1  0.182768  0.459896  0.159548  1
  Fe  Fe10  1  0.817232  0.540104  0.840452  1
  Fe  Fe11  1  0.817232  0.959896  0.340452  1
  O  O12  1  0.206198  0.563946  0.922246  1
  O  O13  1  0.206198  0.936054  0.422246  1
  O  O14  1  0.254507  0.921185  0.854203  1
  O  O15  1  0.254507  0.578815  0.354203  1
  O  O16  1  0.240426  0.191006  0.789287  1
  O  O17  1  0.240426  0.308994  0.289287  1
  O  O18  1  0.759574  0.691006  0.710713  1
  O  O19  1  0.759574  0.808994  0.210713  1
  O  O20  1  0.745493  0.421185  0.645797  1
  O  O21  1  0.745493  0.078815  0.145797  1
  O  O22  1  0.793802  0.063946  0.577754  1
  O  O23  1  0.793802  0.436054  0.077754  1
