# generated using pymatgen
data_Li2BiF5
_symmetry_space_group_name_H-M   'P 1'
_cell_length_a   5.64427853
_cell_length_b   5.64427853
_cell_length_c   5.64427853
_cell_angle_alpha   100.20407455
_cell_angle_beta   100.20407455
_cell_angle_gamma   130.21746951
_symmetry_Int_Tables_number   1
_chemical_formula_structural   Li2BiF5
_chemical_formula_sum   'Li2 Bi1 F5'
_cell_volume   124.55175725
_cell_formula_units_Z   1
loop_
 _symmetry_equiv_pos_site_id
 _symmetry_equiv_pos_as_xyz
  1  'x, y, z'
loop_
 _atom_site_type_symbol
 _atom_site_label
 _atom_site_symmetry_multiplicity
 _atom_site_fract_x
 _atom_site_fract_y
 _atom_site_fract_z
 _atom_site_occupancy
  Li  Li0  1  0.250000  0.750000  0.500000  1
  Li  Li1  1  0.750000  0.250000  0.500000  1
  Bi  Bi2  1  0.000000  0.000000  0.000000  1
  F  F3  1  0.947229  0.309685  0.256914  1
  F  F4  1  0.309685  0.052771  0.362456  1
  F  F5  1  0.690315  0.947229  0.637544  1
  F  F6  1  0.052771  0.690315  0.743086  1
  F  F7  1  0.500000  0.500000  0.000000  1
