# generated using pymatgen
data_Li4FeOF5
_symmetry_space_group_name_H-M   'P 1'
_cell_length_a   5.13203752
_cell_length_b   5.13203752
_cell_length_c   9.68977959
_cell_angle_alpha   85.26201577
_cell_angle_beta   94.73798423
_cell_angle_gamma   60.79352183
_symmetry_Int_Tables_number   1
_chemical_formula_structural   Li4FeOF5
_chemical_formula_sum   'Li8 Fe2 O2 F10'
_cell_volume   219.77403134
_cell_formula_units_Z   2
loop_
 _symmetry_equiv_pos_site_id
 _symmetry_equiv_pos_as_xyz
  1  'x, y, z'
loop_
 _atom_site_type_symbol
 _atom_site_label
 _atom_site_symmetry_multiplicity
 _atom_site_fract_x
 _atom_site_fract_y
 _atom_site_fract_z
 _atom_site_occupancy
  Li  Li0  1  0.416200  0.449938  0.259661  1
  Li  Li1  1  0.938765  0.904777  0.751547  1
  Li  Li2  1  0.812707  0.348185  0.496678  1
  Li  Li3  1  0.744086  0.745956  0.247247  1
  Li  Li4  1  0.254044  0.255914  0.747247  1
  Li  Li5  1  0.095223  0.061235  0.251547  1
  Li  Li6  1  0.651815  0.187293  0.996678  1
  Li  Li7  1  0.550062  0.583800  0.759661  1
  Fe  Fe8  1  0.497150  0.973306  0.490184  1
  Fe  Fe9  1  0.026694  0.502850  0.990184  1
  O  O10  1  0.476555  0.726031  0.371919  1
  O  O11  1  0.273969  0.523445  0.871919  1
  F  F12  1  0.368001  0.167217  0.128075  1
  F  F13  1  0.926109  0.240450  0.874457  1
  F  F14  1  0.761884  0.427634  0.125788  1
  F  F15  1  0.218532  0.978996  0.632569  1
  F  F16  1  0.832783  0.631999  0.628075  1
  F  F17  1  0.137031  0.344183  0.381220  1
  F  F18  1  0.759550  0.073891  0.374457  1
  F  F19  1  0.021004  0.781468  0.132569  1
  F  F20  1  0.655817  0.862969  0.881220  1
  F  F21  1  0.572366  0.238116  0.625788  1
