# generated using pymatgen
data_LiFeCoO4
_symmetry_space_group_name_H-M   'P 1'
_cell_length_a   5.84785545
_cell_length_b   5.84785545
_cell_length_c   5.84785545
_cell_angle_alpha   120.81508526
_cell_angle_beta   119.15734112
_cell_angle_gamma   90.02987397
_symmetry_Int_Tables_number   1
_chemical_formula_structural   LiFeCoO4
_chemical_formula_sum   'Li2 Fe2 Co2 O8'
_cell_volume   141.40076437
_cell_formula_units_Z   2
loop_
 _symmetry_equiv_pos_site_id
 _symmetry_equiv_pos_as_xyz
  1  'x, y, z'
loop_
 _atom_site_type_symbol
 _atom_site_label
 _atom_site_symmetry_multiplicity
 _atom_site_fract_x
 _atom_site_fract_y
 _atom_site_fract_z
 _atom_site_occupancy
  Li  Li0  1  0.869552  0.119552  0.250000  1
  Li  Li1  1  0.130448  0.880448  0.750000  1
  Fe  Fe2  1  0.000000  0.500000  1.000000  1
  Fe  Fe3  1  0.500000  0.500000  0.500000  1
  Co  Co4  1  0.500000  0.500000  0.000000  1
  Co  Co5  1  0.500000  0.000000  0.500000  1
  O  O6  1  0.285341  0.746872  0.038469  1
  O  O7  1  0.708402  0.746872  0.461531  1
  O  O8  1  0.270996  0.754255  0.483258  1
  O  O9  1  0.270996  0.287738  0.016742  1
  O  O10  1  0.729004  0.712262  0.983258  1
  O  O11  1  0.729004  0.245745  0.516742  1
  O  O12  1  0.291598  0.253128  0.538469  1
  O  O13  1  0.714659  0.253128  0.961531  1
