# generated using pymatgen
data_Li3ZrNb(TeO6)2
_symmetry_space_group_name_H-M   'P 1'
_cell_length_a   5.21592105
_cell_length_b   5.52569995
_cell_length_c   7.62222986
_cell_angle_alpha   94.04543706
_cell_angle_beta   90.24559481
_cell_angle_gamma   90.02760999
_symmetry_Int_Tables_number   1
_chemical_formula_structural   Li3ZrNb(TeO6)2
_chemical_formula_sum   'Li3 Zr1 Nb1 Te2 O12'
_cell_volume   219.13552793
_cell_formula_units_Z   1
loop_
 _symmetry_equiv_pos_site_id
 _symmetry_equiv_pos_as_xyz
  1  'x, y, z'
loop_
 _atom_site_type_symbol
 _atom_site_label
 _atom_site_symmetry_multiplicity
 _atom_site_fract_x
 _atom_site_fract_y
 _atom_site_fract_z
 _atom_site_occupancy
  Li  Li0  1  0.502178  0.024373  0.737212  1
  Li  Li1  1  0.000104  0.569220  0.722989  1
  Li  Li2  1  0.995912  0.554776  0.224065  1
  Zr  Zr3  1  0.000758  0.006551  0.010736  1
  Nb  Nb4  1  0.501057  0.488885  0.490633  1
  Te  Te5  1  0.501279  0.498042  0.996291  1
  Te  Te6  1  0.001894  0.997347  0.503285  1
  O  O7  1  0.817682  0.684344  0.446612  1
  O  O8  1  0.620185  0.493216  0.750550  1
  O  O9  1  0.696391  0.187794  0.451039  1
  O  O10  1  0.875223  0.977764  0.738470  1
  O  O11  1  0.801966  0.325164  0.067024  1
  O  O12  1  0.331394  0.193126  0.936857  1
  O  O13  1  0.686922  0.788690  0.055668  1
  O  O14  1  0.113373  0.985613  0.268895  1
  O  O15  1  0.195433  0.670679  0.942390  1
  O  O16  1  0.374497  0.493361  0.247722  1
  O  O17  1  0.297331  0.801643  0.572510  1
  O  O18  1  0.186422  0.299813  0.566851  1
