# generated using pymatgen
data_LiMnP2O7
_symmetry_space_group_name_H-M   'P 1'
_cell_length_a   5.95664904
_cell_length_b   6.16358589
_cell_length_c   8.14196458
_cell_angle_alpha   98.38682360
_cell_angle_beta   101.06280765
_cell_angle_gamma   107.55498559
_symmetry_Int_Tables_number   1
_chemical_formula_structural   LiMnP2O7
_chemical_formula_sum   'Li2 Mn2 P4 O14'
_cell_volume   272.99844917
_cell_formula_units_Z   2
loop_
 _symmetry_equiv_pos_site_id
 _symmetry_equiv_pos_as_xyz
  1  'x, y, z'
loop_
 _atom_site_type_symbol
 _atom_site_label
 _atom_site_symmetry_multiplicity
 _atom_site_fract_x
 _atom_site_fract_y
 _atom_site_fract_z
 _atom_site_occupancy
  Li  Li0  1  0.000000  0.000000  0.000000  1
  Li  Li1  1  0.000000  0.000000  0.500000  1
  Mn  Mn2  1  0.633963  0.318939  0.774807  1
  Mn  Mn3  1  0.366037  0.681061  0.225193  1
  P  P4  1  0.177909  0.466275  0.790581  1
  P  P5  1  0.555299  0.771368  0.678574  1
  P  P6  1  0.444701  0.228632  0.321426  1
  P  P7  1  0.822091  0.533725  0.209419  1
  O  O8  1  0.197332  0.634598  0.949638  1
  O  O9  1  0.316104  0.292456  0.817239  1
  O  O10  1  0.587937  0.001233  0.797362  1
  O  O11  1  0.714529  0.657383  0.785810  1
  O  O12  1  0.275817  0.609274  0.650846  1
  O  O13  1  0.916996  0.310636  0.689685  1
  O  O14  1  0.391892  0.207518  0.494208  1
  O  O15  1  0.608108  0.792482  0.505792  1
  O  O16  1  0.083004  0.689364  0.310315  1
  O  O17  1  0.724183  0.390726  0.349154  1
  O  O18  1  0.285471  0.342617  0.214190  1
  O  O19  1  0.412063  0.998767  0.202638  1
  O  O20  1  0.683896  0.707544  0.182761  1
  O  O21  1  0.802668  0.365402  0.050362  1
