# generated using pymatgen
data_Li3V2(PO4)3
_symmetry_space_group_name_H-M   'P 1'
_cell_length_a   10.24692152
_cell_length_b   10.24692152
_cell_length_c   10.24692152
_cell_angle_alpha   109.47122063
_cell_angle_beta   109.47122063
_cell_angle_gamma   109.47122063
_symmetry_Int_Tables_number   1
_chemical_formula_structural   Li3V2(PO4)3
_chemical_formula_sum   'Li12 V8 P12 O48'
_cell_volume   828.24407875
_cell_formula_units_Z   4
loop_
 _symmetry_equiv_pos_site_id
 _symmetry_equiv_pos_as_xyz
  1  'x, y, z'
loop_
 _atom_site_type_symbol
 _atom_site_label
 _atom_site_symmetry_multiplicity
 _atom_site_fract_x
 _atom_site_fract_y
 _atom_site_fract_z
 _atom_site_occupancy
  Li  Li0  1  0.750000  0.125000  0.375000  1
  Li  Li1  1  0.875000  0.625000  0.250000  1
  Li  Li2  1  0.375000  0.125000  0.250000  1
  Li  Li3  1  0.250000  0.375000  0.125000  1
  Li  Li4  1  0.375000  0.750000  0.125000  1
  Li  Li5  1  0.125000  0.250000  0.375000  1
  Li  Li6  1  0.625000  0.250000  0.875000  1
  Li  Li7  1  0.875000  0.750000  0.625000  1
  Li  Li8  1  0.750000  0.625000  0.875000  1
  Li  Li9  1  0.125000  0.375000  0.750000  1
  Li  Li10  1  0.625000  0.875000  0.750000  1
  Li  Li11  1  0.250000  0.875000  0.625000  1
  V  V12  1  0.500000  0.000000  0.000000  1
  V  V13  1  0.000000  0.000000  0.000000  1
  V  V14  1  0.500000  0.500000  0.000000  1
  V  V15  1  0.500000  1.000000  0.500000  1
  V  V16  1  0.000000  0.500000  0.000000  1
  V  V17  1  0.000000  0.000000  0.500000  1
  V  V18  1  0.500000  0.500000  0.500000  1
  V  V19  1  0.000000  0.500000  0.500000  1
  P  P20  1  0.875000  0.250000  0.125000  1
  P  P21  1  0.625000  0.375000  0.250000  1
  P  P22  1  0.875000  0.125000  0.750000  1
  P  P23  1  0.750000  0.875000  0.125000  1
  P  P24  1  0.750000  0.375000  0.625000  1
  P  P25  1  0.625000  0.750000  0.375000  1
  P  P26  1  0.375000  0.250000  0.625000  1
  P  P27  1  0.250000  0.625000  0.375000  1
  P  P28  1  0.250000  0.125000  0.875000  1
  P  P29  1  0.375000  0.625000  0.750000  1
  P  P30  1  0.125000  0.875000  0.250000  1
  P  P31  1  0.125000  0.750000  0.875000  1
  O  O32  1  0.888875  0.005439  0.298253  1
  O  O33  1  0.883435  0.388875  0.090622  1
  O  O34  1  0.909378  0.292813  0.298253  1
  O  O35  1  0.909378  0.116565  0.611125  1
  O  O36  1  0.590622  0.201747  0.207187  1
  O  O37  1  0.994561  0.701747  0.111125  1
  O  O38  1  0.616565  0.409378  0.111125  1
  O  O39  1  0.207187  0.116565  0.005439  1
  O  O40  1  0.888875  0.383435  0.590622  1
  O  O41  1  0.611125  0.201747  0.494561  1
  O  O42  1  0.707187  0.701747  0.090622  1
  O  O43  1  0.798253  0.505439  0.388875  1
  O  O44  1  0.701747  0.090622  0.707187  1
  O  O45  1  0.116565  0.005439  0.207187  1
  O  O46  1  0.494561  0.383435  0.292813  1
  O  O47  1  0.494561  0.611125  0.201747  1
  O  O48  1  0.005439  0.207187  0.116565  1
  O  O49  1  0.409378  0.111125  0.616565  1
  O  O50  1  0.383435  0.292813  0.494561  1
  O  O51  1  0.798253  0.792813  0.409378  1
  O  O52  1  0.701747  0.111125  0.994561  1
  O  O53  1  0.707187  0.505439  0.616565  1
  O  O54  1  0.792813  0.409378  0.798253  1
  O  O55  1  0.611125  0.909378  0.116565  1
  O  O56  1  0.292813  0.494561  0.383435  1
  O  O57  1  0.207187  0.590622  0.201747  1
  O  O58  1  0.388875  0.090622  0.883435  1
  O  O59  1  0.298253  0.888875  0.005439  1
  O  O60  1  0.616565  0.707187  0.505439  1
  O  O61  1  0.201747  0.207187  0.590622  1
  O  O62  1  0.505439  0.388875  0.798253  1
  O  O63  1  0.590622  0.888875  0.383435  1
  O  O64  1  0.994561  0.792813  0.883435  1
  O  O65  1  0.505439  0.616565  0.707187  1
  O  O66  1  0.883435  0.994561  0.792813  1
  O  O67  1  0.201747  0.494561  0.611125  1
  O  O68  1  0.298253  0.909378  0.292813  1
  O  O69  1  0.292813  0.298253  0.909378  1
  O  O70  1  0.111125  0.616565  0.409378  1
  O  O71  1  0.388875  0.798253  0.505439  1
  O  O72  1  0.792813  0.883435  0.994561  1
  O  O73  1  0.383435  0.590622  0.888875  1
  O  O74  1  0.090622  0.883435  0.388875  1
  O  O75  1  0.005439  0.298253  0.888875  1
  O  O76  1  0.409378  0.798253  0.792813  1
  O  O77  1  0.090622  0.707187  0.701747  1
  O  O78  1  0.116565  0.611125  0.909378  1
  O  O79  1  0.111125  0.994561  0.701747  1
