# generated using pymatgen
data_Li4VTe(WO6)2
_symmetry_space_group_name_H-M   'P 1'
_cell_length_a   5.16193260
_cell_length_b   5.54408169
_cell_length_c   7.79831136
_cell_angle_alpha   95.94728884
_cell_angle_beta   90.60403305
_cell_angle_gamma   90.12383543
_symmetry_Int_Tables_number   1
_chemical_formula_structural   Li4VTe(WO6)2
_chemical_formula_sum   'Li4 V1 Te1 W2 O12'
_cell_volume   221.95872401
_cell_formula_units_Z   1
loop_
 _symmetry_equiv_pos_site_id
 _symmetry_equiv_pos_as_xyz
  1  'x, y, z'
loop_
 _atom_site_type_symbol
 _atom_site_label
 _atom_site_symmetry_multiplicity
 _atom_site_fract_x
 _atom_site_fract_y
 _atom_site_fract_z
 _atom_site_occupancy
  Li  Li0  1  0.007298  0.585581  0.725409  1
  Li  Li1  1  0.510170  0.068123  0.185780  1
  Li  Li2  1  0.995161  0.566752  0.194089  1
  Li  Li3  1  0.484767  0.066887  0.740267  1
  V  V4  1  0.987019  0.003984  0.978910  1
  Te  Te5  1  0.499339  0.523851  0.484029  1
  W  W6  1  0.003158  0.008704  0.476223  1
  W  W7  1  0.507510  0.503302  0.996619  1
  O  O8  1  0.302557  0.817061  0.576550  1
  O  O9  1  0.136906  0.001041  0.259670  1
  O  O10  1  0.302165  0.196516  0.959028  1
  O  O11  1  0.145930  0.289223  0.586064  1
  O  O12  1  0.787941  0.290107  0.077214  1
  O  O13  1  0.368893  0.513025  0.247972  1
  O  O14  1  0.640594  0.466495  0.777390  1
  O  O15  1  0.209083  0.693943  0.951588  1
  O  O16  1  0.846228  0.668899  0.444453  1
  O  O17  1  0.713988  0.785664  0.072834  1
  O  O18  1  0.872094  0.968534  0.766034  1
  O  O19  1  0.679200  0.124711  0.428676  1
