# generated using pymatgen
data_LiTi4O8
_symmetry_space_group_name_H-M   'P 1'
_cell_length_a   5.93636674
_cell_length_b   5.93636674
_cell_length_c   5.93636674
_cell_angle_alpha   60.64614872
_cell_angle_beta   60.64614872
_cell_angle_gamma   60.64614872
_symmetry_Int_Tables_number   1
_chemical_formula_structural   LiTi4O8
_chemical_formula_sum   'Li1 Ti4 O8'
_cell_volume   150.08499383
_cell_formula_units_Z   1
loop_
 _symmetry_equiv_pos_site_id
 _symmetry_equiv_pos_as_xyz
  1  'x, y, z'
loop_
 _atom_site_type_symbol
 _atom_site_label
 _atom_site_symmetry_multiplicity
 _atom_site_fract_x
 _atom_site_fract_y
 _atom_site_fract_z
 _atom_site_occupancy
  Li  Li0  1  0.500000  0.500000  0.500000  1
  Ti  Ti1  1  0.000000  0.500000  0.000000  1
  Ti  Ti2  1  0.500000  0.000000  0.000000  1
  Ti  Ti3  1  0.000000  0.000000  0.500000  1
  Ti  Ti4  1  0.000000  0.000000  0.000000  1
  O  O5  1  0.240021  0.789483  0.240021  1
  O  O6  1  0.789483  0.240021  0.240021  1
  O  O7  1  0.759979  0.759979  0.210517  1
  O  O8  1  0.234934  0.234934  0.234934  1
  O  O9  1  0.765066  0.765066  0.765066  1
  O  O10  1  0.240021  0.240021  0.789483  1
  O  O11  1  0.210517  0.759979  0.759979  1
  O  O12  1  0.759979  0.210517  0.759979  1
