# generated using pymatgen
data_LiMn2(BO3)2
_symmetry_space_group_name_H-M   'P 1'
_cell_length_a   5.19924073
_cell_length_b   5.19924073
_cell_length_c   10.33852165
_cell_angle_alpha   87.92186241
_cell_angle_beta   92.07813759
_cell_angle_gamma   62.00545465
_symmetry_Int_Tables_number   1
_chemical_formula_structural   LiMn2(BO3)2
_chemical_formula_sum   'Li2 Mn4 B4 O12'
_cell_volume   246.15930664
_cell_formula_units_Z   2
loop_
 _symmetry_equiv_pos_site_id
 _symmetry_equiv_pos_as_xyz
  1  'x, y, z'
loop_
 _atom_site_type_symbol
 _atom_site_label
 _atom_site_symmetry_multiplicity
 _atom_site_fract_x
 _atom_site_fract_y
 _atom_site_fract_z
 _atom_site_occupancy
  Li  Li0  1  0.162225  0.869780  0.574276  1
  Li  Li1  1  0.130220  0.837775  0.074276  1
  Mn  Mn2  1  0.840530  0.522385  0.624782  1
  Mn  Mn3  1  0.500262  0.806203  0.867337  1
  Mn  Mn4  1  0.477615  0.159470  0.124782  1
  Mn  Mn5  1  0.193797  0.499738  0.367337  1
  B  B6  1  0.829819  0.482646  0.124609  1
  B  B7  1  0.519017  0.853629  0.379285  1
  B  B8  1  0.517354  0.170181  0.624609  1
  B  B9  1  0.146371  0.480983  0.879285  1
  O  O10  1  0.911592  0.468969  0.812202  1
  O  O11  1  0.783137  0.638140  0.439177  1
  O  O12  1  0.837542  0.219599  0.115955  1
  O  O13  1  0.571824  0.741275  0.093343  1
  O  O14  1  0.492321  0.917275  0.659216  1
  O  O15  1  0.780401  0.162458  0.615955  1
  O  O16  1  0.265417  0.847910  0.392337  1
  O  O17  1  0.531031  0.088408  0.312202  1
  O  O18  1  0.152090  0.734583  0.892337  1
  O  O19  1  0.258725  0.428176  0.593343  1
  O  O20  1  0.361860  0.216863  0.939177  1
  O  O21  1  0.082725  0.507679  0.159216  1
