# generated using pymatgen
data_LiV3F10
_symmetry_space_group_name_H-M   'P 1'
_cell_length_a   6.56416126
_cell_length_b   7.45816020
_cell_length_c   7.88364985
_cell_angle_alpha   90.00000000
_cell_angle_beta   90.00000000
_cell_angle_gamma   90.00000000
_symmetry_Int_Tables_number   1
_chemical_formula_structural   LiV3F10
_chemical_formula_sum   'Li2 V6 F20'
_cell_volume   385.95642592
_cell_formula_units_Z   2
loop_
 _symmetry_equiv_pos_site_id
 _symmetry_equiv_pos_as_xyz
  1  'x, y, z'
loop_
 _atom_site_type_symbol
 _atom_site_label
 _atom_site_symmetry_multiplicity
 _atom_site_fract_x
 _atom_site_fract_y
 _atom_site_fract_z
 _atom_site_occupancy
  Li  Li0  1  0.317185  0.000000  0.250000  1
  Li  Li1  1  0.682815  0.000000  0.750000  1
  V  V2  1  0.500000  0.500000  0.500000  1
  V  V3  1  0.500000  0.500000  0.000000  1
  V  V4  1  0.000000  0.234928  0.500000  1
  V  V5  1  0.000000  0.234928  0.000000  1
  V  V6  1  0.000000  0.765072  0.500000  1
  V  V7  1  0.000000  0.765072  0.000000  1
  F  F8  1  0.461310  0.500000  0.750000  1
  F  F9  1  0.538690  0.500000  0.250000  1
  F  F10  1  0.000000  0.500000  0.000000  1
  F  F11  1  0.301402  0.301146  0.028931  1
  F  F12  1  0.698598  0.301146  0.971069  1
  F  F13  1  0.301402  0.301146  0.471069  1
  F  F14  1  0.698598  0.301146  0.528931  1
  F  F15  1  0.952175  0.231167  0.250000  1
  F  F16  1  0.047825  0.231167  0.750000  1
  F  F17  1  0.166110  0.000000  0.449599  1
  F  F18  1  0.833890  0.000000  0.550401  1
  F  F19  1  0.166110  0.000000  0.050401  1
  F  F20  1  0.833890  0.000000  0.949599  1
  F  F21  1  0.047825  0.768833  0.750000  1
  F  F22  1  0.952175  0.768833  0.250000  1
  F  F23  1  0.301402  0.698854  0.028931  1
  F  F24  1  0.698598  0.698854  0.971069  1
  F  F25  1  0.301402  0.698854  0.471069  1
  F  F26  1  0.698598  0.698854  0.528931  1
  F  F27  1  0.000000  0.500000  0.500000  1
