# generated using pymatgen
data_LiSn2(SO4)3
_symmetry_space_group_name_H-M   'P 1'
_cell_length_a   9.36301907
_cell_length_b   9.36301907
_cell_length_c   9.36301907
_cell_angle_alpha   58.90640312
_cell_angle_beta   58.90640312
_cell_angle_gamma   58.90640312
_symmetry_Int_Tables_number   1
_chemical_formula_structural   LiSn2(SO4)3
_chemical_formula_sum   'Li2 Sn4 S6 O24'
_cell_volume   565.92070706
_cell_formula_units_Z   2
loop_
 _symmetry_equiv_pos_site_id
 _symmetry_equiv_pos_as_xyz
  1  'x, y, z'
loop_
 _atom_site_type_symbol
 _atom_site_label
 _atom_site_symmetry_multiplicity
 _atom_site_fract_x
 _atom_site_fract_y
 _atom_site_fract_z
 _atom_site_occupancy
  Li  Li0  1  0.000000  0.000000  0.000000  1
  Li  Li1  1  0.500000  0.500000  0.500000  1
  Sn  Sn2  1  0.646945  0.646945  0.646945  1
  Sn  Sn3  1  0.853055  0.853055  0.853055  1
  Sn  Sn4  1  0.353055  0.353055  0.353055  1
  Sn  Sn5  1  0.146945  0.146945  0.146945  1
  S  S6  1  0.250000  0.563164  0.936836  1
  S  S7  1  0.063164  0.750000  0.436836  1
  S  S8  1  0.436836  0.063164  0.750000  1
  S  S9  1  0.563164  0.936836  0.250000  1
  S  S10  1  0.936836  0.250000  0.563164  1
  S  S11  1  0.750000  0.436836  0.063164  1
  O  O12  1  0.106800  0.742923  0.927149  1
  O  O13  1  0.257077  0.072851  0.893200  1
  O  O14  1  0.068532  0.322700  0.517148  1
  O  O15  1  0.982852  0.177300  0.431468  1
  O  O16  1  0.393200  0.572851  0.757077  1
  O  O17  1  0.242923  0.606800  0.427149  1
  O  O18  1  0.072851  0.893200  0.257077  1
  O  O19  1  0.822700  0.568532  0.017148  1
  O  O20  1  0.482852  0.931468  0.677300  1
  O  O21  1  0.677300  0.482852  0.931468  1
  O  O22  1  0.568532  0.017148  0.822700  1
  O  O23  1  0.427149  0.242923  0.606800  1
  O  O24  1  0.572851  0.757077  0.393200  1
  O  O25  1  0.322700  0.517148  0.068532  1
  O  O26  1  0.431468  0.982852  0.177300  1
  O  O27  1  0.177300  0.431468  0.982852  1
  O  O28  1  0.517148  0.068532  0.322700  1
  O  O29  1  0.927149  0.106800  0.742923  1
  O  O30  1  0.757077  0.393200  0.572851  1
  O  O31  1  0.606800  0.427149  0.242923  1
  O  O32  1  0.931468  0.677300  0.482852  1
  O  O33  1  0.017148  0.822700  0.568532  1
  O  O34  1  0.742923  0.927149  0.106800  1
  O  O35  1  0.893200  0.257077  0.072851  1
