# generated using pymatgen
data_Li3NiAsCO7
_symmetry_space_group_name_H-M   'P 1'
_cell_length_a   5.06658086
_cell_length_b   6.56126908
_cell_length_c   8.45074029
_cell_angle_alpha   90.00000000
_cell_angle_beta   93.68959385
_cell_angle_gamma   90.00000000
_symmetry_Int_Tables_number   1
_chemical_formula_structural   Li3NiAsCO7
_chemical_formula_sum   'Li6 Ni2 As2 C2 O14'
_cell_volume   280.34737572
_cell_formula_units_Z   2
loop_
 _symmetry_equiv_pos_site_id
 _symmetry_equiv_pos_as_xyz
  1  'x, y, z'
loop_
 _atom_site_type_symbol
 _atom_site_label
 _atom_site_symmetry_multiplicity
 _atom_site_fract_x
 _atom_site_fract_y
 _atom_site_fract_z
 _atom_site_occupancy
  Li  Li0  1  0.248000  0.750000  0.091333  1
  Li  Li1  1  0.773415  0.979076  0.267580  1
  Li  Li2  1  0.773415  0.520924  0.267580  1
  Li  Li3  1  0.226585  0.479076  0.732420  1
  Li  Li4  1  0.226585  0.020924  0.732420  1
  Li  Li5  1  0.752000  0.250000  0.908667  1
  Ni  Ni6  1  0.208620  0.250000  0.322354  1
  Ni  Ni7  1  0.791380  0.750000  0.677646  1
  As  As8  1  0.289231  0.750000  0.417709  1
  As  As9  1  0.710769  0.250000  0.582291  1
  C  C10  1  0.290640  0.250000  0.030345  1
  C  C11  1  0.709360  0.750000  0.969655  1
  O  O12  1  0.651951  0.750000  0.117088  1
  O  O13  1  0.048285  0.250000  0.070762  1
  O  O14  1  0.480477  0.250000  0.141137  1
  O  O15  1  0.179541  0.945754  0.295033  1
  O  O16  1  0.179541  0.554246  0.295033  1
  O  O17  1  0.630298  0.750000  0.444431  1
  O  O18  1  0.828483  0.250000  0.397021  1
  O  O19  1  0.171517  0.750000  0.602979  1
  O  O20  1  0.369702  0.250000  0.555569  1
  O  O21  1  0.820459  0.445754  0.704967  1
  O  O22  1  0.820459  0.054246  0.704967  1
  O  O23  1  0.519523  0.750000  0.858863  1
  O  O24  1  0.951715  0.750000  0.929238  1
  O  O25  1  0.348049  0.250000  0.882912  1
