# generated using pymatgen
data_La4Ga2O9
_symmetry_space_group_name_H-M   'P 1'
_cell_length_a   8.00276923
_cell_length_b   11.25720341
_cell_length_c   11.73751585
_cell_angle_alpha   90.00000000
_cell_angle_beta   109.34935400
_cell_angle_gamma   90.00000000
_symmetry_Int_Tables_number   1
_chemical_formula_structural   La4Ga2O9
_chemical_formula_sum   'La16 Ga8 O36'
_cell_volume   997.69138442
_cell_formula_units_Z   4
loop_
 _symmetry_equiv_pos_site_id
 _symmetry_equiv_pos_as_xyz
  1  'x, y, z'
loop_
 _atom_site_type_symbol
 _atom_site_label
 _atom_site_symmetry_multiplicity
 _atom_site_fract_x
 _atom_site_fract_y
 _atom_site_fract_z
 _atom_site_occupancy
  La  La0  1  0.975575  0.909236  0.193595  1
  La  La1  1  0.975575  0.590764  0.693595  1
  La  La2  1  0.836245  0.120899  0.413327  1
  La  La3  1  0.664839  0.623342  0.070613  1
  La  La4  1  0.836245  0.379101  0.913327  1
  La  La5  1  0.664839  0.876658  0.570613  1
  La  La6  1  0.523400  0.397261  0.286137  1
  La  La7  1  0.476600  0.897261  0.213863  1
  La  La8  1  0.523400  0.102739  0.786137  1
  La  La9  1  0.476600  0.602739  0.713863  1
  La  La10  1  0.335161  0.123342  0.429387  1
  La  La11  1  0.163755  0.620899  0.086673  1
  La  La12  1  0.335161  0.376658  0.929387  1
  La  La13  1  0.163755  0.879101  0.586673  1
  La  La14  1  0.024425  0.409236  0.306405  1
  La  La15  1  0.024425  0.090764  0.806405  1
  Ga  Ga16  1  0.779756  0.687099  0.374158  1
  Ga  Ga17  1  0.655446  0.184448  0.115458  1
  Ga  Ga18  1  0.779756  0.812901  0.874158  1
  Ga  Ga19  1  0.655446  0.315552  0.615458  1
  Ga  Ga20  1  0.344554  0.684448  0.384542  1
  Ga  Ga21  1  0.220244  0.187099  0.125842  1
  Ga  Ga22  1  0.344554  0.815552  0.884542  1
  Ga  Ga23  1  0.220244  0.312901  0.625842  1
  O  O24  1  0.920815  0.761951  0.024351  1
  O  O25  1  0.922794  0.495301  0.105090  1
  O  O26  1  0.786259  0.274490  0.248966  1
  O  O27  1  0.767044  0.772986  0.234531  1
  O  O28  1  0.920815  0.738049  0.524351  1
  O  O29  1  0.922794  0.004699  0.605090  1
  O  O30  1  0.701887  0.029855  0.172070  1
  O  O31  1  0.784078  0.528459  0.336275  1
  O  O32  1  0.786259  0.225510  0.748966  1
  O  O33  1  0.767044  0.727014  0.734531  1
  O  O34  1  0.637828  0.268772  0.461214  1
  O  O35  1  0.701887  0.470145  0.672070  1
  O  O36  1  0.564536  0.747139  0.384771  1
  O  O37  1  0.431396  0.507444  0.102917  1
  O  O38  1  0.784078  0.971541  0.836275  1
  O  O39  1  0.568604  0.007444  0.397083  1
  O  O40  1  0.435464  0.247139  0.115229  1
  O  O41  1  0.362172  0.768772  0.038786  1
  O  O42  1  0.637828  0.231228  0.961214  1
  O  O43  1  0.564536  0.752861  0.884771  1
  O  O44  1  0.431396  0.992556  0.602917  1
  O  O45  1  0.215922  0.028459  0.163725  1
  O  O46  1  0.568604  0.492556  0.897083  1
  O  O47  1  0.435464  0.252861  0.615229  1
  O  O48  1  0.298113  0.529855  0.327930  1
  O  O49  1  0.362172  0.731228  0.538786  1
  O  O50  1  0.232956  0.272986  0.265469  1
  O  O51  1  0.213741  0.774490  0.251034  1
  O  O52  1  0.215922  0.471541  0.663725  1
  O  O53  1  0.298113  0.970145  0.827930  1
  O  O54  1  0.077206  0.995301  0.394910  1
  O  O55  1  0.079185  0.261951  0.475649  1
  O  O56  1  0.232956  0.227014  0.765469  1
  O  O57  1  0.213741  0.725510  0.751034  1
  O  O58  1  0.077206  0.504699  0.894910  1
  O  O59  1  0.079185  0.238049  0.975649  1
