# generated using pymatgen
data_Li2Mn(BO2)5
_symmetry_space_group_name_H-M   'P 1'
_cell_length_a   7.13066964
_cell_length_b   15.45550356
_cell_length_c   7.25072102
_cell_angle_alpha   90.00000000
_cell_angle_beta   93.99019042
_cell_angle_gamma   90.00000000
_symmetry_Int_Tables_number   1
_chemical_formula_structural   Li2Mn(BO2)5
_chemical_formula_sum   'Li8 Mn4 B20 O40'
_cell_volume   797.15110837
_cell_formula_units_Z   4
loop_
 _symmetry_equiv_pos_site_id
 _symmetry_equiv_pos_as_xyz
  1  'x, y, z'
loop_
 _atom_site_type_symbol
 _atom_site_label
 _atom_site_symmetry_multiplicity
 _atom_site_fract_x
 _atom_site_fract_y
 _atom_site_fract_z
 _atom_site_occupancy
  Li  Li0  1  0.007396  0.831300  0.902668  1
  Li  Li1  1  0.507396  0.668700  0.902668  1
  Li  Li2  1  0.410272  0.075258  0.687320  1
  Li  Li3  1  0.910272  0.424742  0.687320  1
  Li  Li4  1  0.089728  0.575258  0.312680  1
  Li  Li5  1  0.589728  0.924742  0.312680  1
  Li  Li6  1  0.492604  0.331300  0.097332  1
  Li  Li7  1  0.992604  0.168700  0.097332  1
  Mn  Mn8  1  0.472197  0.876194  0.841434  1
  Mn  Mn9  1  0.972197  0.623806  0.841434  1
  Mn  Mn10  1  0.027803  0.376194  0.158566  1
  Mn  Mn11  1  0.527803  0.123806  0.158566  1
  B  B12  1  0.095389  0.976152  0.802091  1
  B  B13  1  0.595389  0.523848  0.802091  1
  B  B14  1  0.484784  0.225434  0.783995  1
  B  B15  1  0.984784  0.274566  0.783995  1
  B  B16  1  0.261769  0.497960  0.739120  1
  B  B17  1  0.761769  0.002040  0.739120  1
  B  B18  1  0.490742  0.379888  0.678175  1
  B  B19  1  0.990742  0.120112  0.678175  1
  B  B20  1  0.515357  0.742948  0.544027  1
  B  B21  1  0.015357  0.757052  0.544027  1
  B  B22  1  0.984643  0.242948  0.455973  1
  B  B23  1  0.484643  0.257052  0.455973  1
  B  B24  1  0.009258  0.879888  0.321825  1
  B  B25  1  0.509258  0.620112  0.321825  1
  B  B26  1  0.238231  0.997960  0.260880  1
  B  B27  1  0.738231  0.502040  0.260880  1
  B  B28  1  0.015216  0.725434  0.216005  1
  B  B29  1  0.515216  0.774566  0.216005  1
  B  B30  1  0.404611  0.476152  0.197909  1
  B  B31  1  0.904611  0.023848  0.197909  1
  O  O32  1  0.480296  0.160909  0.909565  1
  O  O33  1  0.980296  0.339091  0.909565  1
  O  O34  1  0.223258  0.917041  0.868513  1
  O  O35  1  0.723258  0.582959  0.868513  1
  O  O36  1  0.008236  0.188804  0.827955  1
  O  O37  1  0.406838  0.549109  0.823358  1
  O  O38  1  0.508236  0.311196  0.827955  1
  O  O39  1  0.906838  0.950891  0.823358  1
  O  O40  1  0.078562  0.527060  0.721957  1
  O  O41  1  0.578562  0.972940  0.721957  1
  O  O42  1  0.523771  0.768504  0.725923  1
  O  O43  1  0.138631  0.053349  0.722514  1
  O  O44  1  0.023771  0.731496  0.725923  1
  O  O45  1  0.638631  0.446651  0.722514  1
  O  O46  1  0.302618  0.418627  0.672918  1
  O  O47  1  0.802618  0.081373  0.672918  1
  O  O48  1  0.457689  0.197771  0.598258  1
  O  O49  1  0.957689  0.302229  0.598258  1
  O  O50  1  0.479381  0.658619  0.501443  1
  O  O51  1  0.020619  0.158619  0.498557  1
  O  O52  1  0.979381  0.841381  0.501443  1
  O  O53  1  0.520619  0.341381  0.498557  1
  O  O54  1  0.042311  0.697771  0.401742  1
  O  O55  1  0.542311  0.802229  0.401742  1
  O  O56  1  0.197382  0.918627  0.327082  1
  O  O57  1  0.697382  0.581373  0.327082  1
  O  O58  1  0.361369  0.553349  0.277486  1
  O  O59  1  0.976229  0.268504  0.274077  1
  O  O60  1  0.861369  0.946651  0.277486  1
  O  O61  1  0.476229  0.231496  0.274077  1
  O  O62  1  0.421438  0.027060  0.278043  1
  O  O63  1  0.921438  0.472940  0.278043  1
  O  O64  1  0.093162  0.049109  0.176642  1
  O  O65  1  0.491764  0.688804  0.172045  1
  O  O66  1  0.593162  0.450891  0.176642  1
  O  O67  1  0.991764  0.811196  0.172045  1
  O  O68  1  0.276742  0.417041  0.131487  1
  O  O69  1  0.776742  0.082959  0.131487  1
  O  O70  1  0.019704  0.660909  0.090435  1
  O  O71  1  0.519704  0.839091  0.090435  1
