# generated using pymatgen
data_Li3Mn2C3O9F
_symmetry_space_group_name_H-M   'P 1'
_cell_length_a   8.59881557
_cell_length_b   8.59881557
_cell_length_c   6.48029345
_cell_angle_alpha   85.25981589
_cell_angle_beta   94.74018411
_cell_angle_gamma   52.45316815
_symmetry_Int_Tables_number   1
_chemical_formula_structural   Li3Mn2C3O9F
_chemical_formula_sum   'Li6 Mn4 C6 O18 F2'
_cell_volume   373.19600397
_cell_formula_units_Z   2
loop_
 _symmetry_equiv_pos_site_id
 _symmetry_equiv_pos_as_xyz
  1  'x, y, z'
loop_
 _atom_site_type_symbol
 _atom_site_label
 _atom_site_symmetry_multiplicity
 _atom_site_fract_x
 _atom_site_fract_y
 _atom_site_fract_z
 _atom_site_occupancy
  Li  Li0  1  0.757397  0.570746  0.476146  1
  Li  Li1  1  0.822106  0.943896  0.320124  1
  Li  Li2  1  0.836150  0.942722  0.820058  1
  Li  Li3  1  0.429254  0.242603  0.976146  1
  Li  Li4  1  0.057278  0.163850  0.320058  1
  Li  Li5  1  0.056104  0.177894  0.820124  1
  Mn  Mn6  1  0.751394  0.621920  0.970551  1
  Mn  Mn7  1  0.319339  0.701294  0.155726  1
  Mn  Mn8  1  0.298706  0.680661  0.655726  1
  Mn  Mn9  1  0.378080  0.248606  0.470551  1
  C  C10  1  0.683471  0.320134  0.006111  1
  C  C11  1  0.442925  0.948086  0.191076  1
  C  C12  1  0.441861  0.941312  0.694672  1
  C  C13  1  0.679866  0.316529  0.506111  1
  C  C14  1  0.058688  0.558139  0.194672  1
  C  C15  1  0.051914  0.557075  0.691076  1
  O  O16  1  0.832953  0.323038  0.031027  1
  O  O17  1  0.843160  0.293079  0.527494  1
  O  O18  1  0.976817  0.475521  0.764578  1
  O  O19  1  0.914795  0.731493  0.088798  1
  O  O20  1  0.944145  0.740239  0.607437  1
  O  O21  1  0.509981  0.497476  0.457755  1
  O  O22  1  0.552755  0.751916  0.205162  1
  O  O23  1  0.706921  0.156840  0.027494  1
  O  O24  1  0.513345  0.756264  0.698046  1
  O  O25  1  0.524479  0.023183  0.264578  1
  O  O26  1  0.548911  0.977807  0.798389  1
  O  O27  1  0.676962  0.167047  0.531027  1
  O  O28  1  0.259761  0.055855  0.107437  1
  O  O29  1  0.268507  0.085205  0.588798  1
  O  O30  1  0.502524  0.490019  0.957755  1
  O  O31  1  0.243736  0.486655  0.198046  1
  O  O32  1  0.248084  0.447245  0.705162  1
  O  O33  1  0.022193  0.451089  0.298389  1
  F  F34  1  0.123076  0.878076  0.861238  1
  F  F35  1  0.121924  0.876924  0.361238  1
