# generated using pymatgen
data_LiFe2(BO3)2
_symmetry_space_group_name_H-M   'P 1'
_cell_length_a   5.23053365
_cell_length_b   9.15064039
_cell_length_c   10.12924131
_cell_angle_alpha   88.56661226
_cell_angle_beta   89.38312529
_cell_angle_gamma   89.46813545
_symmetry_Int_Tables_number   1
_chemical_formula_structural   LiFe2(BO3)2
_chemical_formula_sum   'Li4 Fe8 B8 O24'
_cell_volume   484.61367030
_cell_formula_units_Z   4
loop_
 _symmetry_equiv_pos_site_id
 _symmetry_equiv_pos_as_xyz
  1  'x, y, z'
loop_
 _atom_site_type_symbol
 _atom_site_label
 _atom_site_symmetry_multiplicity
 _atom_site_fract_x
 _atom_site_fract_y
 _atom_site_fract_z
 _atom_site_occupancy
  Li  Li0  1  0.154081  0.169283  0.646319  1
  Li  Li1  1  0.334452  0.319427  0.908069  1
  Li  Li2  1  0.679983  0.670947  0.139080  1
  Li  Li3  1  0.826413  0.834761  0.408450  1
  Fe  Fe4  1  0.166375  0.830277  0.633452  1
  Fe  Fe5  1  0.181873  0.487382  0.135236  1
  Fe  Fe6  1  0.333271  0.985833  0.880567  1
  Fe  Fe7  1  0.331991  0.653815  0.382259  1
  Fe  Fe8  1  0.648004  0.351321  0.623527  1
  Fe  Fe9  1  0.681172  0.008401  0.128141  1
  Fe  Fe10  1  0.828550  0.173285  0.375257  1
  Fe  Fe11  1  0.830190  0.505802  0.872510  1
  B  B12  1  0.152213  0.497298  0.630848  1
  B  B13  1  0.172021  0.826605  0.132045  1
  B  B14  1  0.331128  0.994536  0.381493  1
  B  B15  1  0.332514  0.661406  0.881779  1
  B  B16  1  0.670488  0.007017  0.624135  1
  B  B17  1  0.667741  0.336590  0.124863  1
  B  B18  1  0.836894  0.501405  0.375061  1
  B  B19  1  0.829349  0.169507  0.875808  1
  O  O20  1  0.094592  0.500740  0.342723  1
  O  O21  1  0.090582  0.151898  0.859149  1
  O  O22  1  0.212388  0.790360  0.841014  1
  O  O23  1  0.230912  0.856140  0.414866  1
  O  O24  1  0.174092  0.112848  0.385891  1
  O  O25  1  0.187464  0.536196  0.912211  1
  O  O26  1  0.275100  0.365026  0.639742  1
  O  O27  1  0.313459  0.940016  0.074090  1
  O  O28  1  0.271026  0.620982  0.576862  1
  O  O29  1  0.310539  0.701450  0.177114  1
  O  O30  1  0.413843  0.326798  0.098622  1
  O  O31  1  0.418274  0.008121  0.676620  1
  O  O32  1  0.592561  0.004194  0.349803  1
  O  O33  1  0.590200  0.655020  0.896155  1
  O  O34  1  0.709393  0.304581  0.848337  1
  O  O35  1  0.722964  0.372680  0.417507  1
  O  O36  1  0.696405  0.629652  0.362943  1
  O  O37  1  0.676606  0.056013  0.919850  1
  O  O38  1  0.803290  0.464477  0.089476  1
  O  O39  1  0.802614  0.880755  0.605672  1
  O  O40  1  0.780803  0.142136  0.585114  1
  O  O41  1  0.797636  0.216718  0.181519  1
  O  O42  1  0.912502  0.833835  0.146664  1
  O  O43  1  0.900480  0.510890  0.677645  1
