# generated using pymatgen
data_Li6Mn5Fe(BO3)6
_symmetry_space_group_name_H-M   'P 1'
_cell_length_a   8.26784329
_cell_length_b   3.18491251
_cell_length_c   14.33766083
_cell_angle_alpha   90.00000000
_cell_angle_beta   90.05306653
_cell_angle_gamma   90.00000000
_symmetry_Int_Tables_number   1
_chemical_formula_structural   Li6Mn5Fe(BO3)6
_chemical_formula_sum   'Li6 Mn5 Fe1 B6 O18'
_cell_volume   377.54424896
_cell_formula_units_Z   1
loop_
 _symmetry_equiv_pos_site_id
 _symmetry_equiv_pos_as_xyz
  1  'x, y, z'
loop_
 _atom_site_type_symbol
 _atom_site_label
 _atom_site_symmetry_multiplicity
 _atom_site_fract_x
 _atom_site_fract_y
 _atom_site_fract_z
 _atom_site_occupancy
  Li  Li0  1  0.707105  0.500000  0.990935  1
  Li  Li1  1  0.659392  0.500000  0.358309  1
  Li  Li2  1  0.632594  0.500000  0.651167  1
  Li  Li3  1  0.207319  0.500000  0.492219  1
  Li  Li4  1  0.159683  0.500000  0.857704  1
  Li  Li5  1  0.133129  0.500000  0.150615  1
  Mn  Mn6  1  0.866295  0.000000  0.506356  1
  Mn  Mn7  1  0.826289  0.000000  0.814218  1
  Mn  Mn8  1  0.808636  0.000000  0.179545  1
  Mn  Mn9  1  0.365203  0.000000  0.005676  1
  Mn  Mn10  1  0.326075  0.000000  0.314197  1
  Fe  Fe11  1  0.312846  0.000000  0.679227  1
  B  B12  1  0.002137  0.500000  0.667025  1
  B  B13  1  0.999970  0.000000  0.999899  1
  B  B14  1  0.000072  0.500000  0.333444  1
  B  B15  1  0.499909  0.500000  0.166638  1
  B  B16  1  0.498493  0.000000  0.500213  1
  B  B17  1  0.498888  0.500000  0.832302  1
  O  O18  1  0.989714  0.500000  0.430145  1
  O  O19  1  0.985901  0.500000  0.763785  1
  O  O20  1  0.863270  0.500000  0.611241  1
  O  O21  1  0.859954  0.500000  0.279838  1
  O  O22  1  0.845226  0.000000  0.960985  1
  O  O23  1  0.652180  0.500000  0.125169  1
  O  O24  1  0.650021  0.500000  0.790099  1
  O  O25  1  0.635329  0.000000  0.443531  1
  O  O26  1  0.514638  0.000000  0.597465  1
  O  O27  1  0.487772  0.500000  0.929097  1
  O  O28  1  0.486129  0.500000  0.263479  1
  O  O29  1  0.361598  0.500000  0.111165  1
  O  O30  1  0.359540  0.500000  0.777795  1
  O  O31  1  0.344828  0.000000  0.460675  1
  O  O32  1  0.154975  0.500000  0.626810  1
  O  O33  1  0.150349  0.500000  0.290245  1
  O  O34  1  0.135600  0.000000  0.942112  1
  O  O35  1  0.018941  0.000000  0.096673  1
