# generated using pymatgen
data_LiFe(SO4)2
_symmetry_space_group_name_H-M   'P 1'
_cell_length_a   8.36662149
_cell_length_b   8.38318116
_cell_length_c   8.94306836
_cell_angle_alpha   62.43740214
_cell_angle_beta   62.46798582
_cell_angle_gamma   60.15533391
_symmetry_Int_Tables_number   1
_chemical_formula_structural   LiFe(SO4)2
_chemical_formula_sum   'Li3 Fe3 S6 O24'
_cell_volume   459.84843274
_cell_formula_units_Z   3
loop_
 _symmetry_equiv_pos_site_id
 _symmetry_equiv_pos_as_xyz
  1  'x, y, z'
loop_
 _atom_site_type_symbol
 _atom_site_label
 _atom_site_symmetry_multiplicity
 _atom_site_fract_x
 _atom_site_fract_y
 _atom_site_fract_z
 _atom_site_occupancy
  Li  Li0  1  0.166853  0.156395  0.543987  1
  Li  Li1  1  0.179464  0.777924  0.628913  1
  Li  Li2  1  0.778908  0.413153  0.628196  1
  Fe  Fe3  1  0.354663  0.347495  0.943532  1
  Fe  Fe4  1  0.643099  0.642635  0.069014  1
  Fe  Fe5  1  0.846860  0.859088  0.440861  1
  S  S6  1  0.036850  0.467991  0.750892  1
  S  S7  1  0.463735  0.748048  0.749610  1
  S  S8  1  0.749822  0.033253  0.748112  1
  S  S9  1  0.252446  0.953921  0.251593  1
  S  S10  1  0.534870  0.255849  0.252211  1
  S  S11  1  0.955271  0.541388  0.251504  1
  O  O12  1  0.109949  0.507092  0.085392  1
  O  O13  1  0.298545  0.108269  0.086228  1
  O  O14  1  0.003566  0.347374  0.700217  1
  O  O15  1  0.513536  0.298216  0.077931  1
  O  O16  1  0.027976  0.661724  0.609051  1
  O  O17  1  0.231857  0.379371  0.773566  1
  O  O18  1  0.377240  0.615568  0.766057  1
  O  O19  1  0.338201  0.945788  0.700376  1
  O  O20  1  0.628261  0.235249  0.763524  1
  O  O21  1  0.048999  0.979717  0.289257  1
  O  O22  1  0.276383  0.960485  0.400817  1
  O  O23  1  0.351887  0.284788  0.389182  1
  O  O24  1  0.659738  0.702444  0.609336  1
  O  O25  1  0.713143  0.021207  0.605694  1
  O  O26  1  0.953383  0.000741  0.704235  1
  O  O27  1  0.381800  0.763059  0.221614  1
  O  O28  1  0.674379  0.051408  0.292673  1
  O  O29  1  0.628438  0.383301  0.224491  1
  O  O30  1  0.763346  0.633644  0.221410  1
  O  O31  1  0.961691  0.362283  0.399423  1
  O  O32  1  0.494643  0.687943  0.920315  1
  O  O33  1  0.978492  0.680810  0.292856  1
  O  O34  1  0.684805  0.896820  0.919487  1
  O  O35  1  0.890300  0.500759  0.919641  1
