# generated using pymatgen
data_Li6MnV3(PO4)6
_symmetry_space_group_name_H-M   'P 1'
_cell_length_a   8.59625034
_cell_length_b   8.81058031
_cell_length_c   12.24814219
_cell_angle_alpha   90.00000000
_cell_angle_beta   90.95395255
_cell_angle_gamma   90.00000000
_symmetry_Int_Tables_number   1
_chemical_formula_structural   Li6MnV3(PO4)6
_chemical_formula_sum   'Li12 Mn2 V6 P12 O48'
_cell_volume   927.52065557
_cell_formula_units_Z   2
loop_
 _symmetry_equiv_pos_site_id
 _symmetry_equiv_pos_as_xyz
  1  'x, y, z'
loop_
 _atom_site_type_symbol
 _atom_site_label
 _atom_site_symmetry_multiplicity
 _atom_site_fract_x
 _atom_site_fract_y
 _atom_site_fract_z
 _atom_site_occupancy
  Li  Li0  1  0.312735  0.512910  0.595658  1
  Li  Li1  1  0.331236  0.085757  0.941174  1
  Li  Li2  1  0.427563  0.780630  0.427451  1
  Li  Li3  1  0.572437  0.280630  0.572549  1
  Li  Li4  1  0.668764  0.585757  0.058826  1
  Li  Li5  1  0.687265  0.012910  0.404342  1
  Li  Li6  1  0.813661  0.985832  0.096473  1
  Li  Li7  1  0.830417  0.413190  0.442533  1
  Li  Li8  1  0.932111  0.717494  0.926637  1
  Li  Li9  1  0.067889  0.217494  0.073363  1
  Li  Li10  1  0.169583  0.913190  0.557467  1
  Li  Li11  1  0.186339  0.485832  0.903527  1
  Mn  Mn12  1  0.991696  0.474711  0.645747  1
  Mn  Mn13  1  0.008304  0.974711  0.354253  1
  V  V14  1  0.494253  0.025979  0.145647  1
  V  V15  1  0.495362  0.463924  0.358926  1
  V  V16  1  0.505747  0.525979  0.854353  1
  V  V17  1  0.504638  0.963924  0.641074  1
  V  V18  1  0.995163  0.035481  0.856494  1
  V  V19  1  0.004837  0.535481  0.143506  1
  P  P20  1  0.292280  0.246605  0.740229  1
  P  P21  1  0.365132  0.382740  0.099755  1
  P  P22  1  0.366340  0.112352  0.395239  1
  P  P23  1  0.634868  0.882740  0.900245  1
  P  P24  1  0.633660  0.612352  0.604761  1
  P  P25  1  0.707720  0.746605  0.259771  1
  P  P26  1  0.786510  0.252165  0.241594  1
  P  P27  1  0.866026  0.390289  0.900066  1
  P  P28  1  0.862303  0.116831  0.601478  1
  P  P29  1  0.133974  0.890289  0.099934  1
  P  P30  1  0.137697  0.616831  0.398522  1
  P  P31  1  0.213490  0.752165  0.758406  1
  O  O32  1  0.301220  0.894219  0.144600  1
  O  O33  1  0.305154  0.873894  0.695704  1
  O  O34  1  0.306718  0.665871  0.848170  1
  O  O35  1  0.310016  0.573240  0.432715  1
  O  O36  1  0.353667  0.356228  0.831241  1
  O  O37  1  0.377035  0.206858  0.083698  1
  O  O38  1  0.391598  0.421808  0.220529  1
  O  O39  1  0.378667  0.998345  0.495239  1
  O  O40  1  0.429573  0.270222  0.434626  1
  O  O41  1  0.438278  0.169509  0.688363  1
  O  O42  1  0.477665  0.471245  0.026073  1
  O  O43  1  0.486212  0.047610  0.312159  1
  O  O44  1  0.513788  0.547610  0.687841  1
  O  O45  1  0.522335  0.971245  0.973927  1
  O  O46  1  0.561722  0.669509  0.311637  1
  O  O47  1  0.570427  0.770222  0.565374  1
  O  O48  1  0.608402  0.921808  0.779471  1
  O  O49  1  0.621333  0.498345  0.504761  1
  O  O50  1  0.622965  0.706858  0.916302  1
  O  O51  1  0.646333  0.856228  0.168759  1
  O  O52  1  0.693282  0.165871  0.151830  1
  O  O53  1  0.689984  0.073240  0.567285  1
  O  O54  1  0.698780  0.394219  0.855400  1
  O  O55  1  0.694846  0.373894  0.304296  1
  O  O56  1  0.802472  0.628809  0.194983  1
  O  O57  1  0.798574  0.618949  0.648560  1
  O  O58  1  0.809019  0.919969  0.935051  1
  O  O59  1  0.797942  0.828690  0.351093  1
  O  O60  1  0.844929  0.144167  0.332672  1
  O  O61  1  0.864727  0.291084  0.583485  1
  O  O62  1  0.876209  0.503657  0.001149  1
  O  O63  1  0.888544  0.081684  0.725720  1
  O  O64  1  0.919166  0.228957  0.938055  1
  O  O65  1  0.930137  0.326856  0.185976  1
  O  O66  1  0.978420  0.027745  0.533636  1
  O  O67  1  0.986709  0.453493  0.819416  1
  O  O68  1  0.013291  0.953493  0.180584  1
  O  O69  1  0.021580  0.527745  0.466364  1
  O  O70  1  0.069863  0.826856  0.814024  1
  O  O71  1  0.080834  0.728957  0.061945  1
  O  O72  1  0.123791  0.003657  0.998851  1
  O  O73  1  0.111456  0.581684  0.274280  1
  O  O74  1  0.135273  0.791084  0.416515  1
  O  O75  1  0.155071  0.644167  0.667328  1
  O  O76  1  0.190981  0.419969  0.064949  1
  O  O77  1  0.202058  0.328690  0.648907  1
  O  O78  1  0.197528  0.128809  0.805017  1
  O  O79  1  0.201426  0.118949  0.351440  1
