# generated using pymatgen
data_MnV4CuO12
_symmetry_space_group_name_H-M   'P 1'
_cell_length_a   6.82970205
_cell_length_b   6.82970205
_cell_length_c   6.03684180
_cell_angle_alpha   76.53578780
_cell_angle_beta   103.46421220
_cell_angle_gamma   95.71098756
_symmetry_Int_Tables_number   1
_chemical_formula_structural   MnV4CuO12
_chemical_formula_sum   'Mn1 V4 Cu1 O12'
_cell_volume   266.01599506
_cell_formula_units_Z   1
loop_
 _symmetry_equiv_pos_site_id
 _symmetry_equiv_pos_as_xyz
  1  'x, y, z'
loop_
 _atom_site_type_symbol
 _atom_site_label
 _atom_site_symmetry_multiplicity
 _atom_site_fract_x
 _atom_site_fract_y
 _atom_site_fract_z
 _atom_site_occupancy
  Mn  Mn0  1  0.084372  0.084372  0.500000  1
  V  V1  1  0.388340  0.790968  0.015386  1
  V  V2  1  0.214109  0.610070  0.520544  1
  V  V3  1  0.790968  0.388340  0.984614  1
  V  V4  1  0.610070  0.214109  0.479456  1
  Cu  Cu5  1  0.912001  0.912001  0.000000  1
  O  O6  1  0.195849  0.957769  0.905258  1
  O  O7  1  0.620438  0.908098  0.033187  1
  O  O8  1  0.043904  0.794757  0.426693  1
  O  O9  1  0.359196  0.636306  0.804963  1
  O  O10  1  0.908098  0.620438  0.966813  1
  O  O11  1  0.360787  0.649476  0.299310  1
  O  O12  1  0.636306  0.359196  0.195037  1
  O  O13  1  0.094597  0.378964  0.538023  1
  O  O14  1  0.649476  0.360787  0.700690  1
  O  O15  1  0.957769  0.195849  0.094742  1
  O  O16  1  0.378964  0.094597  0.461977  1
  O  O17  1  0.794757  0.043904  0.573307  1
