# generated using pymatgen
data_Li3Ti(PO4)2
_symmetry_space_group_name_H-M   'P 1'
_cell_length_a   4.99391220
_cell_length_b   18.02798212
_cell_length_c   7.83523351
_cell_angle_alpha   90.00000000
_cell_angle_beta   126.06376548
_cell_angle_gamma   90.00000000
_symmetry_Int_Tables_number   1
_chemical_formula_structural   Li3Ti(PO4)2
_chemical_formula_sum   'Li12 Ti4 P8 O32'
_cell_volume   570.22471420
_cell_formula_units_Z   4
loop_
 _symmetry_equiv_pos_site_id
 _symmetry_equiv_pos_as_xyz
  1  'x, y, z'
loop_
 _atom_site_type_symbol
 _atom_site_label
 _atom_site_symmetry_multiplicity
 _atom_site_fract_x
 _atom_site_fract_y
 _atom_site_fract_z
 _atom_site_occupancy
  Li  Li0  1  0.379341  0.698840  0.189352  1
  Li  Li1  1  0.715028  0.877475  0.496041  1
  Li  Li2  1  0.965465  0.050802  0.706705  1
  Li  Li3  1  0.284972  0.377475  0.003959  1
  Li  Li4  1  0.034535  0.550802  0.793295  1
  Li  Li5  1  0.620659  0.198840  0.310648  1
  Li  Li6  1  0.379341  0.801160  0.689352  1
  Li  Li7  1  0.965465  0.449198  0.206705  1
  Li  Li8  1  0.715028  0.622525  0.996041  1
  Li  Li9  1  0.034535  0.949198  0.293295  1
  Li  Li10  1  0.284972  0.122525  0.503959  1
  Li  Li11  1  0.620659  0.301160  0.810648  1
  Ti  Ti12  1  0.193937  0.873167  0.988604  1
  Ti  Ti13  1  0.806063  0.373167  0.511396  1
  Ti  Ti14  1  0.193937  0.626833  0.488604  1
  Ti  Ti15  1  0.806063  0.126833  0.011396  1
  P  P16  1  0.896201  0.714571  0.714181  1
  P  P17  1  0.502809  0.536354  0.273733  1
  P  P18  1  0.497191  0.036354  0.226267  1
  P  P19  1  0.103799  0.214571  0.785819  1
  P  P20  1  0.896201  0.785429  0.214181  1
  P  P21  1  0.502809  0.963646  0.773733  1
  P  P22  1  0.497191  0.463646  0.726267  1
  P  P23  1  0.103799  0.285429  0.285819  1
  O  O24  1  0.823192  0.198813  0.814985  1
  O  O25  1  0.553190  0.691721  0.510195  1
  O  O26  1  0.799727  0.439744  0.724251  1
  O  O27  1  0.971046  0.671865  0.905117  1
  O  O28  1  0.168308  0.065846  0.024173  1
  O  O29  1  0.542862  0.066206  0.422439  1
  O  O30  1  0.869951  0.800456  0.739577  1
  O  O31  1  0.495185  0.448939  0.273423  1
  O  O32  1  0.504815  0.948939  0.226577  1
  O  O33  1  0.130049  0.300456  0.760423  1
  O  O34  1  0.457138  0.566206  0.077561  1
  O  O35  1  0.831692  0.565846  0.475827  1
  O  O36  1  0.028954  0.171865  0.594883  1
  O  O37  1  0.200273  0.939744  0.775749  1
  O  O38  1  0.446810  0.191721  0.989805  1
  O  O39  1  0.176808  0.698813  0.685015  1
  O  O40  1  0.823192  0.301187  0.314985  1
  O  O41  1  0.553190  0.808279  0.010195  1
  O  O42  1  0.799727  0.060256  0.224251  1
  O  O43  1  0.971046  0.828135  0.405117  1
  O  O44  1  0.168308  0.434154  0.524173  1
  O  O45  1  0.542862  0.433794  0.922439  1
  O  O46  1  0.869951  0.699544  0.239577  1
  O  O47  1  0.495185  0.051061  0.773423  1
  O  O48  1  0.504815  0.551061  0.726577  1
  O  O49  1  0.130049  0.199544  0.260423  1
  O  O50  1  0.457138  0.933794  0.577561  1
  O  O51  1  0.831692  0.934154  0.975827  1
  O  O52  1  0.028954  0.328135  0.094883  1
  O  O53  1  0.200273  0.560256  0.275749  1
  O  O54  1  0.446810  0.308279  0.489805  1
  O  O55  1  0.176808  0.801187  0.185015  1
