# generated using pymatgen
data_NiP4H16(NO8)2
_symmetry_space_group_name_H-M   'P 1'
_cell_length_a   7.09101713
_cell_length_b   7.31979801
_cell_length_c   7.74405196
_cell_angle_alpha   98.32469387
_cell_angle_beta   108.71798383
_cell_angle_gamma   88.42980581
_symmetry_Int_Tables_number   1
_chemical_formula_structural   NiP4H16(NO8)2
_chemical_formula_sum   'Ni1 P4 H16 N2 O16'
_cell_volume   376.60497093
_cell_formula_units_Z   1
loop_
 _symmetry_equiv_pos_site_id
 _symmetry_equiv_pos_as_xyz
  1  'x, y, z'
loop_
 _atom_site_type_symbol
 _atom_site_label
 _atom_site_symmetry_multiplicity
 _atom_site_fract_x
 _atom_site_fract_y
 _atom_site_fract_z
 _atom_site_occupancy
  Ni  Ni0  1  0.000000  0.500000  0.000000  1
  P  P1  1  0.844828  0.260455  0.261840  1
  P  P2  1  0.744578  0.788841  0.744971  1
  P  P3  1  0.255422  0.211159  0.255029  1
  P  P4  1  0.155172  0.739545  0.738160  1
  H  H5  1  0.759437  0.023602  0.038708  1
  H  H6  1  0.887526  0.309731  0.658363  1
  H  H7  1  0.679359  0.613716  0.163941  1
  H  H8  1  0.880783  0.174045  0.801144  1
  H  H9  1  0.625059  0.840117  0.194227  1
  H  H10  1  0.583970  0.701555  0.333901  1
  H  H11  1  0.439077  0.678525  0.109758  1
  H  H12  1  0.574581  0.278088  0.422252  1
  H  H13  1  0.425419  0.721912  0.577748  1
  H  H14  1  0.560923  0.321475  0.890242  1
  H  H15  1  0.416030  0.298445  0.666099  1
  H  H16  1  0.374941  0.159883  0.805773  1
  H  H17  1  0.119217  0.825955  0.198856  1
  H  H18  1  0.320641  0.386284  0.836059  1
  H  H19  1  0.112474  0.690269  0.341637  1
  H  H20  1  0.240563  0.976398  0.961292  1
  N  N21  1  0.581650  0.707971  0.199996  1
  N  N22  1  0.418350  0.292029  0.800004  1
  O  O23  1  0.807351  0.383294  0.111701  1
  O  O24  1  0.918580  0.766696  0.648363  1
  O  O25  1  0.751155  0.062362  0.172012  1
  O  O26  1  0.948654  0.284510  0.786425  1
  O  O27  1  0.772412  0.331503  0.422029  1
  O  O28  1  0.760633  0.985156  0.846546  1
  O  O29  1  0.753397  0.636858  0.859091  1
  O  O30  1  0.559498  0.762601  0.563724  1
  O  O31  1  0.440502  0.237399  0.436276  1
  O  O32  1  0.246603  0.363142  0.140909  1
  O  O33  1  0.239367  0.014844  0.153454  1
  O  O34  1  0.227588  0.668497  0.577971  1
  O  O35  1  0.051346  0.715490  0.213575  1
  O  O36  1  0.248845  0.937638  0.827988  1
  O  O37  1  0.081420  0.233304  0.351637  1
  O  O38  1  0.192649  0.616706  0.888299  1
