# generated using pymatgen
data_LiCr2P5O16
_symmetry_space_group_name_H-M   'P 1'
_cell_length_a   7.50166847
_cell_length_b   9.38623974
_cell_length_c   10.28019037
_cell_angle_alpha   90.00000000
_cell_angle_beta   111.73298954
_cell_angle_gamma   90.00000000
_symmetry_Int_Tables_number   1
_chemical_formula_structural   LiCr2P5O16
_chemical_formula_sum   'Li2 Cr4 P10 O32'
_cell_volume   672.40163220
_cell_formula_units_Z   2
loop_
 _symmetry_equiv_pos_site_id
 _symmetry_equiv_pos_as_xyz
  1  'x, y, z'
loop_
 _atom_site_type_symbol
 _atom_site_label
 _atom_site_symmetry_multiplicity
 _atom_site_fract_x
 _atom_site_fract_y
 _atom_site_fract_z
 _atom_site_occupancy
  Li  Li0  1  0.974485  0.794191  0.225010  1
  Li  Li1  1  0.974485  0.205809  0.725010  1
  Cr  Cr2  1  0.360205  0.141199  0.523953  1
  Cr  Cr3  1  0.908938  0.368486  0.124122  1
  Cr  Cr4  1  0.908938  0.631514  0.624122  1
  Cr  Cr5  1  0.360205  0.858801  0.023953  1
  P  P6  1  0.602296  0.863362  0.617940  1
  P  P7  1  0.499169  0.457592  0.499274  1
  P  P8  1  0.554225  0.293989  0.860771  1
  P  P9  1  0.262476  0.873621  0.688784  1
  P  P10  1  0.101188  0.415234  0.460716  1
  P  P11  1  0.101188  0.584766  0.960716  1
  P  P12  1  0.602296  0.136638  0.117940  1
  P  P13  1  0.499169  0.542408  0.999274  1
  P  P14  1  0.554225  0.706011  0.360771  1
  P  P15  1  0.262476  0.126379  0.188784  1
  O  O16  1  0.771800  0.294975  0.920582  1
  O  O17  1  0.483177  0.822503  0.710804  1
  O  O18  1  0.275242  0.063287  0.328934  1
  O  O19  1  0.454893  0.229882  0.720713  1
  O  O20  1  0.311918  0.494594  0.530758  1
  O  O21  1  0.470287  0.453508  0.856819  1
  O  O22  1  0.502870  0.699492  0.969653  1
  O  O23  1  0.479051  0.215004  0.970447  1
  O  O24  1  0.988991  0.537537  0.048644  1
  O  O25  1  0.211067  0.987577  0.574347  1
  O  O26  1  0.128032  0.254809  0.479699  1
  O  O27  1  0.024726  0.464665  0.309256  1
  O  O28  1  0.275242  0.936713  0.828934  1
  O  O29  1  0.143020  0.740245  0.641352  1
  O  O30  1  0.800591  0.197061  0.184122  1
  O  O31  1  0.988991  0.462463  0.548644  1
  O  O32  1  0.128032  0.745191  0.979699  1
  O  O33  1  0.669893  0.479987  0.114106  1
  O  O34  1  0.024726  0.535335  0.809256  1
  O  O35  1  0.771800  0.705025  0.420582  1
  O  O36  1  0.601688  0.977667  0.091119  1
  O  O37  1  0.800591  0.802939  0.684122  1
  O  O38  1  0.483177  0.177497  0.210804  1
  O  O39  1  0.669893  0.520013  0.614106  1
  O  O40  1  0.454893  0.770118  0.220713  1
  O  O41  1  0.311918  0.505406  0.030758  1
  O  O42  1  0.601688  0.022333  0.591119  1
  O  O43  1  0.470287  0.546492  0.356819  1
  O  O44  1  0.502870  0.300508  0.469653  1
  O  O45  1  0.479051  0.784996  0.470447  1
  O  O46  1  0.211067  0.012423  0.074347  1
  O  O47  1  0.143020  0.259755  0.141352  1
