# generated using pymatgen
data_Na6Sn2P(CO4)4
_symmetry_space_group_name_H-M   'P 1'
_cell_length_a   10.27685725
_cell_length_b   10.27685725
_cell_length_c   10.27685725
_cell_angle_alpha   60.00000000
_cell_angle_beta   60.00000000
_cell_angle_gamma   60.00000000
_symmetry_Int_Tables_number   1
_chemical_formula_structural   Na6Sn2P(CO4)4
_chemical_formula_sum   'Na12 Sn4 P2 C8 O32'
_cell_volume   767.47806915
_cell_formula_units_Z   2
loop_
 _symmetry_equiv_pos_site_id
 _symmetry_equiv_pos_as_xyz
  1  'x, y, z'
loop_
 _atom_site_type_symbol
 _atom_site_label
 _atom_site_symmetry_multiplicity
 _atom_site_fract_x
 _atom_site_fract_y
 _atom_site_fract_z
 _atom_site_occupancy
  Na  Na0  1  0.550382  0.550382  0.949618  1
  Na  Na1  1  0.300382  0.300382  0.699618  1
  Na  Na2  1  0.300382  0.699618  0.699618  1
  Na  Na3  1  0.550382  0.949618  0.949618  1
  Na  Na4  1  0.699618  0.300382  0.699618  1
  Na  Na5  1  0.949618  0.550382  0.949618  1
  Na  Na6  1  0.949618  0.550382  0.550382  1
  Na  Na7  1  0.550382  0.949618  0.550382  1
  Na  Na8  1  0.300382  0.699618  0.300382  1
  Na  Na9  1  0.699618  0.300382  0.300382  1
  Na  Na10  1  0.949618  0.949618  0.550382  1
  Na  Na11  1  0.699618  0.699618  0.300382  1
  Sn  Sn12  1  0.125000  0.125000  0.125000  1
  Sn  Sn13  1  0.625000  0.125000  0.125000  1
  Sn  Sn14  1  0.125000  0.625000  0.125000  1
  Sn  Sn15  1  0.125000  0.125000  0.625000  1
  P  P16  1  0.750000  0.750000  0.750000  1
  P  P17  1  0.500000  0.500000  0.500000  1
  C  C18  1  0.899253  0.302242  0.899253  1
  C  C19  1  0.302242  0.899253  0.899253  1
  C  C20  1  0.899253  0.899253  0.302242  1
  C  C21  1  0.350747  0.350747  0.350747  1
  C  C22  1  0.350747  0.350747  0.947758  1
  C  C23  1  0.899253  0.899253  0.899253  1
  C  C24  1  0.947758  0.350747  0.350747  1
  C  C25  1  0.350747  0.947758  0.350747  1
  O  O26  1  0.904002  0.302505  0.769883  1
  O  O27  1  0.688031  0.688031  0.688031  1
  O  O28  1  0.302505  0.023609  0.769883  1
  O  O29  1  0.302505  0.769883  0.904002  1
  O  O30  1  0.688031  0.935907  0.688031  1
  O  O31  1  0.935907  0.688031  0.688031  1
  O  O32  1  0.769883  0.302505  0.023609  1
  O  O33  1  0.023609  0.302505  0.904002  1
  O  O34  1  0.688031  0.688031  0.935907  1
  O  O35  1  0.769883  0.904002  0.302505  1
  O  O36  1  0.345998  0.480117  0.226391  1
  O  O37  1  0.302505  0.904002  0.023609  1
  O  O38  1  0.023609  0.769883  0.302505  1
  O  O39  1  0.480117  0.226391  0.345998  1
  O  O40  1  0.023609  0.904002  0.769883  1
  O  O41  1  0.345998  0.226391  0.947495  1
  O  O42  1  0.904002  0.023609  0.302505  1
  O  O43  1  0.226391  0.345998  0.480117  1
  O  O44  1  0.769883  0.023609  0.904002  1
  O  O45  1  0.226391  0.480117  0.947495  1
  O  O46  1  0.947495  0.345998  0.226391  1
  O  O47  1  0.904002  0.769883  0.023609  1
  O  O48  1  0.480117  0.345998  0.947495  1
  O  O49  1  0.561969  0.561969  0.314093  1
  O  O50  1  0.226391  0.947495  0.345998  1
  O  O51  1  0.480117  0.947495  0.226391  1
  O  O52  1  0.561969  0.314093  0.561969  1
  O  O53  1  0.314093  0.561969  0.561969  1
  O  O54  1  0.947495  0.480117  0.345998  1
  O  O55  1  0.947495  0.226391  0.480117  1
  O  O56  1  0.561969  0.561969  0.561969  1
  O  O57  1  0.345998  0.947495  0.480117  1
