# generated using pymatgen
data_H4SeO5
_symmetry_space_group_name_H-M   'P 1'
_cell_length_a   8.79471839
_cell_length_b   9.24845433
_cell_length_c   10.56793411
_cell_angle_alpha   90.00000000
_cell_angle_beta   90.00000000
_cell_angle_gamma   90.00000000
_symmetry_Int_Tables_number   1
_chemical_formula_structural   H4SeO5
_chemical_formula_sum   'H32 Se8 O40'
_cell_volume   859.56988360
_cell_formula_units_Z   8
loop_
 _symmetry_equiv_pos_site_id
 _symmetry_equiv_pos_as_xyz
  1  'x, y, z'
loop_
 _atom_site_type_symbol
 _atom_site_label
 _atom_site_symmetry_multiplicity
 _atom_site_fract_x
 _atom_site_fract_y
 _atom_site_fract_z
 _atom_site_occupancy
  H  H0  1  0.222166  0.726008  0.456220  1
  H  H1  1  0.722166  0.273992  0.043780  1
  H  H2  1  0.777834  0.773992  0.956220  1
  H  H3  1  0.277834  0.226008  0.543780  1
  H  H4  1  0.777834  0.273992  0.543780  1
  H  H5  1  0.277834  0.726008  0.956220  1
  H  H6  1  0.222166  0.226008  0.043780  1
  H  H7  1  0.722166  0.773992  0.456220  1
  H  H8  1  0.174333  0.900958  0.467069  1
  H  H9  1  0.674333  0.099042  0.032931  1
  H  H10  1  0.825667  0.599042  0.967069  1
  H  H11  1  0.325667  0.400958  0.532931  1
  H  H12  1  0.825667  0.099042  0.532931  1
  H  H13  1  0.325667  0.900958  0.967069  1
  H  H14  1  0.174333  0.400958  0.032931  1
  H  H15  1  0.674333  0.599042  0.467069  1
  H  H16  1  0.205467  0.829143  0.074446  1
  H  H17  1  0.705467  0.170857  0.425554  1
  H  H18  1  0.794533  0.670857  0.574446  1
  H  H19  1  0.294533  0.329143  0.925554  1
  H  H20  1  0.794533  0.170857  0.925554  1
  H  H21  1  0.294533  0.829143  0.574446  1
  H  H22  1  0.205467  0.329143  0.425554  1
  H  H23  1  0.705467  0.670857  0.074446  1
  H  H24  1  0.458237  0.767506  0.259229  1
  H  H25  1  0.958237  0.232494  0.240771  1
  H  H26  1  0.541763  0.732494  0.759229  1
  H  H27  1  0.041763  0.267506  0.740771  1
  H  H28  1  0.541763  0.232494  0.740771  1
  H  H29  1  0.041763  0.767506  0.759229  1
  H  H30  1  0.458237  0.267506  0.240771  1
  H  H31  1  0.958237  0.732494  0.259229  1
  Se  Se32  1  0.109895  0.534884  0.267072  1
  Se  Se33  1  0.609895  0.465116  0.232928  1
  Se  Se34  1  0.890105  0.965116  0.767072  1
  Se  Se35  1  0.390105  0.034884  0.732928  1
  Se  Se36  1  0.890105  0.465116  0.732928  1
  Se  Se37  1  0.390105  0.534884  0.767072  1
  Se  Se38  1  0.109895  0.034884  0.232928  1
  Se  Se39  1  0.609895  0.965116  0.267072  1
  O  O40  1  0.250622  0.611614  0.345809  1
  O  O41  1  0.750622  0.388386  0.154191  1
  O  O42  1  0.749378  0.888386  0.845809  1
  O  O43  1  0.249378  0.111614  0.654191  1
  O  O44  1  0.749378  0.388386  0.654191  1
  O  O45  1  0.249378  0.611614  0.845809  1
  O  O46  1  0.250622  0.111614  0.154191  1
  O  O47  1  0.750622  0.888386  0.345809  1
  O  O48  1  0.130281  0.536841  0.111594  1
  O  O49  1  0.630281  0.463159  0.388406  1
  O  O50  1  0.869719  0.963159  0.611594  1
  O  O51  1  0.369719  0.036841  0.888406  1
  O  O52  1  0.869719  0.463159  0.888406  1
  O  O53  1  0.369719  0.536841  0.611594  1
  O  O54  1  0.130281  0.036841  0.388406  1
  O  O55  1  0.630281  0.963159  0.111594  1
  O  O56  1  0.070763  0.371582  0.326317  1
  O  O57  1  0.570763  0.628418  0.173683  1
  O  O58  1  0.929237  0.128418  0.826317  1
  O  O59  1  0.429237  0.871582  0.673683  1
  O  O60  1  0.929237  0.628418  0.673683  1
  O  O61  1  0.429237  0.371582  0.826317  1
  O  O62  1  0.070763  0.871582  0.173683  1
  O  O63  1  0.570763  0.128418  0.326317  1
  O  O64  1  0.943617  0.635548  0.300048  1
  O  O65  1  0.443617  0.364452  0.199952  1
  O  O66  1  0.056383  0.864452  0.800048  1
  O  O67  1  0.556383  0.135548  0.699952  1
  O  O68  1  0.056383  0.364452  0.699952  1
  O  O69  1  0.556383  0.635548  0.800048  1
  O  O70  1  0.943617  0.135548  0.199952  1
  O  O71  1  0.443617  0.864452  0.300048  1
  O  O72  1  0.297424  0.809451  0.017797  1
  O  O73  1  0.797424  0.190549  0.482203  1
  O  O74  1  0.702576  0.690549  0.517797  1
  O  O75  1  0.202576  0.309451  0.982203  1
  O  O76  1  0.702576  0.190549  0.982203  1
  O  O77  1  0.202576  0.809451  0.517797  1
  O  O78  1  0.297424  0.309451  0.482203  1
  O  O79  1  0.797424  0.690549  0.017797  1
