# generated using pymatgen
data_Li4Ni3Sn5O16
_symmetry_space_group_name_H-M   'P 1'
_cell_length_a   6.05017554
_cell_length_b   6.11055798
_cell_length_c   9.81038864
_cell_angle_alpha   90.74140904
_cell_angle_beta   89.93358075
_cell_angle_gamma   119.43250785
_symmetry_Int_Tables_number   1
_chemical_formula_structural   Li4Ni3Sn5O16
_chemical_formula_sum   'Li4 Ni3 Sn5 O16'
_cell_volume   315.84701237
_cell_formula_units_Z   1
loop_
 _symmetry_equiv_pos_site_id
 _symmetry_equiv_pos_as_xyz
  1  'x, y, z'
loop_
 _atom_site_type_symbol
 _atom_site_label
 _atom_site_symmetry_multiplicity
 _atom_site_fract_x
 _atom_site_fract_y
 _atom_site_fract_z
 _atom_site_occupancy
  Li  Li0  1  0.667260  0.325375  0.892311  1
  Li  Li1  1  0.977712  0.018183  0.987905  1
  Li  Li2  1  0.989297  0.009275  0.497646  1
  Li  Li3  1  0.336281  0.670356  0.404135  1
  Ni  Ni4  1  0.831046  0.170238  0.216045  1
  Ni  Ni5  1  0.660968  0.828844  0.712582  1
  Ni  Ni6  1  0.172213  0.339906  0.715198  1
  Sn  Sn7  1  0.833613  0.660213  0.215211  1
  Sn  Sn8  1  0.673309  0.331094  0.494543  1
  Sn  Sn9  1  0.339666  0.168524  0.213760  1
  Sn  Sn10  1  0.170628  0.831683  0.714271  1
  Sn  Sn11  1  0.342867  0.657168  0.985632  1
  O  O12  1  0.840814  0.680039  0.594000  1
  O  O13  1  0.515007  0.485692  0.345395  1
  O  O14  1  0.667249  0.333019  0.100173  1
  O  O15  1  0.000437  0.001298  0.312406  1
  O  O16  1  0.977107  0.989891  0.805070  1
  O  O17  1  0.320417  0.169033  0.599790  1
  O  O18  1  0.969530  0.486686  0.345926  1
  O  O19  1  0.514164  0.034675  0.346790  1
  O  O20  1  0.162000  0.835000  0.091053  1
  O  O21  1  0.842118  0.167396  0.604939  1
  O  O22  1  0.482651  0.961383  0.844719  1
  O  O23  1  0.037848  0.504720  0.837452  1
  O  O24  1  0.355259  0.676020  0.609287  1
  O  O25  1  0.674811  0.831621  0.095974  1
  O  O26  1  0.479392  0.508107  0.831205  1
  O  O27  1  0.166631  0.324858  0.094422  1
