# generated using pymatgen
data_Li3V4(PO4)6
_symmetry_space_group_name_H-M   'P 1'
_cell_length_a   8.50707719
_cell_length_b   8.53375818
_cell_length_c   8.57564601
_cell_angle_alpha   60.63802634
_cell_angle_beta   60.87750928
_cell_angle_gamma   60.97775020
_symmetry_Int_Tables_number   1
_chemical_formula_structural   Li3V4(PO4)6
_chemical_formula_sum   'Li3 V4 P6 O24'
_cell_volume   448.46519345
_cell_formula_units_Z   1
loop_
 _symmetry_equiv_pos_site_id
 _symmetry_equiv_pos_as_xyz
  1  'x, y, z'
loop_
 _atom_site_type_symbol
 _atom_site_label
 _atom_site_symmetry_multiplicity
 _atom_site_fract_x
 _atom_site_fract_y
 _atom_site_fract_z
 _atom_site_occupancy
  Li  Li0  1  0.515427  0.999651  0.982368  1
  Li  Li1  1  0.252118  0.136134  0.342337  1
  Li  Li2  1  0.992954  0.508559  0.501433  1
  V  V3  1  0.642764  0.138095  0.141964  1
  V  V4  1  0.855788  0.365258  0.351000  1
  V  V5  1  0.136291  0.636740  0.647687  1
  V  V6  1  0.363108  0.862013  0.854804  1
  P  P7  1  0.250004  0.459368  0.035834  1
  P  P8  1  0.961303  0.038318  0.749236  1
  P  P9  1  0.540195  0.745293  0.467736  1
  P  P10  1  0.452424  0.250580  0.537628  1
  P  P11  1  0.046686  0.957700  0.249839  1
  P  P12  1  0.747181  0.545625  0.960196  1
  O  O13  1  0.813783  0.513150  0.117897  1
  O  O14  1  0.876552  0.994927  0.206358  1
  O  O15  1  0.683823  0.383155  0.011613  1
  O  O16  1  0.953911  0.225478  0.574486  1
  O  O17  1  0.406176  0.262064  0.060695  1
  O  O18  1  0.735265  0.585279  0.441902  1
  O  O19  1  0.533759  0.915910  0.280241  1
  O  O20  1  0.997687  0.872733  0.695915  1
  O  O21  1  0.234973  0.935910  0.081347  1
  O  O22  1  0.627031  0.306197  0.479588  1
  O  O23  1  0.909273  0.558564  0.766929  1
  O  O24  1  0.466501  0.192403  0.387483  1
  O  O25  1  0.514178  0.807538  0.623112  1
  O  O26  1  0.090492  0.440415  0.234305  1
  O  O27  1  0.377426  0.677527  0.523924  1
  O  O28  1  0.770833  0.059801  0.909993  1
  O  O29  1  0.026525  0.123184  0.296704  1
  O  O30  1  0.445609  0.088175  0.731695  1
  O  O31  1  0.261902  0.415843  0.562802  1
  O  O32  1  0.585691  0.739093  0.942802  1
  O  O33  1  0.068170  0.767156  0.416283  1
  O  O34  1  0.313419  0.622227  0.987168  1
  O  O35  1  0.129116  0.004713  0.799512  1
  O  O36  1  0.180465  0.490381  0.884515  1
