# generated using pymatgen
data_FeP2HO7
_symmetry_space_group_name_H-M   'P 1'
_cell_length_a   7.44655119
_cell_length_b   8.42360329
_cell_length_c   9.96722241
_cell_angle_alpha   90.00000000
_cell_angle_beta   124.43033979
_cell_angle_gamma   90.00000000
_symmetry_Int_Tables_number   1
_chemical_formula_structural   FeP2HO7
_chemical_formula_sum   'Fe4 P8 H4 O28'
_cell_volume   515.68366143
_cell_formula_units_Z   4
loop_
 _symmetry_equiv_pos_site_id
 _symmetry_equiv_pos_as_xyz
  1  'x, y, z'
loop_
 _atom_site_type_symbol
 _atom_site_label
 _atom_site_symmetry_multiplicity
 _atom_site_fract_x
 _atom_site_fract_y
 _atom_site_fract_z
 _atom_site_occupancy
  Fe  Fe0  1  0.457743  0.697891  0.978630  1
  Fe  Fe1  1  0.542257  0.197891  0.521370  1
  Fe  Fe2  1  0.542257  0.302109  0.021370  1
  Fe  Fe3  1  0.457743  0.802109  0.478630  1
  P  P4  1  0.926509  0.716028  0.803989  1
  P  P5  1  0.073491  0.216028  0.696011  1
  P  P6  1  0.073491  0.283972  0.196011  1
  P  P7  1  0.926509  0.783972  0.303989  1
  P  P8  1  0.559305  0.509515  0.735827  1
  P  P9  1  0.440695  0.009515  0.764173  1
  P  P10  1  0.440695  0.490485  0.264173  1
  P  P11  1  0.559305  0.990485  0.235827  1
  H  H12  1  0.116360  0.627527  0.511860  1
  H  H13  1  0.883640  0.127527  0.988140  1
  H  H14  1  0.883640  0.372473  0.488140  1
  H  H15  1  0.116360  0.872473  0.011860  1
  O  O16  1  0.772681  0.774555  0.631168  1
  O  O17  1  0.227319  0.274555  0.868832  1
  O  O18  1  0.227319  0.225445  0.368832  1
  O  O19  1  0.772681  0.725445  0.131168  1
  O  O20  1  0.142885  0.652443  0.846236  1
  O  O21  1  0.857115  0.152443  0.653764  1
  O  O22  1  0.857115  0.347557  0.153764  1
  O  O23  1  0.142885  0.847557  0.346236  1
  O  O24  1  0.960835  0.846633  0.928734  1
  O  O25  1  0.039165  0.346633  0.571266  1
  O  O26  1  0.039165  0.153367  0.071266  1
  O  O27  1  0.960835  0.653367  0.428734  1
  O  O28  1  0.806194  0.573393  0.830229  1
  O  O29  1  0.193806  0.073393  0.669771  1
  O  O30  1  0.193806  0.426607  0.169771  1
  O  O31  1  0.806194  0.926607  0.330229  1
  O  O32  1  0.410125  0.623420  0.595584  1
  O  O33  1  0.589875  0.123420  0.904416  1
  O  O34  1  0.589875  0.376580  0.404416  1
  O  O35  1  0.410125  0.876580  0.095584  1
  O  O36  1  0.562029  0.342099  0.681758  1
  O  O37  1  0.437971  0.842099  0.818242  1
  O  O38  1  0.437971  0.657901  0.318242  1
  O  O39  1  0.562029  0.157901  0.181758  1
  O  O40  1  0.507894  0.503629  0.866808  1
  O  O41  1  0.492106  0.003629  0.633192  1
  O  O42  1  0.492106  0.496371  0.133192  1
  O  O43  1  0.507894  0.996371  0.366808  1
