# generated using pymatgen
data_Li7Mn(O2F)2
_symmetry_space_group_name_H-M   'P 1'
_cell_length_a   5.50014658
_cell_length_b   5.51291594
_cell_length_c   5.72910798
_cell_angle_alpha   90.92472271
_cell_angle_beta   116.75685090
_cell_angle_gamma   115.03423976
_symmetry_Int_Tables_number   1
_chemical_formula_structural   Li7Mn(O2F)2
_chemical_formula_sum   'Li7 Mn1 O4 F2'
_cell_volume   135.88204974
_cell_formula_units_Z   1
loop_
 _symmetry_equiv_pos_site_id
 _symmetry_equiv_pos_as_xyz
  1  'x, y, z'
loop_
 _atom_site_type_symbol
 _atom_site_label
 _atom_site_symmetry_multiplicity
 _atom_site_fract_x
 _atom_site_fract_y
 _atom_site_fract_z
 _atom_site_occupancy
  Li  Li0  1  0.608504  0.116799  0.336719  1
  Li  Li1  1  0.884505  0.760802  0.353663  1
  Li  Li2  1  0.739053  0.508845  0.681128  1
  Li  Li3  1  0.170847  0.472163  0.309293  1
  Li  Li4  1  0.120396  0.203851  0.637581  1
  Li  Li5  1  0.441896  0.939938  0.672301  1
  Li  Li6  1  0.272337  0.652457  0.963981  1
  Mn  Mn7  1  0.017213  0.010434  0.006909  1
  O  O8  1  0.881005  0.087387  0.240773  1
  O  O9  1  0.868385  0.232558  0.770548  1
  O  O10  1  0.201245  0.815370  0.250451  1
  O  O11  1  0.104466  0.874955  0.751850  1
  F  F12  1  0.510990  0.433277  0.280043  1
  F  F13  1  0.442706  0.578036  0.722931  1
