# generated using pymatgen
data_Li2V5O10
_symmetry_space_group_name_H-M   'P 1'
_cell_length_a   5.10662324
_cell_length_b   5.15134472
_cell_length_c   7.74571484
_cell_angle_alpha   75.91286396
_cell_angle_beta   76.03161264
_cell_angle_gamma   78.62964740
_symmetry_Int_Tables_number   1
_chemical_formula_structural   Li2V5O10
_chemical_formula_sum   'Li2 V5 O10'
_cell_volume   189.70225166
_cell_formula_units_Z   1
loop_
 _symmetry_equiv_pos_site_id
 _symmetry_equiv_pos_as_xyz
  1  'x, y, z'
loop_
 _atom_site_type_symbol
 _atom_site_label
 _atom_site_symmetry_multiplicity
 _atom_site_fract_x
 _atom_site_fract_y
 _atom_site_fract_z
 _atom_site_occupancy
  Li  Li0  1  0.524051  0.774494  0.406188  1
  Li  Li1  1  0.475949  0.225506  0.593812  1
  V  V2  1  0.014004  0.876715  0.685018  1
  V  V3  1  0.500000  0.000000  0.000000  1
  V  V4  1  0.967591  0.312531  0.898869  1
  V  V5  1  0.032409  0.687469  0.101131  1
  V  V6  1  0.985996  0.123285  0.314982  1
  O  O7  1  0.214424  0.950202  0.866520  1
  O  O8  1  0.778664  0.918112  0.513647  1
  O  O9  1  0.776980  0.678442  0.941576  1
  O  O10  1  0.258428  0.805122  0.222001  1
  O  O11  1  0.182563  0.532918  0.687019  1
  O  O12  1  0.817437  0.467082  0.312981  1
  O  O13  1  0.741572  0.194878  0.777999  1
  O  O14  1  0.223020  0.321558  0.058424  1
  O  O15  1  0.221336  0.081888  0.486353  1
  O  O16  1  0.785576  0.049798  0.133480  1
