# generated using pymatgen
data_HfZrO4
_symmetry_space_group_name_H-M   'P 1'
_cell_length_a   7.28061565
_cell_length_b   7.28061565
_cell_length_c   7.24383607
_cell_angle_alpha   60.14017588
_cell_angle_beta   119.85982412
_cell_angle_gamma   120.32981463
_symmetry_Int_Tables_number   1
_chemical_formula_structural   HfZrO4
_chemical_formula_sum   'Hf4 Zr4 O16'
_cell_volume   271.39884926
_cell_formula_units_Z   4
loop_
 _symmetry_equiv_pos_site_id
 _symmetry_equiv_pos_as_xyz
  1  'x, y, z'
loop_
 _atom_site_type_symbol
 _atom_site_label
 _atom_site_symmetry_multiplicity
 _atom_site_fract_x
 _atom_site_fract_y
 _atom_site_fract_z
 _atom_site_occupancy
  Hf  Hf0  1  0.864087  0.135913  0.120048  1
  Hf  Hf1  1  0.363650  0.134852  0.118940  1
  Hf  Hf2  1  0.865148  0.636350  0.118940  1
  Hf  Hf3  1  0.865009  0.134991  0.619899  1
  Zr  Zr4  1  0.866509  0.634892  0.619660  1
  Zr  Zr5  1  0.365948  0.634052  0.618863  1
  Zr  Zr6  1  0.365455  0.634545  0.119181  1
  Zr  Zr7  1  0.365108  0.133491  0.619660  1
  O  O8  1  0.947181  0.505229  0.471445  1
  O  O9  1  0.255003  0.744997  0.273374  1
  O  O10  1  0.739694  0.793572  0.226460  1
  O  O11  1  0.508197  0.491803  0.492567  1
  O  O12  1  0.010714  0.989286  0.991444  1
  O  O13  1  0.760203  0.239797  0.777919  1
  O  O14  1  0.233841  0.288828  0.732421  1
  O  O15  1  0.007127  0.992873  0.533045  1
  O  O16  1  0.989719  0.547571  0.979409  1
  O  O17  1  0.256748  0.743252  0.747571  1
  O  O18  1  0.711172  0.766159  0.732421  1
  O  O19  1  0.511459  0.488541  0.036932  1
  O  O20  1  0.758308  0.241692  0.248951  1
  O  O21  1  0.206428  0.260306  0.226460  1
  O  O22  1  0.494771  0.052819  0.471445  1
  O  O23  1  0.452429  0.010281  0.979409  1
