# generated using pymatgen
data_La2(GeO3)3
_symmetry_space_group_name_H-M   'P 1'
_cell_length_a   5.80325150
_cell_length_b   7.80835820
_cell_length_c   8.90980046
_cell_angle_alpha   107.93278312
_cell_angle_beta   108.32727762
_cell_angle_gamma   91.42259378
_symmetry_Int_Tables_number   1
_chemical_formula_structural   La2(GeO3)3
_chemical_formula_sum   'La4 Ge6 O18'
_cell_volume   361.31642937
_cell_formula_units_Z   2
loop_
 _symmetry_equiv_pos_site_id
 _symmetry_equiv_pos_as_xyz
  1  'x, y, z'
loop_
 _atom_site_type_symbol
 _atom_site_label
 _atom_site_symmetry_multiplicity
 _atom_site_fract_x
 _atom_site_fract_y
 _atom_site_fract_z
 _atom_site_occupancy
  La  La0  1  0.866185  0.800258  0.780544  1
  La  La1  1  0.133815  0.199742  0.219456  1
  La  La2  1  0.192884  0.819701  0.417758  1
  La  La3  1  0.807116  0.180299  0.582242  1
  Ge  Ge4  1  0.762642  0.488206  0.998639  1
  Ge  Ge5  1  0.237358  0.511794  0.001361  1
  Ge  Ge6  1  0.572543  0.926722  0.146450  1
  Ge  Ge7  1  0.427457  0.073278  0.853550  1
  Ge  Ge8  1  0.662077  0.518376  0.339452  1
  Ge  Ge9  1  0.337923  0.481624  0.660548  1
  O  O10  1  0.709083  0.005492  0.998922  1
  O  O11  1  0.290917  0.994508  0.001078  1
  O  O12  1  0.011868  0.676085  0.044838  1
  O  O13  1  0.988132  0.323915  0.955162  1
  O  O14  1  0.531045  0.672985  0.046143  1
  O  O15  1  0.468955  0.327015  0.953857  1
  O  O16  1  0.870521  0.486567  0.223909  1
  O  O17  1  0.129479  0.513433  0.776091  1
  O  O18  1  0.610196  0.323762  0.386154  1
  O  O19  1  0.389804  0.676238  0.613846  1
  O  O20  1  0.879939  0.988826  0.300865  1
  O  O21  1  0.120061  0.011174  0.699135  1
  O  O22  1  0.349778  0.534142  0.232871  1
  O  O23  1  0.650222  0.465858  0.767129  1
  O  O24  1  0.578189  0.027399  0.694789  1
  O  O25  1  0.421811  0.972601  0.305211  1
  O  O26  1  0.812104  0.722059  0.495702  1
  O  O27  1  0.187896  0.277941  0.504298  1
