# generated using pymatgen
data_K2Li2TiO4
_symmetry_space_group_name_H-M   'P 1'
_cell_length_a   5.78977160
_cell_length_b   8.52779417
_cell_length_c   11.37850890
_cell_angle_alpha   90.00000000
_cell_angle_beta   109.17987028
_cell_angle_gamma   90.00000000
_symmetry_Int_Tables_number   1
_chemical_formula_structural   K2Li2TiO4
_chemical_formula_sum   'K8 Li8 Ti4 O16'
_cell_volume   530.61767332
_cell_formula_units_Z   4
loop_
 _symmetry_equiv_pos_site_id
 _symmetry_equiv_pos_as_xyz
  1  'x, y, z'
loop_
 _atom_site_type_symbol
 _atom_site_label
 _atom_site_symmetry_multiplicity
 _atom_site_fract_x
 _atom_site_fract_y
 _atom_site_fract_z
 _atom_site_occupancy
  K  K0  1  0.316481  0.004373  0.157788  1
  K  K1  1  0.721706  0.717196  0.604753  1
  K  K2  1  0.683519  0.504373  0.342212  1
  K  K3  1  0.721706  0.782804  0.104753  1
  K  K4  1  0.278294  0.217196  0.895247  1
  K  K5  1  0.316481  0.495627  0.657788  1
  K  K6  1  0.278294  0.282804  0.395247  1
  K  K7  1  0.683519  0.995627  0.842212  1
  Li  Li8  1  0.623815  0.981304  0.425843  1
  Li  Li9  1  0.376185  0.481304  0.074157  1
  Li  Li10  1  0.892685  0.450608  0.796283  1
  Li  Li11  1  0.107315  0.950608  0.703717  1
  Li  Li12  1  0.892685  0.049392  0.296283  1
  Li  Li13  1  0.107315  0.549392  0.203717  1
  Li  Li14  1  0.623815  0.518696  0.925843  1
  Li  Li15  1  0.376185  0.018696  0.574157  1
  Ti  Ti16  1  0.119090  0.706136  0.927394  1
  Ti  Ti17  1  0.880910  0.206136  0.572606  1
  Ti  Ti18  1  0.119090  0.793864  0.427394  1
  Ti  Ti19  1  0.880910  0.293864  0.072606  1
  O  O20  1  0.209081  0.332441  0.145574  1
  O  O21  1  0.220250  0.689941  0.097330  1
  O  O22  1  0.735087  0.031444  0.615738  1
  O  O23  1  0.805111  0.403035  0.616094  1
  O  O24  1  0.779750  0.189941  0.402670  1
  O  O25  1  0.790919  0.832441  0.354426  1
  O  O26  1  0.194889  0.903035  0.883906  1
  O  O27  1  0.264913  0.531444  0.884262  1
  O  O28  1  0.735087  0.468556  0.115738  1
  O  O29  1  0.805111  0.096965  0.116094  1
  O  O30  1  0.209081  0.167559  0.645574  1
  O  O31  1  0.220250  0.810059  0.597330  1
  O  O32  1  0.194889  0.596965  0.383906  1
  O  O33  1  0.264913  0.968556  0.384262  1
  O  O34  1  0.779750  0.310059  0.902670  1
  O  O35  1  0.790919  0.667559  0.854426  1
