# generated using pymatgen
data_Tl8Os8O27
_symmetry_space_group_name_H-M   'P 1'
_cell_length_a   7.37423810
_cell_length_b   7.37423810
_cell_length_c   10.44277249
_cell_angle_alpha   90.00000000
_cell_angle_beta   90.00000000
_cell_angle_gamma   90.00000000
_symmetry_Int_Tables_number   1
_chemical_formula_structural   Tl8Os8O27
_chemical_formula_sum   'Tl8 Os8 O27'
_cell_volume   567.87157313
_cell_formula_units_Z   1
loop_
 _symmetry_equiv_pos_site_id
 _symmetry_equiv_pos_as_xyz
  1  'x, y, z'
loop_
 _atom_site_type_symbol
 _atom_site_label
 _atom_site_symmetry_multiplicity
 _atom_site_fract_x
 _atom_site_fract_y
 _atom_site_fract_z
 _atom_site_occupancy
  Tl  Tl0  1  0.000000  0.749071  0.627401  1
  Tl  Tl1  1  0.000000  0.250929  0.627401  1
  Tl  Tl2  1  0.736737  0.500000  0.882413  1
  Tl  Tl3  1  0.263263  0.500000  0.882413  1
  Tl  Tl4  1  0.500000  0.263263  0.117587  1
  Tl  Tl5  1  0.500000  0.736737  0.117587  1
  Tl  Tl6  1  0.250929  0.000000  0.372599  1
  Tl  Tl7  1  0.749071  0.000000  0.372599  1
  Os  Os8  1  0.500000  0.749755  0.623946  1
  Os  Os9  1  0.500000  0.250245  0.623946  1
  Os  Os10  1  0.749810  0.000000  0.874013  1
  Os  Os11  1  0.250190  0.000000  0.874013  1
  Os  Os12  1  0.000000  0.250190  0.125987  1
  Os  Os13  1  0.000000  0.749810  0.125987  1
  Os  Os14  1  0.749755  0.500000  0.376054  1
  Os  Os15  1  0.250245  0.500000  0.376054  1
  O  O16  1  0.500000  0.500000  0.673530  1
  O  O17  1  0.000000  0.500000  0.748453  1
  O  O18  1  0.305495  0.187459  0.746083  1
  O  O19  1  0.694505  0.812541  0.746083  1
  O  O20  1  0.305495  0.812541  0.746083  1
  O  O21  1  0.694505  0.187459  0.746083  1
  O  O22  1  0.000000  0.000000  0.799222  1
  O  O23  1  0.500000  0.000000  0.930475  1
  O  O24  1  0.183698  0.183698  0.000000  1
  O  O25  1  0.183698  0.816302  0.000000  1
  O  O26  1  0.816302  0.816302  0.000000  1
  O  O27  1  0.816302  0.183698  0.000000  1
  O  O28  1  0.000000  0.500000  0.069525  1
  O  O29  1  0.000000  0.000000  0.200778  1
  O  O30  1  0.500000  0.000000  0.251547  1
  O  O31  1  0.812541  0.305495  0.253917  1
  O  O32  1  0.187459  0.694505  0.253917  1
  O  O33  1  0.187459  0.305495  0.253917  1
  O  O34  1  0.812541  0.694505  0.253917  1
  O  O35  1  0.500000  0.500000  0.326470  1
  O  O36  1  0.000000  0.500000  0.447970  1
  O  O37  1  0.000000  0.000000  0.500000  1
  O  O38  1  0.301250  0.698750  0.500000  1
  O  O39  1  0.698750  0.698750  0.500000  1
  O  O40  1  0.301250  0.301250  0.500000  1
  O  O41  1  0.698750  0.301250  0.500000  1
  O  O42  1  0.500000  0.000000  0.552030  1
