# generated using pymatgen
data_RbHSO4
_symmetry_space_group_name_H-M   'P 1'
_cell_length_a   14.69723656
_cell_length_b   4.78317126
_cell_length_c   15.13329277
_cell_angle_alpha   90.00000000
_cell_angle_beta   119.34186683
_cell_angle_gamma   90.00000000
_symmetry_Int_Tables_number   1
_chemical_formula_structural   RbHSO4
_chemical_formula_sum   'Rb8 H8 S8 O32'
_cell_volume   927.38014951
_cell_formula_units_Z   8
loop_
 _symmetry_equiv_pos_site_id
 _symmetry_equiv_pos_as_xyz
  1  'x, y, z'
loop_
 _atom_site_type_symbol
 _atom_site_label
 _atom_site_symmetry_multiplicity
 _atom_site_fract_x
 _atom_site_fract_y
 _atom_site_fract_z
 _atom_site_occupancy
  Rb  Rb0  1  0.122433  0.939734  0.909795  1
  Rb  Rb1  1  0.122433  0.060266  0.409795  1
  Rb  Rb2  1  0.381667  0.536995  0.838921  1
  Rb  Rb3  1  0.381667  0.463005  0.338921  1
  Rb  Rb4  1  0.878995  0.320438  0.591242  1
  Rb  Rb5  1  0.878995  0.679562  0.091242  1
  Rb  Rb6  1  0.605127  0.862113  0.677206  1
  Rb  Rb7  1  0.605127  0.137887  0.177206  1
  H  H8  1  0.126851  0.369810  0.619946  1
  H  H9  1  0.126851  0.630190  0.119946  1
  H  H10  1  0.268801  0.672090  0.551995  1
  H  H11  1  0.268801  0.327910  0.051995  1
  H  H12  1  0.835134  0.058734  0.782765  1
  H  H13  1  0.835134  0.941266  0.282765  1
  H  H14  1  0.645512  0.455776  0.888817  1
  H  H15  1  0.645512  0.544224  0.388817  1
  S  S16  1  0.135236  0.935837  0.677057  1
  S  S17  1  0.135236  0.064163  0.177057  1
  S  S18  1  0.385235  0.358481  0.596365  1
  S  S19  1  0.385235  0.641519  0.096365  1
  S  S20  1  0.893528  0.464915  0.848404  1
  S  S21  1  0.893528  0.535085  0.348404  1
  S  S22  1  0.635450  0.047612  0.945508  1
  S  S23  1  0.635450  0.952388  0.445508  1
  O  O24  1  0.044144  0.864466  0.687722  1
  O  O25  1  0.044144  0.135534  0.187722  1
  O  O26  1  0.166596  0.704493  0.632556  1
  O  O27  1  0.166596  0.295507  0.132556  1
  O  O28  1  0.222464  0.048798  0.770200  1
  O  O29  1  0.222464  0.951202  0.270200  1
  O  O30  1  0.096809  0.178361  0.592665  1
  O  O31  1  0.096809  0.821639  0.092665  1
  O  O32  1  0.446519  0.299310  0.545977  1
  O  O33  1  0.446519  0.700690  0.045977  1
  O  O34  1  0.439194  0.541371  0.684575  1
  O  O35  1  0.439194  0.458629  0.184575  1
  O  O36  1  0.286881  0.547323  0.511128  1
  O  O37  1  0.286881  0.452677  0.011128  1
  O  O38  1  0.336037  0.114882  0.612814  1
  O  O39  1  0.336037  0.885118  0.112814  1
  O  O40  1  0.994201  0.451533  0.849576  1
  O  O41  1  0.994201  0.548467  0.349576  1
  O  O42  1  0.898047  0.365938  0.941130  1
  O  O43  1  0.898047  0.634062  0.441130  1
  O  O44  1  0.816859  0.257562  0.758091  1
  O  O45  1  0.816859  0.742438  0.258091  1
  O  O46  1  0.840518  0.735387  0.812282  1
  O  O47  1  0.840518  0.264613  0.312282  1
  O  O48  1  0.528347  0.063587  0.927880  1
  O  O49  1  0.528347  0.936413  0.427880  1
  O  O50  1  0.644808  0.255004  0.867772  1
  O  O51  1  0.644808  0.744996  0.367772  1
  O  O52  1  0.713695  0.132272  0.048371  1
  O  O53  1  0.713695  0.867728  0.548371  1
  O  O54  1  0.660714  0.778315  0.915239  1
  O  O55  1  0.660714  0.221685  0.415239  1
