# generated using pymatgen
data_Lu6TeO12
_symmetry_space_group_name_H-M   'P 1'
_cell_length_a   6.36562954
_cell_length_b   6.36562954
_cell_length_c   6.36562954
_cell_angle_alpha   98.92041276
_cell_angle_beta   98.92041276
_cell_angle_gamma   98.92041276
_symmetry_Int_Tables_number   1
_chemical_formula_structural   Lu6TeO12
_chemical_formula_sum   'Lu6 Te1 O12'
_cell_volume   247.46558226
_cell_formula_units_Z   1
loop_
 _symmetry_equiv_pos_site_id
 _symmetry_equiv_pos_as_xyz
  1  'x, y, z'
loop_
 _atom_site_type_symbol
 _atom_site_label
 _atom_site_symmetry_multiplicity
 _atom_site_fract_x
 _atom_site_fract_y
 _atom_site_fract_z
 _atom_site_occupancy
  Lu  Lu0  1  0.607883  0.321441  0.144729  1
  Lu  Lu1  1  0.678559  0.855271  0.392117  1
  Lu  Lu2  1  0.144729  0.607883  0.321441  1
  Lu  Lu3  1  0.855271  0.392117  0.678559  1
  Lu  Lu4  1  0.321441  0.144729  0.607883  1
  Lu  Lu5  1  0.392117  0.678559  0.855271  1
  Te  Te6  1  0.000000  0.000000  0.000000  1
  O  O7  1  0.700251  0.916132  0.040603  1
  O  O8  1  0.959397  0.299749  0.083868  1
  O  O9  1  0.426599  0.590114  0.177822  1
  O  O10  1  0.083868  0.959397  0.299749  1
  O  O11  1  0.822178  0.573401  0.409886  1
  O  O12  1  0.590114  0.177822  0.426599  1
  O  O13  1  0.409886  0.822178  0.573401  1
  O  O14  1  0.177822  0.426599  0.590114  1
  O  O15  1  0.916132  0.040603  0.700251  1
  O  O16  1  0.573401  0.409886  0.822178  1
  O  O17  1  0.040603  0.700251  0.916132  1
  O  O18  1  0.299749  0.083868  0.959397  1
