# generated using pymatgen
data_LiVF4
_symmetry_space_group_name_H-M   'P 1'
_cell_length_a   5.28975806
_cell_length_b   6.31155562
_cell_length_c   10.53770380
_cell_angle_alpha   90.00000000
_cell_angle_beta   109.71110189
_cell_angle_gamma   90.00000000
_symmetry_Int_Tables_number   1
_chemical_formula_structural   LiVF4
_chemical_formula_sum   'Li4 V4 F16'
_cell_volume   331.20341585
_cell_formula_units_Z   4
loop_
 _symmetry_equiv_pos_site_id
 _symmetry_equiv_pos_as_xyz
  1  'x, y, z'
loop_
 _atom_site_type_symbol
 _atom_site_label
 _atom_site_symmetry_multiplicity
 _atom_site_fract_x
 _atom_site_fract_y
 _atom_site_fract_z
 _atom_site_occupancy
  Li  Li0  1  0.893798  0.608798  0.080315  1
  Li  Li1  1  0.106202  0.108798  0.419685  1
  Li  Li2  1  0.893798  0.891202  0.580315  1
  Li  Li3  1  0.106202  0.391202  0.919685  1
  V  V4  1  0.505788  0.146952  0.748741  1
  V  V5  1  0.494212  0.646952  0.751259  1
  V  V6  1  0.505788  0.353048  0.248741  1
  V  V7  1  0.494212  0.853048  0.251259  1
  F  F8  1  0.150625  0.374854  0.110568  1
  F  F9  1  0.595582  0.889763  0.646193  1
  F  F10  1  0.550894  0.407879  0.644996  1
  F  F11  1  0.122773  0.829831  0.159615  1
  F  F12  1  0.877227  0.329831  0.340385  1
  F  F13  1  0.449106  0.907879  0.855004  1
  F  F14  1  0.404418  0.389763  0.853807  1
  F  F15  1  0.849375  0.874854  0.389432  1
  F  F16  1  0.150625  0.125146  0.610568  1
  F  F17  1  0.595582  0.610237  0.146193  1
  F  F18  1  0.550894  0.092121  0.144996  1
  F  F19  1  0.122773  0.670169  0.659615  1
  F  F20  1  0.877227  0.170169  0.840385  1
  F  F21  1  0.449106  0.592121  0.355004  1
  F  F22  1  0.404418  0.110237  0.353807  1
  F  F23  1  0.849375  0.625146  0.889432  1
