# generated using pymatgen
data_Li3V3P8O29
_symmetry_space_group_name_H-M   'P 1'
_cell_length_a   9.72102969
_cell_length_b   9.73752270
_cell_length_c   14.36266432
_cell_angle_alpha   89.69745237
_cell_angle_beta   89.43499264
_cell_angle_gamma   60.29453316
_symmetry_Int_Tables_number   1
_chemical_formula_structural   Li3V3P8O29
_chemical_formula_sum   'Li6 V6 P16 O58'
_cell_volume   1180.82773551
_cell_formula_units_Z   2
loop_
 _symmetry_equiv_pos_site_id
 _symmetry_equiv_pos_as_xyz
  1  'x, y, z'
loop_
 _atom_site_type_symbol
 _atom_site_label
 _atom_site_symmetry_multiplicity
 _atom_site_fract_x
 _atom_site_fract_y
 _atom_site_fract_z
 _atom_site_occupancy
  Li  Li0  1  0.231461  0.676332  0.053819  1
  Li  Li1  1  0.678529  0.092143  0.055847  1
  Li  Li2  1  0.672056  0.229179  0.561978  1
  Li  Li3  1  0.914274  0.320170  0.443773  1
  Li  Li4  1  0.019888  0.036333  0.994149  1
  Li  Li5  1  0.049616  0.924648  0.503437  1
  V  V6  1  0.433753  0.567502  0.252009  1
  V  V7  1  0.563360  0.438637  0.752967  1
  V  V8  1  0.433934  0.002234  0.748841  1
  V  V9  1  0.559726  0.997453  0.253150  1
  V  V10  1  0.003256  0.436595  0.245245  1
  V  V11  1  0.999192  0.564912  0.748067  1
  P  P12  1  0.083283  0.219745  0.835062  1
  P  P13  1  0.215411  0.084547  0.341570  1
  P  P14  1  0.081840  0.693883  0.342974  1
  P  P15  1  0.338739  0.334121  0.132907  1
  P  P16  1  0.335706  0.332638  0.632233  1
  P  P17  1  0.220508  0.688586  0.842079  1
  P  P18  1  0.308784  0.778773  0.663073  1
  P  P19  1  0.688152  0.087474  0.843908  1
  P  P20  1  0.302543  0.917344  0.157419  1
  P  P21  1  0.681133  0.227589  0.342242  1
  P  P22  1  0.777734  0.308775  0.162612  1
  P  P23  1  0.669780  0.661553  0.365986  1
  P  P24  1  0.665705  0.670161  0.865610  1
  P  P25  1  0.910796  0.312827  0.655477  1
  P  P26  1  0.783130  0.915088  0.663696  1
  P  P27  1  0.913712  0.781147  0.161323  1
  O  O28  1  0.979895  0.235246  0.564421  1
  O  O29  1  0.081596  0.261035  0.334182  1
  O  O30  1  0.208897  0.992998  0.073326  1
  O  O31  1  0.259153  0.085293  0.828727  1
  O  O32  1  0.076662  0.381463  0.825880  1
  O  O33  1  0.188817  0.335078  0.179530  1
  O  O34  1  0.077885  0.537986  0.327833  1
  O  O35  1  0.007340  0.785137  0.080212  1
  O  O36  1  0.082874  0.653759  0.830114  1
  O  O37  1  0.336716  0.185247  0.678946  1
  O  O38  1  0.379195  0.080266  0.327122  1
  O  O39  1  0.186695  0.476655  0.677791  1
  O  O40  1  0.338345  0.336209  0.029637  1
  O  O41  1  0.340200  0.327756  0.528835  1
  O  O42  1  0.330618  0.487664  0.173010  1
  O  O43  1  0.532587  0.084610  0.829578  1
  O  O44  1  0.486462  0.185870  0.175241  1
  O  O45  1  0.257183  0.655100  0.327270  1
  O  O46  1  0.206256  0.802612  0.757835  1
  O  O47  1  0.213507  0.790586  0.581067  1
  O  O48  1  0.210967  0.766803  0.932707  1
  O  O49  1  0.379021  0.530555  0.826477  1
  O  O50  1  0.486630  0.331406  0.671987  1
  O  O51  1  0.343718  0.740585  0.164536  1
  O  O52  1  0.522321  0.382195  0.324362  1
  O  O53  1  0.653582  0.084673  0.331928  1
  O  O54  1  0.198480  0.001274  0.249249  1
  O  O55  1  0.197512  0.006849  0.425564  1
  O  O56  1  0.801959  0.004504  0.584296  1
  O  O57  1  0.350366  0.913162  0.668373  1
  O  O58  1  0.463505  0.618115  0.674647  1
  O  O59  1  0.653488  0.260574  0.827894  1
  O  O60  1  0.521609  0.662849  0.319718  1
  O  O61  1  0.617746  0.463879  0.172704  1
  O  O62  1  0.793642  0.205082  0.082837  1
  O  O63  1  0.756535  0.231210  0.431921  1
  O  O64  1  0.798938  0.211142  0.258787  1
  O  O65  1  0.737189  0.344390  0.663369  1
  O  O66  1  0.521701  0.816126  0.820283  1
  O  O67  1  0.459542  0.922502  0.172766  1
  O  O68  1  0.662064  0.522740  0.819906  1
  O  O69  1  0.665573  0.665660  0.968577  1
  O  O70  1  0.666525  0.660621  0.468893  1
  O  O71  1  0.816932  0.511814  0.324654  1
  O  O72  1  0.620471  0.923473  0.671311  1
  O  O73  1  0.667123  0.811051  0.318970  1
  O  O74  1  0.914893  0.347332  0.167425  1
  O  O75  1  0.004286  0.198330  0.740568  1
  O  O76  1  0.001816  0.199793  0.917105  1
  O  O77  1  0.912567  0.468844  0.672028  1
  O  O78  1  0.814856  0.665696  0.819840  1
  O  O79  1  0.914899  0.620342  0.174104  1
  O  O80  1  0.739196  0.918263  0.161591  1
  O  O81  1  0.767298  0.026261  0.935100  1
  O  O82  1  0.806043  0.987379  0.760602  1
  O  O83  1  0.916593  0.739695  0.665780  1
  O  O84  1  0.013614  0.783279  0.429479  1
  O  O85  1  0.988049  0.804396  0.255442  1
