# generated using pymatgen
data_V3HPb5O13
_symmetry_space_group_name_H-M   'P 1'
_cell_length_a   10.36120111
_cell_length_b   10.36120111
_cell_length_c   7.56335435
_cell_angle_alpha   90.00000000
_cell_angle_beta   90.00000000
_cell_angle_gamma   120.00000000
_symmetry_Int_Tables_number   1
_chemical_formula_structural   V3HPb5O13
_chemical_formula_sum   'V6 H2 Pb10 O26'
_cell_volume   703.17801865
_cell_formula_units_Z   2
loop_
 _symmetry_equiv_pos_site_id
 _symmetry_equiv_pos_as_xyz
  1  'x, y, z'
loop_
 _atom_site_type_symbol
 _atom_site_label
 _atom_site_symmetry_multiplicity
 _atom_site_fract_x
 _atom_site_fract_y
 _atom_site_fract_z
 _atom_site_occupancy
  V  V0  1  0.399339  0.369434  0.743980  1
  V  V1  1  0.630566  0.029905  0.743980  1
  V  V2  1  0.970095  0.600661  0.743980  1
  V  V3  1  0.600661  0.630566  0.243980  1
  V  V4  1  0.369434  0.970095  0.243980  1
  V  V5  1  0.029905  0.399339  0.243980  1
  H  H6  1  0.000000  0.000000  0.936409  1
  H  H7  1  0.000000  0.000000  0.436409  1
  Pb  Pb8  1  0.333333  0.666667  0.499288  1
  Pb  Pb9  1  0.666667  0.333333  0.483334  1
  Pb  Pb10  1  0.666667  0.333333  0.999288  1
  Pb  Pb11  1  0.333333  0.666667  0.983334  1
  Pb  Pb12  1  0.251288  0.007414  0.750473  1
  Pb  Pb13  1  0.992586  0.243874  0.750473  1
  Pb  Pb14  1  0.756126  0.748712  0.750473  1
  Pb  Pb15  1  0.748712  0.992586  0.250473  1
  Pb  Pb16  1  0.007414  0.756126  0.250473  1
  Pb  Pb17  1  0.243874  0.251288  0.250473  1
  O  O18  1  0.327239  0.490704  0.747140  1
  O  O19  1  0.509296  0.836535  0.747140  1
  O  O20  1  0.163465  0.672761  0.747140  1
  O  O21  1  0.672761  0.509296  0.247140  1
  O  O22  1  0.490704  0.163465  0.247140  1
  O  O23  1  0.836535  0.327239  0.247140  1
  O  O24  1  0.595129  0.470277  0.740830  1
  O  O25  1  0.529723  0.124852  0.740830  1
  O  O26  1  0.875148  0.404871  0.740830  1
  O  O27  1  0.404871  0.529723  0.240830  1
  O  O28  1  0.470277  0.875148  0.240830  1
  O  O29  1  0.124852  0.595129  0.240830  1
  O  O30  1  0.336925  0.250003  0.561937  1
  O  O31  1  0.749997  0.086922  0.561937  1
  O  O32  1  0.913078  0.663075  0.561937  1
  O  O33  1  0.653882  0.750315  0.425522  1
  O  O34  1  0.249685  0.903567  0.425522  1
  O  O35  1  0.096433  0.346118  0.425522  1
  O  O36  1  0.663075  0.749997  0.061937  1
  O  O37  1  0.250003  0.913078  0.061937  1
  O  O38  1  0.086922  0.336925  0.061937  1
  O  O39  1  0.346118  0.249685  0.925522  1
  O  O40  1  0.750315  0.096433  0.925522  1
  O  O41  1  0.903567  0.653882  0.925522  1
  O  O42  1  0.000000  0.000000  0.807414  1
  O  O43  1  0.000000  0.000000  0.307414  1
