# generated using pymatgen
data_Sb11S18
_symmetry_space_group_name_H-M   'P 1'
_cell_length_a   6.86175361
_cell_length_b   7.73274482
_cell_length_c   15.42589301
_cell_angle_alpha   75.77083831
_cell_angle_beta   81.20405657
_cell_angle_gamma   73.48922269
_symmetry_Int_Tables_number   1
_chemical_formula_structural   Sb11S18
_chemical_formula_sum   'Sb11 S18'
_cell_volume   757.63096627
_cell_formula_units_Z   1
loop_
 _symmetry_equiv_pos_site_id
 _symmetry_equiv_pos_as_xyz
  1  'x, y, z'
loop_
 _atom_site_type_symbol
 _atom_site_label
 _atom_site_symmetry_multiplicity
 _atom_site_fract_x
 _atom_site_fract_y
 _atom_site_fract_z
 _atom_site_occupancy
  Sb  Sb0  1  0.284757  0.215543  0.922302  1
  Sb  Sb1  1  0.146997  0.866799  0.196599  1
  Sb  Sb2  1  0.525157  0.576364  0.609993  1
  Sb  Sb3  1  0.483377  0.933583  0.386221  1
  Sb  Sb4  1  0.282627  0.717681  0.920753  1
  Sb  Sb5  1  0.714932  0.291247  0.067776  1
  Sb  Sb6  1  0.152421  0.366221  0.193157  1
  Sb  Sb7  1  0.522932  0.056068  0.608944  1
  Sb  Sb8  1  0.493808  0.426830  0.393063  1
  Sb  Sb9  1  0.888182  0.125351  0.801268  1
  Sb  Sb10  1  0.721617  0.786250  0.064493  1
  S  S11  1  0.984862  0.997464  0.002627  1
  S  S12  1  0.140255  0.317805  0.774135  1
  S  S13  1  0.533717  0.422069  0.876539  1
  S  S14  1  0.198064  0.773921  0.358592  1
  S  S15  1  0.717789  0.586930  0.460463  1
  S  S16  1  0.977756  0.508331  0.005152  1
  S  S17  1  0.141677  0.832671  0.772762  1
  S  S18  1  0.286064  0.910952  0.538251  1
  S  S19  1  0.754732  0.736316  0.656491  1
  S  S20  1  0.442167  0.082876  0.127977  1
  S  S21  1  0.548532  0.918155  0.887748  1
  S  S22  1  0.200287  0.266497  0.356467  1
  S  S23  1  0.717763  0.091477  0.459626  1
  S  S24  1  0.866835  0.176123  0.221754  1
  S  S25  1  0.279880  0.410738  0.537047  1
  S  S26  1  0.799361  0.227981  0.641973  1
  S  S27  1  0.445329  0.575169  0.126364  1
  S  S28  1  0.871165  0.676288  0.223376  1
