# generated using pymatgen
data_CaGd4O7
_symmetry_space_group_name_H-M   'P 1'
_cell_length_a   7.21579971
_cell_length_b   9.20806888
_cell_length_c   11.63720145
_cell_angle_alpha   107.49542051
_cell_angle_beta   99.01404005
_cell_angle_gamma   89.94822792
_symmetry_Int_Tables_number   1
_chemical_formula_structural   CaGd4O7
_chemical_formula_sum   'Ca4 Gd16 O28'
_cell_volume   727.46506021
_cell_formula_units_Z   4
loop_
 _symmetry_equiv_pos_site_id
 _symmetry_equiv_pos_as_xyz
  1  'x, y, z'
loop_
 _atom_site_type_symbol
 _atom_site_label
 _atom_site_symmetry_multiplicity
 _atom_site_fract_x
 _atom_site_fract_y
 _atom_site_fract_z
 _atom_site_occupancy
  Ca  Ca0  1  0.289826  0.070300  0.160072  1
  Ca  Ca1  1  0.110156  0.324195  0.436391  1
  Ca  Ca2  1  0.889844  0.675805  0.563609  1
  Ca  Ca3  1  0.710174  0.929700  0.839928  1
  Gd  Gd4  1  0.019209  0.717442  0.070888  1
  Gd  Gd5  1  0.516065  0.715887  0.069782  1
  Gd  Gd6  1  0.812309  0.499317  0.240550  1
  Gd  Gd7  1  0.308605  0.496242  0.239421  1
  Gd  Gd8  1  0.789100  0.065501  0.155468  1
  Gd  Gd9  1  0.092737  0.869888  0.375435  1
  Gd  Gd10  1  0.594238  0.869279  0.373182  1
  Gd  Gd11  1  0.608858  0.326292  0.437454  1
  Gd  Gd12  1  0.391142  0.673708  0.562546  1
  Gd  Gd13  1  0.405762  0.130721  0.626818  1
  Gd  Gd14  1  0.907263  0.130112  0.624565  1
  Gd  Gd15  1  0.210900  0.934499  0.844532  1
  Gd  Gd16  1  0.187691  0.500683  0.759450  1
  Gd  Gd17  1  0.691395  0.503758  0.760579  1
  Gd  Gd18  1  0.980791  0.282558  0.929112  1
  Gd  Gd19  1  0.483935  0.284113  0.930218  1
  O  O20  1  0.250508  0.177036  0.000617  1
  O  O21  1  0.752023  0.181015  0.006491  1
  O  O22  1  0.050004  0.975455  0.216884  1
  O  O23  1  0.559251  0.978426  0.218463  1
  O  O24  1  0.026815  0.474557  0.114431  1
  O  O25  1  0.530854  0.475435  0.115069  1
  O  O26  1  0.806203  0.737599  0.230249  1
  O  O27  1  0.308743  0.737719  0.227236  1
  O  O28  1  0.334598  0.293863  0.312168  1
  O  O29  1  0.821919  0.290646  0.309452  1
  O  O30  1  0.107959  0.587350  0.399025  1
  O  O31  1  0.592908  0.580035  0.402483  1
  O  O32  1  0.872621  0.883633  0.497785  1
  O  O33  1  0.377458  0.881078  0.500700  1
  O  O34  1  0.622542  0.118922  0.499300  1
  O  O35  1  0.127379  0.116367  0.502215  1
  O  O36  1  0.892041  0.412650  0.600975  1
  O  O37  1  0.407092  0.419965  0.597517  1
  O  O38  1  0.178081  0.709354  0.690548  1
  O  O39  1  0.665402  0.706137  0.687832  1
  O  O40  1  0.691257  0.262281  0.772764  1
  O  O41  1  0.193797  0.262401  0.769751  1
  O  O42  1  0.973185  0.525443  0.885569  1
  O  O43  1  0.469146  0.524565  0.884931  1
  O  O44  1  0.949996  0.024545  0.783116  1
  O  O45  1  0.440749  0.021574  0.781537  1
  O  O46  1  0.749492  0.822964  0.999383  1
  O  O47  1  0.247977  0.818985  0.993509  1
