# generated using pymatgen
data_LiTi2Ni(PO5)2
_symmetry_space_group_name_H-M   'P 1'
_cell_length_a   7.40528900
_cell_length_b   7.42063341
_cell_length_c   9.86530897
_cell_angle_alpha   90.00000000
_cell_angle_beta   138.66406020
_cell_angle_gamma   90.00000000
_symmetry_Int_Tables_number   1
_chemical_formula_structural   LiTi2Ni(PO5)2
_chemical_formula_sum   'Li2 Ti4 Ni2 P4 O20'
_cell_volume   358.05406258
_cell_formula_units_Z   2
loop_
 _symmetry_equiv_pos_site_id
 _symmetry_equiv_pos_as_xyz
  1  'x, y, z'
loop_
 _atom_site_type_symbol
 _atom_site_label
 _atom_site_symmetry_multiplicity
 _atom_site_fract_x
 _atom_site_fract_y
 _atom_site_fract_z
 _atom_site_occupancy
  Li  Li0  1  0.500000  0.500000  0.000000  1
  Li  Li1  1  0.000000  0.000000  0.000000  1
  Ti  Ti2  1  0.415281  0.782210  0.754186  1
  Ti  Ti3  1  0.915281  0.717790  0.754186  1
  Ti  Ti4  1  0.084719  0.282210  0.245814  1
  Ti  Ti5  1  0.584719  0.217790  0.245814  1
  Ni  Ni6  1  0.000000  0.500000  0.500000  1
  Ni  Ni7  1  0.500000  0.000000  0.500000  1
  P  P8  1  0.623905  0.368790  0.749487  1
  P  P9  1  0.123905  0.131210  0.749487  1
  P  P10  1  0.876095  0.868790  0.250513  1
  P  P11  1  0.376095  0.631210  0.250513  1
  O  O12  1  0.812405  0.248171  0.943054  1
  O  O13  1  0.312405  0.251829  0.943054  1
  O  O14  1  0.636705  0.847559  0.740097  1
  O  O15  1  0.295140  0.015986  0.749205  1
  O  O16  1  0.136705  0.652441  0.740097  1
  O  O17  1  0.795140  0.484014  0.749205  1
  O  O18  1  0.442579  0.491499  0.739510  1
  O  O19  1  0.942579  0.008501  0.739510  1
  O  O20  1  0.433061  0.241823  0.560024  1
  O  O21  1  0.933061  0.258177  0.560024  1
  O  O22  1  0.066939  0.741823  0.439976  1
  O  O23  1  0.566939  0.758177  0.439976  1
  O  O24  1  0.057421  0.991499  0.260490  1
  O  O25  1  0.557421  0.508501  0.260490  1
  O  O26  1  0.204860  0.515986  0.250795  1
  O  O27  1  0.863295  0.347559  0.259903  1
  O  O28  1  0.704860  0.984014  0.250795  1
  O  O29  1  0.363295  0.152441  0.259903  1
  O  O30  1  0.687595  0.748171  0.056946  1
  O  O31  1  0.187595  0.751829  0.056946  1
