# generated using pymatgen
data_SiS2
_symmetry_space_group_name_H-M   'P 1'
_cell_length_a   5.90777808
_cell_length_b   5.90777808
_cell_length_c   5.90777808
_cell_angle_alpha   122.86123571
_cell_angle_beta   122.86123571
_cell_angle_gamma   85.11175330
_symmetry_Int_Tables_number   1
_chemical_formula_structural   SiS2
_chemical_formula_sum   'Si2 S4'
_cell_volume   138.94250559
_cell_formula_units_Z   2
loop_
 _symmetry_equiv_pos_site_id
 _symmetry_equiv_pos_as_xyz
  1  'x, y, z'
loop_
 _atom_site_type_symbol
 _atom_site_label
 _atom_site_symmetry_multiplicity
 _atom_site_fract_x
 _atom_site_fract_y
 _atom_site_fract_z
 _atom_site_occupancy
  Si  Si0  1  0.750000  0.250000  0.500000  1
  Si  Si1  1  0.000000  0.000000  0.000000  1
  S  S2  1  0.088282  0.125000  0.463282  1
  S  S3  1  0.875000  0.338282  0.963282  1
  S  S4  1  0.375000  0.911718  0.036718  1
  S  S5  1  0.661718  0.625000  0.536718  1
