# generated using pymatgen
data_H3N
_symmetry_space_group_name_H-M   'P 1'
_cell_length_a   5.33741134
_cell_length_b   5.33741134
_cell_length_c   5.33741134
_cell_angle_alpha   90.00000000
_cell_angle_beta   90.00000000
_cell_angle_gamma   90.00000000
_symmetry_Int_Tables_number   1
_chemical_formula_structural   H3N
_chemical_formula_sum   'H12 N4'
_cell_volume   152.05195976
_cell_formula_units_Z   4
loop_
 _symmetry_equiv_pos_site_id
 _symmetry_equiv_pos_as_xyz
  1  'x, y, z'
loop_
 _atom_site_type_symbol
 _atom_site_label
 _atom_site_symmetry_multiplicity
 _atom_site_fract_x
 _atom_site_fract_y
 _atom_site_fract_z
 _atom_site_occupancy
  H  H0  1  0.026403  0.504966  0.297241  1
  H  H1  1  0.995034  0.702759  0.526403  1
  H  H2  1  0.202759  0.973597  0.004966  1
  H  H3  1  0.297241  0.026403  0.504966  1
  H  H4  1  0.504966  0.297241  0.026403  1
  H  H5  1  0.473597  0.495034  0.797241  1
  H  H6  1  0.526403  0.995034  0.702759  1
  H  H7  1  0.495034  0.797241  0.473597  1
  H  H8  1  0.702759  0.526403  0.995034  1
  H  H9  1  0.797241  0.473597  0.495034  1
  H  H10  1  0.004966  0.202759  0.973597  1
  H  H11  1  0.973597  0.004966  0.202759  1
  N  N12  1  0.104725  0.104725  0.104725  1
  N  N13  1  0.395275  0.895275  0.604725  1
  N  N14  1  0.604725  0.395275  0.895275  1
  N  N15  1  0.895275  0.604725  0.395275  1
