# generated using pymatgen
data_LiFe4(BO3)4
_symmetry_space_group_name_H-M   'P 1'
_cell_length_a   5.31654630
_cell_length_b   9.01030492
_cell_length_c   11.39895158
_cell_angle_alpha   112.99920656
_cell_angle_beta   102.98083403
_cell_angle_gamma   89.79004657
_symmetry_Int_Tables_number   1
_chemical_formula_structural   LiFe4(BO3)4
_chemical_formula_sum   'Li2 Fe8 B8 O24'
_cell_volume   487.64384181
_cell_formula_units_Z   2
loop_
 _symmetry_equiv_pos_site_id
 _symmetry_equiv_pos_as_xyz
  1  'x, y, z'
loop_
 _atom_site_type_symbol
 _atom_site_label
 _atom_site_symmetry_multiplicity
 _atom_site_fract_x
 _atom_site_fract_y
 _atom_site_fract_z
 _atom_site_occupancy
  Li  Li0  1  0.398539  0.055809  0.111944  1
  Li  Li1  1  0.576743  0.916547  0.846463  1
  Fe  Fe2  1  0.601135  0.594175  0.869512  1
  Fe  Fe3  1  0.902318  0.888230  0.120678  1
  Fe  Fe4  1  0.152713  0.476998  0.621483  1
  Fe  Fe5  1  0.343655  0.015223  0.370542  1
  Fe  Fe6  1  0.660795  0.981610  0.621945  1
  Fe  Fe7  1  0.848411  0.518416  0.371162  1
  Fe  Fe8  1  0.088869  0.105218  0.874277  1
  Fe  Fe9  1  0.399686  0.400635  0.125138  1
  B  B10  1  0.350318  0.353669  0.367357  1
  B  B11  1  0.110508  0.768353  0.871561  1
  B  B12  1  0.857573  0.855635  0.374486  1
  B  B13  1  0.594361  0.265630  0.873614  1
  B  B14  1  0.147356  0.140593  0.619929  1
  B  B15  1  0.401484  0.729996  0.119994  1
  B  B16  1  0.652475  0.642037  0.627236  1
  B  B17  1  0.887278  0.229738  0.123663  1
  O  O18  1  0.867608  0.769601  0.900361  1
  O  O19  1  0.532229  0.539455  0.668072  1
  O  O20  1  0.753081  0.090904  0.103546  1
  O  O21  1  0.425702  0.204061  0.346820  1
  O  O22  1  0.145813  0.410133  0.426999  1
  O  O23  1  0.215654  0.620533  0.820063  1
  O  O24  1  0.699510  0.393193  0.861261  1
  O  O25  1  0.972456  0.953433  0.328786  1
  O  O26  1  0.308186  0.883724  0.168701  1
  O  O27  1  0.361926  0.087667  0.566962  1
  O  O28  1  0.057335  0.282391  0.625200  1
  O  O29  1  0.604321  0.718419  0.058760  1
  O  O30  1  0.395770  0.277712  0.936640  1
  O  O31  1  0.640172  0.907608  0.425771  1
  O  O32  1  0.685854  0.111827  0.820923  1
  O  O33  1  0.031012  0.043154  0.665897  1
  O  O34  1  0.300178  0.602477  0.133581  1
  O  O35  1  0.786645  0.380484  0.174275  1
  O  O36  1  0.855614  0.586398  0.567441  1
  O  O37  1  0.578248  0.793385  0.650032  1
  O  O38  1  0.948109  0.714705  0.371084  1
  O  O39  1  0.245894  0.910704  0.895991  1
  O  O40  1  0.469255  0.457079  0.326696  1
  O  O41  1  0.128367  0.226690  0.091229  1
