# generated using pymatgen
data_Li8MnFe7(BO3)8
_symmetry_space_group_name_H-M   'P 1'
_cell_length_a   5.22172182
_cell_length_b   9.06358853
_cell_length_c   10.40015203
_cell_angle_alpha   91.63205662
_cell_angle_beta   91.05173352
_cell_angle_gamma   89.99231553
_symmetry_Int_Tables_number   1
_chemical_formula_structural   Li8MnFe7(BO3)8
_chemical_formula_sum   'Li8 Mn1 Fe7 B8 O24'
_cell_volume   491.93099036
_cell_formula_units_Z   1
loop_
 _symmetry_equiv_pos_site_id
 _symmetry_equiv_pos_as_xyz
  1  'x, y, z'
loop_
 _atom_site_type_symbol
 _atom_site_label
 _atom_site_symmetry_multiplicity
 _atom_site_fract_x
 _atom_site_fract_y
 _atom_site_fract_z
 _atom_site_occupancy
  Li  Li0  1  0.849198  0.828053  0.664905  1
  Li  Li1  1  0.817050  0.836178  0.168485  1
  Li  Li2  1  0.681442  0.668553  0.415743  1
  Li  Li3  1  0.662058  0.673965  0.914859  1
  Li  Li4  1  0.346143  0.327470  0.666575  1
  Li  Li5  1  0.317709  0.336782  0.167485  1
  Li  Li6  1  0.184414  0.170370  0.414394  1
  Li  Li7  1  0.161906  0.174881  0.915173  1
  Mn  Mn8  1  0.667154  0.003002  0.884228  1
  Fe  Fe9  1  0.819789  0.501048  0.133652  1
  Fe  Fe10  1  0.841987  0.161290  0.632823  1
  Fe  Fe11  1  0.674049  0.331199  0.383852  1
  Fe  Fe12  1  0.333802  0.659523  0.634240  1
  Fe  Fe13  1  0.315540  0.999652  0.131431  1
  Fe  Fe14  1  0.182655  0.832766  0.382881  1
  Fe  Fe15  1  0.165665  0.500300  0.885584  1
  B  B16  1  0.828426  0.168047  0.128474  1
  B  B17  1  0.833637  0.500242  0.625595  1
  B  B18  1  0.668574  0.001365  0.375222  1
  B  B19  1  0.671740  0.336931  0.875115  1
  B  B20  1  0.329760  0.666851  0.126032  1
  B  B21  1  0.337725  0.000193  0.625087  1
  B  B22  1  0.165573  0.502111  0.375453  1
  B  B23  1  0.168948  0.832108  0.876537  1
  O  O24  1  0.903469  0.514200  0.345926  1
  O  O25  1  0.906002  0.821159  0.861893  1
  O  O26  1  0.821331  0.213086  0.844970  1
  O  O27  1  0.808122  0.127381  0.415193  1
  O  O28  1  0.787775  0.866882  0.362191  1
  O  O29  1  0.787986  0.468604  0.916780  1
  O  O30  1  0.720230  0.637692  0.613076  1
  O  O31  1  0.707675  0.033172  0.099399  1
  O  O32  1  0.691901  0.372121  0.596683  1
  O  O33  1  0.686845  0.291561  0.165391  1
  O  O34  1  0.593795  0.678476  0.114228  1
  O  O35  1  0.594067  0.991406  0.664476  1
  O  O36  1  0.404705  0.014414  0.347177  1
  O  O37  1  0.407523  0.327810  0.862262  1
  O  O38  1  0.322643  0.710053  0.846084  1
  O  O39  1  0.304577  0.626756  0.416770  1
  O  O40  1  0.288070  0.367610  0.361559  1
  O  O41  1  0.279939  0.965716  0.919001  1
  O  O42  1  0.210219  0.531770  0.095993  1
  O  O43  1  0.221508  0.137653  0.613068  1
  O  O44  1  0.197443  0.872651  0.596322  1
  O  O45  1  0.186854  0.789193  0.165267  1
  O  O46  1  0.092529  0.178923  0.115349  1
  O  O47  1  0.090451  0.489431  0.664715  1
