# generated using pymatgen
data_Li2MnF6
_symmetry_space_group_name_H-M   'P 1'
_cell_length_a   5.08279013
_cell_length_b   5.22130196
_cell_length_c   9.07257950
_cell_angle_alpha   90.00000000
_cell_angle_beta   124.12258834
_cell_angle_gamma   90.00000000
_symmetry_Int_Tables_number   1
_chemical_formula_structural   Li2MnF6
_chemical_formula_sum   'Li4 Mn2 F12'
_cell_volume   199.32316788
_cell_formula_units_Z   2
loop_
 _symmetry_equiv_pos_site_id
 _symmetry_equiv_pos_as_xyz
  1  'x, y, z'
loop_
 _atom_site_type_symbol
 _atom_site_label
 _atom_site_symmetry_multiplicity
 _atom_site_fract_x
 _atom_site_fract_y
 _atom_site_fract_z
 _atom_site_occupancy
  Li  Li0  1  0.505104  0.261929  0.500028  1
  Li  Li1  1  0.743804  0.205777  0.241824  1
  Li  Li2  1  0.505104  0.738071  0.000028  1
  Li  Li3  1  0.743804  0.794223  0.741824  1
  Mn  Mn4  1  0.001552  0.249635  0.000097  1
  Mn  Mn5  1  0.001552  0.750365  0.500097  1
  F  F6  1  0.104535  0.302682  0.229885  1
  F  F7  1  0.777972  0.556673  0.927355  1
  F  F8  1  0.369602  0.580313  0.558641  1
  F  F9  1  0.653008  0.069150  0.953845  1
  F  F10  1  0.239083  0.043651  0.567919  1
  F  F11  1  0.872916  0.820074  0.269822  1
  F  F12  1  0.104535  0.697318  0.729885  1
  F  F13  1  0.777972  0.443327  0.427355  1
  F  F14  1  0.369602  0.419687  0.058641  1
  F  F15  1  0.653008  0.930850  0.453845  1
  F  F16  1  0.239083  0.956349  0.067919  1
  F  F17  1  0.872916  0.179926  0.769822  1
