# generated using pymatgen
data_Li3Fe(BO3)2
_symmetry_space_group_name_H-M   'P 1'
_cell_length_a   5.19323695
_cell_length_b   8.91462804
_cell_length_c   11.04087779
_cell_angle_alpha   90.00000000
_cell_angle_beta   117.01395711
_cell_angle_gamma   90.00000000
_symmetry_Int_Tables_number   1
_chemical_formula_structural   Li3Fe(BO3)2
_chemical_formula_sum   'Li12 Fe4 B8 O24'
_cell_volume   455.37788088
_cell_formula_units_Z   4
loop_
 _symmetry_equiv_pos_site_id
 _symmetry_equiv_pos_as_xyz
  1  'x, y, z'
loop_
 _atom_site_type_symbol
 _atom_site_label
 _atom_site_symmetry_multiplicity
 _atom_site_fract_x
 _atom_site_fract_y
 _atom_site_fract_z
 _atom_site_occupancy
  Li  Li0  1  0.510375  0.976047  0.667318  1
  Li  Li1  1  0.450478  0.658124  0.619719  1
  Li  Li2  1  0.925244  0.987942  0.101337  1
  Li  Li3  1  0.549522  0.158124  0.880281  1
  Li  Li4  1  0.074756  0.487942  0.398663  1
  Li  Li5  1  0.489625  0.476047  0.832682  1
  Li  Li6  1  0.510375  0.523953  0.167318  1
  Li  Li7  1  0.925244  0.512058  0.601337  1
  Li  Li8  1  0.450478  0.841876  0.119719  1
  Li  Li9  1  0.074756  0.012058  0.898663  1
  Li  Li10  1  0.549522  0.341876  0.380281  1
  Li  Li11  1  0.489625  0.023953  0.332682  1
  Fe  Fe12  1  0.972800  0.326842  0.123522  1
  Fe  Fe13  1  0.027200  0.826842  0.376478  1
  Fe  Fe14  1  0.972800  0.173158  0.623522  1
  Fe  Fe15  1  0.027200  0.673158  0.876478  1
  B  B16  1  0.453014  0.323338  0.620460  1
  B  B17  1  0.966371  0.664416  0.129903  1
  B  B18  1  0.546986  0.823338  0.879540  1
  B  B19  1  0.033629  0.164416  0.370097  1
  B  B20  1  0.966371  0.835584  0.629903  1
  B  B21  1  0.453014  0.176662  0.120460  1
  B  B22  1  0.033629  0.335584  0.870097  1
  B  B23  1  0.546986  0.676662  0.379540  1
  O  O24  1  0.824261  0.327898  0.916320  1
  O  O25  1  0.310096  0.667709  0.407285  1
  O  O26  1  0.696611  0.950330  0.880340  1
  O  O27  1  0.148169  0.026560  0.360528  1
  O  O28  1  0.129185  0.292948  0.330978  1
  O  O29  1  0.627359  0.682810  0.850420  1
  O  O30  1  0.372641  0.182810  0.649580  1
  O  O31  1  0.870815  0.792948  0.169022  1
  O  O32  1  0.851831  0.526560  0.139472  1
  O  O33  1  0.303389  0.450330  0.619660  1
  O  O34  1  0.175739  0.827898  0.583680  1
  O  O35  1  0.689904  0.167709  0.092715  1
  O  O36  1  0.310096  0.832291  0.907285  1
  O  O37  1  0.824261  0.172102  0.416320  1
  O  O38  1  0.696611  0.549670  0.380340  1
  O  O39  1  0.148169  0.473440  0.860528  1
  O  O40  1  0.129185  0.207052  0.830978  1
  O  O41  1  0.627359  0.817190  0.350420  1
  O  O42  1  0.372641  0.317190  0.149580  1
  O  O43  1  0.870815  0.707052  0.669022  1
  O  O44  1  0.851831  0.973440  0.639472  1
  O  O45  1  0.303389  0.049670  0.119660  1
  O  O46  1  0.689904  0.332291  0.592715  1
  O  O47  1  0.175739  0.672102  0.083680  1
