# generated using pymatgen
data_Li2VF5
_symmetry_space_group_name_H-M   'P 1'
_cell_length_a   5.51035915
_cell_length_b   7.42054482
_cell_length_c   19.25321132
_cell_angle_alpha   90.00000000
_cell_angle_beta   90.00000000
_cell_angle_gamma   90.00000000
_symmetry_Int_Tables_number   1
_chemical_formula_structural   Li2VF5
_chemical_formula_sum   'Li16 V8 F40'
_cell_volume   787.26125110
_cell_formula_units_Z   8
loop_
 _symmetry_equiv_pos_site_id
 _symmetry_equiv_pos_as_xyz
  1  'x, y, z'
loop_
 _atom_site_type_symbol
 _atom_site_label
 _atom_site_symmetry_multiplicity
 _atom_site_fract_x
 _atom_site_fract_y
 _atom_site_fract_z
 _atom_site_occupancy
  Li  Li0  1  0.500000  0.101041  0.656327  1
  Li  Li1  1  0.000000  0.230718  0.084824  1
  Li  Li2  1  0.000000  0.272510  0.734796  1
  Li  Li3  1  0.500000  0.182654  0.518482  1
  Li  Li4  1  0.500000  0.317346  0.018482  1
  Li  Li5  1  0.000000  0.227490  0.234796  1
  Li  Li6  1  0.000000  0.269282  0.584824  1
  Li  Li7  1  0.500000  0.398959  0.156327  1
  Li  Li8  1  0.500000  0.601041  0.843673  1
  Li  Li9  1  0.000000  0.730718  0.415176  1
  Li  Li10  1  0.000000  0.772510  0.765204  1
  Li  Li11  1  0.500000  0.682654  0.981518  1
  Li  Li12  1  0.500000  0.817346  0.481518  1
  Li  Li13  1  0.000000  0.727490  0.265204  1
  Li  Li14  1  0.000000  0.769282  0.915176  1
  Li  Li15  1  0.500000  0.898959  0.343673  1
  V  V16  1  0.500000  0.999223  0.846147  1
  V  V17  1  0.000000  0.141240  0.397002  1
  V  V18  1  0.000000  0.358760  0.897002  1
  V  V19  1  0.500000  0.500777  0.346147  1
  V  V20  1  0.500000  0.499223  0.653853  1
  V  V21  1  0.000000  0.641240  0.102998  1
  V  V22  1  0.000000  0.858760  0.602998  1
  V  V23  1  0.500000  0.000777  0.153853  1
  F  F24  1  0.000000  0.032820  0.303727  1
  F  F25  1  0.261010  0.032568  0.574778  1
  F  F26  1  0.738990  0.032568  0.574778  1
  F  F27  1  0.500000  0.090668  0.059496  1
  F  F28  1  0.756673  0.189390  0.165533  1
  F  F29  1  0.243327  0.189390  0.165533  1
  F  F30  1  0.500000  0.038708  0.748335  1
  F  F31  1  0.250789  0.188550  0.861575  1
  F  F32  1  0.749211  0.188550  0.861575  1
  F  F33  1  0.000000  0.235024  0.984971  1
  F  F34  1  0.000000  0.264976  0.484971  1
  F  F35  1  0.250789  0.311450  0.361575  1
  F  F36  1  0.749211  0.311450  0.361575  1
  F  F37  1  0.500000  0.461292  0.248335  1
  F  F38  1  0.243327  0.310610  0.665533  1
  F  F39  1  0.756673  0.310610  0.665533  1
  F  F40  1  0.500000  0.409332  0.559496  1
  F  F41  1  0.261010  0.467432  0.074778  1
  F  F42  1  0.738990  0.467432  0.074778  1
  F  F43  1  0.000000  0.467180  0.803727  1
  F  F44  1  0.000000  0.532820  0.196273  1
  F  F45  1  0.261010  0.532568  0.925222  1
  F  F46  1  0.738990  0.532568  0.925222  1
  F  F47  1  0.500000  0.590668  0.440504  1
  F  F48  1  0.243327  0.689390  0.334467  1
  F  F49  1  0.756673  0.689390  0.334467  1
  F  F50  1  0.500000  0.538708  0.751665  1
  F  F51  1  0.250789  0.688550  0.638425  1
  F  F52  1  0.749211  0.688550  0.638425  1
  F  F53  1  0.000000  0.735024  0.515029  1
  F  F54  1  0.000000  0.764976  0.015029  1
  F  F55  1  0.250789  0.811450  0.138425  1
  F  F56  1  0.749211  0.811450  0.138425  1
  F  F57  1  0.500000  0.961292  0.251665  1
  F  F58  1  0.243327  0.810610  0.834467  1
  F  F59  1  0.756673  0.810610  0.834467  1
  F  F60  1  0.500000  0.909332  0.940504  1
  F  F61  1  0.261010  0.967432  0.425222  1
  F  F62  1  0.738990  0.967432  0.425222  1
  F  F63  1  0.000000  0.967180  0.696273  1
