# generated using pymatgen
data_LiVBO4
_symmetry_space_group_name_H-M   'P 1'
_cell_length_a   8.20472664
_cell_length_b   8.20472664
_cell_length_c   8.20472664
_cell_angle_alpha   107.61398442
_cell_angle_beta   107.61398442
_cell_angle_gamma   107.61398442
_symmetry_Int_Tables_number   1
_chemical_formula_structural   LiVBO4
_chemical_formula_sum   'Li6 V6 B6 O24'
_cell_volume   452.05372597
_cell_formula_units_Z   6
loop_
 _symmetry_equiv_pos_site_id
 _symmetry_equiv_pos_as_xyz
  1  'x, y, z'
loop_
 _atom_site_type_symbol
 _atom_site_label
 _atom_site_symmetry_multiplicity
 _atom_site_fract_x
 _atom_site_fract_y
 _atom_site_fract_z
 _atom_site_occupancy
  Li  Li0  1  0.758005  0.942481  0.546570  1
  Li  Li1  1  0.055196  0.454531  0.221545  1
  Li  Li2  1  0.454531  0.221545  0.055196  1
  Li  Li3  1  0.546570  0.758005  0.942481  1
  Li  Li4  1  0.942481  0.546570  0.758005  1
  Li  Li5  1  0.221545  0.055196  0.454531  1
  V  V6  1  0.279261  0.868218  0.104494  1
  V  V7  1  0.385496  0.788761  0.573513  1
  V  V8  1  0.788761  0.573513  0.385496  1
  V  V9  1  0.868218  0.104494  0.279261  1
  V  V10  1  0.573513  0.385496  0.788761  1
  V  V11  1  0.104494  0.279261  0.868218  1
  B  B12  1  0.904059  0.720915  0.128615  1
  B  B13  1  0.426357  0.616637  0.213653  1
  B  B14  1  0.128615  0.904059  0.720915  1
  B  B15  1  0.213653  0.426357  0.616637  1
  B  B16  1  0.616637  0.213653  0.426357  1
  B  B17  1  0.720915  0.128615  0.904059  1
  O  O18  1  0.037267  0.709595  0.039746  1
  O  O19  1  0.959098  0.923088  0.250167  1
  O  O20  1  0.423861  0.736436  0.109017  1
  O  O21  1  0.340165  0.412762  0.074169  1
  O  O22  1  0.619796  0.676667  0.354017  1
  O  O23  1  0.917037  0.611369  0.244431  1
  O  O24  1  0.244431  0.917037  0.611369  1
  O  O25  1  0.311854  0.647420  0.322122  1
  O  O26  1  0.629815  0.974765  0.709634  1
  O  O27  1  0.974765  0.709634  0.629815  1
  O  O28  1  0.647420  0.322122  0.311854  1
  O  O29  1  0.250167  0.959098  0.923088  1
  O  O30  1  0.354017  0.619796  0.676667  1
  O  O31  1  0.709595  0.039746  0.037267  1
  O  O32  1  0.074169  0.340165  0.412762  1
  O  O33  1  0.412762  0.074169  0.340165  1
  O  O34  1  0.736436  0.109017  0.423861  1
  O  O35  1  0.676667  0.354017  0.619796  1
  O  O36  1  0.322122  0.311854  0.647420  1
  O  O37  1  0.709634  0.629815  0.974765  1
  O  O38  1  0.109017  0.423861  0.736436  1
  O  O39  1  0.611369  0.244431  0.917037  1
  O  O40  1  0.039746  0.037267  0.709595  1
  O  O41  1  0.923088  0.250167  0.959098  1
