# generated using pymatgen
data_LiCa2Nb3O10
_symmetry_space_group_name_H-M   'P 1'
_cell_length_a   5.53906596
_cell_length_b   5.55501745
_cell_length_c   27.48011298
_cell_angle_alpha   90.00000000
_cell_angle_beta   90.44910252
_cell_angle_gamma   90.00000000
_symmetry_Int_Tables_number   1
_chemical_formula_structural   LiCa2Nb3O10
_chemical_formula_sum   'Li4 Ca8 Nb12 O40'
_cell_volume   845.52632975
_cell_formula_units_Z   4
loop_
 _symmetry_equiv_pos_site_id
 _symmetry_equiv_pos_as_xyz
  1  'x, y, z'
loop_
 _atom_site_type_symbol
 _atom_site_label
 _atom_site_symmetry_multiplicity
 _atom_site_fract_x
 _atom_site_fract_y
 _atom_site_fract_z
 _atom_site_occupancy
  Li  Li0  1  0.250905  0.005099  0.250860  1
  Li  Li1  1  0.249409  0.505236  0.239514  1
  Li  Li2  1  0.249409  0.494764  0.739514  1
  Li  Li3  1  0.250905  0.994901  0.750860  1
  Ca  Ca4  1  0.989893  0.240278  0.415675  1
  Ca  Ca5  1  0.989893  0.759722  0.915675  1
  Ca  Ca6  1  0.514163  0.767764  0.419290  1
  Ca  Ca7  1  0.483703  0.267111  0.079719  1
  Ca  Ca8  1  0.514163  0.232236  0.919290  1
  Ca  Ca9  1  0.483703  0.732889  0.579719  1
  Ca  Ca10  1  0.011487  0.739504  0.083518  1
  Ca  Ca11  1  0.011487  0.260496  0.583518  1
  Nb  Nb12  1  0.993652  0.248215  0.156009  1
  Nb  Nb13  1  0.999694  0.749668  0.499936  1
  Nb  Nb14  1  0.993652  0.751785  0.656009  1
  Nb  Nb15  1  0.999694  0.250332  0.999936  1
  Nb  Nb16  1  0.503015  0.760796  0.156015  1
  Nb  Nb17  1  0.503015  0.239204  0.656015  1
  Nb  Nb18  1  0.499565  0.249930  0.499958  1
  Nb  Nb19  1  0.496988  0.258940  0.343403  1
  Nb  Nb20  1  0.499565  0.750070  0.999958  1
  Nb  Nb21  1  0.496988  0.741060  0.843403  1
  Nb  Nb22  1  0.005779  0.751903  0.343259  1
  Nb  Nb23  1  0.005779  0.248097  0.843259  1
  O  O24  1  0.002864  0.213355  0.220993  1
  O  O25  1  0.002864  0.786645  0.720993  1
  O  O26  1  0.952502  0.812965  0.430193  1
  O  O27  1  0.952502  0.187035  0.930193  1
  O  O28  1  0.810843  0.940181  0.016831  1
  O  O29  1  0.810843  0.059819  0.516831  1
  O  O30  1  0.752960  0.505319  0.359494  1
  O  O31  1  0.748001  0.505825  0.139631  1
  O  O32  1  0.751274  0.005180  0.346364  1
  O  O33  1  0.745849  0.006507  0.131458  1
  O  O34  1  0.752960  0.494681  0.859494  1
  O  O35  1  0.748001  0.494175  0.639631  1
  O  O36  1  0.751274  0.994820  0.846364  1
  O  O37  1  0.745849  0.993493  0.631458  1
  O  O38  1  0.682457  0.567898  0.500219  1
  O  O39  1  0.682457  0.432102  0.000219  1
  O  O40  1  0.561435  0.204516  0.430258  1
  O  O41  1  0.561435  0.795484  0.930258  1
  O  O42  1  0.496230  0.795779  0.220993  1
  O  O43  1  0.496230  0.204221  0.720993  1
  O  O44  1  0.430379  0.280390  0.279251  1
  O  O45  1  0.430379  0.719610  0.779251  1
  O  O46  1  0.436093  0.700415  0.069925  1
  O  O47  1  0.436093  0.299585  0.569925  1
  O  O48  1  0.317990  0.932729  0.500162  1
  O  O49  1  0.317990  0.067271  0.000162  1
  O  O50  1  0.253562  0.506649  0.369089  1
  O  O51  1  0.248134  0.504917  0.155631  1
  O  O52  1  0.252291  0.005989  0.361974  1
  O  O53  1  0.246765  0.004916  0.137074  1
  O  O54  1  0.253562  0.493351  0.869089  1
  O  O55  1  0.248134  0.495083  0.655631  1
  O  O56  1  0.252291  0.994011  0.861974  1
  O  O57  1  0.246765  0.995084  0.637074  1
  O  O58  1  0.188222  0.439002  0.483491  1
  O  O59  1  0.188222  0.560998  0.983491  1
  O  O60  1  0.052106  0.315784  0.069909  1
  O  O61  1  0.052106  0.684216  0.569909  1
  O  O62  1  0.069799  0.730949  0.279230  1
  O  O63  1  0.069799  0.269051  0.779230  1
