# generated using pymatgen
data_Li3VFe3O8
_symmetry_space_group_name_H-M   'P 1'
_cell_length_a   5.97326463
_cell_length_b   5.97326463
_cell_length_c   5.99246855
_cell_angle_alpha   60.25905725
_cell_angle_beta   119.74094275
_cell_angle_gamma   120.62497392
_symmetry_Int_Tables_number   1
_chemical_formula_structural   Li3VFe3O8
_chemical_formula_sum   'Li3 V1 Fe3 O8'
_cell_volume   151.04095599
_cell_formula_units_Z   1
loop_
 _symmetry_equiv_pos_site_id
 _symmetry_equiv_pos_as_xyz
  1  'x, y, z'
loop_
 _atom_site_type_symbol
 _atom_site_label
 _atom_site_symmetry_multiplicity
 _atom_site_fract_x
 _atom_site_fract_y
 _atom_site_fract_z
 _atom_site_occupancy
  Li  Li0  1  0.500000  1.000000  0.500000  1
  Li  Li1  1  1.000000  0.500000  0.500000  1
  Li  Li2  1  0.500000  0.500000  0.500000  1
  V  V3  1  0.000000  0.000000  0.000000  1
  Fe  Fe4  1  0.500000  0.500000  0.000000  1
  Fe  Fe5  1  0.000000  0.500000  0.000000  1
  Fe  Fe6  1  0.500000  1.000000  0.000000  1
  O  O7  1  0.255179  0.238696  0.780360  1
  O  O8  1  0.761304  0.744821  0.780360  1
  O  O9  1  0.265649  0.734351  0.785399  1
  O  O10  1  0.760667  0.239333  0.771222  1
  O  O11  1  0.239333  0.760667  0.228778  1
  O  O12  1  0.734351  0.265649  0.214601  1
  O  O13  1  0.238696  0.255179  0.219640  1
  O  O14  1  0.744821  0.761304  0.219640  1
