# generated using pymatgen
data_Li3Sn2(PO4)3
_symmetry_space_group_name_H-M   'P 1'
_cell_length_a   9.01282077
_cell_length_b   9.35433618
_cell_length_c   16.29934003
_cell_angle_alpha   86.99900627
_cell_angle_beta   106.01227888
_cell_angle_gamma   118.76806834
_symmetry_Int_Tables_number   1
_chemical_formula_structural   Li3Sn2(PO4)3
_chemical_formula_sum   'Li12 Sn8 P12 O48'
_cell_volume   1152.55442830
_cell_formula_units_Z   4
loop_
 _symmetry_equiv_pos_site_id
 _symmetry_equiv_pos_as_xyz
  1  'x, y, z'
loop_
 _atom_site_type_symbol
 _atom_site_label
 _atom_site_symmetry_multiplicity
 _atom_site_fract_x
 _atom_site_fract_y
 _atom_site_fract_z
 _atom_site_occupancy
  Li  Li0  1  0.322868  0.447029  0.341875  1
  Li  Li1  1  0.765110  0.667052  0.964880  1
  Li  Li2  1  0.571562  0.753883  0.249919  1
  Li  Li3  1  0.133995  0.834367  0.534019  1
  Li  Li4  1  0.521998  0.052936  0.155822  1
  Li  Li5  1  0.508091  0.005380  0.499532  1
  Li  Li6  1  0.474778  0.947307  0.844169  1
  Li  Li7  1  0.868899  0.168718  0.463995  1
  Li  Li8  1  0.431035  0.248841  0.749686  1
  Li  Li9  1  0.235309  0.333915  0.033851  1
  Li  Li10  1  0.683813  0.551147  0.656086  1
  Li  Li11  1  0.997279  0.495283  0.003986  1
  Sn  Sn12  1  0.283850  0.547755  0.529325  1
  Sn  Sn13  1  0.224212  0.516199  0.835891  1
  Sn  Sn14  1  0.872070  0.984432  0.663409  1
  Sn  Sn15  1  0.207862  0.952906  0.969490  1
  Sn  Sn16  1  0.793151  0.046414  0.029696  1
  Sn  Sn17  1  0.127407  0.015435  0.336195  1
  Sn  Sn18  1  0.775797  0.484034  0.163173  1
  Sn  Sn19  1  0.715317  0.453724  0.470392  1
  P  P20  1  0.047036  0.639184  0.381389  1
  P  P21  1  0.445757  0.763530  0.676675  1
  P  P22  1  0.412223  0.741722  0.047962  1
  P  P23  1  0.621616  0.759052  0.451033  1
  P  P24  1  0.006037  0.736668  0.822498  1
  P  P25  1  0.027377  0.860343  0.117941  1
  P  P26  1  0.973651  0.139713  0.881873  1
  P  P27  1  0.994566  0.263372  0.176347  1
  P  P28  1  0.378064  0.242117  0.548472  1
  P  P29  1  0.588817  0.258524  0.951601  1
  P  P30  1  0.553557  0.237494  0.323108  1
  P  P31  1  0.950613  0.360438  0.617906  1
  O  O32  1  0.121291  0.270621  0.261652  1
  O  O33  1  0.054175  0.237799  0.096758  1
  O  O34  1  0.023197  0.319542  0.897356  1
  O  O35  1  0.049633  0.371418  0.548885  1
  O  O36  1  0.316785  0.360792  0.491661  1
  O  O37  1  0.081075  0.408954  0.706260  1
  O  O38  1  0.131070  0.524060  0.403744  1
  O  O39  1  0.458300  0.605199  0.655229  1
  O  O40  1  0.369823  0.565487  0.033489  1
  O  O41  1  0.024486  0.581113  0.829394  1
  O  O42  1  0.492679  0.814968  0.141689  1
  O  O43  1  0.409812  0.769918  0.761622  1
  O  O44  1  0.478696  0.753922  0.491015  1
  O  O45  1  0.282092  0.739323  0.596924  1
  O  O46  1  0.234698  0.746975  0.007331  1
  O  O47  1  0.192681  0.819816  0.396502  1
  O  O48  1  0.537623  0.685972  0.357306  1
  O  O49  1  0.869602  0.869858  0.048912  1
  O  O50  1  0.613020  0.918266  0.669506  1
  O  O51  1  0.536168  0.859911  0.991300  1
  O  O52  1  0.033679  0.910159  0.206295  1
  O  O53  1  0.768845  0.936382  0.465224  1
  O  O54  1  0.204236  0.975727  0.095526  1
  O  O55  1  0.198510  0.894300  0.843645  1
  O  O56  1  0.802418  0.105587  0.155458  1
  O  O57  1  0.796455  0.023608  0.903866  1
  O  O58  1  0.229014  0.066033  0.534472  1
  O  O59  1  0.966923  0.089961  0.793226  1
  O  O60  1  0.465042  0.140643  0.008402  1
  O  O61  1  0.387193  0.081781  0.330506  1
  O  O62  1  0.131099  0.129181  0.950581  1
  O  O63  1  0.465198  0.315079  0.642069  1
  O  O64  1  0.803964  0.180406  0.602172  1
  O  O65  1  0.766054  0.252241  0.991873  1
  O  O66  1  0.717711  0.262454  0.402698  1
  O  O67  1  0.519524  0.246070  0.507453  1
  O  O68  1  0.589048  0.231721  0.237860  1
  O  O69  1  0.506824  0.185219  0.857917  1
  O  O70  1  0.975674  0.418780  0.167717  1
  O  O71  1  0.633985  0.435381  0.966224  1
  O  O72  1  0.539794  0.394971  0.344460  1
  O  O73  1  0.866872  0.476445  0.596106  1
  O  O74  1  0.916469  0.590033  0.292912  1
  O  O75  1  0.684541  0.641786  0.508275  1
  O  O76  1  0.948560  0.629221  0.450471  1
  O  O77  1  0.978349  0.680074  0.103147  1
  O  O78  1  0.946894  0.761818  0.902248  1
  O  O79  1  0.878960  0.730585  0.737413  1
