# generated using pymatgen
data_V3(OF3)2
_symmetry_space_group_name_H-M   'P 1'
_cell_length_a   5.19876087
_cell_length_b   7.19950996
_cell_length_c   7.63119102
_cell_angle_alpha   101.33639009
_cell_angle_beta   90.89760718
_cell_angle_gamma   90.32740340
_symmetry_Int_Tables_number   1
_chemical_formula_structural   V3(OF3)2
_chemical_formula_sum   'V6 O4 F12'
_cell_volume   280.00610985
_cell_formula_units_Z   2
loop_
 _symmetry_equiv_pos_site_id
 _symmetry_equiv_pos_as_xyz
  1  'x, y, z'
loop_
 _atom_site_type_symbol
 _atom_site_label
 _atom_site_symmetry_multiplicity
 _atom_site_fract_x
 _atom_site_fract_y
 _atom_site_fract_z
 _atom_site_occupancy
  V  V0  1  0.720262  0.339159  0.182485  1
  V  V1  1  0.259268  0.676375  0.312158  1
  V  V2  1  0.236755  0.171148  0.324068  1
  V  V3  1  0.763245  0.828852  0.675932  1
  V  V4  1  0.740732  0.323625  0.687842  1
  V  V5  1  0.279738  0.660841  0.817515  1
  O  O6  1  0.151082  0.941699  0.325646  1
  O  O7  1  0.397040  0.422903  0.299930  1
  O  O8  1  0.602960  0.577097  0.700070  1
  O  O9  1  0.848918  0.058301  0.674354  1
  F  F10  1  0.393983  0.677776  0.068378  1
  F  F11  1  0.036755  0.193312  0.108288  1
  F  F12  1  0.923929  0.572533  0.199857  1
  F  F13  1  0.553185  0.091738  0.191574  1
  F  F14  1  0.582006  0.786620  0.442246  1
  F  F15  1  0.909728  0.310232  0.432892  1
  F  F16  1  0.090272  0.689768  0.567108  1
  F  F17  1  0.417994  0.213380  0.557754  1
  F  F18  1  0.446815  0.908262  0.808426  1
  F  F19  1  0.076071  0.427467  0.800143  1
  F  F20  1  0.963245  0.806688  0.891712  1
  F  F21  1  0.606017  0.322224  0.931622  1
