# generated using pymatgen
data_Mn3(O2F)2
_symmetry_space_group_name_H-M   'P 1'
_cell_length_a   5.51418895
_cell_length_b   5.51418895
_cell_length_c   7.60519769
_cell_angle_alpha   69.99804117
_cell_angle_beta   110.00195883
_cell_angle_gamma   110.53040145
_symmetry_Int_Tables_number   1
_chemical_formula_structural   Mn3(O2F)2
_chemical_formula_sum   'Mn6 O8 F4'
_cell_volume   196.90839966
_cell_formula_units_Z   2
loop_
 _symmetry_equiv_pos_site_id
 _symmetry_equiv_pos_as_xyz
  1  'x, y, z'
loop_
 _atom_site_type_symbol
 _atom_site_label
 _atom_site_symmetry_multiplicity
 _atom_site_fract_x
 _atom_site_fract_y
 _atom_site_fract_z
 _atom_site_occupancy
  Mn  Mn0  1  0.662799  0.337201  0.171892  1
  Mn  Mn1  1  1.000000  1.000000  0.000000  1
  Mn  Mn2  1  0.684184  0.315816  0.652890  1
  Mn  Mn3  1  1.000000  1.000000  0.500000  1
  Mn  Mn4  1  0.337201  0.662799  0.828108  1
  Mn  Mn5  1  0.315816  0.684184  0.347110  1
  O  O6  1  0.301939  0.301939  0.000000  1
  O  O7  1  0.979414  0.632634  0.656348  1
  O  O8  1  0.089695  0.910305  0.288652  1
  O  O9  1  0.910305  0.089695  0.711348  1
  O  O10  1  0.367366  0.020586  0.656348  1
  O  O11  1  0.698061  0.698061  0.000000  1
  O  O12  1  0.020586  0.367366  0.343652  1
  O  O13  1  0.632634  0.979414  0.343652  1
  F  F14  1  0.462989  0.537011  0.643673  1
  F  F15  1  0.781673  0.218327  0.968182  1
  F  F16  1  0.218327  0.781673  0.031818  1
  F  F17  1  0.537011  0.462989  0.356327  1
