# generated using pymatgen
data_Li8Mn6(FeO6)3
_symmetry_space_group_name_H-M   'P 1'
_cell_length_a   8.96609062
_cell_length_b   8.96609062
_cell_length_c   10.16524033
_cell_angle_alpha   88.70768733
_cell_angle_beta   91.29231267
_cell_angle_gamma   59.49653564
_symmetry_Int_Tables_number   1
_chemical_formula_structural   Li8Mn6(FeO6)3
_chemical_formula_sum   'Li16 Mn12 Fe6 O36'
_cell_volume   703.36335673
_cell_formula_units_Z   2
loop_
 _symmetry_equiv_pos_site_id
 _symmetry_equiv_pos_as_xyz
  1  'x, y, z'
loop_
 _atom_site_type_symbol
 _atom_site_label
 _atom_site_symmetry_multiplicity
 _atom_site_fract_x
 _atom_site_fract_y
 _atom_site_fract_z
 _atom_site_occupancy
  Li  Li0  1  0.259175  0.325019  0.245420  1
  Li  Li1  1  0.912656  0.361104  0.230806  1
  Li  Li2  1  0.567089  0.391399  0.219996  1
  Li  Li3  1  0.961090  0.414641  0.721010  1
  Li  Li4  1  0.608601  0.432911  0.719996  1
  Li  Li5  1  0.093725  0.614147  0.773384  1
  Li  Li6  1  0.231035  0.704942  0.228300  1
  Li  Li7  1  0.674981  0.740825  0.745420  1
  Li  Li8  1  0.896444  0.704610  0.229059  1
  Li  Li9  1  0.295058  0.768965  0.728300  1
  Li  Li10  1  0.385853  0.906275  0.273384  1
  Li  Li11  1  0.929691  0.013904  0.236491  1
  Li  Li12  1  0.585359  0.038910  0.221010  1
  Li  Li13  1  0.986096  0.070309  0.736491  1
  Li  Li14  1  0.638896  0.087344  0.730806  1
  Li  Li15  1  0.295390  0.103556  0.729059  1
  Mn  Mn16  1  0.666984  0.167632  0.001273  1
  Mn  Mn17  1  0.493512  0.333302  0.500110  1
  Mn  Mn18  1  0.832368  0.333016  0.501273  1
  Mn  Mn19  1  0.666698  0.506488  0.000110  1
  Mn  Mn20  1  0.999555  0.495926  0.001634  1
  Mn  Mn21  1  0.836045  0.668209  0.497968  1
  Mn  Mn22  1  0.165694  0.666304  0.496437  1
  Mn  Mn23  1  0.994461  0.828232  0.995147  1
  Mn  Mn24  1  0.333696  0.834306  0.996437  1
  Mn  Mn25  1  0.171768  0.005539  0.495147  1
  Mn  Mn26  1  0.504074  0.000445  0.501634  1
  Mn  Mn27  1  0.331791  0.163955  0.997968  1
  Fe  Fe28  1  0.165256  0.332648  0.504065  1
  Fe  Fe29  1  0.337593  0.494867  0.989176  1
  Fe  Fe30  1  0.505133  0.662407  0.489176  1
  Fe  Fe31  1  0.667352  0.834744  0.004065  1
  Fe  Fe32  1  0.839347  0.998202  0.499034  1
  Fe  Fe33  1  0.001798  0.160653  0.999034  1
  O  O34  1  0.410823  0.203771  0.606582  1
  O  O35  1  0.712836  0.229200  0.608946  1
  O  O36  1  0.076746  0.196260  0.616924  1
  O  O37  1  0.461438  0.281204  0.113916  1
  O  O38  1  0.770800  0.287164  0.108946  1
  O  O39  1  0.117708  0.285831  0.108103  1
  O  O40  1  0.555924  0.413117  0.895219  1
  O  O41  1  0.880567  0.404433  0.900795  1
  O  O42  1  0.206605  0.390679  0.896226  1
  O  O43  1  0.586883  0.444076  0.395219  1
  O  O44  1  0.928071  0.451894  0.400178  1
  O  O45  1  0.277623  0.447206  0.398487  1
  O  O46  1  0.718796  0.538562  0.613916  1
  O  O47  1  0.389154  0.550918  0.600501  1
  O  O48  1  0.039335  0.552774  0.611005  1
  O  O49  1  0.796229  0.589177  0.106582  1
  O  O50  1  0.449082  0.610846  0.100501  1
  O  O51  1  0.109808  0.605148  0.102156  1
  O  O52  1  0.891612  0.713280  0.897084  1
  O  O53  1  0.552794  0.722377  0.898487  1
  O  O54  1  0.196965  0.718496  0.885197  1
  O  O55  1  0.963688  0.778637  0.383649  1
  O  O56  1  0.609321  0.793395  0.396226  1
  O  O57  1  0.281504  0.803035  0.385197  1
  O  O58  1  0.714169  0.882292  0.608103  1
  O  O59  1  0.081990  0.886416  0.599752  1
  O  O60  1  0.394852  0.890192  0.602156  1
  O  O61  1  0.803740  0.923254  0.116924  1
  O  O62  1  0.113584  0.918010  0.099752  1
  O  O63  1  0.447226  0.960665  0.111005  1
  O  O64  1  0.874417  0.044927  0.895700  1
  O  O65  1  0.221363  0.036312  0.883649  1
  O  O66  1  0.548106  0.071929  0.900178  1
  O  O67  1  0.955073  0.125583  0.395700  1
  O  O68  1  0.286720  0.108388  0.397084  1
  O  O69  1  0.595567  0.119433  0.400795  1
