# generated using pymatgen
data_LuAlO3
_symmetry_space_group_name_H-M   'P 1'
_cell_length_a   6.48035093
_cell_length_b   6.48035093
_cell_length_c   10.24609644
_cell_angle_alpha   90.00000000
_cell_angle_beta   90.00000000
_cell_angle_gamma   120.22006846
_symmetry_Int_Tables_number   1
_chemical_formula_structural   LuAlO3
_chemical_formula_sum   'Lu6 Al6 O18'
_cell_volume   371.80803440
_cell_formula_units_Z   6
loop_
 _symmetry_equiv_pos_site_id
 _symmetry_equiv_pos_as_xyz
  1  'x, y, z'
loop_
 _atom_site_type_symbol
 _atom_site_label
 _atom_site_symmetry_multiplicity
 _atom_site_fract_x
 _atom_site_fract_y
 _atom_site_fract_z
 _atom_site_occupancy
  Lu  Lu0  1  0.168570  0.831430  1.000000  1
  Lu  Lu1  1  0.168570  0.831430  0.500000  1
  Lu  Lu2  1  0.831430  0.168570  0.000000  1
  Lu  Lu3  1  0.831430  0.168570  0.500000  1
  Lu  Lu4  1  0.500000  0.500000  0.500000  1
  Lu  Lu5  1  0.500000  0.500000  1.000000  1
  Al  Al6  1  0.834321  0.556244  0.250000  1
  Al  Al7  1  0.443756  0.165679  0.750000  1
  Al  Al8  1  0.556244  0.834321  0.250000  1
  Al  Al9  1  0.165679  0.443756  0.750000  1
  Al  Al10  1  0.881716  0.881716  0.750000  1
  Al  Al11  1  0.118284  0.118284  0.250000  1
  O  O12  1  0.162665  0.892773  0.750000  1
  O  O13  1  0.107227  0.837335  0.250000  1
  O  O14  1  0.833639  0.479397  0.414011  1
  O  O15  1  0.833639  0.479397  0.085989  1
  O  O16  1  0.520603  0.166361  0.914011  1
  O  O17  1  0.520603  0.166361  0.585989  1
  O  O18  1  0.479397  0.833639  0.414011  1
  O  O19  1  0.479397  0.833639  0.085989  1
  O  O20  1  0.166361  0.520603  0.914011  1
  O  O21  1  0.166361  0.520603  0.585989  1
  O  O22  1  0.837335  0.107226  0.250000  1
  O  O23  1  0.892774  0.162665  0.750000  1
  O  O24  1  0.441963  0.441963  0.750000  1
  O  O25  1  0.814525  0.814525  0.918973  1
  O  O26  1  0.814525  0.814525  0.581027  1
  O  O27  1  0.185475  0.185475  0.418973  1
  O  O28  1  0.185475  0.185475  0.081027  1
  O  O29  1  0.558037  0.558037  0.250000  1
