# generated using pymatgen
data_Li2VGaO4
_symmetry_space_group_name_H-M   'P 1'
_cell_length_a   5.16681001
_cell_length_b   6.00158199
_cell_length_c   7.84495084
_cell_angle_alpha   100.81845696
_cell_angle_beta   108.46228114
_cell_angle_gamma   89.94363713
_symmetry_Int_Tables_number   1
_chemical_formula_structural   Li2VGaO4
_chemical_formula_sum   'Li6 V3 Ga3 O12'
_cell_volume   226.19648913
_cell_formula_units_Z   3
loop_
 _symmetry_equiv_pos_site_id
 _symmetry_equiv_pos_as_xyz
  1  'x, y, z'
loop_
 _atom_site_type_symbol
 _atom_site_label
 _atom_site_symmetry_multiplicity
 _atom_site_fract_x
 _atom_site_fract_y
 _atom_site_fract_z
 _atom_site_occupancy
  Li  Li0  1  0.999237  0.580601  0.833156  1
  Li  Li1  1  0.998460  0.746605  0.497338  1
  Li  Li2  1  0.999396  0.090067  0.832186  1
  Li  Li3  1  0.000763  0.419399  0.166844  1
  Li  Li4  1  0.000604  0.909933  0.167814  1
  Li  Li5  1  0.001540  0.253395  0.502662  1
  V  V6  1  0.499591  0.836740  0.833861  1
  V  V7  1  0.500409  0.163260  0.166139  1
  V  V8  1  0.500000  0.000000  0.500000  1
  Ga  Ga9  1  0.500457  0.339454  0.833087  1
  Ga  Ga10  1  0.499543  0.660546  0.166913  1
  Ga  Ga11  1  0.500000  0.500000  0.500000  1
  O  O12  1  0.727333  0.126311  0.993535  1
  O  O13  1  0.724682  0.622116  0.996408  1
  O  O14  1  0.726912  0.946670  0.327282  1
  O  O15  1  0.725107  0.453611  0.328418  1
  O  O16  1  0.725008  0.791840  0.659343  1
  O  O17  1  0.725597  0.300677  0.663268  1
  O  O18  1  0.275318  0.377884  0.003592  1
  O  O19  1  0.272667  0.873689  0.006465  1
  O  O20  1  0.274403  0.699323  0.336732  1
  O  O21  1  0.274992  0.208160  0.340657  1
  O  O22  1  0.274893  0.546389  0.671582  1
  O  O23  1  0.273088  0.053330  0.672718  1
