# generated using pymatgen
data_Cr2PO5
_symmetry_space_group_name_H-M   'P 1'
_cell_length_a   5.07985076
_cell_length_b   6.38680875
_cell_length_c   6.41821476
_cell_angle_alpha   108.59461837
_cell_angle_beta   106.20231008
_cell_angle_gamma   99.21125703
_symmetry_Int_Tables_number   1
_chemical_formula_structural   Cr2PO5
_chemical_formula_sum   'Cr4 P2 O10'
_cell_volume   182.29051809
_cell_formula_units_Z   2
loop_
 _symmetry_equiv_pos_site_id
 _symmetry_equiv_pos_as_xyz
  1  'x, y, z'
loop_
 _atom_site_type_symbol
 _atom_site_label
 _atom_site_symmetry_multiplicity
 _atom_site_fract_x
 _atom_site_fract_y
 _atom_site_fract_z
 _atom_site_occupancy
  Cr  Cr0  1  0.164620  0.626290  0.254865  1
  Cr  Cr1  1  0.381826  0.235491  0.950080  1
  Cr  Cr2  1  0.618174  0.764509  0.049920  1
  Cr  Cr3  1  0.835380  0.373710  0.745135  1
  P  P4  1  0.164048  0.182638  0.388288  1
  P  P5  1  0.835952  0.817362  0.611712  1
  O  O6  1  0.089391  0.742132  0.560095  1
  O  O7  1  0.228026  0.548090  0.953822  1
  O  O8  1  0.058942  0.924029  0.215045  1
  O  O9  1  0.407404  0.204517  0.611910  1
  O  O10  1  0.287137  0.330501  0.266604  1
  O  O11  1  0.712863  0.669499  0.733396  1
  O  O12  1  0.592596  0.795483  0.388090  1
  O  O13  1  0.941058  0.075971  0.784955  1
  O  O14  1  0.771974  0.451910  0.046178  1
  O  O15  1  0.910609  0.257868  0.439905  1
