# generated using pymatgen
data_LiMnF3
_symmetry_space_group_name_H-M   'P 1'
_cell_length_a   6.20844787
_cell_length_b   6.20844787
_cell_length_c   6.20844787
_cell_angle_alpha   90.00000000
_cell_angle_beta   90.00000000
_cell_angle_gamma   90.00000000
_symmetry_Int_Tables_number   1
_chemical_formula_structural   LiMnF3
_chemical_formula_sum   'Li4 Mn4 F12'
_cell_volume   239.30353639
_cell_formula_units_Z   4
loop_
 _symmetry_equiv_pos_site_id
 _symmetry_equiv_pos_as_xyz
  1  'x, y, z'
loop_
 _atom_site_type_symbol
 _atom_site_label
 _atom_site_symmetry_multiplicity
 _atom_site_fract_x
 _atom_site_fract_y
 _atom_site_fract_z
 _atom_site_occupancy
  Li  Li0  1  0.089723  0.089723  0.089723  1
  Li  Li1  1  0.410277  0.910277  0.589723  1
  Li  Li2  1  0.589723  0.410277  0.910277  1
  Li  Li3  1  0.910277  0.589723  0.410277  1
  Mn  Mn4  1  0.141318  0.641318  0.858682  1
  Mn  Mn5  1  0.358682  0.358682  0.358682  1
  Mn  Mn6  1  0.641318  0.858682  0.141318  1
  Mn  Mn7  1  0.858682  0.141318  0.641318  1
  F  F8  1  0.517705  0.232121  0.631096  1
  F  F9  1  0.482295  0.732121  0.868904  1
  F  F10  1  0.267879  0.368904  0.017705  1
  F  F11  1  0.631096  0.517705  0.232121  1
  F  F12  1  0.868904  0.482295  0.732121  1
  F  F13  1  0.232121  0.631096  0.517705  1
  F  F14  1  0.017705  0.267879  0.368904  1
  F  F15  1  0.982295  0.767879  0.131096  1
  F  F16  1  0.767879  0.131096  0.982295  1
  F  F17  1  0.131096  0.982295  0.767879  1
  F  F18  1  0.368904  0.017705  0.267879  1
  F  F19  1  0.732121  0.868904  0.482295  1
