# generated using pymatgen
data_LiTi(PO3)4
_symmetry_space_group_name_H-M   'P 1'
_cell_length_a   7.05844706
_cell_length_b   7.05844706
_cell_length_c   9.81896057
_cell_angle_alpha   88.08721754
_cell_angle_beta   91.91278246
_cell_angle_gamma   70.75545810
_symmetry_Int_Tables_number   1
_chemical_formula_structural   LiTi(PO3)4
_chemical_formula_sum   'Li2 Ti2 P8 O24'
_cell_volume   461.09275536
_cell_formula_units_Z   2
loop_
 _symmetry_equiv_pos_site_id
 _symmetry_equiv_pos_as_xyz
  1  'x, y, z'
loop_
 _atom_site_type_symbol
 _atom_site_label
 _atom_site_symmetry_multiplicity
 _atom_site_fract_x
 _atom_site_fract_y
 _atom_site_fract_z
 _atom_site_occupancy
  Li  Li0  1  0.343580  0.343580  0.250000  1
  Li  Li1  1  0.656420  0.656420  0.750000  1
  Ti  Ti2  1  0.613331  0.613331  0.250000  1
  Ti  Ti3  1  0.386669  0.386669  0.750000  1
  P  P4  1  0.147424  0.223118  0.975784  1
  P  P5  1  0.776882  0.852576  0.475784  1
  P  P6  1  0.711890  0.222264  0.038926  1
  P  P7  1  0.222264  0.711890  0.461074  1
  P  P8  1  0.777736  0.288110  0.538926  1
  P  P9  1  0.288110  0.777736  0.961074  1
  P  P10  1  0.223118  0.147424  0.524216  1
  P  P11  1  0.852576  0.776882  0.024216  1
  O  O12  1  0.257847  0.218290  0.107089  1
  O  O13  1  0.629055  0.847761  0.361957  1
  O  O14  1  0.628739  0.339823  0.161312  1
  O  O15  1  0.781710  0.742153  0.607089  1
  O  O16  1  0.425727  0.741760  0.086999  1
  O  O17  1  0.152239  0.370945  0.861957  1
  O  O18  1  0.255287  0.913663  0.504636  1
  O  O19  1  0.778423  0.993519  0.092478  1
  O  O20  1  0.993519  0.778423  0.407522  1
  O  O21  1  0.913663  0.255287  0.995364  1
  O  O22  1  0.660177  0.371261  0.661312  1
  O  O23  1  0.741760  0.425727  0.413001  1
  O  O24  1  0.258240  0.574273  0.586999  1
  O  O25  1  0.339823  0.628739  0.338688  1
  O  O26  1  0.086337  0.744713  0.004636  1
  O  O27  1  0.006481  0.221577  0.592478  1
  O  O28  1  0.221577  0.006481  0.907522  1
  O  O29  1  0.744713  0.086337  0.495364  1
  O  O30  1  0.847761  0.629055  0.138043  1
  O  O31  1  0.574273  0.258240  0.913001  1
  O  O32  1  0.218290  0.257847  0.392911  1
  O  O33  1  0.371261  0.660177  0.838688  1
  O  O34  1  0.370945  0.152239  0.638043  1
  O  O35  1  0.742153  0.781710  0.892911  1
