# generated using pymatgen
data_Na4V2P(CO4)4
_symmetry_space_group_name_H-M   'P 1'
_cell_length_a   10.03061858
_cell_length_b   10.02676241
_cell_length_c   9.84052019
_cell_angle_alpha   60.63833086
_cell_angle_beta   60.59920212
_cell_angle_gamma   58.76246702
_symmetry_Int_Tables_number   1
_chemical_formula_structural   Na4V2P(CO4)4
_chemical_formula_sum   'Na8 V4 P2 C8 O32'
_cell_volume   699.34440112
_cell_formula_units_Z   2
loop_
 _symmetry_equiv_pos_site_id
 _symmetry_equiv_pos_as_xyz
  1  'x, y, z'
loop_
 _atom_site_type_symbol
 _atom_site_label
 _atom_site_symmetry_multiplicity
 _atom_site_fract_x
 _atom_site_fract_y
 _atom_site_fract_z
 _atom_site_occupancy
  Na  Na0  1  0.290624  0.709376  0.709376  1
  Na  Na1  1  0.291757  0.708243  0.291757  1
  Na  Na2  1  0.541757  0.958243  0.541757  1
  Na  Na3  1  0.540624  0.959376  0.959376  1
  Na  Na4  1  0.709376  0.290624  0.290624  1
  Na  Na5  1  0.708243  0.291757  0.708243  1
  Na  Na6  1  0.958243  0.541757  0.958243  1
  Na  Na7  1  0.959376  0.540624  0.540624  1
  V  V8  1  0.125000  0.625000  0.125000  1
  V  V9  1  0.625000  0.125000  0.125000  1
  V  V10  1  0.125000  0.125000  0.625000  1
  V  V11  1  0.125000  0.125000  0.125000  1
  P  P12  1  0.750000  0.750000  0.750000  1
  P  P13  1  0.500000  0.500000  0.500000  1
  C  C14  1  0.346245  0.986428  0.335499  1
  C  C15  1  0.263572  0.903755  0.918172  1
  C  C16  1  0.331828  0.335499  0.986428  1
  C  C17  1  0.335499  0.331828  0.346245  1
  C  C18  1  0.914501  0.918172  0.903755  1
  C  C19  1  0.918172  0.914501  0.263572  1
  C  C20  1  0.986428  0.346245  0.331828  1
  C  C21  1  0.903755  0.263572  0.914501  1
  O  O22  1  0.237783  0.982318  0.480729  1
  O  O23  1  0.690134  0.688405  0.680349  1
  O  O24  1  0.485624  0.989021  0.307173  1
  O  O25  1  0.260979  0.764376  0.031818  1
  O  O26  1  0.218182  0.307173  0.989021  1
  O  O27  1  0.269742  0.931428  0.772579  1
  O  O28  1  0.941112  0.680349  0.688405  1
  O  O29  1  0.688405  0.690134  0.941112  1
  O  O30  1  0.772579  0.026251  0.269742  1
  O  O31  1  0.307173  0.218182  0.485624  1
  O  O32  1  0.267682  0.012217  0.950830  1
  O  O33  1  0.680349  0.941112  0.690134  1
  O  O34  1  0.299170  0.480729  0.982318  1
  O  O35  1  0.480729  0.299170  0.237783  1
  O  O36  1  0.318572  0.980258  0.223749  1
  O  O37  1  0.026251  0.772579  0.931428  1
  O  O38  1  0.223749  0.477421  0.318572  1
  O  O39  1  0.931428  0.269742  0.026251  1
  O  O40  1  0.769271  0.950830  0.012217  1
  O  O41  1  0.950830  0.769271  0.267682  1
  O  O42  1  0.569651  0.308888  0.559866  1
  O  O43  1  0.982318  0.237783  0.299170  1
  O  O44  1  0.942827  0.031818  0.764376  1
  O  O45  1  0.477421  0.223749  0.980258  1
  O  O46  1  0.561595  0.559866  0.308888  1
  O  O47  1  0.308888  0.569651  0.561595  1
  O  O48  1  0.980258  0.318572  0.477421  1
  O  O49  1  0.031818  0.942827  0.260979  1
  O  O50  1  0.989021  0.485624  0.218182  1
  O  O51  1  0.764376  0.260979  0.942827  1
  O  O52  1  0.559866  0.561595  0.569651  1
  O  O53  1  0.012217  0.267682  0.769271  1
