# generated using pymatgen
data_Li5Cu5(SnO6)2
_symmetry_space_group_name_H-M   'P 1'
_cell_length_a   5.18039894
_cell_length_b   5.18039894
_cell_length_c   9.99936557
_cell_angle_alpha   88.85384162
_cell_angle_beta   91.14615838
_cell_angle_gamma   65.69891016
_symmetry_Int_Tables_number   1
_chemical_formula_structural   Li5Cu5(SnO6)2
_chemical_formula_sum   'Li5 Cu5 Sn2 O12'
_cell_volume   244.40507742
_cell_formula_units_Z   1
loop_
 _symmetry_equiv_pos_site_id
 _symmetry_equiv_pos_as_xyz
  1  'x, y, z'
loop_
 _atom_site_type_symbol
 _atom_site_label
 _atom_site_symmetry_multiplicity
 _atom_site_fract_x
 _atom_site_fract_y
 _atom_site_fract_z
 _atom_site_occupancy
  Li  Li0  1  0.834059  0.322131  0.745433  1
  Li  Li1  1  0.690689  0.147045  0.259664  1
  Li  Li2  1  0.322131  0.834059  0.254567  1
  Li  Li3  1  0.147045  0.690689  0.740336  1
  Li  Li4  1  0.093879  0.093879  0.500000  1
  Cu  Cu5  1  0.917757  0.917757  0.000000  1
  Cu  Cu6  1  0.011022  0.479054  0.254513  1
  Cu  Cu7  1  0.479054  0.011022  0.745487  1
  Cu  Cu8  1  0.585739  0.585739  0.000000  1
  Cu  Cu9  1  0.412981  0.412981  0.500000  1
  Sn  Sn10  1  0.753331  0.753331  0.500000  1
  Sn  Sn11  1  0.251564  0.251564  0.000000  1
  O  O12  1  0.026638  0.777689  0.360115  1
  O  O13  1  0.777689  0.026638  0.639885  1
  O  O14  1  0.904333  0.595093  0.900506  1
  O  O15  1  0.595093  0.904333  0.099494  1
  O  O16  1  0.700985  0.450308  0.382433  1
  O  O17  1  0.450308  0.700985  0.617567  1
  O  O18  1  0.536384  0.313316  0.876656  1
  O  O19  1  0.313316  0.536384  0.123344  1
  O  O20  1  0.419718  0.098851  0.395069  1
  O  O21  1  0.098851  0.419718  0.604931  1
  O  O22  1  0.188113  0.989323  0.863425  1
  O  O23  1  0.989323  0.188113  0.136575  1
