# generated using pymatgen
data_Li5MnO3F2
_symmetry_space_group_name_H-M   'P 1'
_cell_length_a   5.15675872
_cell_length_b   5.15675872
_cell_length_c   5.99605094
_cell_angle_alpha   73.18958454
_cell_angle_beta   106.81041546
_cell_angle_gamma   134.89142148
_symmetry_Int_Tables_number   1
_chemical_formula_structural   Li5MnO3F2
_chemical_formula_sum   'Li5 Mn1 O3 F2'
_cell_volume   107.27843563
_cell_formula_units_Z   1
loop_
 _symmetry_equiv_pos_site_id
 _symmetry_equiv_pos_as_xyz
  1  'x, y, z'
loop_
 _atom_site_type_symbol
 _atom_site_label
 _atom_site_symmetry_multiplicity
 _atom_site_fract_x
 _atom_site_fract_y
 _atom_site_fract_z
 _atom_site_occupancy
  Li  Li0  1  0.673272  0.326728  0.877210  1
  Li  Li1  1  0.702479  0.297521  0.311082  1
  Li  Li2  1  0.297521  0.702479  0.688918  1
  Li  Li3  1  0.326728  0.673272  0.122790  1
  Li  Li4  1  0.000000  0.000000  0.500000  1
  Mn  Mn5  1  0.000000  0.000000  0.000000  1
  O  O6  1  0.138495  0.861505  0.823578  1
  O  O7  1  0.861505  0.138495  0.176422  1
  O  O8  1  0.500000  0.500000  0.000000  1
  F  F9  1  0.179426  0.820574  0.354293  1
  F  F10  1  0.820574  0.179426  0.645707  1
