# generated using pymatgen
data_Lu3Sb5O12
_symmetry_space_group_name_H-M   'P 1'
_cell_length_a   9.32604157
_cell_length_b   9.32604157
_cell_length_c   9.32604157
_cell_angle_alpha   109.47122063
_cell_angle_beta   109.47122063
_cell_angle_gamma   109.47122063
_symmetry_Int_Tables_number   1
_chemical_formula_structural   Lu3Sb5O12
_chemical_formula_sum   'Lu6 Sb10 O24'
_cell_volume   624.41043156
_cell_formula_units_Z   2
loop_
 _symmetry_equiv_pos_site_id
 _symmetry_equiv_pos_as_xyz
  1  'x, y, z'
loop_
 _atom_site_type_symbol
 _atom_site_label
 _atom_site_symmetry_multiplicity
 _atom_site_fract_x
 _atom_site_fract_y
 _atom_site_fract_z
 _atom_site_occupancy
  Lu  Lu0  1  0.750000  0.250000  0.500000  1
  Lu  Lu1  1  0.750000  0.500000  0.250000  1
  Lu  Lu2  1  0.500000  0.250000  0.750000  1
  Lu  Lu3  1  0.500000  0.750000  0.250000  1
  Lu  Lu4  1  0.250000  0.750000  0.500000  1
  Lu  Lu5  1  0.250000  0.500000  0.750000  1
  Sb  Sb6  1  0.519766  1.000000  1.000000  1
  Sb  Sb7  1  0.285118  0.000000  0.285118  1
  Sb  Sb8  1  0.285118  0.285118  0.000000  1
  Sb  Sb9  1  0.714882  0.000000  0.714882  1
  Sb  Sb10  1  0.714882  0.714882  0.000000  1
  Sb  Sb11  1  0.000000  0.519766  0.000000  1
  Sb  Sb12  1  0.000000  1.000000  0.519766  1
  Sb  Sb13  1  0.480234  0.480234  0.480234  1
  Sb  Sb14  1  1.000000  0.285118  0.285118  1
  Sb  Sb15  1  1.000000  0.714882  0.714882  1
  O  O16  1  0.483933  0.000000  0.204221  1
  O  O17  1  0.483933  0.204221  1.000000  1
  O  O18  1  0.701462  0.497359  0.000000  1
  O  O19  1  0.701462  0.000000  0.497359  1
  O  O20  1  0.795897  0.298538  0.298538  1
  O  O21  1  0.502641  0.502641  0.204103  1
  O  O22  1  0.502641  0.204103  0.502641  1
  O  O23  1  0.497359  0.701462  0.000000  1
  O  O24  1  0.497359  0.000000  0.701462  1
  O  O25  1  0.720288  0.516067  0.516067  1
  O  O26  1  0.795779  0.279712  0.795779  1
  O  O27  1  0.795779  0.795779  0.279712  1
  O  O28  1  0.204221  0.483933  0.000000  1
  O  O29  1  0.204221  0.000000  0.483933  1
  O  O30  1  0.516067  0.720288  0.516067  1
  O  O31  1  0.516067  0.516067  0.720288  1
  O  O32  1  0.000000  0.483933  0.204221  1
  O  O33  1  0.000000  0.204221  0.483933  1
  O  O34  1  0.298538  0.795897  0.298538  1
  O  O35  1  0.298538  0.298538  0.795897  1
  O  O36  1  0.204103  0.502641  0.502641  1
  O  O37  1  0.000000  0.701462  0.497359  1
  O  O38  1  0.000000  0.497359  0.701462  1
  O  O39  1  0.279712  0.795779  0.795779  1
