# generated using pymatgen
data_Li5Fe8(BO3)8
_symmetry_space_group_name_H-M   'P 1'
_cell_length_a   5.27555780
_cell_length_b   9.06114639
_cell_length_c   10.10845585
_cell_angle_alpha   90.73669662
_cell_angle_beta   91.70247879
_cell_angle_gamma   90.49689567
_symmetry_Int_Tables_number   1
_chemical_formula_structural   Li5Fe8(BO3)8
_chemical_formula_sum   'Li5 Fe8 B8 O24'
_cell_volume   482.93744327
_cell_formula_units_Z   1
loop_
 _symmetry_equiv_pos_site_id
 _symmetry_equiv_pos_as_xyz
  1  'x, y, z'
loop_
 _atom_site_type_symbol
 _atom_site_label
 _atom_site_symmetry_multiplicity
 _atom_site_fract_x
 _atom_site_fract_y
 _atom_site_fract_z
 _atom_site_occupancy
  Li  Li0  1  0.651783  0.005840  0.079223  1
  Li  Li1  1  0.154155  0.499080  0.087037  1
  Li  Li2  1  0.838515  0.489184  0.349582  1
  Li  Li3  1  0.336428  0.994786  0.347350  1
  Li  Li4  1  0.656787  0.000712  0.599338  1
  Fe  Fe5  1  0.159017  0.162034  0.117116  1
  Fe  Fe6  1  0.839948  0.160805  0.372788  1
  Fe  Fe7  1  0.336516  0.332943  0.858443  1
  Fe  Fe8  1  0.672154  0.347644  0.624199  1
  Fe  Fe9  1  0.332986  0.661685  0.373916  1
  Fe  Fe10  1  0.159169  0.837227  0.626028  1
  Fe  Fe11  1  0.658645  0.658409  0.116426  1
  Fe  Fe12  1  0.841648  0.831434  0.866700  1
  B  B13  1  0.164770  0.164253  0.620302  1
  B  B14  1  0.341754  0.333256  0.368726  1
  B  B15  1  0.834355  0.168626  0.872953  1
  B  B16  1  0.662463  0.329810  0.123219  1
  B  B17  1  0.332925  0.666304  0.875416  1
  B  B18  1  0.664022  0.674077  0.617674  1
  B  B19  1  0.164181  0.831305  0.127029  1
  B  B20  1  0.824088  0.826348  0.372258  1
  O  O21  1  0.302151  0.036999  0.604997  1
  O  O22  1  0.088458  0.187541  0.909465  1
  O  O23  1  0.726317  0.029624  0.881159  1
  O  O24  1  0.216259  0.201903  0.335491  1
  O  O25  1  0.286414  0.294404  0.664770  1
  O  O26  1  0.774249  0.194671  0.153690  1
  O  O27  1  0.905237  0.164892  0.588507  1
  O  O28  1  0.410267  0.334273  0.078132  1
  O  O29  1  0.206965  0.464814  0.360425  1
  O  O30  1  0.596570  0.335915  0.405338  1
  O  O31  1  0.691326  0.289067  0.836937  1
  O  O32  1  0.224986  0.530332  0.889195  1
  O  O33  1  0.802655  0.458878  0.141678  1
  O  O34  1  0.272027  0.695615  0.164276  1
  O  O35  1  0.415358  0.684886  0.565461  1
  O  O36  1  0.797665  0.550183  0.615775  1
  O  O37  1  0.586939  0.688497  0.912368  1
  O  O38  1  0.085397  0.822509  0.398472  1
  O  O39  1  0.191729  0.786786  0.834431  1
  O  O40  1  0.698034  0.694739  0.334560  1
  O  O41  1  0.773339  0.809563  0.667444  1
  O  O42  1  0.306215  0.958791  0.141197  1
  O  O43  1  0.912697  0.833706  0.079191  1
  O  O44  1  0.693546  0.954971  0.385746  1
