# generated using pymatgen
data_Hf2N2O
_symmetry_space_group_name_H-M   'P 1'
_cell_length_a   8.71122958
_cell_length_b   8.71967572
_cell_length_c   8.73520384
_cell_angle_alpha   109.43834512
_cell_angle_beta   109.39066093
_cell_angle_gamma   109.44077281
_symmetry_Int_Tables_number   1
_chemical_formula_structural   Hf2N2O
_chemical_formula_sum   'Hf16 N16 O8'
_cell_volume   511.68143332
_cell_formula_units_Z   8
loop_
 _symmetry_equiv_pos_site_id
 _symmetry_equiv_pos_as_xyz
  1  'x, y, z'
loop_
 _atom_site_type_symbol
 _atom_site_label
 _atom_site_symmetry_multiplicity
 _atom_site_fract_x
 _atom_site_fract_y
 _atom_site_fract_z
 _atom_site_occupancy
  Hf  Hf0  1  0.511530  0.498636  0.500963  1
  Hf  Hf1  1  0.211870  0.757390  0.463851  1
  Hf  Hf2  1  0.470457  0.720818  0.246921  1
  Hf  Hf3  1  0.963609  0.213645  0.258557  1
  Hf  Hf4  1  0.292568  0.248066  0.035338  1
  Hf  Hf5  1  0.747543  0.965078  0.706745  1
  Hf  Hf6  1  0.990886  0.503203  0.994810  1
  Hf  Hf7  1  0.245069  0.535220  0.785399  1
  Hf  Hf8  1  0.500572  0.008286  0.010680  1
  Hf  Hf9  1  0.253089  0.029253  0.286214  1
  Hf  Hf10  1  0.000186  0.996769  0.489518  1
  Hf  Hf11  1  0.743704  0.465169  0.215423  1
  Hf  Hf12  1  0.718439  0.750806  0.968678  1
  Hf  Hf13  1  0.027260  0.779966  0.749253  1
  Hf  Hf14  1  0.539328  0.282139  0.750139  1
  Hf  Hf15  1  0.786601  0.249782  0.536369  1
  N  N16  1  0.770002  0.729635  0.737015  1
  N  N17  1  0.538868  0.510374  0.271963  1
  N  N18  1  0.507751  0.767590  0.039275  1
  N  N19  1  0.957508  0.725858  0.469314  1
  N  N20  1  0.240439  0.767815  0.228968  1
  N  N21  1  0.728042  0.236096  0.269468  1
  N  N22  1  0.726966  0.962926  0.457325  1
  N  N23  1  0.763649  0.226552  0.778321  1
  N  N24  1  0.995337  0.538101  0.766835  1
  N  N25  1  0.773199  0.546644  0.011880  1
  N  N26  1  0.484020  0.224893  0.952024  1
  N  N27  1  0.966447  0.958508  0.226046  1
  N  N28  1  0.052607  0.275434  0.536155  1
  N  N29  1  0.258515  0.989538  0.031363  1
  N  N30  1  0.273565  0.032306  0.547166  1
  N  N31  1  0.534384  0.265091  0.488052  1
  O  O32  1  0.278022  0.758686  0.724240  1
  O  O33  1  0.463358  0.739814  0.520751  1
  O  O34  1  0.226370  0.280235  0.264698  1
  O  O35  1  0.013552  0.461550  0.235915  1
  O  O36  1  0.221839  0.444900  0.980004  1
  O  O37  1  0.033351  0.052545  0.776556  1
  O  O38  1  0.452682  0.488851  0.723612  1
  O  O39  1  0.736813  0.011831  0.964196  1
