# generated using pymatgen
data_Fe4O3F5
_symmetry_space_group_name_H-M   'P 1'
_cell_length_a   4.82253925
_cell_length_b   6.20052061
_cell_length_c   9.63412372
_cell_angle_alpha   89.64999034
_cell_angle_beta   87.54428126
_cell_angle_gamma   89.79415528
_symmetry_Int_Tables_number   1
_chemical_formula_structural   Fe4O3F5
_chemical_formula_sum   'Fe8 O6 F10'
_cell_volume   287.81048001
_cell_formula_units_Z   2
loop_
 _symmetry_equiv_pos_site_id
 _symmetry_equiv_pos_as_xyz
  1  'x, y, z'
loop_
 _atom_site_type_symbol
 _atom_site_label
 _atom_site_symmetry_multiplicity
 _atom_site_fract_x
 _atom_site_fract_y
 _atom_site_fract_z
 _atom_site_occupancy
  Fe  Fe0  1  0.015919  0.006015  0.982596  1
  Fe  Fe1  1  0.950789  0.488251  0.011618  1
  Fe  Fe2  1  0.028892  0.001746  0.486867  1
  Fe  Fe3  1  0.989838  0.498552  0.506153  1
  Fe  Fe4  1  0.480106  0.261483  0.257533  1
  Fe  Fe5  1  0.477434  0.740704  0.254882  1
  Fe  Fe6  1  0.536826  0.251785  0.763971  1
  Fe  Fe7  1  0.505351  0.750241  0.746865  1
  O  O8  1  0.808024  0.260630  0.903935  1
  O  O9  1  0.680855  0.502059  0.160126  1
  O  O10  1  0.691952  0.502657  0.652669  1
  O  O11  1  0.324600  0.000356  0.335270  1
  O  O12  1  0.283753  0.501203  0.356451  1
  O  O13  1  0.336741  0.996269  0.832215  1
  F  F14  1  0.796878  0.258395  0.402632  1
  F  F15  1  0.797805  0.742695  0.404422  1
  F  F16  1  0.800119  0.734787  0.897623  1
  F  F17  1  0.702929  0.994909  0.150431  1
  F  F18  1  0.713609  0.999538  0.644162  1
  F  F19  1  0.297069  0.504555  0.852887  1
  F  F20  1  0.196514  0.741166  0.602413  1
  F  F21  1  0.186552  0.736670  0.092244  1
  F  F22  1  0.196671  0.260771  0.602307  1
  F  F23  1  0.200772  0.264565  0.099731  1
