# generated using pymatgen
data_MnH18C4N8(ClO)4
_symmetry_space_group_name_H-M   'P 1'
_cell_length_a   6.41908329
_cell_length_b   11.50828451
_cell_length_c   11.96740198
_cell_angle_alpha   90.00000000
_cell_angle_beta   107.94028959
_cell_angle_gamma   90.00000000
_symmetry_Int_Tables_number   1
_chemical_formula_structural   MnH18C4N8(ClO)4
_chemical_formula_sum   'Mn2 H36 C8 N16 Cl8 O8'
_cell_volume   841.07863711
_cell_formula_units_Z   2
loop_
 _symmetry_equiv_pos_site_id
 _symmetry_equiv_pos_as_xyz
  1  'x, y, z'
loop_
 _atom_site_type_symbol
 _atom_site_label
 _atom_site_symmetry_multiplicity
 _atom_site_fract_x
 _atom_site_fract_y
 _atom_site_fract_z
 _atom_site_occupancy
  Mn  Mn0  1  0.000000  0.000000  0.500000  1
  Mn  Mn1  1  0.000000  0.500000  0.000000  1
  H  H2  1  0.206021  0.785759  0.499187  1
  H  H3  1  0.206021  0.714241  0.999187  1
  H  H4  1  0.793979  0.214241  0.500813  1
  H  H5  1  0.793979  0.285759  0.000813  1
  H  H6  1  0.365333  0.888206  0.495912  1
  H  H7  1  0.365333  0.611794  0.995912  1
  H  H8  1  0.634667  0.111794  0.504088  1
  H  H9  1  0.634667  0.388206  0.004088  1
  H  H10  1  0.205794  0.712071  0.208257  1
  H  H11  1  0.205794  0.787929  0.708257  1
  H  H12  1  0.794206  0.287929  0.791743  1
  H  H13  1  0.794206  0.212071  0.291743  1
  H  H14  1  0.182914  0.824334  0.303733  1
  H  H15  1  0.182914  0.675666  0.803733  1
  H  H16  1  0.817086  0.175666  0.696267  1
  H  H17  1  0.817086  0.324334  0.196267  1
  H  H18  1  0.166880  0.006240  0.255156  1
  H  H19  1  0.166880  0.493760  0.755156  1
  H  H20  1  0.833120  0.993760  0.744844  1
  H  H21  1  0.833120  0.506240  0.244844  1
  H  H22  1  0.263002  0.266699  0.137218  1
  H  H23  1  0.263002  0.233301  0.637218  1
  H  H24  1  0.736998  0.733301  0.862782  1
  H  H25  1  0.736998  0.766699  0.362782  1
  H  H26  1  0.222975  0.193379  0.258537  1
  H  H27  1  0.222975  0.306621  0.758537  1
  H  H28  1  0.777025  0.806621  0.741463  1
  H  H29  1  0.777025  0.693379  0.241463  1
  H  H30  1  0.313990  0.157229  0.982782  1
  H  H31  1  0.313990  0.342771  0.482782  1
  H  H32  1  0.686010  0.842771  0.017218  1
  H  H33  1  0.686010  0.657229  0.517218  1
  H  H34  1  0.293015  0.002584  0.987704  1
  H  H35  1  0.293015  0.497416  0.487704  1
  H  H36  1  0.706985  0.997416  0.012296  1
  H  H37  1  0.706985  0.502584  0.512296  1
  C  C38  1  0.226036  0.876999  0.147691  1
  C  C39  1  0.226036  0.623001  0.647691  1
  C  C40  1  0.773964  0.123001  0.852309  1
  C  C41  1  0.773964  0.376999  0.352309  1
  C  C42  1  0.250992  0.089605  0.125653  1
  C  C43  1  0.250992  0.410395  0.625653  1
  C  C44  1  0.749008  0.910395  0.874347  1
  C  C45  1  0.749008  0.589605  0.374347  1
  N  N46  1  0.202400  0.799041  0.225413  1
  N  N47  1  0.202400  0.700959  0.725413  1
  N  N48  1  0.797600  0.200959  0.774587  1
  N  N49  1  0.797600  0.299041  0.274587  1
  N  N50  1  0.215095  0.992232  0.182125  1
  N  N51  1  0.215095  0.507768  0.682125  1
  N  N52  1  0.784905  0.007768  0.817875  1
  N  N53  1  0.784905  0.492232  0.317875  1
  N  N54  1  0.238648  0.191080  0.176091  1
  N  N55  1  0.238648  0.308920  0.676091  1
  N  N56  1  0.761352  0.808920  0.823909  1
  N  N57  1  0.761352  0.691080  0.323909  1
  N  N58  1  0.294248  0.082495  0.024370  1
  N  N59  1  0.294248  0.417505  0.524370  1
  N  N60  1  0.705752  0.917505  0.975630  1
  N  N61  1  0.705752  0.582495  0.475630  1
  Cl  Cl62  1  0.793773  0.000042  0.290562  1
  Cl  Cl63  1  0.793773  0.499958  0.790562  1
  Cl  Cl64  1  0.206227  0.999958  0.709438  1
  Cl  Cl65  1  0.206227  0.500042  0.209438  1
  Cl  Cl66  1  0.270694  0.139523  0.455069  1
  Cl  Cl67  1  0.270694  0.360477  0.955069  1
  Cl  Cl68  1  0.729306  0.860477  0.544931  1
  Cl  Cl69  1  0.729306  0.639523  0.044931  1
  O  O70  1  0.208504  0.866006  0.466510  1
  O  O71  1  0.208504  0.633994  0.966510  1
  O  O72  1  0.791496  0.133994  0.533490  1
  O  O73  1  0.791496  0.366006  0.033490  1
  O  O74  1  0.253804  0.852199  0.050846  1
  O  O75  1  0.253804  0.647801  0.550846  1
  O  O76  1  0.746196  0.147801  0.949154  1
  O  O77  1  0.746196  0.352199  0.449154  1
