# generated using pymatgen
data_Li4Cr(WO4)3
_symmetry_space_group_name_H-M   'P 1'
_cell_length_a   5.02265382
_cell_length_b   8.63672132
_cell_length_c   5.14736487
_cell_angle_alpha   90.00000000
_cell_angle_beta   90.37617383
_cell_angle_gamma   90.00000000
_symmetry_Int_Tables_number   1
_chemical_formula_structural   Li4Cr(WO4)3
_chemical_formula_sum   'Li4 Cr1 W3 O12'
_cell_volume   223.28407354
_cell_formula_units_Z   1
loop_
 _symmetry_equiv_pos_site_id
 _symmetry_equiv_pos_as_xyz
  1  'x, y, z'
loop_
 _atom_site_type_symbol
 _atom_site_label
 _atom_site_symmetry_multiplicity
 _atom_site_fract_x
 _atom_site_fract_y
 _atom_site_fract_z
 _atom_site_occupancy
  Li  Li0  1  0.000000  0.299356  0.000000  1
  Li  Li1  1  0.500000  0.161244  0.000000  1
  Li  Li2  1  0.000000  0.692387  0.500000  1
  Li  Li3  1  0.500000  0.816080  0.500000  1
  Cr  Cr4  1  0.000000  0.903804  0.000000  1
  W  W5  1  0.500000  0.392560  0.500000  1
  W  W6  1  0.500000  0.604347  0.000000  1
  W  W7  1  0.000000  0.074563  0.500000  1
  O  O8  1  0.258013  0.741258  0.150322  1
  O  O9  1  0.300379  0.417486  0.177470  1
  O  O10  1  0.198799  0.075454  0.179755  1
  O  O11  1  0.707133  0.572351  0.314649  1
  O  O12  1  0.795898  0.913986  0.330660  1
  O  O13  1  0.754717  0.236754  0.361323  1
  O  O14  1  0.245283  0.236754  0.638677  1
  O  O15  1  0.204102  0.913986  0.669340  1
  O  O16  1  0.292867  0.572351  0.685351  1
  O  O17  1  0.801201  0.075454  0.820245  1
  O  O18  1  0.699621  0.417486  0.822530  1
  O  O19  1  0.741987  0.741258  0.849678  1
