# generated using pymatgen
data_Ho2(SO4)3
_symmetry_space_group_name_H-M   'P 1'
_cell_length_a   9.53383987
_cell_length_b   9.53383987
_cell_length_c   9.53383987
_cell_angle_alpha   57.93141783
_cell_angle_beta   57.93141783
_cell_angle_gamma   57.93141783
_symmetry_Int_Tables_number   1
_chemical_formula_structural   Ho2(SO4)3
_chemical_formula_sum   'Ho4 S6 O24'
_cell_volume   583.67078385
_cell_formula_units_Z   2
loop_
 _symmetry_equiv_pos_site_id
 _symmetry_equiv_pos_as_xyz
  1  'x, y, z'
loop_
 _atom_site_type_symbol
 _atom_site_label
 _atom_site_symmetry_multiplicity
 _atom_site_fract_x
 _atom_site_fract_y
 _atom_site_fract_z
 _atom_site_occupancy
  Ho  Ho0  1  0.356095  0.356095  0.356095  1
  Ho  Ho1  1  0.643905  0.643905  0.643905  1
  Ho  Ho2  1  0.856095  0.856095  0.856095  1
  Ho  Ho3  1  0.143905  0.143905  0.143905  1
  S  S4  1  0.250000  0.537431  0.962569  1
  S  S5  1  0.037431  0.750000  0.462569  1
  S  S6  1  0.462569  0.037431  0.750000  1
  S  S7  1  0.537431  0.962569  0.250000  1
  S  S8  1  0.962569  0.250000  0.537431  1
  S  S9  1  0.750000  0.462569  0.037431  1
  O  O10  1  0.093041  0.696637  0.935680  1
  O  O11  1  0.225511  0.381776  0.991294  1
  O  O12  1  0.008706  0.774489  0.618224  1
  O  O13  1  0.303363  0.064320  0.906959  1
  O  O14  1  0.406959  0.564320  0.803363  1
  O  O15  1  0.118224  0.274489  0.508706  1
  O  O16  1  0.491294  0.881776  0.725511  1
  O  O17  1  0.196637  0.593041  0.435680  1
  O  O18  1  0.064320  0.906959  0.303363  1
  O  O19  1  0.435680  0.196637  0.593041  1
  O  O20  1  0.618224  0.008706  0.774489  1
  O  O21  1  0.725511  0.491294  0.881776  1
  O  O22  1  0.274489  0.508706  0.118224  1
  O  O23  1  0.381776  0.991294  0.225511  1
  O  O24  1  0.564320  0.803363  0.406959  1
  O  O25  1  0.935680  0.093041  0.696637  1
  O  O26  1  0.803363  0.406959  0.564320  1
  O  O27  1  0.508706  0.118224  0.274489  1
  O  O28  1  0.881776  0.725511  0.491294  1
  O  O29  1  0.593041  0.435680  0.196637  1
  O  O30  1  0.696637  0.935680  0.093041  1
  O  O31  1  0.991294  0.225511  0.381776  1
  O  O32  1  0.774489  0.618224  0.008706  1
  O  O33  1  0.906959  0.303363  0.064320  1
