# generated using pymatgen
data_VCrO3
_symmetry_space_group_name_H-M   'P 1'
_cell_length_a   5.10928475
_cell_length_b   5.50969088
_cell_length_c   8.85979418
_cell_angle_alpha   105.59203286
_cell_angle_beta   89.85997026
_cell_angle_gamma   117.58434483
_symmetry_Int_Tables_number   1
_chemical_formula_structural   VCrO3
_chemical_formula_sum   'V4 Cr4 O12'
_cell_volume   210.73715639
_cell_formula_units_Z   4
loop_
 _symmetry_equiv_pos_site_id
 _symmetry_equiv_pos_as_xyz
  1  'x, y, z'
loop_
 _atom_site_type_symbol
 _atom_site_label
 _atom_site_symmetry_multiplicity
 _atom_site_fract_x
 _atom_site_fract_y
 _atom_site_fract_z
 _atom_site_occupancy
  V  V0  1  0.722970  0.876229  0.571962  1
  V  V1  1  0.224822  0.370173  0.076645  1
  V  V2  1  0.025490  0.376952  0.676249  1
  V  V3  1  0.276751  0.129364  0.424869  1
  Cr  Cr4  1  0.522124  0.871368  0.172920  1
  Cr  Cr5  1  0.975481  0.628637  0.324842  1
  Cr  Cr6  1  0.477216  0.126208  0.826392  1
  Cr  Cr7  1  0.774792  0.623634  0.925553  1
  O  O8  1  0.777373  0.526501  0.724981  1
  O  O9  1  0.276277  0.023274  0.223236  1
  O  O10  1  0.819113  0.874228  0.372851  1
  O  O11  1  0.679160  0.625074  0.125588  1
  O  O12  1  0.224403  0.775734  0.973242  1
  O  O13  1  0.722717  0.280441  0.472060  1
  O  O14  1  0.275137  0.722080  0.526169  1
  O  O15  1  0.774540  0.221666  0.026135  1
  O  O16  1  0.326331  0.374692  0.876899  1
  O  O17  1  0.179125  0.126440  0.626197  1
  O  O18  1  0.723324  0.972156  0.776050  1
  O  O19  1  0.222855  0.475149  0.277161  1
