# generated using pymatgen
data_LiFeF4
_symmetry_space_group_name_H-M   'P 1'
_cell_length_a   4.72748004
_cell_length_b   5.67560991
_cell_length_c   10.21900972
_cell_angle_alpha   90.00000000
_cell_angle_beta   90.00000000
_cell_angle_gamma   90.00000000
_symmetry_Int_Tables_number   1
_chemical_formula_structural   LiFeF4
_chemical_formula_sum   'Li4 Fe4 F16'
_cell_volume   274.18964828
_cell_formula_units_Z   4
loop_
 _symmetry_equiv_pos_site_id
 _symmetry_equiv_pos_as_xyz
  1  'x, y, z'
loop_
 _atom_site_type_symbol
 _atom_site_label
 _atom_site_symmetry_multiplicity
 _atom_site_fract_x
 _atom_site_fract_y
 _atom_site_fract_z
 _atom_site_occupancy
  Li  Li0  1  0.000000  0.824418  0.250000  1
  Li  Li1  1  0.000000  0.175582  0.750000  1
  Li  Li2  1  0.500000  0.324418  0.250000  1
  Li  Li3  1  0.500000  0.675582  0.750000  1
  Fe  Fe4  1  0.000000  0.500000  0.000000  1
  Fe  Fe5  1  0.000000  0.500000  0.500000  1
  Fe  Fe6  1  0.500000  0.000000  0.000000  1
  Fe  Fe7  1  0.500000  0.000000  0.500000  1
  F  F8  1  0.226330  0.233604  0.578055  1
  F  F9  1  0.226330  0.766396  0.078055  1
  F  F10  1  0.213289  0.485369  0.843323  1
  F  F11  1  0.213289  0.514631  0.343323  1
  F  F12  1  0.286711  0.014631  0.343323  1
  F  F13  1  0.286711  0.985369  0.843323  1
  F  F14  1  0.273670  0.266396  0.078055  1
  F  F15  1  0.273670  0.733604  0.578055  1
  F  F16  1  0.726330  0.266396  0.421945  1
  F  F17  1  0.726330  0.733604  0.921945  1
  F  F18  1  0.713289  0.985369  0.656677  1
  F  F19  1  0.713289  0.014631  0.156677  1
  F  F20  1  0.786711  0.514631  0.156677  1
  F  F21  1  0.786711  0.485369  0.656677  1
  F  F22  1  0.773670  0.766396  0.421945  1
  F  F23  1  0.773670  0.233604  0.921945  1
