# generated using pymatgen
data_LiSiBiO4
_symmetry_space_group_name_H-M   'P 1'
_cell_length_a   4.95598114
_cell_length_b   7.27778787
_cell_length_c   10.65511003
_cell_angle_alpha   90.00000000
_cell_angle_beta   90.00000000
_cell_angle_gamma   90.00000000
_symmetry_Int_Tables_number   1
_chemical_formula_structural   LiSiBiO4
_chemical_formula_sum   'Li4 Si4 Bi4 O16'
_cell_volume   384.31468240
_cell_formula_units_Z   4
loop_
 _symmetry_equiv_pos_site_id
 _symmetry_equiv_pos_as_xyz
  1  'x, y, z'
loop_
 _atom_site_type_symbol
 _atom_site_label
 _atom_site_symmetry_multiplicity
 _atom_site_fract_x
 _atom_site_fract_y
 _atom_site_fract_z
 _atom_site_occupancy
  Li  Li0  1  0.758927  0.993858  0.156747  1
  Li  Li1  1  0.258927  0.493858  0.343253  1
  Li  Li2  1  0.758927  0.506142  0.656747  1
  Li  Li3  1  0.258927  0.006142  0.843253  1
  Si  Si4  1  0.251799  0.233727  0.089286  1
  Si  Si5  1  0.751799  0.733727  0.410714  1
  Si  Si6  1  0.251799  0.266273  0.589286  1
  Si  Si7  1  0.751799  0.766273  0.910714  1
  Bi  Bi8  1  0.274704  0.741165  0.121583  1
  Bi  Bi9  1  0.774704  0.241165  0.378417  1
  Bi  Bi10  1  0.274704  0.758835  0.621583  1
  Bi  Bi11  1  0.774704  0.258835  0.878417  1
  O  O12  1  0.856926  0.765752  0.060456  1
  O  O13  1  0.916298  0.215888  0.072219  1
  O  O14  1  0.331233  0.419097  0.165986  1
  O  O15  1  0.367755  0.047810  0.157357  1
  O  O16  1  0.867755  0.547810  0.342643  1
  O  O17  1  0.831233  0.919097  0.334014  1
  O  O18  1  0.416298  0.715888  0.427781  1
  O  O19  1  0.356926  0.265752  0.439544  1
  O  O20  1  0.856926  0.734248  0.560456  1
  O  O21  1  0.916298  0.284112  0.572219  1
  O  O22  1  0.331233  0.080903  0.665986  1
  O  O23  1  0.367755  0.452190  0.657357  1
  O  O24  1  0.867755  0.952190  0.842643  1
  O  O25  1  0.831233  0.580903  0.834014  1
  O  O26  1  0.416298  0.784112  0.927781  1
  O  O27  1  0.356926  0.234248  0.939544  1
