# generated using pymatgen
data_K5HfIn(MoO4)6
_symmetry_space_group_name_H-M   'P 1'
_cell_length_a   14.19255995
_cell_length_b   14.19255995
_cell_length_c   14.19255995
_cell_angle_alpha   44.60019182
_cell_angle_beta   44.60019182
_cell_angle_gamma   44.60019182
_symmetry_Int_Tables_number   1
_chemical_formula_structural   K5HfIn(MoO4)6
_chemical_formula_sum   'K10 Hf2 In2 Mo12 O48'
_cell_volume   1281.76828003
_cell_formula_units_Z   2
loop_
 _symmetry_equiv_pos_site_id
 _symmetry_equiv_pos_as_xyz
  1  'x, y, z'
loop_
 _atom_site_type_symbol
 _atom_site_label
 _atom_site_symmetry_multiplicity
 _atom_site_fract_x
 _atom_site_fract_y
 _atom_site_fract_z
 _atom_site_occupancy
  K  K0  1  0.853361  0.853361  0.853361  1
  K  K1  1  0.646639  0.646639  0.646639  1
  K  K2  1  0.250000  0.635906  0.864094  1
  K  K3  1  0.864094  0.250000  0.635906  1
  K  K4  1  0.635906  0.864094  0.250000  1
  K  K5  1  0.364094  0.135906  0.750000  1
  K  K6  1  0.135906  0.750000  0.364094  1
  K  K7  1  0.750000  0.364094  0.135906  1
  K  K8  1  0.353361  0.353361  0.353361  1
  K  K9  1  0.146639  0.146639  0.146639  1
  Hf  Hf10  1  0.000000  0.000000  0.000000  1
  Hf  Hf11  1  0.500000  0.500000  0.500000  1
  In  In12  1  0.750000  0.750000  0.750000  1
  In  In13  1  0.250000  0.250000  0.250000  1
  Mo  Mo14  1  0.381287  0.737829  0.977962  1
  Mo  Mo15  1  0.977962  0.381287  0.737829  1
  Mo  Mo16  1  0.737829  0.977962  0.381287  1
  Mo  Mo17  1  0.477962  0.237829  0.881287  1
  Mo  Mo18  1  0.237829  0.881287  0.477962  1
  Mo  Mo19  1  0.118713  0.522038  0.762171  1
  Mo  Mo20  1  0.881287  0.477962  0.237829  1
  Mo  Mo21  1  0.762171  0.118713  0.522038  1
  Mo  Mo22  1  0.522038  0.762171  0.118713  1
  Mo  Mo23  1  0.262171  0.022038  0.618713  1
  Mo  Mo24  1  0.022038  0.618713  0.262171  1
  Mo  Mo25  1  0.618713  0.262171  0.022038  1
  O  O26  1  0.678791  0.697490  0.971827  1
  O  O27  1  0.971827  0.678791  0.697490  1
  O  O28  1  0.697490  0.971827  0.678791  1
  O  O29  1  0.528173  0.802510  0.821209  1
  O  O30  1  0.821209  0.528173  0.802510  1
  O  O31  1  0.802510  0.821209  0.528173  1
  O  O32  1  0.382269  0.652532  0.929822  1
  O  O33  1  0.801210  0.104024  0.995580  1
  O  O34  1  0.929822  0.382269  0.652532  1
  O  O35  1  0.104024  0.995580  0.801210  1
  O  O36  1  0.593426  0.388672  0.857078  1
  O  O37  1  0.652532  0.929822  0.382269  1
  O  O38  1  0.388672  0.857078  0.593426  1
  O  O39  1  0.642922  0.111328  0.906574  1
  O  O40  1  0.857078  0.593426  0.388672  1
  O  O41  1  0.995580  0.801210  0.104024  1
  O  O42  1  0.111328  0.906574  0.642922  1
  O  O43  1  0.504420  0.395976  0.698790  1
  O  O44  1  0.117731  0.570178  0.847468  1
  O  O45  1  0.429822  0.152532  0.882269  1
  O  O46  1  0.395976  0.698790  0.504420  1
  O  O47  1  0.847468  0.117731  0.570178  1
  O  O48  1  0.698790  0.504420  0.395976  1
  O  O49  1  0.906574  0.642922  0.111328  1
  O  O50  1  0.093426  0.357078  0.888672  1
  O  O51  1  0.301210  0.495580  0.604024  1
  O  O52  1  0.152532  0.882269  0.429822  1
  O  O53  1  0.604024  0.301210  0.495580  1
  O  O54  1  0.570178  0.847468  0.117731  1
  O  O55  1  0.882269  0.429822  0.152532  1
  O  O56  1  0.495580  0.604024  0.301210  1
  O  O57  1  0.888672  0.093426  0.357078  1
  O  O58  1  0.004420  0.198790  0.895976  1
  O  O59  1  0.142922  0.406574  0.611328  1
  O  O60  1  0.357078  0.888672  0.093426  1
  O  O61  1  0.611328  0.142922  0.406574  1
  O  O62  1  0.347468  0.070178  0.617731  1
  O  O63  1  0.406574  0.611328  0.142922  1
  O  O64  1  0.895976  0.004420  0.198790  1
  O  O65  1  0.070178  0.617731  0.347468  1
  O  O66  1  0.198790  0.895976  0.004420  1
  O  O67  1  0.617731  0.347468  0.070178  1
  O  O68  1  0.197490  0.178791  0.471827  1
  O  O69  1  0.178791  0.471827  0.197490  1
  O  O70  1  0.471827  0.197490  0.178791  1
  O  O71  1  0.302510  0.028173  0.321209  1
  O  O72  1  0.028173  0.321209  0.302510  1
  O  O73  1  0.321209  0.302510  0.028173  1
