# generated using pymatgen
data_Fe(SO4)2
_symmetry_space_group_name_H-M   'P 1'
_cell_length_a   8.96725092
_cell_length_b   8.96725092
_cell_length_c   8.96725092
_cell_angle_alpha   56.21308893
_cell_angle_beta   56.21308893
_cell_angle_gamma   56.21308893
_symmetry_Int_Tables_number   1
_chemical_formula_structural   Fe(SO4)2
_chemical_formula_sum   'Fe3 S6 O24'
_cell_volume   465.18550573
_cell_formula_units_Z   3
loop_
 _symmetry_equiv_pos_site_id
 _symmetry_equiv_pos_as_xyz
  1  'x, y, z'
loop_
 _atom_site_type_symbol
 _atom_site_label
 _atom_site_symmetry_multiplicity
 _atom_site_fract_x
 _atom_site_fract_y
 _atom_site_fract_z
 _atom_site_occupancy
  Fe  Fe0  1  0.643849  0.643849  0.643849  1
  Fe  Fe1  1  0.356502  0.356502  0.356502  1
  Fe  Fe2  1  0.148945  0.148945  0.148945  1
  S  S3  1  0.256043  0.532875  0.960740  1
  S  S4  1  0.960740  0.256043  0.532875  1
  S  S5  1  0.532875  0.960740  0.256043  1
  S  S6  1  0.460719  0.039634  0.750625  1
  S  S7  1  0.039634  0.750625  0.460719  1
  S  S8  1  0.750625  0.460719  0.039634  1
  O  O9  1  0.708830  0.486672  0.885823  1
  O  O10  1  0.486672  0.885823  0.708830  1
  O  O11  1  0.056802  0.660983  0.995011  1
  O  O12  1  0.885823  0.708830  0.486672  1
  O  O13  1  0.281338  0.344936  0.976333  1
  O  O14  1  0.389260  0.612009  0.767863  1
  O  O15  1  0.767863  0.389260  0.612009  1
  O  O16  1  0.995011  0.056802  0.660983  1
  O  O17  1  0.612009  0.767863  0.389260  1
  O  O18  1  0.320957  0.019472  0.952356  1
  O  O19  1  0.640865  0.029349  0.726132  1
  O  O20  1  0.029349  0.726132  0.640865  1
  O  O21  1  0.976333  0.281338  0.344936  1
  O  O22  1  0.344936  0.976333  0.281338  1
  O  O23  1  0.660983  0.995011  0.056802  1
  O  O24  1  0.371078  0.231063  0.619486  1
  O  O25  1  0.019472  0.952356  0.320957  1
  O  O26  1  0.231063  0.619486  0.371078  1
  O  O27  1  0.619486  0.371078  0.231063  1
  O  O28  1  0.726132  0.640865  0.029349  1
  O  O29  1  0.105681  0.320024  0.495384  1
  O  O30  1  0.952356  0.320957  0.019472  1
  O  O31  1  0.495384  0.105681  0.320024  1
  O  O32  1  0.320024  0.495384  0.105681  1
