# generated using pymatgen
data_Mn6OF11
_symmetry_space_group_name_H-M   'P 1'
_cell_length_a   5.28401611
_cell_length_b   5.28401611
_cell_length_c   15.57780270
_cell_angle_alpha   87.89075347
_cell_angle_beta   92.10924653
_cell_angle_gamma   91.46153510
_symmetry_Int_Tables_number   1
_chemical_formula_structural   Mn6OF11
_chemical_formula_sum   'Mn12 O2 F22'
_cell_volume   434.22890521
_cell_formula_units_Z   2
loop_
 _symmetry_equiv_pos_site_id
 _symmetry_equiv_pos_as_xyz
  1  'x, y, z'
loop_
 _atom_site_type_symbol
 _atom_site_label
 _atom_site_symmetry_multiplicity
 _atom_site_fract_x
 _atom_site_fract_y
 _atom_site_fract_z
 _atom_site_occupancy
  Mn  Mn0  1  0.306512  0.693488  0.000300  1
  Mn  Mn1  1  0.235713  0.267558  0.163190  1
  Mn  Mn2  1  0.249650  0.750350  0.330478  1
  Mn  Mn3  1  0.248920  0.248920  0.500000  1
  Mn  Mn4  1  0.258128  0.741872  0.667185  1
  Mn  Mn5  1  0.267558  0.235713  0.836810  1
  Mn  Mn6  1  0.732442  0.764287  0.163190  1
  Mn  Mn7  1  0.693488  0.306512  0.999700  1
  Mn  Mn8  1  0.750350  0.249650  0.669522  1
  Mn  Mn9  1  0.751080  0.751080  0.500000  1
  Mn  Mn10  1  0.741872  0.258128  0.332815  1
  Mn  Mn11  1  0.764287  0.732442  0.836810  1
  O  O12  1  0.493454  0.506546  0.919003  1
  O  O13  1  0.506546  0.493454  0.080997  1
  F  F14  1  0.476944  0.523056  0.250143  1
  F  F15  1  0.395648  0.982715  0.081251  1
  F  F16  1  0.482917  0.517083  0.582117  1
  F  F17  1  0.480435  0.983416  0.416927  1
  F  F18  1  0.475062  0.976266  0.755074  1
  F  F19  1  0.524938  0.023734  0.244926  1
  F  F20  1  0.519565  0.016584  0.583073  1
  F  F21  1  0.604352  0.017285  0.918749  1
  F  F22  1  0.523056  0.476944  0.749857  1
  F  F23  1  0.517083  0.482917  0.417883  1
  F  F24  1  0.982715  0.395648  0.918749  1
  F  F25  1  0.983416  0.480435  0.583073  1
  F  F26  1  0.976266  0.475062  0.244926  1
  F  F27  1  0.889200  0.110800  0.084079  1
  F  F28  1  0.981520  0.018480  0.414559  1
  F  F29  1  0.974917  0.025083  0.757788  1
  F  F30  1  0.016584  0.519565  0.416927  1
  F  F31  1  0.017285  0.604352  0.081251  1
  F  F32  1  0.023734  0.524938  0.755074  1
  F  F33  1  0.018480  0.981520  0.585441  1
  F  F34  1  0.110800  0.889200  0.915921  1
  F  F35  1  0.025083  0.974917  0.242212  1
