# generated using pymatgen
data_FeOF
_symmetry_space_group_name_H-M   'P 1'
_cell_length_a   9.45457248
_cell_length_b   3.10957606
_cell_length_c   9.45474925
_cell_angle_alpha   90.00000000
_cell_angle_beta   90.18818138
_cell_angle_gamma   90.00000000
_symmetry_Int_Tables_number   1
_chemical_formula_structural   FeOF
_chemical_formula_sum   'Fe8 O8 F8'
_cell_volume   277.96540795
_cell_formula_units_Z   8
loop_
 _symmetry_equiv_pos_site_id
 _symmetry_equiv_pos_as_xyz
  1  'x, y, z'
loop_
 _atom_site_type_symbol
 _atom_site_label
 _atom_site_symmetry_multiplicity
 _atom_site_fract_x
 _atom_site_fract_y
 _atom_site_fract_z
 _atom_site_occupancy
  Fe  Fe0  1  0.003986  0.000000  0.981307  1
  Fe  Fe1  1  0.988317  0.000000  0.509913  1
  Fe  Fe2  1  0.769479  0.500000  0.753978  1
  Fe  Fe3  1  0.759878  0.500000  0.273703  1
  Fe  Fe4  1  0.504189  0.000000  0.481832  1
  Fe  Fe5  1  0.487218  0.000000  0.010567  1
  Fe  Fe6  1  0.226264  0.500000  0.740215  1
  Fe  Fe7  1  0.266252  0.500000  0.256460  1
  O  O8  1  0.897906  0.500000  0.596801  1
  O  O9  1  0.841162  0.000000  0.854203  1
  O  O10  1  0.854966  0.000000  0.344267  1
  O  O11  1  0.597832  0.500000  0.401631  1
  O  O12  1  0.400471  0.500000  0.094514  1
  O  O13  1  0.344020  0.000000  0.350900  1
  O  O14  1  0.154348  0.000000  0.644133  1
  O  O15  1  0.102731  0.500000  0.906228  1
  F  F16  1  0.904207  0.500000  0.098663  1
  F  F17  1  0.645648  0.000000  0.657468  1
  F  F18  1  0.655385  0.000000  0.145426  1
  F  F19  1  0.591756  0.500000  0.901634  1
  F  F20  1  0.406085  0.500000  0.601164  1
  F  F21  1  0.353163  0.000000  0.842027  1
  F  F22  1  0.147800  0.000000  0.156760  1
  F  F23  1  0.096937  0.500000  0.396203  1
