# generated using pymatgen
data_Li6TeO6
_symmetry_space_group_name_H-M   'P 1'
_cell_length_a   5.67204756
_cell_length_b   5.67204756
_cell_length_c   5.67204756
_cell_angle_alpha   61.68533371
_cell_angle_beta   61.68533371
_cell_angle_gamma   61.68533371
_symmetry_Int_Tables_number   1
_chemical_formula_structural   Li6TeO6
_chemical_formula_sum   'Li6 Te1 O6'
_cell_volume   133.90929661
_cell_formula_units_Z   1
loop_
 _symmetry_equiv_pos_site_id
 _symmetry_equiv_pos_as_xyz
  1  'x, y, z'
loop_
 _atom_site_type_symbol
 _atom_site_label
 _atom_site_symmetry_multiplicity
 _atom_site_fract_x
 _atom_site_fract_y
 _atom_site_fract_z
 _atom_site_occupancy
  Li  Li0  1  0.514812  0.716994  0.078803  1
  Li  Li1  1  0.283006  0.921197  0.485188  1
  Li  Li2  1  0.921197  0.485188  0.283006  1
  Li  Li3  1  0.078803  0.514812  0.716994  1
  Li  Li4  1  0.716994  0.078803  0.514812  1
  Li  Li5  1  0.485188  0.283006  0.921197  1
  Te  Te6  1  0.000000  0.000000  0.000000  1
  O  O7  1  0.653023  0.896875  0.202382  1
  O  O8  1  0.103125  0.797618  0.346977  1
  O  O9  1  0.797618  0.346977  0.103125  1
  O  O10  1  0.202382  0.653023  0.896875  1
  O  O11  1  0.896875  0.202382  0.653023  1
  O  O12  1  0.346977  0.103125  0.797618  1
