# generated using pymatgen
data_Li2Mn2F7
_symmetry_space_group_name_H-M   'P 1'
_cell_length_a   7.81065772
_cell_length_b   5.03051952
_cell_length_c   12.93632845
_cell_angle_alpha   90.00000000
_cell_angle_beta   101.60644808
_cell_angle_gamma   90.00000000
_symmetry_Int_Tables_number   1
_chemical_formula_structural   Li2Mn2F7
_chemical_formula_sum   'Li8 Mn8 F28'
_cell_volume   497.89669876
_cell_formula_units_Z   4
loop_
 _symmetry_equiv_pos_site_id
 _symmetry_equiv_pos_as_xyz
  1  'x, y, z'
loop_
 _atom_site_type_symbol
 _atom_site_label
 _atom_site_symmetry_multiplicity
 _atom_site_fract_x
 _atom_site_fract_y
 _atom_site_fract_z
 _atom_site_occupancy
  Li  Li0  1  0.970602  0.240338  0.694456  1
  Li  Li1  1  0.996716  0.755294  0.882477  1
  Li  Li2  1  0.605343  0.781187  0.312552  1
  Li  Li3  1  0.567938  0.283138  0.150983  1
  Li  Li4  1  0.432062  0.783138  0.849017  1
  Li  Li5  1  0.394657  0.281187  0.687448  1
  Li  Li6  1  0.003284  0.255294  0.117523  1
  Li  Li7  1  0.029398  0.740338  0.305544  1
  Mn  Mn8  1  0.816404  0.344863  0.460047  1
  Mn  Mn9  1  0.730969  0.773202  0.056193  1
  Mn  Mn10  1  0.747086  0.222038  0.845790  1
  Mn  Mn11  1  0.634255  0.804572  0.626181  1
  Mn  Mn12  1  0.365745  0.304572  0.373819  1
  Mn  Mn13  1  0.252914  0.722038  0.154210  1
  Mn  Mn14  1  0.269031  0.273202  0.943807  1
  Mn  Mn15  1  0.183596  0.844863  0.539953  1
  F  F16  1  0.953077  0.557122  0.567190  1
  F  F17  1  0.021857  0.400324  0.830262  1
  F  F18  1  0.834653  0.595356  0.354982  1
  F  F19  1  0.781825  0.438953  0.127189  1
  F  F20  1  0.799409  0.091826  0.564069  1
  F  F21  1  0.903087  0.032751  0.972989  1
  F  F22  1  0.858055  0.937372  0.755560  1
  F  F23  1  0.666841  0.130455  0.364840  1
  F  F24  1  0.626106  0.912462  0.167310  1
  F  F25  1  0.733544  0.577395  0.928483  1
  F  F26  1  0.665200  0.440706  0.706175  1
  F  F27  1  0.587450  0.569100  0.475893  1
  F  F28  1  0.426928  0.519400  0.035117  1
  F  F29  1  0.471076  0.484639  0.248292  1
  F  F30  1  0.528924  0.984639  0.751708  1
  F  F31  1  0.573072  0.019400  0.964883  1
  F  F32  1  0.412550  0.069100  0.524107  1
  F  F33  1  0.334800  0.940706  0.293825  1
  F  F34  1  0.266456  0.077395  0.071517  1
  F  F35  1  0.373894  0.412462  0.832690  1
  F  F36  1  0.333159  0.630455  0.635160  1
  F  F37  1  0.141945  0.437372  0.244440  1
  F  F38  1  0.096913  0.532751  0.027011  1
  F  F39  1  0.200591  0.591826  0.435931  1
  F  F40  1  0.218175  0.938953  0.872811  1
  F  F41  1  0.165347  0.095356  0.645018  1
  F  F42  1  0.978143  0.900324  0.169738  1
  F  F43  1  0.046923  0.057122  0.432810  1
