# generated using pymatgen
data_NaSn2(PO4)3
_symmetry_space_group_name_H-M   'P 1'
_cell_length_a   8.61544696
_cell_length_b   8.64924058
_cell_length_c   9.13777331
_cell_angle_alpha   62.11144338
_cell_angle_beta   62.19591628
_cell_angle_gamma   60.14067853
_symmetry_Int_Tables_number   1
_chemical_formula_structural   NaSn2(PO4)3
_chemical_formula_sum   'Na2 Sn4 P6 O24'
_cell_volume   497.12286427
_cell_formula_units_Z   2
loop_
 _symmetry_equiv_pos_site_id
 _symmetry_equiv_pos_as_xyz
  1  'x, y, z'
loop_
 _atom_site_type_symbol
 _atom_site_label
 _atom_site_symmetry_multiplicity
 _atom_site_fract_x
 _atom_site_fract_y
 _atom_site_fract_z
 _atom_site_occupancy
  Na  Na0  1  0.835202  0.518828  0.438135  1
  Na  Na1  1  0.164798  0.481172  0.561865  1
  Sn  Sn2  1  0.147030  0.652079  0.064374  1
  Sn  Sn3  1  0.649016  0.146687  0.557994  1
  Sn  Sn4  1  0.350984  0.853313  0.442006  1
  Sn  Sn5  1  0.852970  0.347921  0.935626  1
  P  P6  1  0.539608  0.459606  0.747705  1
  P  P7  1  0.747552  0.970246  0.244390  1
  P  P8  1  0.035791  0.251055  0.247306  1
  P  P9  1  0.964209  0.748945  0.752694  1
  P  P10  1  0.252448  0.029754  0.755610  1
  P  P11  1  0.460392  0.540394  0.252295  1
  O  O12  1  0.889388  0.769698  0.235224  1
  O  O13  1  0.533272  0.632032  0.579988  1
  O  O14  1  0.390190  0.510825  0.910233  1
  O  O15  1  0.741632  0.395391  0.754260  1
  O  O16  1  0.106656  0.396893  0.227254  1
  O  O17  1  0.793442  0.109121  0.060809  1
  O  O18  1  0.520690  0.302576  0.728061  1
  O  O19  1  0.224075  0.994784  0.620594  1
  O  O20  1  0.842720  0.282909  0.393994  1
  O  O21  1  0.544321  0.983504  0.297330  1
  O  O22  1  0.013748  0.290144  0.074573  1
  O  O23  1  0.172787  0.050607  0.299082  1
  O  O24  1  0.827213  0.949393  0.700918  1
  O  O25  1  0.986252  0.709856  0.925427  1
  O  O26  1  0.455679  0.016496  0.702670  1
  O  O27  1  0.157280  0.717091  0.606006  1
  O  O28  1  0.775925  0.005216  0.379406  1
  O  O29  1  0.479310  0.697424  0.271939  1
  O  O30  1  0.206558  0.890879  0.939191  1
  O  O31  1  0.893344  0.603107  0.772746  1
  O  O32  1  0.258368  0.604609  0.245740  1
  O  O33  1  0.609810  0.489175  0.089767  1
  O  O34  1  0.466728  0.367968  0.420012  1
  O  O35  1  0.110612  0.230302  0.764776  1
