# generated using pymatgen
data_Li2Mn3Si3O10
_symmetry_space_group_name_H-M   'P 1'
_cell_length_a   8.42071355
_cell_length_b   8.42071355
_cell_length_c   10.61308851
_cell_angle_alpha   86.87308761
_cell_angle_beta   93.12691239
_cell_angle_gamma   146.07309041
_symmetry_Int_Tables_number   1
_chemical_formula_structural   Li2Mn3Si3O10
_chemical_formula_sum   'Li4 Mn6 Si6 O20'
_cell_volume   419.34488412
_cell_formula_units_Z   2
loop_
 _symmetry_equiv_pos_site_id
 _symmetry_equiv_pos_as_xyz
  1  'x, y, z'
loop_
 _atom_site_type_symbol
 _atom_site_label
 _atom_site_symmetry_multiplicity
 _atom_site_fract_x
 _atom_site_fract_y
 _atom_site_fract_z
 _atom_site_occupancy
  Li  Li0  1  0.250492  0.135197  0.975134  1
  Li  Li1  1  0.864803  0.749508  0.475134  1
  Li  Li2  1  0.135197  0.250492  0.524866  1
  Li  Li3  1  0.749508  0.864803  0.024866  1
  Mn  Mn4  1  0.374533  0.070565  0.707349  1
  Mn  Mn5  1  0.929435  0.625467  0.207349  1
  Mn  Mn6  1  0.500000  0.000000  0.000000  1
  Mn  Mn7  1  0.000000  0.500000  0.500000  1
  Mn  Mn8  1  0.070565  0.374533  0.792651  1
  Mn  Mn9  1  0.625467  0.929435  0.292651  1
  Si  Si10  1  0.835527  0.529076  0.900952  1
  Si  Si11  1  0.470924  0.164473  0.400952  1
  Si  Si12  1  0.529076  0.835527  0.599048  1
  Si  Si13  1  0.164473  0.470924  0.099048  1
  Si  Si14  1  0.798903  0.798903  0.750000  1
  Si  Si15  1  0.201097  0.201097  0.250000  1
  O  O16  1  0.020305  0.937307  0.640705  1
  O  O17  1  0.643205  0.506580  0.816156  1
  O  O18  1  0.062693  0.979695  0.140705  1
  O  O19  1  0.493420  0.356795  0.316156  1
  O  O20  1  0.167032  0.861040  0.897243  1
  O  O21  1  0.606268  0.312146  0.539760  1
  O  O22  1  0.138960  0.832968  0.397243  1
  O  O23  1  0.687854  0.393732  0.039760  1
  O  O24  1  0.760910  0.299290  0.834651  1
  O  O25  1  0.700710  0.239090  0.334651  1
  O  O26  1  0.299290  0.760910  0.665349  1
  O  O27  1  0.239090  0.700710  0.165349  1
  O  O28  1  0.312146  0.606268  0.960240  1
  O  O29  1  0.861040  0.167032  0.602757  1
  O  O30  1  0.393732  0.687854  0.460240  1
  O  O31  1  0.832968  0.138960  0.102757  1
  O  O32  1  0.506581  0.643205  0.683844  1
  O  O33  1  0.937307  0.020305  0.859295  1
  O  O34  1  0.356795  0.493420  0.183844  1
  O  O35  1  0.979695  0.062693  0.359295  1
