# generated using pymatgen
data_Na11Mn13O32
_symmetry_space_group_name_H-M   'P 1'
_cell_length_a   6.20392773
_cell_length_b   6.20392773
_cell_length_c   20.82876986
_cell_angle_alpha   78.53979371
_cell_angle_beta   101.46020629
_cell_angle_gamma   122.27204503
_symmetry_Int_Tables_number   1
_chemical_formula_structural   Na11Mn13O32
_chemical_formula_sum   'Na11 Mn13 O32'
_cell_volume   660.15748261
_cell_formula_units_Z   1
loop_
 _symmetry_equiv_pos_site_id
 _symmetry_equiv_pos_as_xyz
  1  'x, y, z'
loop_
 _atom_site_type_symbol
 _atom_site_label
 _atom_site_symmetry_multiplicity
 _atom_site_fract_x
 _atom_site_fract_y
 _atom_site_fract_z
 _atom_site_occupancy
  Na  Na0  1  0.500000  0.500000  0.500000  1
  Na  Na1  1  0.164390  0.835610  0.468195  1
  Na  Na2  1  0.600322  0.399678  0.789734  1
  Na  Na3  1  0.835610  0.164390  0.531805  1
  Na  Na4  1  0.918863  0.081137  0.722849  1
  Na  Na5  1  0.340821  0.659179  0.026647  1
  Na  Na6  1  0.873776  0.126224  0.126260  1
  Na  Na7  1  0.126224  0.873776  0.873740  1
  Na  Na8  1  0.399678  0.600322  0.210266  1
  Na  Na9  1  0.659179  0.340821  0.973353  1
  Na  Na10  1  0.081137  0.918863  0.277151  1
  Mn  Mn11  1  0.380580  0.619420  0.632589  1
  Mn  Mn12  1  0.873873  0.618295  0.632895  1
  Mn  Mn13  1  0.381705  0.126127  0.632895  1
  Mn  Mn14  1  0.263546  0.736454  0.754513  1
  Mn  Mn15  1  0.870946  0.628834  0.123490  1
  Mn  Mn16  1  0.628834  0.870946  0.876510  1
  Mn  Mn17  1  0.129054  0.371166  0.876510  1
  Mn  Mn18  1  1.000000  1.000000  0.000000  1
  Mn  Mn19  1  0.126127  0.381705  0.367105  1
  Mn  Mn20  1  0.371166  0.129054  0.123490  1
  Mn  Mn21  1  0.736454  0.263546  0.245487  1
  Mn  Mn22  1  0.619420  0.380580  0.367411  1
  Mn  Mn23  1  0.618295  0.873873  0.367105  1
  O  O24  1  0.680724  0.774375  0.587219  1
  O  O25  1  0.674599  0.325401  0.586035  1
  O  O26  1  0.564699  0.435301  0.681440  1
  O  O27  1  0.189738  0.810262  0.582774  1
  O  O28  1  0.812869  0.743205  0.939774  1
  O  O29  1  0.513182  0.904283  0.686326  1
  O  O30  1  0.095717  0.486818  0.686326  1
  O  O31  1  0.003629  0.554581  0.808963  1
  O  O32  1  0.225625  0.319276  0.587219  1
  O  O33  1  0.167358  0.832642  0.068582  1
  O  O34  1  0.330747  0.669253  0.921611  1
  O  O35  1  0.425075  0.574925  0.822125  1
  O  O36  1  0.921794  0.078206  0.829099  1
  O  O37  1  0.099793  0.900207  0.689537  1
  O  O38  1  0.832642  0.167358  0.931418  1
  O  O39  1  0.996371  0.445419  0.191037  1
  O  O40  1  0.256795  0.187131  0.939774  1
  O  O41  1  0.743205  0.812869  0.060226  1
  O  O42  1  0.187131  0.256795  0.060226  1
  O  O43  1  0.445419  0.996371  0.808963  1
  O  O44  1  0.078206  0.921794  0.170901  1
  O  O45  1  0.574925  0.425075  0.177875  1
  O  O46  1  0.669253  0.330747  0.078389  1
  O  O47  1  0.435301  0.564699  0.318560  1
  O  O48  1  0.325401  0.674599  0.413965  1
  O  O49  1  0.554581  0.003629  0.191037  1
  O  O50  1  0.774375  0.680724  0.412781  1
  O  O51  1  0.319276  0.225625  0.412781  1
  O  O52  1  0.486818  0.095717  0.313674  1
  O  O53  1  0.904283  0.513182  0.313674  1
  O  O54  1  0.900207  0.099793  0.310463  1
  O  O55  1  0.810262  0.189738  0.417226  1
