# generated using pymatgen
data_Hf2N2O
_symmetry_space_group_name_H-M   'P 1'
_cell_length_a   8.72987241
_cell_length_b   8.73006316
_cell_length_c   8.73350039
_cell_angle_alpha   109.40599112
_cell_angle_beta   109.53043671
_cell_angle_gamma   109.43669892
_symmetry_Int_Tables_number   1
_chemical_formula_structural   Hf2N2O
_chemical_formula_sum   'Hf16 N16 O8'
_cell_volume   512.63515744
_cell_formula_units_Z   8
loop_
 _symmetry_equiv_pos_site_id
 _symmetry_equiv_pos_as_xyz
  1  'x, y, z'
loop_
 _atom_site_type_symbol
 _atom_site_label
 _atom_site_symmetry_multiplicity
 _atom_site_fract_x
 _atom_site_fract_y
 _atom_site_fract_z
 _atom_site_occupancy
  Hf  Hf0  1  0.214922  0.965244  0.250193  1
  Hf  Hf1  1  0.996685  0.507825  0.006334  1
  Hf  Hf2  1  0.758980  0.789490  0.035093  1
  Hf  Hf3  1  0.250276  0.714517  0.466523  1
  Hf  Hf4  1  0.531569  0.755022  0.295741  1
  Hf  Hf5  1  0.030686  0.749433  0.778368  1
  Hf  Hf6  1  0.996462  0.009408  0.505663  1
  Hf  Hf7  1  0.505693  0.006078  0.995282  1
  Hf  Hf8  1  0.512679  0.502241  0.509552  1
  Hf  Hf9  1  0.720447  0.456541  0.249436  1
  Hf  Hf10  1  0.291590  0.538251  0.750995  1
  Hf  Hf11  1  0.471432  0.256881  0.717008  1
  Hf  Hf12  1  0.954859  0.239570  0.211734  1
  Hf  Hf13  1  0.742801  0.280693  0.533666  1
  Hf  Hf14  1  0.248438  0.213559  0.954168  1
  Hf  Hf15  1  0.779747  0.030842  0.744694  1
  N  N16  1  0.274230  0.741079  0.225329  1
  N  N17  1  0.260582  0.770584  0.728034  1
  N  N18  1  0.014297  0.046707  0.277666  1
  N  N19  1  0.531347  0.768177  0.543878  1
  N  N20  1  0.462908  0.225673  0.451563  1
  N  N21  1  0.967376  0.512486  0.239576  1
  N  N22  1  0.727646  0.988214  0.954958  1
  N  N23  1  0.222272  0.273866  0.736204  1
  N  N24  1  0.993566  0.959052  0.731782  1
  N  N25  1  0.772707  0.544798  0.532931  1
  N  N26  1  0.737566  0.223066  0.271138  1
  N  N27  1  0.543149  0.535420  0.771438  1
  N  N28  1  0.758464  0.029789  0.483051  1
  N  N29  1  0.953976  0.726114  0.984462  1
  N  N30  1  0.731207  0.263055  0.776153  1
  N  N31  1  0.506943  0.236118  0.966376  1
  O  O32  1  0.487486  0.756801  0.033315  1
  O  O33  1  0.053742  0.277618  0.017862  1
  O  O34  1  0.238412  0.963822  0.511469  1
  O  O35  1  0.450991  0.465331  0.224694  1
  O  O36  1  0.226352  0.453645  0.465842  1
  O  O37  1  0.274491  0.013123  0.048490  1
  O  O38  1  0.766219  0.722893  0.256518  1
  O  O39  1  0.036808  0.486974  0.762819  1
