# generated using pymatgen
data_Li2VO2F
_symmetry_space_group_name_H-M   'P 1'
_cell_length_a   3.02350456
_cell_length_b   7.36270147
_cell_length_c   10.41386343
_cell_angle_alpha   89.00958586
_cell_angle_beta   89.88370983
_cell_angle_gamma   89.93579712
_symmetry_Int_Tables_number   1
_chemical_formula_structural   Li2VO2F
_chemical_formula_sum   'Li8 V4 O8 F4'
_cell_volume   231.78944668
_cell_formula_units_Z   4
loop_
 _symmetry_equiv_pos_site_id
 _symmetry_equiv_pos_as_xyz
  1  'x, y, z'
loop_
 _atom_site_type_symbol
 _atom_site_label
 _atom_site_symmetry_multiplicity
 _atom_site_fract_x
 _atom_site_fract_y
 _atom_site_fract_z
 _atom_site_occupancy
  Li  Li0  1  0.000091  0.851713  0.663076  1
  Li  Li1  1  0.999457  0.857753  0.155014  1
  Li  Li2  1  0.000160  0.156095  0.325765  1
  Li  Li3  1  0.002032  0.137408  0.844966  1
  Li  Li4  1  0.499438  0.839144  0.411285  1
  Li  Li5  1  0.499893  0.878099  0.941517  1
  Li  Li6  1  0.497983  0.131143  0.074925  1
  Li  Li7  1  0.500134  0.150851  0.576655  1
  V  V8  1  0.998956  0.494652  0.008765  1
  V  V9  1  0.991444  0.500549  0.498872  1
  V  V10  1  0.507351  0.503028  0.253197  1
  V  V11  1  0.503750  0.480747  0.741148  1
  O  O12  1  0.993988  0.341065  0.666242  1
  O  O13  1  0.017446  0.352761  0.173800  1
  O  O14  1  0.996439  0.654679  0.336692  1
  O  O15  1  0.999301  0.003629  0.000534  1
  O  O16  1  0.496543  0.349989  0.420403  1
  O  O17  1  0.492333  0.369442  0.914165  1
  O  O18  1  0.513679  0.648107  0.085004  1
  O  O19  1  0.488389  0.648856  0.586657  1
  F  F20  1  0.001896  0.653317  0.823051  1
  F  F21  1  0.999821  0.999326  0.499354  1
  F  F22  1  0.499815  0.001148  0.260127  1
  F  F23  1  0.499581  0.996498  0.738785  1
