# generated using pymatgen
data_V2OF5
_symmetry_space_group_name_H-M   'P 1'
_cell_length_a   5.30700610
_cell_length_b   5.43639196
_cell_length_c   17.46092170
_cell_angle_alpha   88.46206741
_cell_angle_beta   98.48260473
_cell_angle_gamma   119.16754743
_symmetry_Int_Tables_number   1
_chemical_formula_structural   V2OF5
_chemical_formula_sum   'V8 O4 F20'
_cell_volume   434.48182735
_cell_formula_units_Z   4
loop_
 _symmetry_equiv_pos_site_id
 _symmetry_equiv_pos_as_xyz
  1  'x, y, z'
loop_
 _atom_site_type_symbol
 _atom_site_label
 _atom_site_symmetry_multiplicity
 _atom_site_fract_x
 _atom_site_fract_y
 _atom_site_fract_z
 _atom_site_occupancy
  V  V0  1  0.246818  0.627131  0.875366  1
  V  V1  1  0.233656  0.091286  0.378895  1
  V  V2  1  0.500203  0.274734  0.745430  1
  V  V3  1  0.506667  0.731921  0.244393  1
  V  V4  1  0.744737  0.868038  0.626498  1
  V  V5  1  0.748743  0.386458  0.125390  1
  V  V6  1  0.999821  0.032739  0.995111  1
  V  V7  1  0.998826  0.499054  0.498451  1
  O  O8  1  0.047498  0.310238  0.941051  1
  O  O9  1  0.058393  0.815679  0.432547  1
  O  O10  1  0.548997  0.549432  0.691063  1
  O  O11  1  0.582398  0.586949  0.173042  1
  F  F12  1  0.071405  0.836655  0.914047  1
  F  F13  1  0.462085  0.949633  0.810397  1
  F  F14  1  0.076094  0.046039  0.712492  1
  F  F15  1  0.071628  0.319795  0.414265  1
  F  F16  1  0.080650  0.539445  0.210892  1
  F  F17  1  0.577580  0.799529  0.961953  1
  F  F18  1  0.427026  0.419727  0.836928  1
  F  F19  1  0.425886  0.915874  0.330281  1
  F  F20  1  0.423863  0.700489  0.539315  1
  F  F21  1  0.459473  0.434040  0.317630  1
  F  F22  1  0.565565  0.075898  0.664085  1
  F  F23  1  0.575436  0.284930  0.460889  1
  F  F24  1  0.419151  0.208177  0.039730  1
  F  F25  1  0.930215  0.669134  0.585654  1
  F  F26  1  0.920968  0.451445  0.789349  1
  F  F27  1  0.922768  0.966749  0.288988  1
  F  F28  1  0.528408  0.058607  0.186541  1
  F  F29  1  0.960954  0.699692  0.059799  1
  F  F30  1  0.964177  0.185428  0.563319  1
  F  F31  1  0.919913  0.165055  0.086207  1
