# generated using pymatgen
data_Li2Mg3Ti6O16
_symmetry_space_group_name_H-M   'P 1'
_cell_length_a   8.47816185
_cell_length_b   8.47408318
_cell_length_c   8.48316338
_cell_angle_alpha   90.00000000
_cell_angle_beta   90.26197918
_cell_angle_gamma   90.00000000
_symmetry_Int_Tables_number   1
_chemical_formula_structural   Li2Mg3Ti6O16
_chemical_formula_sum   'Li4 Mg6 Ti12 O32'
_cell_volume   609.46352188
_cell_formula_units_Z   2
loop_
 _symmetry_equiv_pos_site_id
 _symmetry_equiv_pos_as_xyz
  1  'x, y, z'
loop_
 _atom_site_type_symbol
 _atom_site_label
 _atom_site_symmetry_multiplicity
 _atom_site_fract_x
 _atom_site_fract_y
 _atom_site_fract_z
 _atom_site_occupancy
  Li  Li0  1  0.124834  0.624384  0.126043  1
  Li  Li1  1  0.875166  0.124384  0.873957  1
  Li  Li2  1  0.995387  0.502330  0.748222  1
  Li  Li3  1  0.004613  0.002330  0.251778  1
  Mg  Mg4  1  0.501625  0.495020  0.243956  1
  Mg  Mg5  1  0.250228  0.247357  0.005647  1
  Mg  Mg6  1  0.749772  0.747357  0.994353  1
  Mg  Mg7  1  0.498375  0.995020  0.756044  1
  Mg  Mg8  1  0.242219  0.755322  0.502087  1
  Mg  Mg9  1  0.757781  0.255322  0.497913  1
  Ti  Ti10  1  0.374836  0.868393  0.133936  1
  Ti  Ti11  1  0.635968  0.115362  0.131782  1
  Ti  Ti12  1  0.882642  0.373018  0.115916  1
  Ti  Ti13  1  0.117358  0.873018  0.884084  1
  Ti  Ti14  1  0.364032  0.615362  0.868218  1
  Ti  Ti15  1  0.625164  0.368393  0.866064  1
  Ti  Ti16  1  0.126569  0.136247  0.630284  1
  Ti  Ti17  1  0.868229  0.879667  0.616812  1
  Ti  Ti18  1  0.619223  0.625046  0.615746  1
  Ti  Ti19  1  0.380777  0.125046  0.384254  1
  Ti  Ti20  1  0.131771  0.379667  0.383188  1
  Ti  Ti21  1  0.873431  0.636247  0.369716  1
  O  O22  1  0.869127  0.611006  0.144007  1
  O  O23  1  0.104610  0.372301  0.138852  1
  O  O24  1  0.388419  0.110336  0.137706  1
  O  O25  1  0.854984  0.140340  0.127766  1
  O  O26  1  0.608270  0.896123  0.107471  1
  O  O27  1  0.639040  0.361519  0.112336  1
  O  O28  1  0.380008  0.645144  0.110629  1
  O  O29  1  0.142371  0.877529  0.103274  1
  O  O30  1  0.857629  0.377529  0.896726  1
  O  O31  1  0.619992  0.145144  0.889371  1
  O  O32  1  0.360960  0.861519  0.887664  1
  O  O33  1  0.391730  0.396123  0.892529  1
  O  O34  1  0.145016  0.640340  0.872234  1
  O  O35  1  0.611581  0.610336  0.862294  1
  O  O36  1  0.895390  0.872301  0.861148  1
  O  O37  1  0.130873  0.111006  0.855993  1
  O  O38  1  0.640464  0.392271  0.646675  1
  O  O39  1  0.395721  0.642690  0.640760  1
  O  O40  1  0.109792  0.887824  0.639921  1
  O  O41  1  0.647872  0.857646  0.642561  1
  O  O42  1  0.889336  0.105799  0.621895  1
  O  O43  1  0.860417  0.640599  0.608529  1
  O  O44  1  0.110007  0.353871  0.608075  1
  O  O45  1  0.359354  0.107531  0.604833  1
  O  O46  1  0.640646  0.607531  0.395167  1
  O  O47  1  0.889993  0.853871  0.391925  1
  O  O48  1  0.139583  0.140599  0.391471  1
  O  O49  1  0.110664  0.605799  0.378105  1
  O  O50  1  0.352128  0.357646  0.357439  1
  O  O51  1  0.890208  0.387824  0.360079  1
  O  O52  1  0.604279  0.142690  0.359240  1
  O  O53  1  0.359536  0.892271  0.353325  1
