# generated using pymatgen
data_Li3Co2(PO4)3
_symmetry_space_group_name_H-M   'P 1'
_cell_length_a   8.83090013
_cell_length_b   8.83090013
_cell_length_c   8.83090013
_cell_angle_alpha   56.19527123
_cell_angle_beta   56.19527123
_cell_angle_gamma   56.19527123
_symmetry_Int_Tables_number   1
_chemical_formula_structural   Li3Co2(PO4)3
_chemical_formula_sum   'Li6 Co4 P6 O24'
_cell_volume   444.08217662
_cell_formula_units_Z   2
loop_
 _symmetry_equiv_pos_site_id
 _symmetry_equiv_pos_as_xyz
  1  'x, y, z'
loop_
 _atom_site_type_symbol
 _atom_site_label
 _atom_site_symmetry_multiplicity
 _atom_site_fract_x
 _atom_site_fract_y
 _atom_site_fract_z
 _atom_site_occupancy
  Li  Li0  1  0.668363  0.264129  0.920741  1
  Li  Li1  1  0.264129  0.920741  0.668363  1
  Li  Li2  1  0.920741  0.668363  0.264129  1
  Li  Li3  1  0.079259  0.331637  0.735871  1
  Li  Li4  1  0.735871  0.079259  0.331637  1
  Li  Li5  1  0.331637  0.735871  0.079259  1
  Co  Co6  1  0.852346  0.852346  0.852346  1
  Co  Co7  1  0.652780  0.652780  0.652780  1
  Co  Co8  1  0.347220  0.347220  0.347220  1
  Co  Co9  1  0.147654  0.147654  0.147654  1
  P  P10  1  0.257839  0.538329  0.957552  1
  P  P11  1  0.957552  0.257839  0.538329  1
  P  P12  1  0.538329  0.957552  0.257839  1
  P  P13  1  0.461671  0.042448  0.742161  1
  P  P14  1  0.042448  0.742161  0.461671  1
  P  P15  1  0.742161  0.461671  0.042448  1
  O  O16  1  0.784769  0.467849  0.839113  1
  O  O17  1  0.467849  0.839113  0.784769  1
  O  O18  1  0.839113  0.784769  0.467849  1
  O  O19  1  0.474861  0.505897  0.825611  1
  O  O20  1  0.123945  0.746490  0.873036  1
  O  O21  1  0.204940  0.384335  0.986743  1
  O  O22  1  0.873036  0.123945  0.746490  1
  O  O23  1  0.825611  0.474861  0.505897  1
  O  O24  1  0.505897  0.825611  0.474861  1
  O  O25  1  0.615665  0.013257  0.795060  1
  O  O26  1  0.253510  0.126964  0.876055  1
  O  O27  1  0.013257  0.795060  0.615665  1
  O  O28  1  0.986743  0.204940  0.384335  1
  O  O29  1  0.746490  0.873036  0.123945  1
  O  O30  1  0.384335  0.986743  0.204940  1
  O  O31  1  0.494103  0.174389  0.525139  1
  O  O32  1  0.174389  0.525139  0.494103  1
  O  O33  1  0.126964  0.876055  0.253510  1
  O  O34  1  0.795060  0.615665  0.013257  1
  O  O35  1  0.876055  0.253510  0.126964  1
  O  O36  1  0.525139  0.494103  0.174389  1
  O  O37  1  0.160887  0.215231  0.532151  1
  O  O38  1  0.532151  0.160887  0.215231  1
  O  O39  1  0.215231  0.532151  0.160887  1
