# generated using pymatgen
data_V2OF5
_symmetry_space_group_name_H-M   'P 1'
_cell_length_a   5.23900439
_cell_length_b   5.41388255
_cell_length_c   11.86559451
_cell_angle_alpha   100.33905745
_cell_angle_beta   102.53814842
_cell_angle_gamma   90.28113736
_symmetry_Int_Tables_number   1
_chemical_formula_structural   V2OF5
_chemical_formula_sum   'V6 O3 F15'
_cell_volume   322.85032520
_cell_formula_units_Z   3
loop_
 _symmetry_equiv_pos_site_id
 _symmetry_equiv_pos_as_xyz
  1  'x, y, z'
loop_
 _atom_site_type_symbol
 _atom_site_label
 _atom_site_symmetry_multiplicity
 _atom_site_fract_x
 _atom_site_fract_y
 _atom_site_fract_z
 _atom_site_occupancy
  V  V0  1  0.168336  0.168768  0.334373  1
  V  V1  1  0.319053  0.311962  0.670383  1
  V  V2  1  0.519375  0.476912  0.003330  1
  V  V3  1  0.652213  0.643538  0.335718  1
  V  V4  1  0.999901  0.000498  0.000194  1
  V  V5  1  0.834904  0.834069  0.666228  1
  O  O6  1  0.146917  0.067135  0.692079  1
  O  O7  1  0.709761  0.233576  0.024545  1
  O  O8  1  0.479213  0.399102  0.357800  1
  F  F9  1  0.818705  0.914558  0.833067  1
  F  F10  1  0.616509  0.118592  0.633469  1
  F  F11  1  0.516770  0.603569  0.636859  1
  F  F12  1  0.514916  0.428362  0.833197  1
  F  F13  1  0.155635  0.263687  0.500798  1
  F  F14  1  0.814236  0.722598  0.035931  1
  F  F15  1  0.947652  0.450718  0.297639  1
  F  F16  1  0.288673  0.771036  0.971813  1
  F  F17  1  0.182666  0.285357  0.964655  1
  F  F18  1  0.850882  0.938185  0.305797  1
  F  F19  1  0.056015  0.556461  0.701394  1
  F  F20  1  0.850453  0.745062  0.498968  1
  F  F21  1  0.485698  0.592482  0.165967  1
  F  F22  1  0.390705  0.890067  0.369123  1
  F  F23  1  0.180809  0.083704  0.166672  1
