# generated using pymatgen
data_ZrO2
_symmetry_space_group_name_H-M   'P 1'
_cell_length_a   8.17203845
_cell_length_b   8.17203845
_cell_length_c   5.09730473
_cell_angle_alpha   90.00000000
_cell_angle_beta   90.00000000
_cell_angle_gamma   90.00000000
_symmetry_Int_Tables_number   1
_chemical_formula_structural   ZrO2
_chemical_formula_sum   'Zr10 O20'
_cell_volume   340.40928729
_cell_formula_units_Z   10
loop_
 _symmetry_equiv_pos_site_id
 _symmetry_equiv_pos_as_xyz
  1  'x, y, z'
loop_
 _atom_site_type_symbol
 _atom_site_label
 _atom_site_symmetry_multiplicity
 _atom_site_fract_x
 _atom_site_fract_y
 _atom_site_fract_z
 _atom_site_occupancy
  Zr  Zr0  1  0.633019  0.325613  0.754110  1
  Zr  Zr1  1  0.325613  0.366981  0.245890  1
  Zr  Zr2  1  0.000000  0.500000  0.819158  1
  Zr  Zr3  1  0.674387  0.633019  0.245890  1
  Zr  Zr4  1  0.366981  0.674387  0.754110  1
  Zr  Zr5  1  0.133019  0.825613  0.245890  1
  Zr  Zr6  1  0.825613  0.866981  0.754110  1
  Zr  Zr7  1  0.500000  0.000000  0.180842  1
  Zr  Zr8  1  0.174387  0.133019  0.754110  1
  Zr  Zr9  1  0.866981  0.174387  0.245890  1
  O  O10  1  0.890351  0.295351  0.612830  1
  O  O11  1  0.088822  0.293469  0.075771  1
  O  O12  1  0.204649  0.390351  0.612830  1
  O  O13  1  0.793469  0.411178  0.075771  1
  O  O14  1  0.500000  0.500000  0.500000  1
  O  O15  1  0.500000  0.500000  0.000000  1
  O  O16  1  0.206531  0.588822  0.075771  1
  O  O17  1  0.795351  0.609649  0.612830  1
  O  O18  1  0.911178  0.706531  0.075771  1
  O  O19  1  0.109649  0.704649  0.612830  1
  O  O20  1  0.390351  0.795351  0.387170  1
  O  O21  1  0.588822  0.793469  0.924229  1
  O  O22  1  0.704649  0.890351  0.387170  1
  O  O23  1  0.293469  0.911178  0.924229  1
  O  O24  1  0.000000  0.000000  0.500000  1
  O  O25  1  0.000000  0.000000  0.000000  1
  O  O26  1  0.706531  0.088822  0.924229  1
  O  O27  1  0.295351  0.109649  0.387170  1
  O  O28  1  0.411178  0.206531  0.924229  1
  O  O29  1  0.609649  0.204649  0.387170  1
