# generated using pymatgen
data_Na3Li5Mn5O9
_symmetry_space_group_name_H-M   'P 1'
_cell_length_a   6.06863231
_cell_length_b   6.07494965
_cell_length_c   8.85260772
_cell_angle_alpha   96.17395113
_cell_angle_beta   97.51074553
_cell_angle_gamma   119.87954319
_symmetry_Int_Tables_number   1
_chemical_formula_structural   Na3Li5Mn5O9
_chemical_formula_sum   'Na3 Li5 Mn5 O9'
_cell_volume   274.83801473
_cell_formula_units_Z   1
loop_
 _symmetry_equiv_pos_site_id
 _symmetry_equiv_pos_as_xyz
  1  'x, y, z'
loop_
 _atom_site_type_symbol
 _atom_site_label
 _atom_site_symmetry_multiplicity
 _atom_site_fract_x
 _atom_site_fract_y
 _atom_site_fract_z
 _atom_site_occupancy
  Na  Na0  1  0.551095  0.551471  0.526223  1
  Na  Na1  1  0.145448  0.842692  0.528856  1
  Na  Na2  1  0.835611  0.130401  0.528945  1
  Li  Li3  1  0.252727  0.216481  0.912165  1
  Li  Li4  1  0.021600  0.364468  0.051964  1
  Li  Li5  1  0.646147  0.975111  0.925388  1
  Li  Li6  1  0.675188  0.670482  0.052992  1
  Li  Li7  1  0.004608  0.723264  0.911284  1
  Mn  Mn8  1  0.097353  0.086523  0.248905  1
  Mn  Mn9  1  0.253985  0.571402  0.751113  1
  Mn  Mn10  1  0.413100  0.767535  0.241619  1
  Mn  Mn11  1  0.597665  0.262098  0.750155  1
  Mn  Mn12  1  0.732387  0.394758  0.243719  1
  O  O13  1  0.971196  0.002013  0.011358  1
  O  O14  1  0.250343  0.240668  0.685519  1
  O  O15  1  0.335747  0.644942  0.998558  1
  O  O16  1  0.102899  0.439853  0.296245  1
  O  O17  1  0.533080  0.896350  0.691652  1
  O  O18  1  0.766223  0.765755  0.310164  1
  O  O19  1  0.449244  0.113898  0.336979  1
  O  O20  1  0.687598  0.354042  0.998590  1
  O  O21  1  0.906439  0.548809  0.686657  1
