# generated using pymatgen
data_VAsO4
_symmetry_space_group_name_H-M   'P 1'
_cell_length_a   6.53460422
_cell_length_b   6.14224006
_cell_length_c   7.95151348
_cell_angle_alpha   90.00000000
_cell_angle_beta   115.20304358
_cell_angle_gamma   90.00000000
_symmetry_Int_Tables_number   1
_chemical_formula_structural   VAsO4
_chemical_formula_sum   'V4 As4 O16'
_cell_volume   288.76901714
_cell_formula_units_Z   4
loop_
 _symmetry_equiv_pos_site_id
 _symmetry_equiv_pos_as_xyz
  1  'x, y, z'
loop_
 _atom_site_type_symbol
 _atom_site_label
 _atom_site_symmetry_multiplicity
 _atom_site_fract_x
 _atom_site_fract_y
 _atom_site_fract_z
 _atom_site_occupancy
  V  V0  1  0.871390  0.881193  0.289464  1
  V  V1  1  0.128610  0.381193  0.210536  1
  V  V2  1  0.871390  0.618807  0.789464  1
  V  V3  1  0.128610  0.118807  0.710536  1
  As  As4  1  0.296311  0.889549  0.146953  1
  As  As5  1  0.703689  0.389549  0.353047  1
  As  As6  1  0.296311  0.610451  0.646953  1
  As  As7  1  0.703689  0.110451  0.853047  1
  O  O8  1  0.289083  0.970572  0.939901  1
  O  O9  1  0.103377  0.669788  0.070277  1
  O  O10  1  0.437359  0.320280  0.200033  1
  O  O11  1  0.845497  0.542675  0.249319  1
  O  O12  1  0.562641  0.820280  0.299967  1
  O  O13  1  0.154503  0.042675  0.250681  1
  O  O14  1  0.896623  0.169788  0.429723  1
  O  O15  1  0.710917  0.470572  0.560099  1
  O  O16  1  0.289083  0.529428  0.439901  1
  O  O17  1  0.103377  0.830212  0.570277  1
  O  O18  1  0.845497  0.957325  0.749319  1
  O  O19  1  0.437359  0.179720  0.700033  1
  O  O20  1  0.154503  0.457325  0.750681  1
  O  O21  1  0.562641  0.679720  0.799967  1
  O  O22  1  0.896623  0.330212  0.929723  1
  O  O23  1  0.710917  0.029428  0.060099  1
