# generated using pymatgen
data_SrCoBiRuO6
_symmetry_space_group_name_H-M   'P 1'
_cell_length_a   5.69495372
_cell_length_b   5.65158437
_cell_length_c   9.67983723
_cell_angle_alpha   90.00000000
_cell_angle_beta   125.52050415
_cell_angle_gamma   90.00000000
_symmetry_Int_Tables_number   1
_chemical_formula_structural   SrCoBiRuO6
_chemical_formula_sum   'Sr2 Co2 Bi2 Ru2 O12'
_cell_volume   253.57334569
_cell_formula_units_Z   2
loop_
 _symmetry_equiv_pos_site_id
 _symmetry_equiv_pos_as_xyz
  1  'x, y, z'
loop_
 _atom_site_type_symbol
 _atom_site_label
 _atom_site_symmetry_multiplicity
 _atom_site_fract_x
 _atom_site_fract_y
 _atom_site_fract_z
 _atom_site_occupancy
  Sr  Sr0  1  0.750625  0.273974  0.749596  1
  Sr  Sr1  1  0.750625  0.726026  0.249596  1
  Co  Co2  1  0.496742  0.252676  0.999510  1
  Co  Co3  1  0.496742  0.747324  0.499510  1
  Bi  Bi4  1  0.216192  0.788866  0.750943  1
  Bi  Bi5  1  0.216192  0.211134  0.250943  1
  Ru  Ru6  1  0.000982  0.252546  0.500411  1
  Ru  Ru7  1  0.000982  0.747454  0.000411  1
  O  O8  1  0.315150  0.769239  0.243072  1
  O  O9  1  0.183009  0.005781  0.948698  1
  O  O10  1  0.797510  0.015418  0.549199  1
  O  O11  1  0.227621  0.537861  0.950744  1
  O  O12  1  0.841012  0.528868  0.549077  1
  O  O13  1  0.671156  0.261655  0.258749  1
  O  O14  1  0.315150  0.230761  0.743072  1
  O  O15  1  0.183009  0.994219  0.448698  1
  O  O16  1  0.797510  0.984582  0.049199  1
  O  O17  1  0.841012  0.471132  0.049077  1
  O  O18  1  0.227621  0.462139  0.450744  1
  O  O19  1  0.671156  0.738345  0.758749  1
