# generated using pymatgen
data_Li4FeCu3O8
_symmetry_space_group_name_H-M   'P 1'
_cell_length_a   5.90241747
_cell_length_b   5.90241747
_cell_length_c   5.90241747
_cell_angle_alpha   59.70346465
_cell_angle_beta   59.70346465
_cell_angle_gamma   59.70346465
_symmetry_Int_Tables_number   1
_chemical_formula_structural   Li4FeCu3O8
_chemical_formula_sum   'Li4 Fe1 Cu3 O8'
_cell_volume   144.42408695
_cell_formula_units_Z   1
loop_
 _symmetry_equiv_pos_site_id
 _symmetry_equiv_pos_as_xyz
  1  'x, y, z'
loop_
 _atom_site_type_symbol
 _atom_site_label
 _atom_site_symmetry_multiplicity
 _atom_site_fract_x
 _atom_site_fract_y
 _atom_site_fract_z
 _atom_site_occupancy
  Li  Li0  1  0.500000  0.500000  0.500000  1
  Li  Li1  1  0.000000  0.000000  0.500000  1
  Li  Li2  1  0.500000  0.000000  0.000000  1
  Li  Li3  1  0.000000  0.500000  0.000000  1
  Fe  Fe4  1  0.000000  0.000000  0.000000  1
  Cu  Cu5  1  0.500000  0.500000  0.000000  1
  Cu  Cu6  1  0.000000  0.500000  0.500000  1
  Cu  Cu7  1  0.500000  0.000000  0.500000  1
  O  O8  1  0.257459  0.257459  0.257459  1
  O  O9  1  0.755886  0.755886  0.255736  1
  O  O10  1  0.255736  0.755886  0.755886  1
  O  O11  1  0.742541  0.742541  0.742541  1
  O  O12  1  0.755886  0.255736  0.755886  1
  O  O13  1  0.244114  0.244114  0.744264  1
  O  O14  1  0.744264  0.244114  0.244114  1
  O  O15  1  0.244114  0.744264  0.244114  1
