# generated using pymatgen
data_Li24Ti7Cr5O36
_symmetry_space_group_name_H-M   'P 1'
_cell_length_a   5.06155269
_cell_length_b   9.81615898
_cell_length_c   13.43502792
_cell_angle_alpha   80.81989871
_cell_angle_beta   79.22514349
_cell_angle_gamma   85.44132379
_symmetry_Int_Tables_number   1
_chemical_formula_structural   Li24Ti7Cr5O36
_chemical_formula_sum   'Li24 Ti7 Cr5 O36'
_cell_volume   646.50254006
_cell_formula_units_Z   1
loop_
 _symmetry_equiv_pos_site_id
 _symmetry_equiv_pos_as_xyz
  1  'x, y, z'
loop_
 _atom_site_type_symbol
 _atom_site_label
 _atom_site_symmetry_multiplicity
 _atom_site_fract_x
 _atom_site_fract_y
 _atom_site_fract_z
 _atom_site_occupancy
  Li  Li0  1  0.674138  0.000117  0.165149  1
  Li  Li1  1  0.560178  0.000751  0.387360  1
  Li  Li2  1  0.249832  0.750107  0.749335  1
  Li  Li3  1  0.582203  0.750383  0.084834  1
  Li  Li4  1  0.066973  0.499439  0.888637  1
  Li  Li5  1  0.398517  0.499724  0.220529  1
  Li  Li6  1  0.171606  0.501043  0.666120  1
  Li  Li7  1  0.506909  0.498608  0.999294  1
  Li  Li8  1  0.263087  0.499863  0.447039  1
  Li  Li9  1  0.080505  0.250053  0.582821  1
  Li  Li10  1  0.008915  0.000274  0.498752  1
  Li  Li11  1  0.767260  0.000993  0.947201  1
  Li  Li12  1  0.103569  0.999313  0.279771  1
  Li  Li13  1  0.893826  0.002023  0.719092  1
  Li  Li14  1  0.227432  0.999595  0.053633  1
  Li  Li15  1  0.916453  0.749940  0.417068  1
  Li  Li16  1  0.730027  0.499969  0.553847  1
  Li  Li17  1  0.839493  0.499988  0.332276  1
  Li  Li18  1  0.596320  0.499155  0.779072  1
  Li  Li19  1  0.929424  0.501329  0.112395  1
  Li  Li20  1  0.414058  0.249786  0.916193  1
  Li  Li21  1  0.337390  0.000093  0.832936  1
  Li  Li22  1  0.747729  0.249931  0.248932  1
  Li  Li23  1  0.436929  0.998697  0.613959  1
  Ti  Ti24  1  0.474834  0.749272  0.304253  1
  Ti  Ti25  1  0.974091  0.249631  0.806511  1
  Ti  Ti26  1  0.307898  0.249040  0.139883  1
  Ti  Ti27  1  0.695549  0.749245  0.860630  1
  Ti  Ti28  1  0.806233  0.750357  0.637911  1
  Ti  Ti29  1  0.640617  0.249716  0.472921  1
  Ti  Ti30  1  0.136349  0.751156  0.974354  1
  Cr  Cr31  1  0.860348  0.250685  0.026959  1
  Cr  Cr32  1  0.363470  0.750032  0.525663  1
  Cr  Cr33  1  0.193342  0.250502  0.360012  1
  Cr  Cr34  1  0.029858  0.749456  0.196253  1
  Cr  Cr35  1  0.526418  0.250607  0.693338  1
  O  O36  1  0.925367  0.861558  0.073649  1
  O  O37  1  0.712018  0.633441  0.215638  1
  O  O38  1  0.426772  0.361479  0.574449  1
  O  O39  1  0.494951  0.361987  0.356343  1
  O  O40  1  0.615715  0.366385  0.119398  1
  O  O41  1  0.261251  0.861850  0.405247  1
  O  O42  1  0.222104  0.135717  0.714368  1
  O  O43  1  0.330260  0.138699  0.475148  1
  O  O44  1  0.556290  0.135643  0.047487  1
  O  O45  1  0.000223  0.863571  0.857394  1
  O  O46  1  0.120100  0.864916  0.617522  1
  O  O47  1  0.335260  0.863777  0.190319  1
  O  O48  1  0.408239  0.135598  0.261154  1
  O  O49  1  0.832220  0.636315  0.977424  1
  O  O50  1  0.053523  0.635482  0.546517  1
  O  O51  1  0.160939  0.638027  0.309059  1
  O  O52  1  0.903941  0.636087  0.761800  1
  O  O53  1  0.235787  0.638381  0.098983  1
  O  O54  1  0.760864  0.361828  0.907885  1
  O  O55  1  0.094524  0.361382  0.240985  1
  O  O56  1  0.827919  0.361822  0.689894  1
  O  O57  1  0.948705  0.366667  0.452336  1
  O  O58  1  0.162700  0.361806  0.023145  1
  O  O59  1  0.595111  0.863329  0.736819  1
  O  O60  1  0.663421  0.138472  0.808997  1
  O  O61  1  0.889387  0.135536  0.380798  1
  O  O62  1  0.996672  0.138601  0.142133  1
  O  O63  1  0.452093  0.865780  0.951906  1
  O  O64  1  0.663025  0.862435  0.521176  1
  O  O65  1  0.792688  0.864384  0.283268  1
  O  O66  1  0.740848  0.136310  0.594547  1
  O  O67  1  0.380146  0.634090  0.883128  1
  O  O68  1  0.498360  0.638030  0.642328  1
  O  O69  1  0.570557  0.636932  0.429608  1
  O  O70  1  0.282256  0.366527  0.785991  1
  O  O71  1  0.073977  0.136284  0.928231  1
