# generated using pymatgen
data_Li4Ti3V3(CoO8)2
_symmetry_space_group_name_H-M   'P 1'
_cell_length_a   5.89599330
_cell_length_b   5.92403464
_cell_length_c   9.78220538
_cell_angle_alpha   90.05924280
_cell_angle_beta   90.06495608
_cell_angle_gamma   119.55848648
_symmetry_Int_Tables_number   1
_chemical_formula_structural   Li4Ti3V3(CoO8)2
_chemical_formula_sum   'Li4 Ti3 V3 Co2 O16'
_cell_volume   297.20492293
_cell_formula_units_Z   1
loop_
 _symmetry_equiv_pos_site_id
 _symmetry_equiv_pos_as_xyz
  1  'x, y, z'
loop_
 _atom_site_type_symbol
 _atom_site_label
 _atom_site_symmetry_multiplicity
 _atom_site_fract_x
 _atom_site_fract_y
 _atom_site_fract_z
 _atom_site_occupancy
  Li  Li0  1  0.334151  0.667026  0.107477  1
  Li  Li1  1  0.999129  0.005181  0.003051  1
  Li  Li2  1  0.996812  0.993482  0.501439  1
  Li  Li3  1  0.667812  0.334228  0.606370  1
  Ti  Ti4  1  0.181505  0.340346  0.786204  1
  Ti  Ti5  1  0.171929  0.829394  0.778515  1
  Ti  Ti6  1  0.341421  0.179360  0.282117  1
  V  V7  1  0.667746  0.834607  0.790013  1
  V  V8  1  0.841567  0.660715  0.286417  1
  V  V9  1  0.826493  0.160915  0.287410  1
  Co  Co10  1  0.330853  0.668440  0.509196  1
  Co  Co11  1  0.665956  0.333011  0.004637  1
  O  O12  1  0.143658  0.312305  0.392095  1
  O  O13  1  0.033883  0.523007  0.671628  1
  O  O14  1  0.329345  0.669202  0.896094  1
  O  O15  1  0.001629  0.002240  0.685721  1
  O  O16  1  0.000838  0.997381  0.186294  1
  O  O17  1  0.164425  0.842442  0.394416  1
  O  O18  1  0.476281  0.512346  0.667881  1
  O  O19  1  0.490559  0.964995  0.673770  1
  O  O20  1  0.316935  0.159812  0.894808  1
  O  O21  1  0.682456  0.827810  0.390108  1
  O  O22  1  0.529772  0.034804  0.174268  1
  O  O23  1  0.505887  0.471788  0.167945  1
  O  O24  1  0.662291  0.330723  0.396953  1
  O  O25  1  0.843048  0.164369  0.893966  1
  O  O26  1  0.963475  0.492874  0.171236  1
  O  O27  1  0.830146  0.686904  0.892132  1
