# generated using pymatgen
data_LiNbNiO4
_symmetry_space_group_name_H-M   'P 1'
_cell_length_a   6.07717619
_cell_length_b   6.07717619
_cell_length_c   6.07717619
_cell_angle_alpha   120.52217012
_cell_angle_beta   118.71024758
_cell_angle_gamma   90.67312080
_symmetry_Int_Tables_number   1
_chemical_formula_structural   LiNbNiO4
_chemical_formula_sum   'Li2 Nb2 Ni2 O8'
_cell_volume   159.56450385
_cell_formula_units_Z   2
loop_
 _symmetry_equiv_pos_site_id
 _symmetry_equiv_pos_as_xyz
  1  'x, y, z'
loop_
 _atom_site_type_symbol
 _atom_site_label
 _atom_site_symmetry_multiplicity
 _atom_site_fract_x
 _atom_site_fract_y
 _atom_site_fract_z
 _atom_site_occupancy
  Li  Li0  1  0.886018  0.136018  0.250000  1
  Li  Li1  1  0.113982  0.863982  0.750000  1
  Nb  Nb2  1  0.500000  0.500000  0.500000  1
  Nb  Nb3  1  0.000000  0.500000  0.000000  1
  Ni  Ni4  1  0.500000  0.000000  0.500000  1
  Ni  Ni5  1  0.500000  0.500000  0.000000  1
  O  O6  1  0.751585  0.278243  0.526657  1
  O  O7  1  0.290950  0.269973  0.520976  1
  O  O8  1  0.748997  0.269973  0.979024  1
  O  O9  1  0.751585  0.724928  0.973343  1
  O  O10  1  0.248415  0.275072  0.026657  1
  O  O11  1  0.709050  0.730027  0.479024  1
  O  O12  1  0.251003  0.730027  0.020976  1
  O  O13  1  0.248415  0.721757  0.473343  1
