# generated using pymatgen
data_LiSb3(P3O10)2
_symmetry_space_group_name_H-M   'P 1'
_cell_length_a   8.79763823
_cell_length_b   8.79763823
_cell_length_c   12.82297830
_cell_angle_alpha   90.00000000
_cell_angle_beta   90.00000000
_cell_angle_gamma   104.79276706
_symmetry_Int_Tables_number   1
_chemical_formula_structural   LiSb3(P3O10)2
_chemical_formula_sum   'Li2 Sb6 P12 O40'
_cell_volume   959.58342057
_cell_formula_units_Z   2
loop_
 _symmetry_equiv_pos_site_id
 _symmetry_equiv_pos_as_xyz
  1  'x, y, z'
loop_
 _atom_site_type_symbol
 _atom_site_label
 _atom_site_symmetry_multiplicity
 _atom_site_fract_x
 _atom_site_fract_y
 _atom_site_fract_z
 _atom_site_occupancy
  Li  Li0  1  0.502789  0.502789  0.500000  1
  Li  Li1  1  0.497211  0.497211  1.000000  1
  Sb  Sb2  1  0.135661  0.135661  0.000000  1
  Sb  Sb3  1  0.701287  0.298713  0.250000  1
  Sb  Sb4  1  0.762499  0.237501  0.750000  1
  Sb  Sb5  1  0.298713  0.701287  0.750000  1
  Sb  Sb6  1  0.237501  0.762499  0.250000  1
  Sb  Sb7  1  0.864339  0.864339  0.500000  1
  P  P8  1  0.098764  0.368563  0.322925  1
  P  P9  1  0.368563  0.098764  0.677075  1
  P  P10  1  0.296055  0.190669  0.228479  1
  P  P11  1  0.190669  0.296055  0.771521  1
  P  P12  1  0.726008  0.143881  0.012671  1
  P  P13  1  0.143881  0.726008  0.987329  1
  P  P14  1  0.856119  0.273992  0.487329  1
  P  P15  1  0.273992  0.856119  0.512671  1
  P  P16  1  0.809331  0.703945  0.271521  1
  P  P17  1  0.703945  0.809331  0.728479  1
  P  P18  1  0.901236  0.631437  0.822925  1
  P  P19  1  0.631437  0.901236  0.177075  1
  O  O20  1  0.211039  0.160605  0.689757  1
  O  O21  1  0.160605  0.211039  0.310243  1
  O  O22  1  0.351519  0.031793  0.560728  1
  O  O23  1  0.031793  0.351519  0.439272  1
  O  O24  1  0.280285  0.279849  0.875740  1
  O  O25  1  0.279849  0.280285  0.124260  1
  O  O26  1  0.028853  0.640202  0.743768  1
  O  O27  1  0.640202  0.028853  0.256232  1
  O  O28  1  0.448305  0.265486  0.285410  1
  O  O29  1  0.265486  0.448305  0.714590  1
  O  O30  1  0.743295  0.984479  0.702371  1
  O  O31  1  0.984479  0.743295  0.297629  1
  O  O32  1  0.238076  0.511668  0.322509  1
  O  O33  1  0.511668  0.238076  0.677491  1
  O  O34  1  0.122958  0.675619  0.100479  1
  O  O35  1  0.675619  0.122958  0.899521  1
  O  O36  1  0.095291  0.827142  0.530897  1
  O  O37  1  0.827142  0.095291  0.469103  1
  O  O38  1  0.263836  0.657232  0.929272  1
  O  O39  1  0.657232  0.263836  0.070728  1
  O  O40  1  0.342768  0.736164  0.570728  1
  O  O41  1  0.736164  0.342768  0.429272  1
  O  O42  1  0.904709  0.172858  0.030897  1
  O  O43  1  0.172858  0.904709  0.969103  1
  O  O44  1  0.877042  0.324381  0.600479  1
  O  O45  1  0.324381  0.877042  0.399521  1
  O  O46  1  0.761924  0.488332  0.822509  1
  O  O47  1  0.488332  0.761924  0.177491  1
  O  O48  1  0.015521  0.256705  0.797629  1
  O  O49  1  0.256705  0.015521  0.202371  1
  O  O50  1  0.551695  0.734514  0.785410  1
  O  O51  1  0.734514  0.551695  0.214590  1
  O  O52  1  0.971147  0.359798  0.243768  1
  O  O53  1  0.359798  0.971147  0.756232  1
  O  O54  1  0.720151  0.719715  0.624260  1
  O  O55  1  0.719715  0.720151  0.375740  1
  O  O56  1  0.648481  0.968207  0.060728  1
  O  O57  1  0.968207  0.648481  0.939272  1
  O  O58  1  0.839395  0.788961  0.810243  1
  O  O59  1  0.788961  0.839395  0.189757  1
