# generated using pymatgen
data_LiV3OF11
_symmetry_space_group_name_H-M   'P 1'
_cell_length_a   5.40275675
_cell_length_b   5.25380592
_cell_length_c   15.61690711
_cell_angle_alpha   90.00000000
_cell_angle_beta   99.81901892
_cell_angle_gamma   90.00000000
_symmetry_Int_Tables_number   1
_chemical_formula_structural   LiV3OF11
_chemical_formula_sum   'Li2 V6 O2 F22'
_cell_volume   436.79291041
_cell_formula_units_Z   2
loop_
 _symmetry_equiv_pos_site_id
 _symmetry_equiv_pos_as_xyz
  1  'x, y, z'
loop_
 _atom_site_type_symbol
 _atom_site_label
 _atom_site_symmetry_multiplicity
 _atom_site_fract_x
 _atom_site_fract_y
 _atom_site_fract_z
 _atom_site_occupancy
  Li  Li0  1  0.290520  0.719709  0.007857  1
  Li  Li1  1  0.709480  0.219709  0.992143  1
  V  V2  1  0.902056  0.491682  0.826096  1
  V  V3  1  0.749854  0.000564  0.499881  1
  V  V4  1  0.575379  0.525849  0.174564  1
  V  V5  1  0.097944  0.991682  0.173904  1
  V  V6  1  0.424621  0.025849  0.825436  1
  V  V7  1  0.250146  0.500564  0.500119  1
  O  O8  1  0.361070  0.778320  0.145237  1
  O  O9  1  0.638930  0.278320  0.854763  1
  F  F10  1  0.458894  0.195259  0.523350  1
  F  F11  1  0.313069  0.285194  0.195263  1
  F  F12  1  0.541106  0.695259  0.476650  1
  F  F13  1  0.020349  0.072643  0.055373  1
  F  F14  1  0.675563  0.086093  0.388991  1
  F  F15  1  0.862277  0.424797  0.714846  1
  F  F16  1  0.820487  0.917433  0.611002  1
  F  F17  1  0.673142  0.574831  0.288419  1
  F  F18  1  0.979651  0.572643  0.944627  1
  F  F19  1  0.126309  0.202387  0.852930  1
  F  F20  1  0.959537  0.306049  0.523252  1
  F  F21  1  0.803107  0.212332  0.182798  1
  F  F22  1  0.196893  0.712332  0.817202  1
  F  F23  1  0.040463  0.806049  0.476748  1
  F  F24  1  0.511921  0.431801  0.049348  1
  F  F25  1  0.326858  0.074831  0.711581  1
  F  F26  1  0.179513  0.417433  0.388998  1
  F  F27  1  0.137723  0.924797  0.285154  1
  F  F28  1  0.488079  0.931801  0.950652  1
  F  F29  1  0.324437  0.586093  0.611009  1
  F  F30  1  0.873691  0.702387  0.147070  1
  F  F31  1  0.686931  0.785194  0.804737  1
