# generated using pymatgen
data_Cr2(PS4)3
_symmetry_space_group_name_H-M   'P 1'
_cell_length_a   9.82345810
_cell_length_b   11.62519325
_cell_length_c   19.26276606
_cell_angle_alpha   90.00000000
_cell_angle_beta   115.51731008
_cell_angle_gamma   90.00000000
_symmetry_Int_Tables_number   1
_chemical_formula_structural   Cr2(PS4)3
_chemical_formula_sum   'Cr8 P12 S48'
_cell_volume   1985.22104253
_cell_formula_units_Z   4
loop_
 _symmetry_equiv_pos_site_id
 _symmetry_equiv_pos_as_xyz
  1  'x, y, z'
loop_
 _atom_site_type_symbol
 _atom_site_label
 _atom_site_symmetry_multiplicity
 _atom_site_fract_x
 _atom_site_fract_y
 _atom_site_fract_z
 _atom_site_occupancy
  Cr  Cr0  1  0.791014  0.777856  0.898886  1
  Cr  Cr1  1  0.218316  0.268263  0.789549  1
  Cr  Cr2  1  0.781684  0.768263  0.710451  1
  Cr  Cr3  1  0.208986  0.277856  0.601114  1
  Cr  Cr4  1  0.791014  0.722144  0.398886  1
  Cr  Cr5  1  0.218316  0.231737  0.289549  1
  Cr  Cr6  1  0.781684  0.731737  0.210451  1
  Cr  Cr7  1  0.208986  0.222144  0.101114  1
  P  P8  1  0.221464  0.237816  0.946602  1
  P  P9  1  0.063975  0.690992  0.864116  1
  P  P10  1  0.519569  0.864102  0.747421  1
  P  P11  1  0.480431  0.364102  0.752579  1
  P  P12  1  0.936025  0.190992  0.635884  1
  P  P13  1  0.778536  0.737816  0.553398  1
  P  P14  1  0.221464  0.262184  0.446602  1
  P  P15  1  0.063975  0.809008  0.364116  1
  P  P16  1  0.519569  0.635898  0.247421  1
  P  P17  1  0.480431  0.135898  0.252579  1
  P  P18  1  0.936025  0.309008  0.135884  1
  P  P19  1  0.778536  0.762184  0.053398  1
  S  S20  1  0.661587  0.671000  0.953560  1
  S  S21  1  0.099444  0.126438  0.980423  1
  S  S22  1  0.956108  0.622795  0.926914  1
  S  S23  1  0.349069  0.155574  0.901051  1
  S  S24  1  0.281431  0.686295  0.910316  1
  S  S25  1  0.640198  0.941214  0.854170  1
  S  S26  1  0.098553  0.350487  0.859659  1
  S  S27  1  0.372151  0.430074  0.815966  1
  S  S28  1  0.949119  0.851555  0.836962  1
  S  S29  1  0.698033  0.370269  0.797756  1
  S  S30  1  0.625724  0.699867  0.772821  1
  S  S31  1  0.943483  0.610420  0.758810  1
  S  S32  1  0.056517  0.110420  0.741190  1
  S  S33  1  0.374276  0.199867  0.727179  1
  S  S34  1  0.301967  0.870269  0.702244  1
  S  S35  1  0.627849  0.930074  0.684034  1
  S  S36  1  0.050881  0.351555  0.663038  1
  S  S37  1  0.359802  0.441214  0.645830  1
  S  S38  1  0.901447  0.850487  0.640341  1
  S  S39  1  0.718569  0.186295  0.589684  1
  S  S40  1  0.650931  0.655574  0.598949  1
  S  S41  1  0.043892  0.122795  0.573086  1
  S  S42  1  0.338413  0.171000  0.546440  1
  S  S43  1  0.900556  0.626438  0.519577  1
  S  S44  1  0.099444  0.373562  0.480423  1
  S  S45  1  0.661587  0.829000  0.453560  1
  S  S46  1  0.956108  0.877205  0.426914  1
  S  S47  1  0.349069  0.344426  0.401051  1
  S  S48  1  0.281431  0.813705  0.410316  1
  S  S49  1  0.098553  0.149513  0.359659  1
  S  S50  1  0.640198  0.558786  0.354170  1
  S  S51  1  0.949119  0.648445  0.336962  1
  S  S52  1  0.372151  0.069926  0.315966  1
  S  S53  1  0.698033  0.129731  0.297756  1
  S  S54  1  0.625724  0.800133  0.272821  1
  S  S55  1  0.943483  0.889580  0.258810  1
  S  S56  1  0.056517  0.389580  0.241190  1
  S  S57  1  0.374276  0.300133  0.227179  1
  S  S58  1  0.301967  0.629731  0.202244  1
  S  S59  1  0.050881  0.148445  0.163038  1
  S  S60  1  0.627849  0.569926  0.184034  1
  S  S61  1  0.901447  0.649513  0.140341  1
  S  S62  1  0.359802  0.058786  0.145830  1
  S  S63  1  0.718569  0.313705  0.089684  1
  S  S64  1  0.650931  0.844426  0.098949  1
  S  S65  1  0.043892  0.377205  0.073086  1
  S  S66  1  0.900556  0.873562  0.019577  1
  S  S67  1  0.338413  0.329000  0.046440  1
