# generated using pymatgen
data_Li3CrO3
_symmetry_space_group_name_H-M   'P 1'
_cell_length_a   5.45573635
_cell_length_b   5.45573635
_cell_length_c   9.81178802
_cell_angle_alpha   90.00000000
_cell_angle_beta   90.00000000
_cell_angle_gamma   120.00000000
_symmetry_Int_Tables_number   1
_chemical_formula_structural   Li3CrO3
_chemical_formula_sum   'Li12 Cr4 O12'
_cell_volume   252.92137748
_cell_formula_units_Z   4
loop_
 _symmetry_equiv_pos_site_id
 _symmetry_equiv_pos_as_xyz
  1  'x, y, z'
loop_
 _atom_site_type_symbol
 _atom_site_label
 _atom_site_symmetry_multiplicity
 _atom_site_fract_x
 _atom_site_fract_y
 _atom_site_fract_z
 _atom_site_occupancy
  Li  Li0  1  0.377101  0.056817  0.422223  1
  Li  Li1  1  0.320284  0.943183  0.922223  1
  Li  Li2  1  0.056817  0.377101  0.922223  1
  Li  Li3  1  0.679716  0.056817  0.077777  1
  Li  Li4  1  0.943183  0.320284  0.422223  1
  Li  Li5  1  0.622899  0.943183  0.577777  1
  Li  Li6  1  0.320284  0.377101  0.577777  1
  Li  Li7  1  0.679716  0.622899  0.422223  1
  Li  Li8  1  0.622899  0.679716  0.922223  1
  Li  Li9  1  0.377101  0.320284  0.077777  1
  Li  Li10  1  0.943183  0.622899  0.077777  1
  Li  Li11  1  0.056817  0.679716  0.577777  1
  Cr  Cr12  1  0.666667  0.333333  0.750000  1
  Cr  Cr13  1  0.333333  0.666667  0.250000  1
  Cr  Cr14  1  0.000000  0.000000  0.250000  1
  Cr  Cr15  1  0.000000  0.000000  0.750000  1
  O  O16  1  0.337975  0.043718  0.631832  1
  O  O17  1  0.294258  0.956282  0.131832  1
  O  O18  1  0.705742  0.043718  0.868168  1
  O  O19  1  0.662025  0.956282  0.368168  1
  O  O20  1  0.956282  0.294258  0.631832  1
  O  O21  1  0.043718  0.337975  0.131832  1
  O  O22  1  0.662025  0.705742  0.131832  1
  O  O23  1  0.294258  0.337975  0.368168  1
  O  O24  1  0.705742  0.662025  0.631832  1
  O  O25  1  0.337975  0.294258  0.868168  1
  O  O26  1  0.956282  0.662025  0.868168  1
  O  O27  1  0.043718  0.705742  0.368168  1
