# generated using pymatgen
data_LiCr2(SO4)3
_symmetry_space_group_name_H-M   'P 1'
_cell_length_a   8.74351978
_cell_length_b   8.74351978
_cell_length_c   8.74351978
_cell_angle_alpha   59.44531923
_cell_angle_beta   59.44531923
_cell_angle_gamma   59.44531923
_symmetry_Int_Tables_number   1
_chemical_formula_structural   LiCr2(SO4)3
_chemical_formula_sum   'Li2 Cr4 S6 O24'
_cell_volume   466.69012548
_cell_formula_units_Z   2
loop_
 _symmetry_equiv_pos_site_id
 _symmetry_equiv_pos_as_xyz
  1  'x, y, z'
loop_
 _atom_site_type_symbol
 _atom_site_label
 _atom_site_symmetry_multiplicity
 _atom_site_fract_x
 _atom_site_fract_y
 _atom_site_fract_z
 _atom_site_occupancy
  Li  Li0  1  0.000000  0.000000  0.000000  1
  Li  Li1  1  0.500000  0.500000  0.500000  1
  Cr  Cr2  1  0.643326  0.643326  0.643326  1
  Cr  Cr3  1  0.856674  0.856674  0.856674  1
  Cr  Cr4  1  0.356674  0.356674  0.356674  1
  Cr  Cr5  1  0.143326  0.143326  0.143326  1
  S  S6  1  0.250000  0.544519  0.955481  1
  S  S7  1  0.044519  0.750000  0.455481  1
  S  S8  1  0.455481  0.044519  0.750000  1
  S  S9  1  0.544519  0.955481  0.250000  1
  S  S10  1  0.955481  0.250000  0.544519  1
  S  S11  1  0.750000  0.455481  0.044519  1
  O  O12  1  0.091296  0.729173  0.940766  1
  O  O13  1  0.270827  0.059234  0.908704  1
  O  O14  1  0.106150  0.306646  0.508367  1
  O  O15  1  0.991633  0.193354  0.393850  1
  O  O16  1  0.408704  0.559234  0.770827  1
  O  O17  1  0.229173  0.591296  0.440766  1
  O  O18  1  0.059234  0.908704  0.270827  1
  O  O19  1  0.806646  0.606150  0.008367  1
  O  O20  1  0.491633  0.893850  0.693354  1
  O  O21  1  0.693354  0.491633  0.893850  1
  O  O22  1  0.606150  0.008367  0.806646  1
  O  O23  1  0.440766  0.229173  0.591296  1
  O  O24  1  0.559234  0.770827  0.408704  1
  O  O25  1  0.306646  0.508367  0.106150  1
  O  O26  1  0.393850  0.991633  0.193354  1
  O  O27  1  0.193354  0.393850  0.991633  1
  O  O28  1  0.508367  0.106150  0.306646  1
  O  O29  1  0.940766  0.091296  0.729173  1
  O  O30  1  0.770827  0.408704  0.559234  1
  O  O31  1  0.591296  0.440766  0.229173  1
  O  O32  1  0.893850  0.693354  0.491633  1
  O  O33  1  0.008367  0.806646  0.606150  1
  O  O34  1  0.729173  0.940766  0.091296  1
  O  O35  1  0.908704  0.270827  0.059234  1
