# generated using pymatgen
data_Li4Cr3Cu2Sb3O16
_symmetry_space_group_name_H-M   'P 1'
_cell_length_a   6.06944021
_cell_length_b   6.06944021
_cell_length_c   9.92030381
_cell_angle_alpha   89.60013371
_cell_angle_beta   90.39986629
_cell_angle_gamma   119.52586678
_symmetry_Int_Tables_number   1
_chemical_formula_structural   Li4Cr3Cu2Sb3O16
_chemical_formula_sum   'Li4 Cr3 Cu2 Sb3 O16'
_cell_volume   317.97565181
_cell_formula_units_Z   1
loop_
 _symmetry_equiv_pos_site_id
 _symmetry_equiv_pos_as_xyz
  1  'x, y, z'
loop_
 _atom_site_type_symbol
 _atom_site_label
 _atom_site_symmetry_multiplicity
 _atom_site_fract_x
 _atom_site_fract_y
 _atom_site_fract_z
 _atom_site_occupancy
  Li  Li0  1  0.330892  0.669108  0.898629  1
  Li  Li1  1  0.988781  0.011219  0.002972  1
  Li  Li2  1  0.990224  0.009776  0.492416  1
  Li  Li3  1  0.663072  0.336928  0.376672  1
  Cr  Cr4  1  0.660133  0.833779  0.215186  1
  Cr  Cr5  1  0.166221  0.339867  0.215186  1
  Cr  Cr6  1  0.834367  0.165633  0.715399  1
  Cu  Cu7  1  0.345390  0.654610  0.477557  1
  Cu  Cu8  1  0.672705  0.327295  0.027670  1
  Sb  Sb9  1  0.167345  0.832655  0.215582  1
  Sb  Sb10  1  0.835148  0.659522  0.715801  1
  Sb  Sb11  1  0.340478  0.164852  0.715801  1
  O  O12  1  0.693736  0.836361  0.606236  1
  O  O13  1  0.479936  0.520064  0.328372  1
  O  O14  1  0.329684  0.670316  0.105942  1
  O  O15  1  0.999117  0.000883  0.313142  1
  O  O16  1  0.003134  0.996866  0.819762  1
  O  O17  1  0.163639  0.306264  0.606236  1
  O  O18  1  0.480006  0.970195  0.331646  1
  O  O19  1  0.029805  0.519994  0.331646  1
  O  O20  1  0.840505  0.159495  0.107600  1
  O  O21  1  0.157258  0.842742  0.602048  1
  O  O22  1  0.976117  0.486669  0.824107  1
  O  O23  1  0.513331  0.023883  0.824107  1
  O  O24  1  0.668569  0.331431  0.602966  1
  O  O25  1  0.846889  0.691662  0.103123  1
  O  O26  1  0.515250  0.484750  0.829001  1
  O  O27  1  0.308338  0.153111  0.103123  1
