# generated using pymatgen
data_Tm2TeO6
_symmetry_space_group_name_H-M   'P 1'
_cell_length_a   4.94587633
_cell_length_b   4.94587633
_cell_length_c   9.96382532
_cell_angle_alpha   90.00000000
_cell_angle_beta   90.00000000
_cell_angle_gamma   90.00000000
_symmetry_Int_Tables_number   1
_chemical_formula_structural   Tm2TeO6
_chemical_formula_sum   'Tm4 Te2 O12'
_cell_volume   243.73203233
_cell_formula_units_Z   2
loop_
 _symmetry_equiv_pos_site_id
 _symmetry_equiv_pos_as_xyz
  1  'x, y, z'
loop_
 _atom_site_type_symbol
 _atom_site_label
 _atom_site_symmetry_multiplicity
 _atom_site_fract_x
 _atom_site_fract_y
 _atom_site_fract_z
 _atom_site_occupancy
  Tm  Tm0  1  0.500000  0.500000  0.334527  1
  Tm  Tm1  1  0.500000  0.500000  0.665473  1
  Tm  Tm2  1  0.000000  0.000000  0.165473  1
  Tm  Tm3  1  0.000000  0.000000  0.834527  1
  Te  Te4  1  0.500000  0.500000  0.000000  1
  Te  Te5  1  0.000000  0.000000  0.500000  1
  O  O6  1  0.684259  0.684259  0.147928  1
  O  O7  1  0.684259  0.684259  0.852072  1
  O  O8  1  0.719147  0.719147  0.500000  1
  O  O9  1  0.780853  0.219147  0.000000  1
  O  O10  1  0.815741  0.184259  0.352072  1
  O  O11  1  0.815741  0.184259  0.647928  1
  O  O12  1  0.184259  0.815741  0.352072  1
  O  O13  1  0.184259  0.815741  0.647928  1
  O  O14  1  0.219147  0.780853  0.000000  1
  O  O15  1  0.280853  0.280853  0.500000  1
  O  O16  1  0.315741  0.315741  0.147928  1
  O  O17  1  0.315741  0.315741  0.852072  1
