# generated using pymatgen
data_V4O7F5
_symmetry_space_group_name_H-M   'P 1'
_cell_length_a   5.23917080
_cell_length_b   5.32672754
_cell_length_c   9.03579201
_cell_angle_alpha   74.11156404
_cell_angle_beta   74.81824541
_cell_angle_gamma   61.75585929
_symmetry_Int_Tables_number   1
_chemical_formula_structural   V4O7F5
_chemical_formula_sum   'V4 O7 F5'
_cell_volume   211.03578034
_cell_formula_units_Z   1
loop_
 _symmetry_equiv_pos_site_id
 _symmetry_equiv_pos_as_xyz
  1  'x, y, z'
loop_
 _atom_site_type_symbol
 _atom_site_label
 _atom_site_symmetry_multiplicity
 _atom_site_fract_x
 _atom_site_fract_y
 _atom_site_fract_z
 _atom_site_occupancy
  V  V0  1  0.211459  0.260539  0.268685  1
  V  V1  1  0.457445  0.511486  0.496153  1
  V  V2  1  0.704602  0.745140  0.760181  1
  V  V3  1  0.958047  0.021249  0.020201  1
  O  O4  1  0.116683  0.647351  0.586461  1
  O  O5  1  0.094578  0.080323  0.151853  1
  O  O6  1  0.601281  0.156373  0.084859  1
  O  O7  1  0.608946  0.593833  0.656617  1
  O  O8  1  0.427668  0.405223  0.341100  1
  O  O9  1  0.424712  0.838918  0.902358  1
  O  O10  1  0.924412  0.341063  0.408304  1
  F  F11  1  0.050795  0.621820  0.113037  1
  F  F12  1  0.462693  0.872380  0.377517  1
  F  F13  1  0.574325  0.122612  0.624402  1
  F  F14  1  0.955552  0.374855  0.874196  1
  F  F15  1  0.926800  0.906835  0.834076  1
