# generated using pymatgen
data_Fe5P4(H3O10)2
_symmetry_space_group_name_H-M   'P 1'
_cell_length_a   9.91548466
_cell_length_b   9.91548466
_cell_length_c   9.24728720
_cell_angle_alpha   83.98813182
_cell_angle_beta   96.01186818
_cell_angle_gamma   126.81841756
_symmetry_Int_Tables_number   1
_chemical_formula_structural   Fe5P4(H3O10)2
_chemical_formula_sum   'Fe10 P8 H12 O40'
_cell_volume   722.81176061
_cell_formula_units_Z   2
loop_
 _symmetry_equiv_pos_site_id
 _symmetry_equiv_pos_as_xyz
  1  'x, y, z'
loop_
 _atom_site_type_symbol
 _atom_site_label
 _atom_site_symmetry_multiplicity
 _atom_site_fract_x
 _atom_site_fract_y
 _atom_site_fract_z
 _atom_site_occupancy
  Fe  Fe0  1  0.103724  0.103724  0.250000  1
  Fe  Fe1  1  0.896276  0.896276  0.750000  1
  Fe  Fe2  1  0.762154  0.387036  0.317171  1
  Fe  Fe3  1  0.387036  0.762154  0.182829  1
  Fe  Fe4  1  0.237846  0.612964  0.682829  1
  Fe  Fe5  1  0.612964  0.237846  0.817171  1
  Fe  Fe6  1  0.151954  0.820655  0.385801  1
  Fe  Fe7  1  0.820655  0.151954  0.114199  1
  Fe  Fe8  1  0.848046  0.179345  0.614199  1
  Fe  Fe9  1  0.179345  0.848046  0.885801  1
  P  P10  1  0.884146  0.721562  0.110381  1
  P  P11  1  0.721562  0.884146  0.389620  1
  P  P12  1  0.115854  0.278438  0.889620  1
  P  P13  1  0.278438  0.115854  0.610380  1
  P  P14  1  0.411964  0.100838  0.141869  1
  P  P15  1  0.100838  0.411964  0.358131  1
  P  P16  1  0.588036  0.899162  0.858131  1
  P  P17  1  0.899162  0.588036  0.641869  1
  H  H18  1  0.625739  0.542235  0.372366  1
  H  H19  1  0.542235  0.625739  0.127634  1
  H  H20  1  0.374261  0.457765  0.627634  1
  H  H21  1  0.457765  0.374261  0.872366  1
  H  H22  1  0.487690  0.355234  0.294360  1
  H  H23  1  0.355234  0.487690  0.205640  1
  H  H24  1  0.512310  0.644766  0.705640  1
  H  H25  1  0.644766  0.512310  0.794360  1
  H  H26  1  0.401761  0.830207  0.478952  1
  H  H27  1  0.830207  0.401761  0.021048  1
  H  H28  1  0.598239  0.169793  0.521048  1
  H  H29  1  0.169793  0.598239  0.978952  1
  O  O30  1  0.336136  0.187133  0.179803  1
  O  O31  1  0.187133  0.336136  0.320197  1
  O  O32  1  0.663864  0.812867  0.820197  1
  O  O33  1  0.812867  0.663864  0.679803  1
  O  O34  1  0.012575  0.850072  0.229286  1
  O  O35  1  0.850072  0.012575  0.270714  1
  O  O36  1  0.987425  0.149928  0.770714  1
  O  O37  1  0.149928  0.987425  0.729286  1
  O  O38  1  0.721171  0.698843  0.093732  1
  O  O39  1  0.698843  0.721171  0.406268  1
  O  O40  1  0.278829  0.301157  0.906268  1
  O  O41  1  0.301157  0.278829  0.593732  1
  O  O42  1  0.978012  0.800170  0.961742  1
  O  O43  1  0.800170  0.978012  0.538258  1
  O  O44  1  0.021988  0.199830  0.038258  1
  O  O45  1  0.199830  0.021988  0.461742  1
  O  O46  1  0.869876  0.557220  0.155422  1
  O  O47  1  0.557220  0.869876  0.344578  1
  O  O48  1  0.130124  0.442780  0.844578  1
  O  O49  1  0.442780  0.130124  0.655422  1
  O  O50  1  0.390343  0.062507  0.975599  1
  O  O51  1  0.062507  0.390343  0.524401  1
  O  O52  1  0.609657  0.937493  0.024401  1
  O  O53  1  0.937493  0.609657  0.475599  1
  O  O54  1  0.592853  0.424063  0.356678  1
  O  O55  1  0.424063  0.592853  0.143322  1
  O  O56  1  0.407147  0.575937  0.643322  1
  O  O57  1  0.575937  0.407147  0.856678  1
  O  O58  1  0.327462  0.924460  0.229164  1
  O  O59  1  0.924460  0.327462  0.270836  1
  O  O60  1  0.672538  0.075540  0.770836  1
  O  O61  1  0.075540  0.672538  0.729164  1
  O  O62  1  0.299391  0.793988  0.526235  1
  O  O63  1  0.793988  0.299391  0.973765  1
  O  O64  1  0.700609  0.206012  0.473765  1
  O  O65  1  0.206012  0.700609  0.026235  1
  O  O66  1  0.601550  0.206828  0.184531  1
  O  O67  1  0.206828  0.601550  0.315469  1
  O  O68  1  0.398450  0.793172  0.815469  1
  O  O69  1  0.793172  0.398450  0.684531  1
