# generated using pymatgen
data_Mn3(O2F)2
_symmetry_space_group_name_H-M   'P 1'
_cell_length_a   4.64193053
_cell_length_b   5.56864438
_cell_length_c   7.63547597
_cell_angle_alpha   86.53820740
_cell_angle_beta   89.62130028
_cell_angle_gamma   88.97261091
_symmetry_Int_Tables_number   1
_chemical_formula_structural   Mn3(O2F)2
_chemical_formula_sum   'Mn6 O8 F4'
_cell_volume   196.97656734
_cell_formula_units_Z   2
loop_
 _symmetry_equiv_pos_site_id
 _symmetry_equiv_pos_as_xyz
  1  'x, y, z'
loop_
 _atom_site_type_symbol
 _atom_site_label
 _atom_site_symmetry_multiplicity
 _atom_site_fract_x
 _atom_site_fract_y
 _atom_site_fract_z
 _atom_site_occupancy
  Mn  Mn0  1  0.500000  0.500000  0.000000  1
  Mn  Mn1  1  0.536819  0.843113  0.659222  1
  Mn  Mn2  1  0.463181  0.156887  0.340778  1
  Mn  Mn3  1  0.005192  0.327788  0.682763  1
  Mn  Mn4  1  0.994808  0.672212  0.317237  1
  Mn  Mn5  1  0.000000  0.000000  0.000000  1
  O  O6  1  0.811181  0.043587  0.773932  1
  O  O7  1  0.809737  0.704086  0.094568  1
  O  O8  1  0.695216  0.537827  0.764626  1
  O  O9  1  0.693906  0.872557  0.428628  1
  O  O10  1  0.306094  0.127443  0.571372  1
  O  O11  1  0.304784  0.462173  0.235374  1
  O  O12  1  0.188819  0.956413  0.226068  1
  O  O13  1  0.190263  0.295914  0.905432  1
  F  F14  1  0.810345  0.368626  0.439018  1
  F  F15  1  0.688469  0.192358  0.119176  1
  F  F16  1  0.311531  0.807642  0.880824  1
  F  F17  1  0.189655  0.631374  0.560982  1
