# generated using pymatgen
data_LiSbWO6
_symmetry_space_group_name_H-M   'P 1'
_cell_length_a   7.31677634
_cell_length_b   7.31677634
_cell_length_c   7.31677634
_cell_angle_alpha   120.97513060
_cell_angle_beta   119.01071819
_cell_angle_gamma   90.02067259
_symmetry_Int_Tables_number   1
_chemical_formula_structural   LiSbWO6
_chemical_formula_sum   'Li2 Sb2 W2 O12'
_cell_volume   276.90528828
_cell_formula_units_Z   2
loop_
 _symmetry_equiv_pos_site_id
 _symmetry_equiv_pos_as_xyz
  1  'x, y, z'
loop_
 _atom_site_type_symbol
 _atom_site_label
 _atom_site_symmetry_multiplicity
 _atom_site_fract_x
 _atom_site_fract_y
 _atom_site_fract_z
 _atom_site_occupancy
  Li  Li0  1  0.500000  0.500000  0.500000  1
  Li  Li1  1  0.000000  0.500000  0.000000  1
  Sb  Sb2  1  0.000000  0.500000  0.500000  1
  Sb  Sb3  1  0.000000  0.000000  1.000000  1
  W  W4  1  0.500000  0.000000  1.000000  1
  W  W5  1  1.000000  0.000000  0.500000  1
  O  O6  1  0.321383  0.683636  0.749603  1
  O  O7  1  0.915634  0.665634  0.750000  1
  O  O8  1  0.084366  0.334366  0.250000  1
  O  O9  1  0.678617  0.316364  0.250397  1
  O  O10  1  0.678617  0.928221  0.862254  1
  O  O11  1  0.065967  0.316364  0.637746  1
  O  O12  1  0.934033  0.683636  0.362254  1
  O  O13  1  0.321383  0.071779  0.137746  1
  O  O14  1  0.695129  0.945129  0.250000  1
  O  O15  1  0.065967  0.928221  0.249603  1
  O  O16  1  0.934033  0.071779  0.750397  1
  O  O17  1  0.304871  0.054871  0.750000  1
