# generated using pymatgen
data_Li4Ti3Fe2Cu3O16
_symmetry_space_group_name_H-M   'P 1'
_cell_length_a   5.88637739
_cell_length_b   5.88637739
_cell_length_c   9.62488144
_cell_angle_alpha   88.99929299
_cell_angle_beta   91.00070701
_cell_angle_gamma   119.98630843
_symmetry_Int_Tables_number   1
_chemical_formula_structural   Li4Ti3Fe2Cu3O16
_chemical_formula_sum   'Li4 Ti3 Fe2 Cu3 O16'
_cell_volume   288.79773644
_cell_formula_units_Z   1
loop_
 _symmetry_equiv_pos_site_id
 _symmetry_equiv_pos_as_xyz
  1  'x, y, z'
loop_
 _atom_site_type_symbol
 _atom_site_label
 _atom_site_symmetry_multiplicity
 _atom_site_fract_x
 _atom_site_fract_y
 _atom_site_fract_z
 _atom_site_occupancy
  Li  Li0  1  0.333784  0.666216  0.103062  1
  Li  Li1  1  0.010827  0.989173  0.009429  1
  Li  Li2  1  0.000910  0.999090  0.503693  1
  Li  Li3  1  0.661469  0.338531  0.601479  1
  Ti  Ti4  1  0.164145  0.341551  0.782885  1
  Ti  Ti5  1  0.658449  0.835855  0.782885  1
  Ti  Ti6  1  0.824813  0.175187  0.278568  1
  Fe  Fe7  1  0.331607  0.668393  0.505325  1
  Fe  Fe8  1  0.664520  0.335480  0.008207  1
  Cu  Cu9  1  0.170248  0.829752  0.789755  1
  Cu  Cu10  1  0.338587  0.172578  0.290136  1
  Cu  Cu11  1  0.827422  0.661413  0.290136  1
  O  O12  1  0.155755  0.332624  0.402464  1
  O  O13  1  0.482206  0.517794  0.667183  1
  O  O14  1  0.341484  0.658516  0.897495  1
  O  O15  1  0.000665  0.999335  0.692055  1
  O  O16  1  0.002877  0.997123  0.198630  1
  O  O17  1  0.667376  0.844245  0.402464  1
  O  O18  1  0.035098  0.510092  0.656670  1
  O  O19  1  0.489908  0.964902  0.656670  1
  O  O20  1  0.836388  0.163612  0.895768  1
  O  O21  1  0.160826  0.839174  0.400835  1
  O  O22  1  0.527459  0.031342  0.155497  1
  O  O23  1  0.968658  0.472541  0.155497  1
  O  O24  1  0.666345  0.333655  0.394920  1
  O  O25  1  0.327855  0.168004  0.902670  1
  O  O26  1  0.520361  0.479639  0.164953  1
  O  O27  1  0.831996  0.672145  0.902670  1
