# generated using pymatgen
data_Li2Ti(BO3)2
_symmetry_space_group_name_H-M   'P 1'
_cell_length_a   5.17088526
_cell_length_b   8.95214126
_cell_length_c   9.99448311
_cell_angle_alpha   89.50972310
_cell_angle_beta   87.31626501
_cell_angle_gamma   88.89963524
_symmetry_Int_Tables_number   1
_chemical_formula_structural   Li2Ti(BO3)2
_chemical_formula_sum   'Li8 Ti4 B8 O24'
_cell_volume   462.04333627
_cell_formula_units_Z   4
loop_
 _symmetry_equiv_pos_site_id
 _symmetry_equiv_pos_as_xyz
  1  'x, y, z'
loop_
 _atom_site_type_symbol
 _atom_site_label
 _atom_site_symmetry_multiplicity
 _atom_site_fract_x
 _atom_site_fract_y
 _atom_site_fract_z
 _atom_site_occupancy
  Li  Li0  1  0.316036  0.509511  0.578988  1
  Li  Li1  1  0.360526  0.531052  0.186423  1
  Li  Li2  1  0.651142  0.470995  0.833892  1
  Li  Li3  1  0.695109  0.477013  0.392775  1
  Li  Li4  1  0.661962  0.145418  0.888702  1
  Li  Li5  1  0.855027  0.961652  0.087456  1
  Li  Li6  1  0.829438  0.657695  0.614624  1
  Li  Li7  1  0.855924  0.976373  0.678843  1
  Ti  Ti8  1  0.145879  0.680427  0.877977  1
  Ti  Ti9  1  0.346161  0.176889  0.631061  1
  Ti  Ti10  1  0.637197  0.821272  0.368707  1
  Ti  Ti11  1  0.874425  0.293420  0.127112  1
  B  B12  1  0.178091  0.686695  0.387751  1
  B  B13  1  0.162717  0.342861  0.869226  1
  B  B14  1  0.320859  0.199277  0.112929  1
  B  B15  1  0.339996  0.838768  0.627434  1
  B  B16  1  0.653445  0.157610  0.371036  1
  B  B17  1  0.659807  0.817002  0.873579  1
  B  B18  1  0.844949  0.642899  0.132536  1
  B  B19  1  0.824724  0.322613  0.627392  1
  O  O20  1  0.085168  0.662504  0.067239  1
  O  O21  1  0.092511  0.333092  0.611738  1
  O  O22  1  0.105187  0.111104  0.110780  1
  O  O23  1  0.226349  0.981979  0.642445  1
  O  O24  1  0.195753  0.714940  0.666587  1
  O  O25  1  0.239648  0.347873  0.134585  1
  O  O26  1  0.277256  0.830081  0.367310  1
  O  O27  1  0.321273  0.226234  0.826177  1
  O  O28  1  0.273573  0.486575  0.856926  1
  O  O29  1  0.352582  0.569982  0.385879  1
  O  O30  1  0.432567  0.184230  0.448557  1
  O  O31  1  0.393167  0.822075  0.893763  1
  O  O32  1  0.579068  0.160393  0.089339  1
  O  O33  1  0.595831  0.826992  0.577809  1
  O  O34  1  0.671456  0.448178  0.619244  1
  O  O35  1  0.744208  0.502368  0.148399  1
  O  O36  1  0.710797  0.767895  0.181959  1
  O  O37  1  0.720051  0.181684  0.656444  1
  O  O38  1  0.779976  0.675014  0.847166  1
  O  O39  1  0.785626  0.276960  0.315328  1
  O  O40  1  0.744253  0.012875  0.348494  1
  O  O41  1  0.806362  0.938566  0.876013  1
  O  O42  1  0.911802  0.668534  0.410665  1
  O  O43  1  0.909120  0.328231  0.918705  1
