# generated using pymatgen
data_Li6Hf2O7
_symmetry_space_group_name_H-M   'P 1'
_cell_length_a   6.02722874
_cell_length_b   6.02722874
_cell_length_c   10.20055589
_cell_angle_alpha   81.05459529
_cell_angle_beta   98.94540471
_cell_angle_gamma   120.32638740
_symmetry_Int_Tables_number   1
_chemical_formula_structural   Li6Hf2O7
_chemical_formula_sum   'Li12 Hf4 O14'
_cell_volume   314.67345727
_cell_formula_units_Z   2
loop_
 _symmetry_equiv_pos_site_id
 _symmetry_equiv_pos_as_xyz
  1  'x, y, z'
loop_
 _atom_site_type_symbol
 _atom_site_label
 _atom_site_symmetry_multiplicity
 _atom_site_fract_x
 _atom_site_fract_y
 _atom_site_fract_z
 _atom_site_occupancy
  Li  Li0  1  0.077440  0.663729  0.395213  1
  Li  Li1  1  0.336271  0.922560  0.895213  1
  Li  Li2  1  0.081578  0.206442  0.414799  1
  Li  Li3  1  0.531505  0.664255  0.396743  1
  Li  Li4  1  0.793558  0.918422  0.914799  1
  Li  Li5  1  0.335745  0.468495  0.896743  1
  Li  Li6  1  0.664255  0.531505  0.103257  1
  Li  Li7  1  0.206442  0.081578  0.085201  1
  Li  Li8  1  0.468495  0.335745  0.603257  1
  Li  Li9  1  0.918422  0.793558  0.585201  1
  Li  Li10  1  0.663729  0.077440  0.104787  1
  Li  Li11  1  0.922560  0.336271  0.604787  1
  Hf  Hf12  1  0.193466  0.560712  0.135252  1
  Hf  Hf13  1  0.439288  0.806534  0.635252  1
  Hf  Hf14  1  0.560712  0.193466  0.364748  1
  Hf  Hf15  1  0.806534  0.439288  0.864748  1
  O  O16  1  0.361427  0.861677  0.254525  1
  O  O17  1  0.732433  0.000429  0.497754  1
  O  O18  1  0.138323  0.638573  0.754525  1
  O  O19  1  0.999571  0.267567  0.997754  1
  O  O20  1  0.498809  0.742721  0.023534  1
  O  O21  1  0.349874  0.349874  0.250000  1
  O  O22  1  0.257279  0.501191  0.523534  1
  O  O23  1  0.742721  0.498809  0.476466  1
  O  O24  1  0.650126  0.650126  0.750000  1
  O  O25  1  0.501191  0.257279  0.976466  1
  O  O26  1  0.000429  0.732433  0.002246  1
  O  O27  1  0.861677  0.361427  0.245475  1
  O  O28  1  0.267567  0.999571  0.502246  1
  O  O29  1  0.638573  0.138323  0.745475  1
