# generated using pymatgen
data_Li2FeO2
_symmetry_space_group_name_H-M   'P 1'
_cell_length_a   3.15645627
_cell_length_b   3.15645627
_cell_length_c   5.28778925
_cell_angle_alpha   90.00000000
_cell_angle_beta   90.00000000
_cell_angle_gamma   120.00000000
_symmetry_Int_Tables_number   1
_chemical_formula_structural   Li2FeO2
_chemical_formula_sum   'Li2 Fe1 O2'
_cell_volume   45.62515194
_cell_formula_units_Z   1
loop_
 _symmetry_equiv_pos_site_id
 _symmetry_equiv_pos_as_xyz
  1  'x, y, z'
loop_
 _atom_site_type_symbol
 _atom_site_label
 _atom_site_symmetry_multiplicity
 _atom_site_fract_x
 _atom_site_fract_y
 _atom_site_fract_z
 _atom_site_occupancy
  Li  Li0  1  0.333333  0.666667  0.364797  1
  Li  Li1  1  0.666667  0.333333  0.635203  1
  Fe  Fe2  1  0.000000  0.000000  0.000000  1
  O  O3  1  0.333333  0.666667  0.756643  1
  O  O4  1  0.666667  0.333333  0.243357  1
