# generated using pymatgen
data_LiNbFeO4
_symmetry_space_group_name_H-M   'P 1'
_cell_length_a   6.28749490
_cell_length_b   6.28749490
_cell_length_c   8.40819170
_cell_angle_alpha   90.00000000
_cell_angle_beta   90.00000000
_cell_angle_gamma   90.00000000
_symmetry_Int_Tables_number   1
_chemical_formula_structural   LiNbFeO4
_chemical_formula_sum   'Li4 Nb4 Fe4 O16'
_cell_volume   332.39761263
_cell_formula_units_Z   4
loop_
 _symmetry_equiv_pos_site_id
 _symmetry_equiv_pos_as_xyz
  1  'x, y, z'
loop_
 _atom_site_type_symbol
 _atom_site_label
 _atom_site_symmetry_multiplicity
 _atom_site_fract_x
 _atom_site_fract_y
 _atom_site_fract_z
 _atom_site_occupancy
  Li  Li0  1  0.500000  0.720213  0.000000  1
  Li  Li1  1  0.500000  0.279787  0.500000  1
  Li  Li2  1  0.720213  0.500000  0.250000  1
  Li  Li3  1  0.279787  0.500000  0.750000  1
  Nb  Nb4  1  0.714750  0.000000  0.250000  1
  Nb  Nb5  1  0.000000  0.714750  0.000000  1
  Nb  Nb6  1  0.000000  0.285250  0.500000  1
  Nb  Nb7  1  0.285250  0.000000  0.750000  1
  Fe  Fe8  1  0.759782  0.759782  0.625000  1
  Fe  Fe9  1  0.759782  0.240218  0.875000  1
  Fe  Fe10  1  0.240218  0.759782  0.375000  1
  Fe  Fe11  1  0.240218  0.240218  0.125000  1
  O  O12  1  0.523949  0.765562  0.256849  1
  O  O13  1  0.523949  0.234438  0.243151  1
  O  O14  1  0.765562  0.523949  0.993151  1
  O  O15  1  0.765562  0.476051  0.506849  1
  O  O16  1  0.768063  0.979064  0.015009  1
  O  O17  1  0.768063  0.020936  0.484991  1
  O  O18  1  0.979064  0.768063  0.234991  1
  O  O19  1  0.979064  0.231937  0.265009  1
  O  O20  1  0.020936  0.768063  0.765009  1
  O  O21  1  0.020936  0.231937  0.734991  1
  O  O22  1  0.231937  0.020936  0.515009  1
  O  O23  1  0.231937  0.979064  0.984991  1
  O  O24  1  0.234438  0.523949  0.006849  1
  O  O25  1  0.234438  0.476051  0.493151  1
  O  O26  1  0.476051  0.765562  0.743151  1
  O  O27  1  0.476051  0.234438  0.756849  1
