# generated using pymatgen
data_Na6Bi2P(CO4)4
_symmetry_space_group_name_H-M   'P 1'
_cell_length_a   10.34045882
_cell_length_b   10.34045882
_cell_length_c   10.34045882
_cell_angle_alpha   60.00000000
_cell_angle_beta   60.00000000
_cell_angle_gamma   60.00000000
_symmetry_Int_Tables_number   1
_chemical_formula_structural   Na6Bi2P(CO4)4
_chemical_formula_sum   'Na12 Bi4 P2 C8 O32'
_cell_volume   781.81577711
_cell_formula_units_Z   2
loop_
 _symmetry_equiv_pos_site_id
 _symmetry_equiv_pos_as_xyz
  1  'x, y, z'
loop_
 _atom_site_type_symbol
 _atom_site_label
 _atom_site_symmetry_multiplicity
 _atom_site_fract_x
 _atom_site_fract_y
 _atom_site_fract_z
 _atom_site_occupancy
  Na  Na0  1  0.445199  0.445199  0.054801  1
  Na  Na1  1  0.054801  0.445199  0.054801  1
  Na  Na2  1  0.054801  0.445199  0.445199  1
  Na  Na3  1  0.445199  0.054801  0.054801  1
  Na  Na4  1  0.195199  0.195199  0.804801  1
  Na  Na5  1  0.804801  0.195199  0.804801  1
  Na  Na6  1  0.445199  0.054801  0.445199  1
  Na  Na7  1  0.054801  0.054801  0.445199  1
  Na  Na8  1  0.195199  0.804801  0.804801  1
  Na  Na9  1  0.804801  0.195199  0.195199  1
  Na  Na10  1  0.804801  0.804801  0.195199  1
  Na  Na11  1  0.195199  0.804801  0.195199  1
  Bi  Bi12  1  0.625000  0.625000  0.125000  1
  Bi  Bi13  1  0.625000  0.625000  0.625000  1
  Bi  Bi14  1  0.125000  0.625000  0.625000  1
  Bi  Bi15  1  0.625000  0.125000  0.625000  1
  P  P16  1  1.000000  1.000000  1.000000  1
  P  P17  1  0.250000  0.250000  0.250000  1
  C  C18  1  0.852367  0.442898  0.852367  1
  C  C19  1  0.852367  0.852367  0.852367  1
  C  C20  1  0.442898  0.852367  0.852367  1
  C  C21  1  0.852367  0.852367  0.442898  1
  C  C22  1  0.397633  0.397633  0.807102  1
  C  C23  1  0.397633  0.397633  0.397633  1
  C  C24  1  0.807102  0.397633  0.397633  1
  C  C25  1  0.397633  0.807102  0.397633  1
  O  O26  1  0.061638  0.815085  0.061638  1
  O  O27  1  0.061638  0.061638  0.061638  1
  O  O28  1  0.815085  0.061638  0.061638  1
  O  O29  1  0.061638  0.061638  0.815085  1
  O  O30  1  0.729189  0.444136  0.981323  1
  O  O31  1  0.981323  0.444136  0.845351  1
  O  O32  1  0.845351  0.729189  0.981323  1
  O  O33  1  0.845351  0.444136  0.729189  1
  O  O34  1  0.444136  0.845351  0.981323  1
  O  O35  1  0.444136  0.729189  0.845351  1
  O  O36  1  0.981323  0.845351  0.729189  1
  O  O37  1  0.729189  0.981323  0.845351  1
  O  O38  1  0.981323  0.729189  0.444136  1
  O  O39  1  0.444136  0.981323  0.729189  1
  O  O40  1  0.729189  0.845351  0.444136  1
  O  O41  1  0.404649  0.268677  0.805864  1
  O  O42  1  0.845351  0.981323  0.444136  1
  O  O43  1  0.520811  0.404649  0.805864  1
  O  O44  1  0.805864  0.268677  0.520811  1
  O  O45  1  0.268677  0.520811  0.805864  1
  O  O46  1  0.520811  0.268677  0.404649  1
  O  O47  1  0.268677  0.404649  0.520811  1
  O  O48  1  0.805864  0.520811  0.404649  1
  O  O49  1  0.805864  0.404649  0.268677  1
  O  O50  1  0.404649  0.805864  0.520811  1
  O  O51  1  0.404649  0.520811  0.268677  1
  O  O52  1  0.268677  0.805864  0.404649  1
  O  O53  1  0.520811  0.805864  0.268677  1
  O  O54  1  0.188362  0.188362  0.434915  1
  O  O55  1  0.434915  0.188362  0.188362  1
  O  O56  1  0.188362  0.188362  0.188362  1
  O  O57  1  0.188362  0.434915  0.188362  1
