# generated using pymatgen
data_Li3VPCO7
_symmetry_space_group_name_H-M   'P 1'
_cell_length_a   8.65361966
_cell_length_b   6.50960524
_cell_length_c   9.69203224
_cell_angle_alpha   90.00000000
_cell_angle_beta   91.91330270
_cell_angle_gamma   90.00000000
_symmetry_Int_Tables_number   1
_chemical_formula_structural   Li3VPCO7
_chemical_formula_sum   'Li12 V4 P4 C4 O28'
_cell_volume   545.66376554
_cell_formula_units_Z   4
loop_
 _symmetry_equiv_pos_site_id
 _symmetry_equiv_pos_as_xyz
  1  'x, y, z'
loop_
 _atom_site_type_symbol
 _atom_site_label
 _atom_site_symmetry_multiplicity
 _atom_site_fract_x
 _atom_site_fract_y
 _atom_site_fract_z
 _atom_site_occupancy
  Li  Li0  1  0.389769  0.758539  0.634436  1
  Li  Li1  1  0.389769  0.741461  0.134436  1
  Li  Li2  1  0.209354  0.516703  0.372547  1
  Li  Li3  1  0.209354  0.983297  0.872547  1
  Li  Li4  1  0.128596  0.243205  0.635228  1
  Li  Li5  1  0.128596  0.256795  0.135228  1
  Li  Li6  1  0.871404  0.756795  0.364772  1
  Li  Li7  1  0.871404  0.743205  0.864772  1
  Li  Li8  1  0.790646  0.483297  0.627453  1
  Li  Li9  1  0.790646  0.016703  0.127453  1
  Li  Li10  1  0.610231  0.241461  0.365564  1
  Li  Li11  1  0.610231  0.258539  0.865564  1
  V  V12  1  0.251876  0.018115  0.362714  1
  V  V13  1  0.251876  0.481885  0.862714  1
  V  V14  1  0.748124  0.981885  0.637286  1
  V  V15  1  0.748124  0.518115  0.137286  1
  P  P16  1  0.092195  0.760798  0.609085  1
  P  P17  1  0.092195  0.739202  0.109085  1
  P  P18  1  0.907805  0.239202  0.390915  1
  P  P19  1  0.907805  0.260798  0.890915  1
  C  C20  1  0.446444  0.256323  0.613788  1
  C  C21  1  0.446444  0.243677  0.113788  1
  C  C22  1  0.553556  0.743677  0.386212  1
  C  C23  1  0.553556  0.756323  0.886212  1
  O  O24  1  0.425581  0.295310  0.743670  1
  O  O25  1  0.411236  0.771141  0.426598  1
  O  O26  1  0.425581  0.204690  0.243670  1
  O  O27  1  0.333387  0.245903  0.524908  1
  O  O28  1  0.411236  0.728859  0.926598  1
  O  O29  1  0.333387  0.254097  0.024908  1
  O  O30  1  0.187820  0.941147  0.670543  1
  O  O31  1  0.181629  0.563378  0.654907  1
  O  O32  1  0.181629  0.936622  0.154907  1
  O  O33  1  0.187820  0.558853  0.170543  1
  O  O34  1  0.077458  0.249972  0.344172  1
  O  O35  1  0.091443  0.774662  0.447878  1
  O  O36  1  0.077458  0.250028  0.844172  1
  O  O37  1  0.091443  0.725338  0.947878  1
  O  O38  1  0.908557  0.225338  0.552122  1
  O  O39  1  0.922542  0.750028  0.655828  1
  O  O40  1  0.908557  0.274662  0.052122  1
  O  O41  1  0.922542  0.749972  0.155828  1
  O  O42  1  0.812180  0.058853  0.329457  1
  O  O43  1  0.818371  0.436622  0.345093  1
  O  O44  1  0.812180  0.441147  0.829457  1
  O  O45  1  0.818371  0.063378  0.845093  1
  O  O46  1  0.666613  0.754097  0.475092  1
  O  O47  1  0.588764  0.228859  0.573402  1
  O  O48  1  0.666613  0.745903  0.975092  1
  O  O49  1  0.574419  0.704690  0.256330  1
  O  O50  1  0.588764  0.271141  0.073402  1
  O  O51  1  0.574419  0.795310  0.756330  1
