# generated using pymatgen
data_CoCu(PO4)2
_symmetry_space_group_name_H-M   'P 1'
_cell_length_a   4.99523386
_cell_length_b   5.91469410
_cell_length_c   10.00485755
_cell_angle_alpha   90.00000000
_cell_angle_beta   94.23592635
_cell_angle_gamma   90.00000000
_symmetry_Int_Tables_number   1
_chemical_formula_structural   CoCu(PO4)2
_chemical_formula_sum   'Co2 Cu2 P4 O16'
_cell_volume   294.78885684
_cell_formula_units_Z   2
loop_
 _symmetry_equiv_pos_site_id
 _symmetry_equiv_pos_as_xyz
  1  'x, y, z'
loop_
 _atom_site_type_symbol
 _atom_site_label
 _atom_site_symmetry_multiplicity
 _atom_site_fract_x
 _atom_site_fract_y
 _atom_site_fract_z
 _atom_site_occupancy
  Co  Co0  1  0.440909  0.750000  0.210704  1
  Co  Co1  1  0.559091  0.250000  0.789296  1
  Cu  Cu2  1  0.867192  0.250000  0.303545  1
  Cu  Cu3  1  0.132808  0.750000  0.696455  1
  P  P4  1  0.404477  0.250000  0.101230  1
  P  P5  1  0.939001  0.750000  0.396484  1
  P  P6  1  0.060999  0.250000  0.603516  1
  P  P7  1  0.595523  0.750000  0.898770  1
  O  O8  1  0.653797  0.750000  0.050863  1
  O  O9  1  0.715920  0.250000  0.130154  1
  O  O10  1  0.282338  0.038293  0.166706  1
  O  O11  1  0.282338  0.461707  0.166706  1
  O  O12  1  0.767145  0.555268  0.324217  1
  O  O13  1  0.767145  0.944732  0.324217  1
  O  O14  1  0.235500  0.750000  0.376075  1
  O  O15  1  0.111015  0.250000  0.452496  1
  O  O16  1  0.888985  0.750000  0.547504  1
  O  O17  1  0.764500  0.250000  0.623925  1
  O  O18  1  0.232855  0.055268  0.675783  1
  O  O19  1  0.232855  0.444732  0.675783  1
  O  O20  1  0.717662  0.538293  0.833294  1
  O  O21  1  0.717662  0.961707  0.833294  1
  O  O22  1  0.284080  0.750000  0.869846  1
  O  O23  1  0.346203  0.250000  0.949137  1
