# generated using pymatgen
data_Li2VPHO5
_symmetry_space_group_name_H-M   'P 1'
_cell_length_a   5.39541680
_cell_length_b   5.59800298
_cell_length_c   7.72747875
_cell_angle_alpha   108.39463033
_cell_angle_beta   108.84468826
_cell_angle_gamma   94.12202793
_symmetry_Int_Tables_number   1
_chemical_formula_structural   Li2VPHO5
_chemical_formula_sum   'Li4 V2 P2 H2 O10'
_cell_volume   205.63753704
_cell_formula_units_Z   2
loop_
 _symmetry_equiv_pos_site_id
 _symmetry_equiv_pos_as_xyz
  1  'x, y, z'
loop_
 _atom_site_type_symbol
 _atom_site_label
 _atom_site_symmetry_multiplicity
 _atom_site_fract_x
 _atom_site_fract_y
 _atom_site_fract_z
 _atom_site_occupancy
  Li  Li0  1  0.465874  0.130393  0.832386  1
  Li  Li1  1  0.793655  0.425823  0.800883  1
  Li  Li2  1  0.206345  0.574177  0.199117  1
  Li  Li3  1  0.534126  0.869607  0.167614  1
  V  V4  1  0.000000  0.000000  0.500000  1
  V  V5  1  0.000000  0.000000  0.000000  1
  P  P6  1  0.668931  0.374797  0.228838  1
  P  P7  1  0.331069  0.625203  0.771162  1
  H  H8  1  0.339491  0.076876  0.358708  1
  H  H9  1  0.660509  0.923124  0.641292  1
  O  O10  1  0.816275  0.061411  0.724150  1
  O  O11  1  0.730254  0.221618  0.367517  1
  O  O12  1  0.332896  0.338057  0.668771  1
  O  O13  1  0.379391  0.253146  0.072764  1
  O  O14  1  0.861548  0.351159  0.113509  1
  O  O15  1  0.138452  0.648841  0.886491  1
  O  O16  1  0.620609  0.746854  0.927236  1
  O  O17  1  0.667104  0.661943  0.331229  1
  O  O18  1  0.269746  0.778382  0.632483  1
  O  O19  1  0.183725  0.938589  0.275850  1
