# generated using pymatgen
data_Li4Mn7O9F7
_symmetry_space_group_name_H-M   'P 1'
_cell_length_a   6.08026700
_cell_length_b   6.08026700
_cell_length_c   10.85093041
_cell_angle_alpha   71.61081310
_cell_angle_beta   108.38918690
_cell_angle_gamma   122.38156434
_symmetry_Int_Tables_number   1
_chemical_formula_structural   Li4Mn7O9F7
_chemical_formula_sum   'Li4 Mn7 O9 F7'
_cell_volume   316.05735039
_cell_formula_units_Z   1
loop_
 _symmetry_equiv_pos_site_id
 _symmetry_equiv_pos_as_xyz
  1  'x, y, z'
loop_
 _atom_site_type_symbol
 _atom_site_label
 _atom_site_symmetry_multiplicity
 _atom_site_fract_x
 _atom_site_fract_y
 _atom_site_fract_z
 _atom_site_occupancy
  Li  Li0  1  0.990218  0.009782  0.010772  1
  Li  Li1  1  0.389073  0.610927  0.124480  1
  Li  Li2  1  0.874251  0.125749  0.612974  1
  Li  Li3  1  0.485437  0.514563  0.508020  1
  Mn  Mn4  1  0.707887  0.292113  0.073608  1
  Mn  Mn5  1  0.937984  0.582601  0.306822  1
  Mn  Mn6  1  0.417399  0.062016  0.306822  1
  Mn  Mn7  1  0.934539  0.557006  0.804378  1
  Mn  Mn8  1  0.431581  0.568419  0.804813  1
  Mn  Mn9  1  0.188879  0.811121  0.565891  1
  Mn  Mn10  1  0.442994  0.065461  0.804378  1
  O  O11  1  0.560821  0.439179  0.716586  1
  O  O12  1  0.274340  0.725660  0.433894  1
  O  O13  1  0.589453  0.410547  0.195714  1
  O  O14  1  0.784568  0.215432  0.919971  1
  O  O15  1  0.079784  0.920216  0.203638  1
  O  O16  1  0.083564  0.474975  0.673702  1
  O  O17  1  0.525025  0.916436  0.673702  1
  O  O18  1  0.088661  0.911339  0.688999  1
  O  O19  1  0.310047  0.689953  0.902099  1
  F  F20  1  0.833634  0.693355  0.459272  1
  F  F21  1  0.550373  0.924151  0.189992  1
  F  F22  1  0.785587  0.214413  0.422030  1
  F  F23  1  0.308168  0.191023  0.935718  1
  F  F24  1  0.306645  0.166366  0.459272  1
  F  F25  1  0.808977  0.691832  0.935718  1
  F  F26  1  0.075849  0.449627  0.189992  1
