# generated using pymatgen
data_Li2CrWO6
_symmetry_space_group_name_H-M   'P 1'
_cell_length_a   5.36064736
_cell_length_b   5.36064736
_cell_length_c   5.36064736
_cell_angle_alpha   56.81370842
_cell_angle_beta   56.81370842
_cell_angle_gamma   56.81370842
_symmetry_Int_Tables_number   1
_chemical_formula_structural   Li2CrWO6
_chemical_formula_sum   'Li2 Cr1 W1 O6'
_cell_volume   100.91724260
_cell_formula_units_Z   1
loop_
 _symmetry_equiv_pos_site_id
 _symmetry_equiv_pos_as_xyz
  1  'x, y, z'
loop_
 _atom_site_type_symbol
 _atom_site_label
 _atom_site_symmetry_multiplicity
 _atom_site_fract_x
 _atom_site_fract_y
 _atom_site_fract_z
 _atom_site_occupancy
  Li  Li0  1  0.711702  0.711702  0.711702  1
  Li  Li1  1  0.228431  0.228431  0.228431  1
  Cr  Cr2  1  0.998580  0.998580  0.998580  1
  W  W3  1  0.497970  0.497970  0.497970  1
  O  O4  1  0.260108  0.867261  0.638106  1
  O  O5  1  0.136316  0.368067  0.759833  1
  O  O6  1  0.638106  0.260108  0.867261  1
  O  O7  1  0.368067  0.759833  0.136316  1
  O  O8  1  0.867261  0.638106  0.260108  1
  O  O9  1  0.759833  0.136316  0.368067  1
