# generated using pymatgen
data_SnP4O11
_symmetry_space_group_name_H-M   'P 1'
_cell_length_a   9.90325138
_cell_length_b   9.95871511
_cell_length_c   11.45079018
_cell_angle_alpha   111.19290679
_cell_angle_beta   109.64894274
_cell_angle_gamma   87.99184103
_symmetry_Int_Tables_number   1
_chemical_formula_structural   SnP4O11
_chemical_formula_sum   'Sn4 P16 O44'
_cell_volume   986.80389894
_cell_formula_units_Z   4
loop_
 _symmetry_equiv_pos_site_id
 _symmetry_equiv_pos_as_xyz
  1  'x, y, z'
loop_
 _atom_site_type_symbol
 _atom_site_label
 _atom_site_symmetry_multiplicity
 _atom_site_fract_x
 _atom_site_fract_y
 _atom_site_fract_z
 _atom_site_occupancy
  Sn  Sn0  1  0.757794  0.778672  0.020100  1
  Sn  Sn1  1  0.270535  0.731502  0.498880  1
  Sn  Sn2  1  0.729465  0.268498  0.501120  1
  Sn  Sn3  1  0.242206  0.221328  0.979900  1
  P  P4  1  0.921965  0.573836  0.225322  1
  P  P5  1  0.761927  0.907727  0.562986  1
  P  P6  1  0.916934  0.249728  0.072380  1
  P  P7  1  0.401890  0.770902  0.093236  1
  P  P8  1  0.741503  0.587034  0.390115  1
  P  P9  1  0.612517  0.921216  0.761885  1
  P  P10  1  0.929349  0.124539  0.286611  1
  P  P11  1  0.433061  0.574098  0.251640  1
  P  P12  1  0.566939  0.425902  0.748360  1
  P  P13  1  0.070651  0.875461  0.713389  1
  P  P14  1  0.387483  0.078784  0.238115  1
  P  P15  1  0.258497  0.412966  0.609885  1
  P  P16  1  0.598110  0.229098  0.906764  1
  P  P17  1  0.083066  0.750272  0.927620  1
  P  P18  1  0.238073  0.092273  0.437014  1
  P  P19  1  0.078035  0.426164  0.774678  1
  O  O20  1  0.026116  0.813604  0.036876  1
  O  O21  1  0.811534  0.004001  0.211732  1
  O  O22  1  0.921485  0.948260  0.664661  1
  O  O23  1  0.793273  0.606241  0.129535  1
  O  O24  1  0.969900  0.415828  0.151844  1
  O  O25  1  0.521813  0.772471  0.044710  1
  O  O26  1  0.762267  0.760903  0.444357  1
  O  O27  1  0.404479  0.906519  0.220410  1
  O  O28  1  0.867046  0.537649  0.333117  1
  O  O29  1  0.669979  0.866692  0.635253  1
  O  O30  1  0.966524  0.180466  0.181290  1
  O  O31  1  0.744849  0.240637  0.027235  1
  O  O32  1  0.731212  0.923576  0.885116  1
  O  O33  1  0.600776  0.543386  0.259775  1
  O  O34  1  0.383258  0.637452  0.130120  1
  O  O35  1  0.289931  0.978247  0.490102  1
  O  O36  1  0.740550  0.528516  0.490950  1
  O  O37  1  0.921352  0.252085  0.402161  1
  O  O38  1  0.440353  0.693087  0.379517  1
  O  O39  1  0.469782  0.839877  0.715041  1
  O  O40  1  0.942757  0.326612  0.703169  1
  O  O41  1  0.655806  0.565737  0.801166  1
  O  O42  1  0.344194  0.434263  0.198834  1
  O  O43  1  0.057243  0.673388  0.296831  1
  O  O44  1  0.530218  0.160123  0.284959  1
  O  O45  1  0.559647  0.306913  0.620483  1
  O  O46  1  0.078648  0.747915  0.597839  1
  O  O47  1  0.259450  0.471484  0.509050  1
  O  O48  1  0.710069  0.021753  0.509898  1
  O  O49  1  0.616742  0.362548  0.869880  1
  O  O50  1  0.399224  0.456614  0.740225  1
  O  O51  1  0.268788  0.076424  0.114884  1
  O  O52  1  0.255151  0.759363  0.972765  1
  O  O53  1  0.033476  0.819534  0.818710  1
  O  O54  1  0.330021  0.133308  0.364747  1
  O  O55  1  0.132954  0.462351  0.666883  1
  O  O56  1  0.595521  0.093481  0.779590  1
  O  O57  1  0.237733  0.239097  0.555643  1
  O  O58  1  0.478187  0.227529  0.955290  1
  O  O59  1  0.030100  0.584172  0.848156  1
  O  O60  1  0.206727  0.393759  0.870465  1
  O  O61  1  0.078515  0.051740  0.335339  1
  O  O62  1  0.188466  0.995999  0.788268  1
  O  O63  1  0.973884  0.186396  0.963124  1
