# generated using pymatgen
data_DyAlO3
_symmetry_space_group_name_H-M   'P 1'
_cell_length_a   5.21945835
_cell_length_b   5.37573764
_cell_length_c   7.44872473
_cell_angle_alpha   90.00000000
_cell_angle_beta   90.00000000
_cell_angle_gamma   90.00000000
_symmetry_Int_Tables_number   1
_chemical_formula_structural   DyAlO3
_chemical_formula_sum   'Dy4 Al4 O12'
_cell_volume   208.99958632
_cell_formula_units_Z   4
loop_
 _symmetry_equiv_pos_site_id
 _symmetry_equiv_pos_as_xyz
  1  'x, y, z'
loop_
 _atom_site_type_symbol
 _atom_site_label
 _atom_site_symmetry_multiplicity
 _atom_site_fract_x
 _atom_site_fract_y
 _atom_site_fract_z
 _atom_site_occupancy
  Dy  Dy0  1  0.013369  0.946119  0.750000  1
  Dy  Dy1  1  0.486631  0.446119  0.750000  1
  Dy  Dy2  1  0.513369  0.553881  0.250000  1
  Dy  Dy3  1  0.986631  0.053881  0.250000  1
  Al  Al4  1  0.000000  0.500000  0.000000  1
  Al  Al5  1  0.000000  0.500000  0.500000  1
  Al  Al6  1  0.500000  0.000000  0.000000  1
  Al  Al7  1  0.500000  0.000000  0.500000  1
  O  O8  1  0.087556  0.477028  0.250000  1
  O  O9  1  0.206794  0.206704  0.546245  1
  O  O10  1  0.206794  0.206704  0.953755  1
  O  O11  1  0.293206  0.706704  0.546245  1
  O  O12  1  0.293206  0.706704  0.953755  1
  O  O13  1  0.412444  0.977028  0.250000  1
  O  O14  1  0.587556  0.022972  0.750000  1
  O  O15  1  0.706794  0.293296  0.046245  1
  O  O16  1  0.706794  0.293296  0.453755  1
  O  O17  1  0.793206  0.793296  0.046245  1
  O  O18  1  0.793206  0.793296  0.453755  1
  O  O19  1  0.912444  0.522972  0.750000  1
