# generated using pymatgen
data_LiFePCO7
_symmetry_space_group_name_H-M   'P 1'
_cell_length_a   8.24125466
_cell_length_b   8.28284136
_cell_length_c   8.48977825
_cell_angle_alpha   94.13789976
_cell_angle_beta   93.64496174
_cell_angle_gamma   102.12060689
_symmetry_Int_Tables_number   1
_chemical_formula_structural   LiFePCO7
_chemical_formula_sum   'Li4 Fe4 P4 C4 O28'
_cell_volume   563.28045251
_cell_formula_units_Z   4
loop_
 _symmetry_equiv_pos_site_id
 _symmetry_equiv_pos_as_xyz
  1  'x, y, z'
loop_
 _atom_site_type_symbol
 _atom_site_label
 _atom_site_symmetry_multiplicity
 _atom_site_fract_x
 _atom_site_fract_y
 _atom_site_fract_z
 _atom_site_occupancy
  Li  Li0  1  0.743180  0.501966  0.111114  1
  Li  Li1  1  0.589516  0.128627  0.288411  1
  Li  Li2  1  0.263953  0.513340  0.890766  1
  Li  Li3  1  0.771489  0.012807  0.884389  1
  Fe  Fe4  1  0.469152  0.720057  0.335114  1
  Fe  Fe5  1  0.978049  0.221644  0.335800  1
  Fe  Fe6  1  0.026972  0.775072  0.663050  1
  Fe  Fe7  1  0.520564  0.270686  0.663135  1
  P  P8  1  0.755468  0.506459  0.422326  1
  P  P9  1  0.254384  0.998441  0.423127  1
  P  P10  1  0.736067  0.993900  0.575294  1
  P  P11  1  0.241272  0.488464  0.577936  1
  C  C12  1  0.526296  0.784011  0.048891  1
  C  C13  1  0.026025  0.274866  0.048825  1
  C  C14  1  0.970301  0.724096  0.945975  1
  C  C15  1  0.493628  0.230732  0.960934  1
  O  O16  1  0.413658  0.654215  0.068722  1
  O  O17  1  0.902449  0.155238  0.071885  1
  O  O18  1  0.934748  0.687366  0.081945  1
  O  O19  1  0.594860  0.872130  0.180601  1
  O  O20  1  0.476275  0.190206  0.100181  1
  O  O21  1  0.109802  0.352152  0.178248  1
  O  O22  1  0.635017  0.575852  0.309999  1
  O  O23  1  0.804896  0.371220  0.307196  1
  O  O24  1  0.306247  0.864088  0.313977  1
  O  O25  1  0.118817  0.060850  0.327004  1
  O  O26  1  0.908578  0.645505  0.478722  1
  O  O27  1  0.792732  0.076090  0.423421  1
  O  O28  1  0.319475  0.554770  0.430034  1
  O  O29  1  0.413242  0.141296  0.466187  1
  O  O30  1  0.589328  0.847216  0.521084  1
  O  O31  1  0.674988  0.432012  0.566080  1
  O  O32  1  0.193764  0.934952  0.579708  1
  O  O33  1  0.088362  0.347910  0.521502  1
  O  O34  1  0.872324  0.936783  0.675974  1
  O  O35  1  0.186322  0.619048  0.689808  1
  O  O36  1  0.678541  0.119415  0.692992  1
  O  O37  1  0.362917  0.419621  0.689091  1
  O  O38  1  0.885989  0.640606  0.819419  1
  O  O39  1  0.577068  0.827493  0.918866  1
  O  O40  1  0.399402  0.147808  0.841589  1
  O  O41  1  0.066925  0.321373  0.916901  1
  O  O42  1  0.605583  0.355482  0.927460  1
  O  O43  1  0.088142  0.842885  0.910503  1
