# generated using pymatgen
data_HfFeO3
_symmetry_space_group_name_H-M   'P 1'
_cell_length_a   5.03794619
_cell_length_b   5.33040426
_cell_length_c   8.77719975
_cell_angle_alpha   90.00000000
_cell_angle_beta   90.00000000
_cell_angle_gamma   90.00000000
_symmetry_Int_Tables_number   1
_chemical_formula_structural   HfFeO3
_chemical_formula_sum   'Hf4 Fe4 O12'
_cell_volume   235.70546621
_cell_formula_units_Z   4
loop_
 _symmetry_equiv_pos_site_id
 _symmetry_equiv_pos_as_xyz
  1  'x, y, z'
loop_
 _atom_site_type_symbol
 _atom_site_label
 _atom_site_symmetry_multiplicity
 _atom_site_fract_x
 _atom_site_fract_y
 _atom_site_fract_z
 _atom_site_occupancy
  Hf  Hf0  1  0.044528  0.429565  0.250000  1
  Hf  Hf1  1  0.455472  0.929565  0.250000  1
  Hf  Hf2  1  0.544528  0.070435  0.750000  1
  Hf  Hf3  1  0.955472  0.570435  0.750000  1
  Fe  Fe4  1  0.000000  0.000000  0.500000  1
  Fe  Fe5  1  0.000000  0.000000  0.000000  1
  Fe  Fe6  1  0.500000  0.500000  0.500000  1
  Fe  Fe7  1  0.500000  0.500000  0.000000  1
  O  O8  1  0.177776  0.905780  0.750000  1
  O  O9  1  0.194896  0.700775  0.100769  1
  O  O10  1  0.194896  0.700775  0.399231  1
  O  O11  1  0.305104  0.200775  0.100769  1
  O  O12  1  0.305104  0.200775  0.399231  1
  O  O13  1  0.322224  0.405780  0.750000  1
  O  O14  1  0.677776  0.594220  0.250000  1
  O  O15  1  0.694896  0.799225  0.600769  1
  O  O16  1  0.694896  0.799225  0.899231  1
  O  O17  1  0.805104  0.299225  0.600769  1
  O  O18  1  0.805104  0.299225  0.899231  1
  O  O19  1  0.822224  0.094220  0.250000  1
