# generated using pymatgen
data_LiVF4
_symmetry_space_group_name_H-M   'P 1'
_cell_length_a   6.13808053
_cell_length_b   6.13808053
_cell_length_c   6.13808053
_cell_angle_alpha   125.21549166
_cell_angle_beta   119.49722787
_cell_angle_gamma   86.04145542
_symmetry_Int_Tables_number   1
_chemical_formula_structural   LiVF4
_chemical_formula_sum   'Li2 V2 F8'
_cell_volume   156.75648121
_cell_formula_units_Z   2
loop_
 _symmetry_equiv_pos_site_id
 _symmetry_equiv_pos_as_xyz
  1  'x, y, z'
loop_
 _atom_site_type_symbol
 _atom_site_label
 _atom_site_symmetry_multiplicity
 _atom_site_fract_x
 _atom_site_fract_y
 _atom_site_fract_z
 _atom_site_occupancy
  Li  Li0  1  0.500000  0.000000  0.000000  1
  Li  Li1  1  0.000000  0.500000  0.000000  1
  V  V2  1  0.000000  0.500000  0.500000  1
  V  V3  1  0.500000  0.500000  0.000000  1
  F  F4  1  0.786675  0.286675  0.500000  1
  F  F5  1  0.713325  0.713325  0.000000  1
  F  F6  1  0.250000  0.282534  0.532534  1
  F  F7  1  0.250000  0.737505  0.987505  1
  F  F8  1  0.750000  0.262495  0.012495  1
  F  F9  1  0.750000  0.717466  0.467466  1
  F  F10  1  0.286675  0.286675  0.000000  1
  F  F11  1  0.213325  0.713325  0.500000  1
