# generated using pymatgen
data_Li2CoH8(CO5)2
_symmetry_space_group_name_H-M   'P 1'
_cell_length_a   5.50775305
_cell_length_b   5.50775305
_cell_length_c   13.89554512
_cell_angle_alpha   82.39891405
_cell_angle_beta   97.60108595
_cell_angle_gamma   101.79437092
_symmetry_Int_Tables_number   1
_chemical_formula_structural   Li2CoH8(CO5)2
_chemical_formula_sum   'Li4 Co2 H16 C4 O20'
_cell_volume   406.58810299
_cell_formula_units_Z   2
loop_
 _symmetry_equiv_pos_site_id
 _symmetry_equiv_pos_as_xyz
  1  'x, y, z'
loop_
 _atom_site_type_symbol
 _atom_site_label
 _atom_site_symmetry_multiplicity
 _atom_site_fract_x
 _atom_site_fract_y
 _atom_site_fract_z
 _atom_site_occupancy
  Li  Li0  1  0.413149  0.250829  0.442319  1
  Li  Li1  1  0.250829  0.413149  0.057681  1
  Li  Li2  1  0.749171  0.586851  0.942319  1
  Li  Li3  1  0.586851  0.749171  0.557681  1
  Co  Co4  1  0.044873  0.044873  0.250000  1
  Co  Co5  1  0.955127  0.955127  0.750000  1
  H  H6  1  0.767882  0.157677  0.059564  1
  H  H7  1  0.877793  0.191661  0.452508  1
  H  H8  1  0.842323  0.232118  0.559564  1
  H  H9  1  0.808339  0.122207  0.952508  1
  H  H10  1  0.778409  0.528778  0.126089  1
  H  H11  1  0.471222  0.221591  0.626089  1
  H  H12  1  0.742686  0.632287  0.379850  1
  H  H13  1  0.632287  0.742686  0.120150  1
  H  H14  1  0.367713  0.257314  0.879850  1
  H  H15  1  0.257314  0.367713  0.620150  1
  H  H16  1  0.528778  0.778409  0.373911  1
  H  H17  1  0.221591  0.471222  0.873911  1
  H  H18  1  0.191661  0.877793  0.047492  1
  H  H19  1  0.157677  0.767882  0.440436  1
  H  H20  1  0.122207  0.808339  0.547492  1
  H  H21  1  0.232118  0.842323  0.940436  1
  C  C22  1  0.482845  0.041878  0.211602  1
  C  C23  1  0.958122  0.517155  0.711602  1
  C  C24  1  0.041878  0.482845  0.288398  1
  C  C25  1  0.517155  0.958122  0.788398  1
  O  O26  1  0.854574  0.240836  0.002677  1
  O  O27  1  0.685069  0.008640  0.181516  1
  O  O28  1  0.759164  0.145426  0.502677  1
  O  O29  1  0.991360  0.314931  0.681516  1
  O  O30  1  0.459708  0.052761  0.301925  1
  O  O31  1  0.286986  0.060500  0.147846  1
  O  O32  1  0.947239  0.540292  0.801925  1
  O  O33  1  0.631311  0.589585  0.089567  1
  O  O34  1  0.939500  0.713014  0.647846  1
  O  O35  1  0.410415  0.368689  0.589567  1
  O  O36  1  0.589585  0.631311  0.410433  1
  O  O37  1  0.060500  0.286986  0.352154  1
  O  O38  1  0.368689  0.410415  0.910433  1
  O  O39  1  0.052761  0.459708  0.198075  1
  O  O40  1  0.713014  0.939500  0.852154  1
  O  O41  1  0.540292  0.947239  0.698075  1
  O  O42  1  0.008640  0.685069  0.318484  1
  O  O43  1  0.240836  0.854574  0.497323  1
  O  O44  1  0.314931  0.991360  0.818484  1
  O  O45  1  0.145426  0.759164  0.997323  1
