# generated using pymatgen
data_Na3Mn2P2(CO7)2
_symmetry_space_group_name_H-M   'P 1'
_cell_length_a   8.38495297
_cell_length_b   8.43076483
_cell_length_c   10.28638287
_cell_angle_alpha   106.54951293
_cell_angle_beta   108.09256594
_cell_angle_gamma   103.21053941
_symmetry_Int_Tables_number   1
_chemical_formula_structural   Na3Mn2P2(CO7)2
_chemical_formula_sum   'Na6 Mn4 P4 C4 O28'
_cell_volume   621.18566289
_cell_formula_units_Z   2
loop_
 _symmetry_equiv_pos_site_id
 _symmetry_equiv_pos_as_xyz
  1  'x, y, z'
loop_
 _atom_site_type_symbol
 _atom_site_label
 _atom_site_symmetry_multiplicity
 _atom_site_fract_x
 _atom_site_fract_y
 _atom_site_fract_z
 _atom_site_occupancy
  Na  Na0  1  0.009196  0.973588  0.248041  1
  Na  Na1  1  0.486837  0.489331  0.231369  1
  Na  Na2  1  0.733879  0.246600  0.237652  1
  Na  Na3  1  0.266121  0.753400  0.762348  1
  Na  Na4  1  0.990804  0.026412  0.751959  1
  Na  Na5  1  0.513163  0.510669  0.768631  1
  Mn  Mn6  1  0.682936  0.941379  0.347777  1
  Mn  Mn7  1  0.189501  0.444385  0.348463  1
  Mn  Mn8  1  0.317064  0.058621  0.652223  1
  Mn  Mn9  1  0.810499  0.555615  0.651537  1
  P  P10  1  0.948721  0.690695  0.427351  1
  P  P11  1  0.445435  0.208872  0.427915  1
  P  P12  1  0.051279  0.309305  0.572649  1
  P  P13  1  0.554565  0.791128  0.572085  1
  C  C14  1  0.531216  0.781609  0.079000  1
  C  C15  1  0.028377  0.278027  0.080189  1
  C  C16  1  0.468784  0.218391  0.921000  1
  C  C17  1  0.971623  0.721973  0.919811  1
  O  O18  1  0.050805  0.809242  0.053575  1
  O  O19  1  0.540116  0.297370  0.058512  1
  O  O20  1  0.168320  0.424861  0.144325  1
  O  O21  1  0.671970  0.930030  0.148086  1
  O  O22  1  0.479495  0.730591  0.172646  1
  O  O23  1  0.983823  0.235329  0.183511  1
  O  O24  1  0.025842  0.573282  0.336384  1
  O  O25  1  0.844685  0.768040  0.326406  1
  O  O26  1  0.528972  0.111536  0.333841  1
  O  O27  1  0.330280  0.287688  0.330000  1
  O  O28  1  0.905469  0.163820  0.424980  1
  O  O29  1  0.318485  0.084145  0.468900  1
  O  O30  1  0.812293  0.565458  0.464062  1
  O  O31  1  0.410426  0.643506  0.424438  1
  O  O32  1  0.094531  0.836180  0.575020  1
  O  O33  1  0.187707  0.434542  0.535938  1
  O  O34  1  0.681515  0.915855  0.531100  1
  O  O35  1  0.589574  0.356494  0.575562  1
  O  O36  1  0.974158  0.426718  0.663616  1
  O  O37  1  0.155315  0.231960  0.673594  1
  O  O38  1  0.471028  0.888464  0.666159  1
  O  O39  1  0.669720  0.712312  0.670000  1
  O  O40  1  0.520505  0.269409  0.827354  1
  O  O41  1  0.016177  0.764671  0.816489  1
  O  O42  1  0.328030  0.069970  0.851914  1
  O  O43  1  0.831680  0.575139  0.855675  1
  O  O44  1  0.459884  0.702630  0.941488  1
  O  O45  1  0.949195  0.190758  0.946425  1
