# generated using pymatgen
data_Li3V4O11F
_symmetry_space_group_name_H-M   'P 1'
_cell_length_a   5.16222035
_cell_length_b   5.21776154
_cell_length_c   8.34440665
_cell_angle_alpha   93.00948349
_cell_angle_beta   96.09630704
_cell_angle_gamma   100.94972719
_symmetry_Int_Tables_number   1
_chemical_formula_structural   Li3V4O11F
_chemical_formula_sum   'Li3 V4 O11 F1'
_cell_volume   218.80991736
_cell_formula_units_Z   1
loop_
 _symmetry_equiv_pos_site_id
 _symmetry_equiv_pos_as_xyz
  1  'x, y, z'
loop_
 _atom_site_type_symbol
 _atom_site_label
 _atom_site_symmetry_multiplicity
 _atom_site_fract_x
 _atom_site_fract_y
 _atom_site_fract_z
 _atom_site_occupancy
  Li  Li0  1  0.138223  0.622294  0.862361  1
  Li  Li1  1  0.588535  0.315974  0.787580  1
  Li  Li2  1  0.647457  0.085443  0.373808  1
  V  V3  1  0.737004  0.904658  0.977179  1
  V  V4  1  0.827928  0.691956  0.556635  1
  V  V5  1  0.269038  0.409305  0.451768  1
  V  V6  1  0.302498  0.183741  0.038230  1
  O  O7  1  0.973488  0.984452  0.510123  1
  O  O8  1  0.383573  0.987515  0.869798  1
  O  O9  1  0.983491  0.768063  0.061474  1
  O  O10  1  0.492310  0.704559  0.432122  1
  O  O11  1  0.744932  0.722012  0.756812  1
  O  O12  1  0.107889  0.523550  0.624934  1
  O  O13  1  0.452798  0.481983  0.987328  1
  O  O14  1  0.238597  0.250794  0.251246  1
  O  O15  1  0.499668  0.265343  0.554502  1
  O  O16  1  0.948082  0.204728  0.936526  1
  O  O17  1  0.587398  0.023505  0.142525  1
  F  F18  1  0.877336  0.462447  0.361732  1
