# generated using pymatgen
data_VFe3(PO4)6
_symmetry_space_group_name_H-M   'P 1'
_cell_length_a   8.86278277
_cell_length_b   8.86278277
_cell_length_c   8.86278277
_cell_angle_alpha   58.45220854
_cell_angle_beta   58.45220854
_cell_angle_gamma   58.45220854
_symmetry_Int_Tables_number   1
_chemical_formula_structural   VFe3(PO4)6
_chemical_formula_sum   'V1 Fe3 P6 O24'
_cell_volume   474.82669619
_cell_formula_units_Z   1
loop_
 _symmetry_equiv_pos_site_id
 _symmetry_equiv_pos_as_xyz
  1  'x, y, z'
loop_
 _atom_site_type_symbol
 _atom_site_label
 _atom_site_symmetry_multiplicity
 _atom_site_fract_x
 _atom_site_fract_y
 _atom_site_fract_z
 _atom_site_occupancy
  V  V0  1  0.140967  0.140967  0.140967  1
  Fe  Fe1  1  0.856537  0.856537  0.856537  1
  Fe  Fe2  1  0.642091  0.642091  0.642091  1
  Fe  Fe3  1  0.357835  0.357835  0.357835  1
  P  P4  1  0.249794  0.532126  0.966463  1
  P  P5  1  0.966463  0.249794  0.532126  1
  P  P6  1  0.532126  0.966463  0.249794  1
  P  P7  1  0.465041  0.034492  0.750635  1
  P  P8  1  0.034492  0.750635  0.465041  1
  P  P9  1  0.750635  0.465041  0.034492  1
  O  O10  1  0.733497  0.484327  0.861833  1
  O  O11  1  0.484327  0.861833  0.733497  1
  O  O12  1  0.078655  0.711853  0.939665  1
  O  O13  1  0.861833  0.733497  0.484327  1
  O  O14  1  0.424440  0.547836  0.789941  1
  O  O15  1  0.213373  0.358770  0.005453  1
  O  O16  1  0.939665  0.078655  0.711853  1
  O  O17  1  0.789941  0.424440  0.547836  1
  O  O18  1  0.547836  0.789941  0.424440  1
  O  O19  1  0.635881  0.010740  0.774459  1
  O  O20  1  0.284991  0.067984  0.928991  1
  O  O21  1  0.010740  0.774459  0.635881  1
  O  O22  1  0.005453  0.213373  0.358770  1
  O  O23  1  0.711853  0.939665  0.078655  1
  O  O24  1  0.358770  0.005453  0.213373  1
  O  O25  1  0.436516  0.213224  0.581040  1
  O  O26  1  0.213224  0.581040  0.436516  1
  O  O27  1  0.067984  0.928991  0.284991  1
  O  O28  1  0.774459  0.635881  0.010740  1
  O  O29  1  0.581040  0.436516  0.213224  1
  O  O30  1  0.137640  0.273027  0.509881  1
  O  O31  1  0.928991  0.284991  0.067984  1
  O  O32  1  0.509881  0.137640  0.273027  1
  O  O33  1  0.273027  0.509881  0.137640  1
