# generated using pymatgen
data_LiFe2OF3
_symmetry_space_group_name_H-M   'P 1'
_cell_length_a   5.01973041
_cell_length_b   6.16410173
_cell_length_c   10.77414429
_cell_angle_alpha   90.00000000
_cell_angle_beta   90.00000000
_cell_angle_gamma   90.00000000
_symmetry_Int_Tables_number   1
_chemical_formula_structural   LiFe2OF3
_chemical_formula_sum   'Li4 Fe8 O4 F12'
_cell_volume   333.37496148
_cell_formula_units_Z   4
loop_
 _symmetry_equiv_pos_site_id
 _symmetry_equiv_pos_as_xyz
  1  'x, y, z'
loop_
 _atom_site_type_symbol
 _atom_site_label
 _atom_site_symmetry_multiplicity
 _atom_site_fract_x
 _atom_site_fract_y
 _atom_site_fract_z
 _atom_site_occupancy
  Li  Li0  1  0.446913  0.750000  0.592248  1
  Li  Li1  1  0.053087  0.750000  0.092248  1
  Li  Li2  1  0.946913  0.250000  0.907752  1
  Li  Li3  1  0.553087  0.250000  0.407752  1
  Fe  Fe4  1  0.500000  0.000000  0.000000  1
  Fe  Fe5  1  0.500000  0.500000  0.000000  1
  Fe  Fe6  1  0.544403  0.250000  0.711291  1
  Fe  Fe7  1  0.955597  0.250000  0.211291  1
  Fe  Fe8  1  0.000000  0.500000  0.500000  1
  Fe  Fe9  1  0.000000  0.000000  0.500000  1
  Fe  Fe10  1  0.044403  0.750000  0.788709  1
  Fe  Fe11  1  0.455597  0.750000  0.288709  1
  O  O12  1  0.231210  0.750000  0.440368  1
  O  O13  1  0.268790  0.750000  0.940368  1
  O  O14  1  0.731210  0.250000  0.059632  1
  O  O15  1  0.768790  0.250000  0.559632  1
  F  F16  1  0.267750  0.989581  0.668381  1
  F  F17  1  0.267750  0.510419  0.668381  1
  F  F18  1  0.312312  0.250000  0.881605  1
  F  F19  1  0.187688  0.250000  0.381605  1
  F  F20  1  0.232250  0.989581  0.168381  1
  F  F21  1  0.232250  0.510419  0.168381  1
  F  F22  1  0.767750  0.489581  0.831619  1
  F  F23  1  0.767750  0.010419  0.831619  1
  F  F24  1  0.812312  0.750000  0.618395  1
  F  F25  1  0.687688  0.750000  0.118395  1
  F  F26  1  0.732250  0.489581  0.331619  1
  F  F27  1  0.732250  0.010419  0.331619  1
