# generated using pymatgen
data_Li9Fe23O32
_symmetry_space_group_name_H-M   'P 1'
_cell_length_a   8.59395612
_cell_length_b   8.59395612
_cell_length_c   8.55486878
_cell_angle_alpha   89.95397301
_cell_angle_beta   90.04602699
_cell_angle_gamma   89.95799101
_symmetry_Int_Tables_number   1
_chemical_formula_structural   Li9Fe23O32
_chemical_formula_sum   'Li9 Fe23 O32'
_cell_volume   631.82851078
_cell_formula_units_Z   1
loop_
 _symmetry_equiv_pos_site_id
 _symmetry_equiv_pos_as_xyz
  1  'x, y, z'
loop_
 _atom_site_type_symbol
 _atom_site_label
 _atom_site_symmetry_multiplicity
 _atom_site_fract_x
 _atom_site_fract_y
 _atom_site_fract_z
 _atom_site_occupancy
  Li  Li0  1  0.371878  0.371878  0.500000  1
  Li  Li1  1  0.622272  0.127538  0.498429  1
  Li  Li2  1  0.128388  0.128388  0.500000  1
  Li  Li3  1  0.127538  0.622272  0.501571  1
  Li  Li4  1  0.876563  0.620551  0.749398  1
  Li  Li5  1  0.875327  0.377488  0.997482  1
  Li  Li6  1  0.377488  0.875327  0.002518  1
  Li  Li7  1  0.374359  0.374359  0.000000  1
  Li  Li8  1  0.620551  0.876563  0.250602  1
  Fe  Fe9  1  0.876806  0.876806  0.500000  1
  Fe  Fe10  1  0.879223  0.372310  0.501600  1
  Fe  Fe11  1  0.372310  0.879223  0.498400  1
  Fe  Fe12  1  0.622573  0.622573  0.500000  1
  Fe  Fe13  1  0.871965  0.129452  0.747530  1
  Fe  Fe14  1  0.621187  0.876324  0.748367  1
  Fe  Fe15  1  0.378975  0.126049  0.738567  1
  Fe  Fe16  1  0.372235  0.621652  0.747209  1
  Fe  Fe17  1  0.627983  0.377904  0.749413  1
  Fe  Fe18  1  0.124480  0.865470  0.746032  1
  Fe  Fe19  1  0.122683  0.382810  0.741261  1
  Fe  Fe20  1  0.873382  0.873382  0.000000  1
  Fe  Fe21  1  0.618458  0.129188  0.000843  1
  Fe  Fe22  1  0.620156  0.620156  0.000000  1
  Fe  Fe23  1  0.132379  0.132379  0.000000  1
  Fe  Fe24  1  0.129188  0.618458  0.999157  1
  Fe  Fe25  1  0.865470  0.124480  0.253968  1
  Fe  Fe26  1  0.621652  0.372235  0.252791  1
  Fe  Fe27  1  0.382810  0.122683  0.258739  1
  Fe  Fe28  1  0.377904  0.627983  0.250587  1
  Fe  Fe29  1  0.876324  0.621187  0.251633  1
  Fe  Fe30  1  0.129452  0.871965  0.252470  1
  Fe  Fe31  1  0.126049  0.378975  0.261433  1
  O  O32  1  0.633455  0.863193  0.503358  1
  O  O33  1  0.628126  0.388639  0.494429  1
  O  O34  1  0.115866  0.873562  0.494483  1
  O  O35  1  0.125590  0.375235  0.502607  1
  O  O36  1  0.873562  0.115866  0.505517  1
  O  O37  1  0.863193  0.633455  0.496642  1
  O  O38  1  0.375235  0.125590  0.497393  1
  O  O39  1  0.388639  0.628126  0.505571  1
  O  O40  1  0.876823  0.873635  0.750074  1
  O  O41  1  0.612653  0.128186  0.750472  1
  O  O42  1  0.627557  0.623687  0.754800  1
  O  O43  1  0.134912  0.129103  0.758656  1
  O  O44  1  0.121878  0.618452  0.749739  1
  O  O45  1  0.882285  0.376642  0.752047  1
  O  O46  1  0.371524  0.889012  0.751110  1
  O  O47  1  0.367865  0.362490  0.749204  1
  O  O48  1  0.884135  0.114420  0.995370  1
  O  O49  1  0.636114  0.869794  0.996954  1
  O  O50  1  0.626107  0.381185  0.006311  1
  O  O51  1  0.366187  0.123683  0.003818  1
  O  O52  1  0.869794  0.636114  0.003046  1
  O  O53  1  0.381185  0.626107  0.993689  1
  O  O54  1  0.114420  0.884135  0.004630  1
  O  O55  1  0.123683  0.366187  0.996182  1
  O  O56  1  0.873635  0.876823  0.249926  1
  O  O57  1  0.889012  0.371524  0.248890  1
  O  O58  1  0.618452  0.121878  0.250261  1
  O  O59  1  0.376642  0.882285  0.247953  1
  O  O60  1  0.362490  0.367865  0.250796  1
  O  O61  1  0.623687  0.627557  0.245200  1
  O  O62  1  0.129103  0.134912  0.241344  1
  O  O63  1  0.128186  0.612653  0.249528  1
