# generated using pymatgen
data_Li4Ti2V3Cr3O16
_symmetry_space_group_name_H-M   'P 1'
_cell_length_a   5.90161141
_cell_length_b   5.90161141
_cell_length_c   9.54883049
_cell_angle_alpha   89.75855727
_cell_angle_beta   90.24144273
_cell_angle_gamma   119.96595488
_symmetry_Int_Tables_number   1
_chemical_formula_structural   Li4Ti2V3Cr3O16
_chemical_formula_sum   'Li4 Ti2 V3 Cr3 O16'
_cell_volume   288.11494068
_cell_formula_units_Z   1
loop_
 _symmetry_equiv_pos_site_id
 _symmetry_equiv_pos_as_xyz
  1  'x, y, z'
loop_
 _atom_site_type_symbol
 _atom_site_label
 _atom_site_symmetry_multiplicity
 _atom_site_fract_x
 _atom_site_fract_y
 _atom_site_fract_z
 _atom_site_occupancy
  Li  Li0  1  0.328521  0.671479  0.106122  1
  Li  Li1  1  0.000912  0.999088  0.006129  1
  Li  Li2  1  0.001815  0.998185  0.504902  1
  Li  Li3  1  0.663422  0.336578  0.609097  1
  Ti  Ti4  1  0.333340  0.666660  0.503563  1
  Ti  Ti5  1  0.668277  0.331723  0.002263  1
  V  V6  1  0.352377  0.181071  0.282779  1
  V  V7  1  0.173756  0.826244  0.779804  1
  V  V8  1  0.818929  0.647623  0.282779  1
  Cr  Cr9  1  0.170727  0.341230  0.785849  1
  Cr  Cr10  1  0.658770  0.829273  0.785849  1
  Cr  Cr11  1  0.831218  0.168782  0.286982  1
  O  O12  1  0.170701  0.336105  0.405001  1
  O  O13  1  0.477494  0.522506  0.659779  1
  O  O14  1  0.323510  0.676490  0.894552  1
  O  O15  1  0.006325  0.993675  0.693616  1
  O  O16  1  0.004493  0.995507  0.195006  1
  O  O17  1  0.663895  0.829299  0.405001  1
  O  O18  1  0.038046  0.524358  0.657642  1
  O  O19  1  0.475642  0.961954  0.657642  1
  O  O20  1  0.832416  0.167584  0.905051  1
  O  O21  1  0.170191  0.829809  0.404641  1
  O  O22  1  0.518995  0.044074  0.158906  1
  O  O23  1  0.955926  0.481005  0.158906  1
  O  O24  1  0.664899  0.335101  0.399222  1
  O  O25  1  0.337159  0.167362  0.904035  1
  O  O26  1  0.515049  0.484951  0.152817  1
  O  O27  1  0.832638  0.662841  0.904035  1
