# generated using pymatgen
data_Li2FeBO4
_symmetry_space_group_name_H-M   'P 1'
_cell_length_a   4.88883846
_cell_length_b   6.19376041
_cell_length_c   10.21600177
_cell_angle_alpha   90.00000000
_cell_angle_beta   90.00000000
_cell_angle_gamma   90.00000000
_symmetry_Int_Tables_number   1
_chemical_formula_structural   Li2FeBO4
_chemical_formula_sum   'Li8 Fe4 B4 O16'
_cell_volume   309.34353818
_cell_formula_units_Z   4
loop_
 _symmetry_equiv_pos_site_id
 _symmetry_equiv_pos_as_xyz
  1  'x, y, z'
loop_
 _atom_site_type_symbol
 _atom_site_label
 _atom_site_symmetry_multiplicity
 _atom_site_fract_x
 _atom_site_fract_y
 _atom_site_fract_z
 _atom_site_occupancy
  Li  Li0  1  0.711576  0.868567  0.079401  1
  Li  Li1  1  0.189274  0.116420  0.158153  1
  Li  Li2  1  0.689274  0.616420  0.341847  1
  Li  Li3  1  0.211576  0.368567  0.420599  1
  Li  Li4  1  0.788424  0.868567  0.579401  1
  Li  Li5  1  0.310726  0.116420  0.658153  1
  Li  Li6  1  0.810726  0.616420  0.841847  1
  Li  Li7  1  0.288424  0.368567  0.920599  1
  Fe  Fe8  1  0.186381  0.620150  0.162229  1
  Fe  Fe9  1  0.686381  0.120150  0.337771  1
  Fe  Fe10  1  0.313619  0.620150  0.662229  1
  Fe  Fe11  1  0.813619  0.120150  0.837771  1
  B  B12  1  0.683395  0.366866  0.090971  1
  B  B13  1  0.183395  0.866866  0.409029  1
  B  B14  1  0.816605  0.366866  0.590971  1
  B  B15  1  0.316605  0.866866  0.909029  1
  O  O16  1  0.252050  0.861068  0.052316  1
  O  O17  1  0.377307  0.374349  0.104968  1
  O  O18  1  0.799447  0.567404  0.152614  1
  O  O19  1  0.786552  0.167276  0.158031  1
  O  O20  1  0.286552  0.667276  0.341969  1
  O  O21  1  0.299447  0.067404  0.347386  1
  O  O22  1  0.877307  0.874349  0.395032  1
  O  O23  1  0.752050  0.361068  0.447684  1
  O  O24  1  0.247950  0.861068  0.552316  1
  O  O25  1  0.122693  0.374349  0.604968  1
  O  O26  1  0.700553  0.567404  0.652614  1
  O  O27  1  0.713448  0.167276  0.658031  1
  O  O28  1  0.213448  0.667276  0.841969  1
  O  O29  1  0.200553  0.067404  0.847386  1
  O  O30  1  0.622693  0.874349  0.895032  1
  O  O31  1  0.747950  0.361068  0.947684  1
