# generated using pymatgen
data_CrHSe3O8
_symmetry_space_group_name_H-M   'P 1'
_cell_length_a   7.63475584
_cell_length_b   12.16198667
_cell_length_c   10.76091917
_cell_angle_alpha   90.00000000
_cell_angle_beta   131.10411364
_cell_angle_gamma   90.00000000
_symmetry_Int_Tables_number   1
_chemical_formula_structural   CrHSe3O8
_chemical_formula_sum   'Cr4 H4 Se12 O32'
_cell_volume   752.90752028
_cell_formula_units_Z   4
loop_
 _symmetry_equiv_pos_site_id
 _symmetry_equiv_pos_as_xyz
  1  'x, y, z'
loop_
 _atom_site_type_symbol
 _atom_site_label
 _atom_site_symmetry_multiplicity
 _atom_site_fract_x
 _atom_site_fract_y
 _atom_site_fract_z
 _atom_site_occupancy
  Cr  Cr0  1  0.243966  0.825298  0.124447  1
  Cr  Cr1  1  0.756034  0.325298  0.375553  1
  Cr  Cr2  1  0.243966  0.674702  0.624447  1
  Cr  Cr3  1  0.756034  0.174702  0.875553  1
  H  H4  1  0.690787  0.319073  0.652996  1
  H  H5  1  0.309213  0.819073  0.847004  1
  H  H6  1  0.690787  0.180927  0.152996  1
  H  H7  1  0.309213  0.680927  0.347004  1
  Se  Se8  1  0.515394  0.158063  0.476789  1
  Se  Se9  1  0.140096  0.373976  0.079614  1
  Se  Se10  1  0.156848  0.046542  0.908983  1
  Se  Se11  1  0.843152  0.546542  0.591017  1
  Se  Se12  1  0.859904  0.873976  0.420386  1
  Se  Se13  1  0.484606  0.658063  0.023211  1
  Se  Se14  1  0.515394  0.341937  0.976789  1
  Se  Se15  1  0.140096  0.126024  0.579614  1
  Se  Se16  1  0.156848  0.453458  0.408983  1
  Se  Se17  1  0.843152  0.953458  0.091017  1
  Se  Se18  1  0.859904  0.626024  0.920386  1
  Se  Se19  1  0.484606  0.841937  0.523211  1
  O  O20  1  0.714541  0.762598  0.623810  1
  O  O21  1  0.719066  0.240727  0.685227  1
  O  O22  1  0.902374  0.542706  0.784070  1
  O  O23  1  0.226948  0.909141  0.953375  1
  O  O24  1  0.875544  0.045855  0.832327  1
  O  O25  1  0.086097  0.236511  0.049646  1
  O  O26  1  0.570599  0.887699  0.303703  1
  O  O27  1  0.344261  0.685497  0.095249  1
  O  O28  1  0.655739  0.185497  0.404751  1
  O  O29  1  0.429401  0.387699  0.196297  1
  O  O30  1  0.913903  0.736511  0.450354  1
  O  O31  1  0.124456  0.545855  0.667673  1
  O  O32  1  0.773052  0.409141  0.546625  1
  O  O33  1  0.097626  0.042706  0.715930  1
  O  O34  1  0.280934  0.740727  0.814773  1
  O  O35  1  0.285459  0.262598  0.876190  1
  O  O36  1  0.714541  0.737402  0.123810  1
  O  O37  1  0.719066  0.259273  0.185227  1
  O  O38  1  0.902374  0.957294  0.284070  1
  O  O39  1  0.226948  0.590859  0.453375  1
  O  O40  1  0.875544  0.454145  0.332327  1
  O  O41  1  0.086097  0.263489  0.549646  1
  O  O42  1  0.570599  0.612301  0.803703  1
  O  O43  1  0.344261  0.814503  0.595249  1
  O  O44  1  0.655739  0.314503  0.904751  1
  O  O45  1  0.429401  0.112301  0.696297  1
  O  O46  1  0.913903  0.763489  0.950354  1
  O  O47  1  0.124456  0.954145  0.167673  1
  O  O48  1  0.773052  0.090859  0.046625  1
  O  O49  1  0.097626  0.457294  0.215930  1
  O  O50  1  0.280934  0.759273  0.314773  1
  O  O51  1  0.285459  0.237402  0.376190  1
