# generated using pymatgen
data_GdErO3
_symmetry_space_group_name_H-M   'P 1'
_cell_length_a   9.27883048
_cell_length_b   9.27883048
_cell_length_c   10.71297896
_cell_angle_alpha   54.73001704
_cell_angle_beta   125.26998296
_cell_angle_gamma   109.47533675
_symmetry_Int_Tables_number   1
_chemical_formula_structural   GdErO3
_chemical_formula_sum   'Gd8 Er8 O24'
_cell_volume   614.81649409
_cell_formula_units_Z   8
loop_
 _symmetry_equiv_pos_site_id
 _symmetry_equiv_pos_as_xyz
  1  'x, y, z'
loop_
 _atom_site_type_symbol
 _atom_site_label
 _atom_site_symmetry_multiplicity
 _atom_site_fract_x
 _atom_site_fract_y
 _atom_site_fract_z
 _atom_site_occupancy
  Gd  Gd0  1  0.501167  0.498799  0.250185  1
  Gd  Gd1  1  0.530384  0.968873  0.030350  1
  Gd  Gd2  1  0.968873  0.530384  0.969650  1
  Gd  Gd3  1  0.280887  0.280887  0.500000  1
  Gd  Gd4  1  0.781716  0.781716  0.500000  1
  Gd  Gd5  1  0.997316  0.001694  0.749996  1
  Gd  Gd6  1  0.498799  0.501167  0.749815  1
  Gd  Gd7  1  0.001694  0.997316  0.250004  1
  Er  Er8  1  0.248343  0.751084  0.217891  1
  Er  Er9  1  0.251124  0.748389  0.717628  1
  Er  Er10  1  0.751084  0.248343  0.782109  1
  Er  Er11  1  0.217915  0.217915  0.000000  1
  Er  Er12  1  0.717229  0.717229  0.000000  1
  Er  Er13  1  0.031510  0.467934  0.532133  1
  Er  Er14  1  0.467934  0.031510  0.467867  1
  Er  Er15  1  0.748389  0.251124  0.282372  1
  O  O16  1  0.729163  0.525055  0.709067  1
  O  O17  1  0.525055  0.729163  0.290933  1
  O  O18  1  0.774293  0.512898  0.280574  1
  O  O19  1  0.268772  0.012792  0.980768  1
  O  O20  1  0.991581  0.725394  0.480985  1
  O  O21  1  0.491501  0.230866  0.779857  1
  O  O22  1  0.770559  0.969341  0.005109  1
  O  O23  1  0.969341  0.770559  0.994891  1
  O  O24  1  0.047023  0.761372  0.761710  1
  O  O25  1  0.253975  0.546426  0.475201  1
  O  O26  1  0.546426  0.253975  0.524799  1
  O  O27  1  0.761372  0.047023  0.238290  1
  O  O28  1  0.958315  0.245481  0.737813  1
  O  O29  1  0.458207  0.738180  0.976007  1
  O  O30  1  0.245481  0.958315  0.262187  1
  O  O31  1  0.738180  0.458207  0.023993  1
  O  O32  1  0.231926  0.025685  0.493406  1
  O  O33  1  0.025685  0.231926  0.506594  1
  O  O34  1  0.012792  0.268772  0.019232  1
  O  O35  1  0.512898  0.774293  0.719426  1
  O  O36  1  0.725394  0.991581  0.519015  1
  O  O37  1  0.230866  0.491501  0.220143  1
  O  O38  1  0.268092  0.468762  0.792593  1
  O  O39  1  0.468762  0.268092  0.207407  1
