# generated using pymatgen
data_LiMnP2(HO4)2
_symmetry_space_group_name_H-M   'P 1'
_cell_length_a   5.22199811
_cell_length_b   8.74056689
_cell_length_c   14.38386779
_cell_angle_alpha   90.00000000
_cell_angle_beta   98.79956957
_cell_angle_gamma   90.00000000
_symmetry_Int_Tables_number   1
_chemical_formula_structural   LiMnP2(HO4)2
_chemical_formula_sum   'Li4 Mn4 P8 H8 O32'
_cell_volume   648.79847580
_cell_formula_units_Z   4
loop_
 _symmetry_equiv_pos_site_id
 _symmetry_equiv_pos_as_xyz
  1  'x, y, z'
loop_
 _atom_site_type_symbol
 _atom_site_label
 _atom_site_symmetry_multiplicity
 _atom_site_fract_x
 _atom_site_fract_y
 _atom_site_fract_z
 _atom_site_occupancy
  Li  Li0  1  0.624577  0.495309  0.830669  1
  Li  Li1  1  0.624577  0.004691  0.330669  1
  Li  Li2  1  0.375423  0.995309  0.669331  1
  Li  Li3  1  0.375423  0.504691  0.169331  1
  Mn  Mn4  1  0.732760  0.964019  0.851465  1
  Mn  Mn5  1  0.732760  0.535981  0.351465  1
  Mn  Mn6  1  0.267240  0.464019  0.648535  1
  Mn  Mn7  1  0.267240  0.035981  0.148535  1
  P  P8  1  0.780234  0.236243  0.691703  1
  P  P9  1  0.734202  0.661531  0.555839  1
  P  P10  1  0.780234  0.263757  0.191703  1
  P  P11  1  0.734202  0.838469  0.055839  1
  P  P12  1  0.265798  0.161531  0.944161  1
  P  P13  1  0.219766  0.736243  0.808297  1
  P  P14  1  0.265798  0.338469  0.444161  1
  P  P15  1  0.219766  0.763757  0.308297  1
  H  H16  1  0.855588  0.812795  0.671125  1
  H  H17  1  0.712596  0.278124  0.536157  1
  H  H18  1  0.855588  0.687205  0.171125  1
  H  H19  1  0.712596  0.221876  0.036157  1
  H  H20  1  0.287404  0.778124  0.963843  1
  H  H21  1  0.144412  0.312795  0.828875  1
  H  H22  1  0.287404  0.721876  0.463843  1
  H  H23  1  0.144412  0.187205  0.328875  1
  O  O24  1  0.934092  0.772429  0.774948  1
  O  O25  1  0.918526  0.539981  0.605365  1
  O  O26  1  0.934092  0.727571  0.274948  1
  O  O27  1  0.918526  0.960019  0.105365  1
  O  O28  1  0.809317  0.825537  0.599494  1
  O  O29  1  0.734036  0.194196  0.584005  1
  O  O30  1  0.691310  0.085673  0.734883  1
  O  O31  1  0.809317  0.674463  0.099494  1
  O  O32  1  0.762159  0.817221  0.950910  1
  O  O33  1  0.734036  0.305804  0.084005  1
  O  O34  1  0.691310  0.414327  0.234883  1
  O  O35  1  0.762159  0.682779  0.450910  1
  O  O36  1  0.603690  0.369192  0.715994  1
  O  O37  1  0.548476  0.126859  0.932938  1
  O  O38  1  0.603690  0.130808  0.215994  1
  O  O39  1  0.451524  0.626859  0.567062  1
  O  O40  1  0.548476  0.373141  0.432938  1
  O  O41  1  0.396310  0.869192  0.784006  1
  O  O42  1  0.451524  0.873141  0.067062  1
  O  O43  1  0.396310  0.630808  0.284006  1
  O  O44  1  0.237841  0.317221  0.549090  1
  O  O45  1  0.308690  0.585673  0.765117  1
  O  O46  1  0.265964  0.694196  0.915995  1
  O  O47  1  0.237841  0.182779  0.049090  1
  O  O48  1  0.190683  0.325537  0.900506  1
  O  O49  1  0.308690  0.914327  0.265117  1
  O  O50  1  0.265964  0.805804  0.415995  1
  O  O51  1  0.190683  0.174463  0.400506  1
  O  O52  1  0.081474  0.039981  0.894635  1
  O  O53  1  0.065908  0.272429  0.725052  1
  O  O54  1  0.081474  0.460019  0.394635  1
  O  O55  1  0.065908  0.227571  0.225052  1
