# generated using pymatgen
data_Ba2YCl7
_symmetry_space_group_name_H-M   'P 1'
_cell_length_a   7.17174317
_cell_length_b   13.87961732
_cell_length_c   12.48632881
_cell_angle_alpha   90.00000000
_cell_angle_beta   95.19223642
_cell_angle_gamma   90.00000000
_symmetry_Int_Tables_number   1
_chemical_formula_structural   Ba2YCl7
_chemical_formula_sum   'Ba8 Y4 Cl28'
_cell_volume   1237.80225145
_cell_formula_units_Z   4
loop_
 _symmetry_equiv_pos_site_id
 _symmetry_equiv_pos_as_xyz
  1  'x, y, z'
loop_
 _atom_site_type_symbol
 _atom_site_label
 _atom_site_symmetry_multiplicity
 _atom_site_fract_x
 _atom_site_fract_y
 _atom_site_fract_z
 _atom_site_occupancy
  Ba  Ba0  1  0.238310  0.541898  0.238754  1
  Ba  Ba1  1  0.268662  0.139145  0.120976  1
  Ba  Ba2  1  0.255790  0.782454  0.622047  1
  Ba  Ba3  1  0.293402  0.372836  0.727009  1
  Ba  Ba4  1  0.706598  0.872836  0.272991  1
  Ba  Ba5  1  0.744210  0.282454  0.377953  1
  Ba  Ba6  1  0.731338  0.639145  0.879024  1
  Ba  Ba7  1  0.761690  0.041898  0.761246  1
  Y  Y8  1  0.189600  0.844932  0.044716  1
  Y  Y9  1  0.208035  0.076239  0.540982  1
  Y  Y10  1  0.791965  0.576239  0.459018  1
  Y  Y11  1  0.810400  0.344932  0.955284  1
  Cl  Cl12  1  0.035162  0.703199  0.389966  1
  Cl  Cl13  1  0.054123  0.438808  0.481958  1
  Cl  Cl14  1  0.037623  0.495278  0.000907  1
  Cl  Cl15  1  0.113838  0.149904  0.353153  1
  Cl  Cl16  1  0.085228  0.234058  0.892940  1
  Cl  Cl17  1  0.105271  0.772270  0.854374  1
  Cl  Cl18  1  0.207545  0.913640  0.243002  1
  Cl  Cl19  1  0.230659  0.011484  0.741799  1
  Cl  Cl20  1  0.384884  0.334664  0.229125  1
  Cl  Cl21  1  0.378796  0.587866  0.725922  1
  Cl  Cl22  1  0.432664  0.704631  0.104001  1
  Cl  Cl23  1  0.520305  0.703777  0.405526  1
  Cl  Cl24  1  0.482442  0.955421  0.028301  1
  Cl  Cl25  1  0.531182  0.450550  0.491258  1
  Cl  Cl26  1  0.468818  0.950550  0.508742  1
  Cl  Cl27  1  0.517558  0.455421  0.971699  1
  Cl  Cl28  1  0.479695  0.203777  0.594474  1
  Cl  Cl29  1  0.567336  0.204631  0.895999  1
  Cl  Cl30  1  0.621204  0.087866  0.274078  1
  Cl  Cl31  1  0.615116  0.834664  0.770875  1
  Cl  Cl32  1  0.769341  0.511484  0.258201  1
  Cl  Cl33  1  0.792455  0.413640  0.756998  1
  Cl  Cl34  1  0.894729  0.272270  0.145626  1
  Cl  Cl35  1  0.914772  0.734058  0.107060  1
  Cl  Cl36  1  0.886162  0.649904  0.646847  1
  Cl  Cl37  1  0.962377  0.995278  0.999093  1
  Cl  Cl38  1  0.945877  0.938808  0.518042  1
  Cl  Cl39  1  0.964838  0.203199  0.610034  1
