# generated using pymatgen
data_V2Re2O11
_symmetry_space_group_name_H-M   'P 1'
_cell_length_a   6.36407176
_cell_length_b   7.80535233
_cell_length_c   9.99922945
_cell_angle_alpha   89.30535738
_cell_angle_beta   91.90293476
_cell_angle_gamma   112.25119475
_symmetry_Int_Tables_number   1
_chemical_formula_structural   V2Re2O11
_chemical_formula_sum   'V4 Re4 O22'
_cell_volume   459.45841963
_cell_formula_units_Z   2
loop_
 _symmetry_equiv_pos_site_id
 _symmetry_equiv_pos_as_xyz
  1  'x, y, z'
loop_
 _atom_site_type_symbol
 _atom_site_label
 _atom_site_symmetry_multiplicity
 _atom_site_fract_x
 _atom_site_fract_y
 _atom_site_fract_z
 _atom_site_occupancy
  V  V0  1  0.226351  0.375960  0.225417  1
  V  V1  1  0.633133  0.263562  0.558875  1
  V  V2  1  0.428910  0.791452  0.078621  1
  V  V3  1  0.813231  0.633704  0.711074  1
  Re  Re4  1  0.013999  0.019326  0.512884  1
  Re  Re5  1  0.730967  0.472432  0.144572  1
  Re  Re6  1  0.012525  0.980612  0.023107  1
  Re  Re7  1  0.252113  0.508321  0.646839  1
  O  O8  1  0.474487  0.892320  0.221950  1
  O  O9  1  0.132937  0.255837  0.639039  1
  O  O10  1  0.306797  0.115982  0.466886  1
  O  O11  1  0.088387  0.104413  0.178213  1
  O  O12  1  0.210223  0.441354  0.377960  1
  O  O13  1  0.814882  0.122431  0.462566  1
  O  O14  1  0.871521  0.723036  0.132651  1
  O  O15  1  0.289593  0.568148  0.813758  1
  O  O16  1  0.790241  0.572646  0.868911  1
  O  O17  1  0.550205  0.290703  0.045376  1
  O  O18  1  0.204305  0.866351  0.980902  1
  O  O19  1  0.586080  0.143790  0.693834  1
  O  O20  1  0.930915  0.480285  0.613391  1
  O  O21  1  0.988133  0.427294  0.132111  1
  O  O22  1  0.711384  0.911724  0.981901  1
  O  O23  1  0.441295  0.553698  0.120905  1
  O  O24  1  0.542757  0.480223  0.612645  1
  O  O25  1  0.345537  0.719968  0.561792  1
  O  O26  1  0.651870  0.408182  0.309686  1
  O  O27  1  0.952957  0.893980  0.672029  1
  O  O28  1  0.105948  0.158024  0.910642  1
  O  O29  1  0.918510  0.827171  0.410162  1
