# generated using pymatgen
data_Li5Mn8(BO3)8
_symmetry_space_group_name_H-M   'P 1'
_cell_length_a   5.31981081
_cell_length_b   9.10206439
_cell_length_c   11.49039327
_cell_angle_alpha   112.74287506
_cell_angle_beta   101.64743585
_cell_angle_gamma   89.60238685
_symmetry_Int_Tables_number   1
_chemical_formula_structural   Li5Mn8(BO3)8
_chemical_formula_sum   'Li5 Mn8 B8 O24'
_cell_volume   500.99457991
_cell_formula_units_Z   1
loop_
 _symmetry_equiv_pos_site_id
 _symmetry_equiv_pos_as_xyz
  1  'x, y, z'
loop_
 _atom_site_type_symbol
 _atom_site_label
 _atom_site_symmetry_multiplicity
 _atom_site_fract_x
 _atom_site_fract_y
 _atom_site_fract_z
 _atom_site_occupancy
  Li  Li0  1  0.074399  0.915573  0.836529  1
  Li  Li1  1  0.304319  0.176118  0.326743  1
  Li  Li2  1  0.560545  0.405660  0.840298  1
  Li  Li3  1  0.648113  0.796149  0.596691  1
  Li  Li4  1  0.817943  0.667641  0.326651  1
  Mn  Mn5  1  0.082082  0.610409  0.870431  1
  Mn  Mn6  1  0.161635  0.987039  0.621537  1
  Mn  Mn7  1  0.339401  0.530639  0.373607  1
  Mn  Mn8  1  0.596638  0.094652  0.876175  1
  Mn  Mn9  1  0.400972  0.903130  0.112179  1
  Mn  Mn10  1  0.651209  0.460238  0.615268  1
  Mn  Mn11  1  0.833532  0.005452  0.365063  1
  Mn  Mn12  1  0.911699  0.378317  0.122717  1
  B  B13  1  0.102728  0.275178  0.878265  1
  B  B14  1  0.153687  0.651730  0.635961  1
  B  B15  1  0.362318  0.858878  0.374632  1
  B  B16  1  0.602033  0.758722  0.866747  1
  B  B17  1  0.390951  0.250927  0.128505  1
  B  B18  1  0.654107  0.129267  0.623802  1
  B  B19  1  0.834079  0.339373  0.362656  1
  B  B20  1  0.906819  0.734109  0.126440  1
  O  O21  1  0.024704  0.784785  0.641097  1
  O  O22  1  0.055608  0.545772  0.682388  1
  O  O23  1  0.188651  0.120964  0.830600  1
  O  O24  1  0.220403  0.402129  0.872080  1
  O  O25  1  0.119511  0.868372  0.405424  1
  O  O26  1  0.360907  0.786246  0.902054  1
  O  O27  1  0.092252  0.729232  0.053902  1
  O  O28  1  0.372911  0.619725  0.584125  1
  O  O29  1  0.288978  0.400568  0.166251  1
  O  O30  1  0.282081  0.125833  0.141854  1
  O  O31  1  0.565768  0.016394  0.664775  1
  O  O32  1  0.566672  0.275533  0.660102  1
  O  O33  1  0.441082  0.968646  0.328273  1
  O  O34  1  0.690474  0.606371  0.837345  1
  O  O35  1  0.520120  0.747034  0.394928  1
  O  O36  1  0.742191  0.880601  0.863709  1
  O  O37  1  0.605429  0.367880  0.407250  1
  O  O38  1  0.879059  0.290998  0.931018  1
  O  O39  1  0.607505  0.233848  0.075697  1
  O  O40  1  0.844507  0.084074  0.549817  1
  O  O41  1  0.804347  0.885192  0.178703  1
  O  O42  1  0.830129  0.609706  0.149242  1
  O  O43  1  0.926273  0.450581  0.317348  1
  O  O44  1  0.970096  0.213595  0.363838  1
