# generated using pymatgen
data_Sr4Li4Nb5FeO20
_symmetry_space_group_name_H-M   'P 1'
_cell_length_a   13.50346245
_cell_length_b   13.50346245
_cell_length_c   5.67369169
_cell_angle_alpha   89.99992072
_cell_angle_beta   90.00007928
_cell_angle_gamma   24.25517378
_symmetry_Int_Tables_number   1
_chemical_formula_structural   Sr4Li4Nb5FeO20
_chemical_formula_sum   'Sr4 Li4 Nb5 Fe1 O20'
_cell_volume   424.99879579
_cell_formula_units_Z   1
loop_
 _symmetry_equiv_pos_site_id
 _symmetry_equiv_pos_as_xyz
  1  'x, y, z'
loop_
 _atom_site_type_symbol
 _atom_site_label
 _atom_site_symmetry_multiplicity
 _atom_site_fract_x
 _atom_site_fract_y
 _atom_site_fract_z
 _atom_site_occupancy
  Sr  Sr0  1  0.576213  0.576213  0.000000  1
  Sr  Sr1  1  0.423787  0.423787  0.000000  1
  Sr  Sr2  1  0.076209  0.076209  0.500000  1
  Sr  Sr3  1  0.923791  0.923791  0.500000  1
  Li  Li4  1  0.499966  0.000033  0.745818  1
  Li  Li5  1  0.000033  0.499966  0.254182  1
  Li  Li6  1  0.999967  0.500034  0.745818  1
  Li  Li7  1  0.500034  0.999967  0.254182  1
  Nb  Nb8  1  0.000000  0.000000  0.000000  1
  Nb  Nb9  1  0.840996  0.840996  0.000000  1
  Nb  Nb10  1  0.159004  0.159004  0.000000  1
  Nb  Nb11  1  0.344283  0.344283  0.500000  1
  Nb  Nb12  1  0.655717  0.655717  0.500000  1
  Fe  Fe13  1  0.500000  0.500000  0.500000  1
  O  O14  1  0.282355  0.717645  0.786248  1
  O  O15  1  0.923797  0.923797  0.000000  1
  O  O16  1  0.600765  0.099110  0.752207  1
  O  O17  1  0.769571  0.769571  0.000000  1
  O  O18  1  0.397732  0.902396  0.750702  1
  O  O19  1  0.076203  0.076203  0.000000  1
  O  O20  1  0.230429  0.230429  0.000000  1
  O  O21  1  0.786241  0.213759  0.717648  1
  O  O22  1  0.271727  0.271727  0.500000  1
  O  O23  1  0.099110  0.600765  0.247793  1
  O  O24  1  0.097604  0.602268  0.750702  1
  O  O25  1  0.577052  0.577052  0.500000  1
  O  O26  1  0.900890  0.399235  0.752207  1
  O  O27  1  0.422948  0.422948  0.500000  1
  O  O28  1  0.902396  0.397732  0.249298  1
  O  O29  1  0.728273  0.728273  0.500000  1
  O  O30  1  0.213759  0.786241  0.282352  1
  O  O31  1  0.717645  0.282355  0.213752  1
  O  O32  1  0.602268  0.097604  0.249298  1
  O  O33  1  0.399235  0.900890  0.247793  1
