# generated using pymatgen
data_NaCePCO7
_symmetry_space_group_name_H-M   'P 1'
_cell_length_a   5.46132833
_cell_length_b   7.04375761
_cell_length_c   9.62917446
_cell_angle_alpha   90.00000000
_cell_angle_beta   91.95296291
_cell_angle_gamma   90.00000000
_symmetry_Int_Tables_number   1
_chemical_formula_structural   NaCePCO7
_chemical_formula_sum   'Na2 Ce2 P2 C2 O14'
_cell_volume   370.20255144
_cell_formula_units_Z   2
loop_
 _symmetry_equiv_pos_site_id
 _symmetry_equiv_pos_as_xyz
  1  'x, y, z'
loop_
 _atom_site_type_symbol
 _atom_site_label
 _atom_site_symmetry_multiplicity
 _atom_site_fract_x
 _atom_site_fract_y
 _atom_site_fract_z
 _atom_site_occupancy
  Na  Na0  1  0.759995  0.520603  0.208719  1
  Na  Na1  1  0.240005  0.020603  0.791281  1
  Ce  Ce2  1  0.218225  0.231237  0.346226  1
  Ce  Ce3  1  0.781775  0.731237  0.653774  1
  P  P4  1  0.279814  0.736882  0.425291  1
  P  P5  1  0.720186  0.236882  0.574709  1
  C  C6  1  0.276797  0.267266  0.067041  1
  C  C7  1  0.723203  0.767266  0.932959  1
  O  O8  1  0.691116  0.745088  0.057872  1
  O  O9  1  0.058595  0.268160  0.125317  1
  O  O10  1  0.459474  0.285701  0.162750  1
  O  O11  1  0.218335  0.914811  0.337069  1
  O  O12  1  0.175855  0.558684  0.350652  1
  O  O13  1  0.831969  0.256825  0.427995  1
  O  O14  1  0.563102  0.716894  0.448504  1
  O  O15  1  0.436898  0.216894  0.551496  1
  O  O16  1  0.168031  0.756825  0.572005  1
  O  O17  1  0.824145  0.058684  0.649348  1
  O  O18  1  0.781665  0.414811  0.662931  1
  O  O19  1  0.540526  0.785701  0.837250  1
  O  O20  1  0.941405  0.768160  0.874683  1
  O  O21  1  0.308884  0.245088  0.942128  1
