# generated using pymatgen
data_W3O8
_symmetry_space_group_name_H-M   'P 1'
_cell_length_a   7.36147395
_cell_length_b   7.36147395
_cell_length_c   6.26319864
_cell_angle_alpha   66.84105097
_cell_angle_beta   113.15894903
_cell_angle_gamma   116.57067937
_symmetry_Int_Tables_number   1
_chemical_formula_structural   W3O8
_chemical_formula_sum   'W6 O16'
_cell_volume   269.17394608
_cell_formula_units_Z   2
loop_
 _symmetry_equiv_pos_site_id
 _symmetry_equiv_pos_as_xyz
  1  'x, y, z'
loop_
 _atom_site_type_symbol
 _atom_site_label
 _atom_site_symmetry_multiplicity
 _atom_site_fract_x
 _atom_site_fract_y
 _atom_site_fract_z
 _atom_site_occupancy
  W  W0  1  0.159534  0.840466  0.681066  1
  W  W1  1  0.658903  0.341097  0.681970  1
  W  W2  1  0.342923  0.657077  0.313111  1
  W  W3  1  0.842921  0.157079  0.315405  1
  W  W4  1  0.999859  0.000141  0.999560  1
  W  W5  1  0.500097  0.499903  0.000718  1
  O  O6  1  0.831776  0.168224  0.965178  1
  O  O7  1  0.334363  0.665637  0.969283  1
  O  O8  1  0.669354  0.330646  0.036088  1
  O  O9  1  0.170285  0.829715  0.038317  1
  O  O10  1  0.480785  0.519215  0.659687  1
  O  O11  1  0.981845  0.018155  0.660851  1
  O  O12  1  0.014145  0.985855  0.331139  1
  O  O13  1  0.518639  0.481361  0.336719  1
  O  O14  1  0.247113  0.752887  0.505119  1
  O  O15  1  0.749441  0.250559  0.501978  1
  O  O16  1  0.750894  0.749510  0.998697  1
  O  O17  1  0.250490  0.249106  0.998697  1
  O  O18  1  0.087321  0.398914  0.311335  1
  O  O19  1  0.601086  0.912679  0.311335  1
  O  O20  1  0.896283  0.588054  0.691877  1
  O  O21  1  0.411946  0.103717  0.691877  1
