# generated using pymatgen
data_Na6Ti11O24
_symmetry_space_group_name_H-M   'P 1'
_cell_length_a   6.21517869
_cell_length_b   6.21517869
_cell_length_c   15.08421240
_cell_angle_alpha   88.95224239
_cell_angle_beta   91.04775761
_cell_angle_gamma   121.25685622
_symmetry_Int_Tables_number   1
_chemical_formula_structural   Na6Ti11O24
_chemical_formula_sum   'Na6 Ti11 O24'
_cell_volume   497.99393932
_cell_formula_units_Z   1
loop_
 _symmetry_equiv_pos_site_id
 _symmetry_equiv_pos_as_xyz
  1  'x, y, z'
loop_
 _atom_site_type_symbol
 _atom_site_label
 _atom_site_symmetry_multiplicity
 _atom_site_fract_x
 _atom_site_fract_y
 _atom_site_fract_z
 _atom_site_occupancy
  Na  Na0  1  0.663098  0.336902  0.083884  1
  Na  Na1  1  0.669889  0.330111  0.336371  1
  Na  Na2  1  0.833264  0.166736  0.541986  1
  Na  Na3  1  0.334789  0.665211  0.414945  1
  Na  Na4  1  0.331587  0.668413  0.667832  1
  Na  Na5  1  0.997370  0.002630  0.749643  1
  Ti  Ti6  1  0.166294  0.330208  0.204851  1
  Ti  Ti7  1  0.334613  0.665387  0.038226  1
  Ti  Ti8  1  0.669792  0.833706  0.204851  1
  Ti  Ti9  1  0.334320  0.167642  0.542857  1
  Ti  Ti10  1  0.163936  0.836064  0.204350  1
  Ti  Ti11  1  0.001667  0.998333  0.380343  1
  Ti  Ti12  1  0.832358  0.665680  0.542857  1
  Ti  Ti13  1  0.666747  0.333253  0.705900  1
  Ti  Ti14  1  0.000581  0.502116  0.878616  1
  Ti  Ti15  1  0.500423  0.499577  0.877910  1
  Ti  Ti16  1  0.497884  0.999419  0.878616  1
  O  O17  1  0.862825  0.137175  0.284369  1
  O  O18  1  0.289269  0.138575  0.278379  1
  O  O19  1  0.474430  0.525570  0.131235  1
  O  O20  1  0.050835  0.522533  0.130274  1
  O  O21  1  0.477467  0.949165  0.130274  1
  O  O22  1  0.334245  0.665755  0.270173  1
  O  O23  1  0.169864  0.273832  0.451792  1
  O  O24  1  0.495747  0.059643  0.631457  1
  O  O25  1  0.861425  0.710731  0.278379  1
  O  O26  1  0.647942  0.352058  0.479327  1
  O  O27  1  0.998002  0.001998  0.140468  1
  O  O28  1  0.940357  0.504253  0.631457  1
  O  O29  1  0.517252  0.482748  0.618869  1
  O  O30  1  0.380264  0.195848  0.803697  1
  O  O31  1  0.726168  0.830136  0.451792  1
  O  O32  1  0.803704  0.196296  0.797869  1
  O  O33  1  0.148645  0.851355  0.464024  1
  O  O34  1  0.804152  0.619736  0.803697  1
  O  O35  1  0.669042  0.330958  0.941519  1
  O  O36  1  0.018294  0.981706  0.604881  1
  O  O37  1  0.189363  0.383234  0.953699  1
  O  O38  1  0.332959  0.667041  0.812561  1
  O  O39  1  0.616766  0.810637  0.953699  1
  O  O40  1  0.192371  0.807629  0.952074  1
