# generated using pymatgen
data_Mn6O5F7
_symmetry_space_group_name_H-M   'P 1'
_cell_length_a   5.67999544
_cell_length_b   5.67969918
_cell_length_c   7.38399600
_cell_angle_alpha   73.34516103
_cell_angle_beta   73.15539142
_cell_angle_gamma   72.76355576
_symmetry_Int_Tables_number   1
_chemical_formula_structural   Mn6O5F7
_chemical_formula_sum   'Mn6 O5 F7'
_cell_volume   212.43740536
_cell_formula_units_Z   1
loop_
 _symmetry_equiv_pos_site_id
 _symmetry_equiv_pos_as_xyz
  1  'x, y, z'
loop_
 _atom_site_type_symbol
 _atom_site_label
 _atom_site_symmetry_multiplicity
 _atom_site_fract_x
 _atom_site_fract_y
 _atom_site_fract_z
 _atom_site_occupancy
  Mn  Mn0  1  0.291182  0.331882  0.161389  1
  Mn  Mn1  1  0.677556  0.644330  0.329707  1
  Mn  Mn2  1  0.375663  0.330430  0.683346  1
  Mn  Mn3  1  0.667390  0.687702  0.828671  1
  Mn  Mn4  1  0.995003  0.013787  0.504679  1
  Mn  Mn5  1  0.981754  0.007477  0.003264  1
  O  O6  1  0.768996  0.772446  0.042163  1
  O  O7  1  0.206056  0.229174  0.973596  1
  O  O8  1  0.586128  0.564341  0.617675  1
  O  O9  1  0.661772  0.038547  0.667320  1
  O  O10  1  0.964366  0.345190  0.333935  1
  F  F11  1  0.357256  0.944977  0.343476  1
  F  F12  1  0.062722  0.645490  0.658738  1
  F  F13  1  0.127767  0.112153  0.702276  1
  F  F14  1  0.418308  0.417584  0.356934  1
  F  F15  1  0.902051  0.894700  0.297448  1
  F  F16  1  0.291427  0.705528  0.996348  1
  F  F17  1  0.664603  0.314260  0.999033  1
