# generated using pymatgen
data_Li3Nb4O12
_symmetry_space_group_name_H-M   'P 1'
_cell_length_a   9.85224670
_cell_length_b   9.85224670
_cell_length_c   9.85224670
_cell_angle_alpha   31.10181566
_cell_angle_beta   31.10181566
_cell_angle_gamma   31.10181566
_symmetry_Int_Tables_number   1
_chemical_formula_structural   Li3Nb4O12
_chemical_formula_sum   'Li3 Nb4 O12'
_cell_volume   226.41047342
_cell_formula_units_Z   1
loop_
 _symmetry_equiv_pos_site_id
 _symmetry_equiv_pos_as_xyz
  1  'x, y, z'
loop_
 _atom_site_type_symbol
 _atom_site_label
 _atom_site_symmetry_multiplicity
 _atom_site_fract_x
 _atom_site_fract_y
 _atom_site_fract_z
 _atom_site_occupancy
  Li  Li0  1  0.858912  0.858912  0.858912  1
  Li  Li1  1  0.108822  0.108822  0.108822  1
  Li  Li2  1  0.638721  0.638721  0.638721  1
  Nb  Nb3  1  0.992182  0.992182  0.992182  1
  Nb  Nb4  1  0.496749  0.496749  0.496749  1
  Nb  Nb5  1  0.245022  0.245022  0.245022  1
  Nb  Nb6  1  0.748120  0.748120  0.748120  1
  O  O7  1  0.123339  0.509718  0.752769  1
  O  O8  1  0.999624  0.252074  0.624555  1
  O  O9  1  0.252074  0.624555  0.999624  1
  O  O10  1  0.624555  0.999624  0.252074  1
  O  O11  1  0.255921  0.876428  0.496304  1
  O  O12  1  0.496304  0.255921  0.876428  1
  O  O13  1  0.509718  0.752769  0.123339  1
  O  O14  1  0.752769  0.123339  0.509718  1
  O  O15  1  0.371856  0.953785  0.804449  1
  O  O16  1  0.804449  0.371856  0.953785  1
  O  O17  1  0.953785  0.804449  0.371856  1
  O  O18  1  0.876428  0.496304  0.255921  1
