# generated using pymatgen
data_Li2FePCO7
_symmetry_space_group_name_H-M   'P 1'
_cell_length_a   5.08790982
_cell_length_b   6.50220389
_cell_length_c   16.65941618
_cell_angle_alpha   90.00000000
_cell_angle_beta   95.07418427
_cell_angle_gamma   90.00000000
_symmetry_Int_Tables_number   1
_chemical_formula_structural   Li2FePCO7
_chemical_formula_sum   'Li8 Fe4 P4 C4 O28'
_cell_volume   548.97735436
_cell_formula_units_Z   4
loop_
 _symmetry_equiv_pos_site_id
 _symmetry_equiv_pos_as_xyz
  1  'x, y, z'
loop_
 _atom_site_type_symbol
 _atom_site_label
 _atom_site_symmetry_multiplicity
 _atom_site_fract_x
 _atom_site_fract_y
 _atom_site_fract_z
 _atom_site_occupancy
  Li  Li0  1  0.761073  0.269700  0.952144  1
  Li  Li1  1  0.247056  0.032380  0.860649  1
  Li  Li2  1  0.752944  0.532380  0.639351  1
  Li  Li3  1  0.238927  0.769700  0.547856  1
  Li  Li4  1  0.761073  0.230300  0.452144  1
  Li  Li5  1  0.247056  0.467620  0.360649  1
  Li  Li6  1  0.752944  0.967620  0.139351  1
  Li  Li7  1  0.238927  0.730300  0.047856  1
  Fe  Fe8  1  0.799830  0.734679  0.835002  1
  Fe  Fe9  1  0.200170  0.234679  0.664998  1
  Fe  Fe10  1  0.799830  0.765321  0.335002  1
  Fe  Fe11  1  0.200170  0.265321  0.164998  1
  P  P12  1  0.723708  0.244254  0.790454  1
  P  P13  1  0.276292  0.744254  0.709546  1
  P  P14  1  0.723708  0.255746  0.290454  1
  P  P15  1  0.276292  0.755746  0.209546  1
  C  C16  1  0.701313  0.773051  0.979484  1
  C  C17  1  0.298687  0.273051  0.520516  1
  C  C18  1  0.701313  0.726949  0.479484  1
  C  C19  1  0.298687  0.226949  0.020516  1
  O  O20  1  0.947584  0.754226  0.962132  1
  O  O21  1  0.368865  0.212398  0.949748  1
  O  O22  1  0.526743  0.771705  0.916400  1
  O  O23  1  0.831190  0.058354  0.841710  1
  O  O24  1  0.781267  0.430693  0.847952  1
  O  O25  1  0.144207  0.770355  0.788723  1
  O  O26  1  0.420423  0.217935  0.769718  1
  O  O27  1  0.579577  0.717935  0.730282  1
  O  O28  1  0.855793  0.270355  0.711277  1
  O  O29  1  0.168810  0.558354  0.658290  1
  O  O30  1  0.218733  0.930693  0.652048  1
  O  O31  1  0.473257  0.271705  0.583600  1
  O  O32  1  0.631135  0.712398  0.550252  1
  O  O33  1  0.052416  0.254226  0.537868  1
  O  O34  1  0.947584  0.745774  0.462132  1
  O  O35  1  0.368865  0.287602  0.449748  1
  O  O36  1  0.526743  0.728295  0.416400  1
  O  O37  1  0.781267  0.069307  0.347952  1
  O  O38  1  0.831190  0.441646  0.341710  1
  O  O39  1  0.144207  0.729645  0.288723  1
  O  O40  1  0.420423  0.282065  0.269718  1
  O  O41  1  0.579577  0.782065  0.230282  1
  O  O42  1  0.855793  0.229645  0.211277  1
  O  O43  1  0.218733  0.569307  0.152048  1
  O  O44  1  0.168810  0.941646  0.158290  1
  O  O45  1  0.473257  0.228295  0.083600  1
  O  O46  1  0.631135  0.787602  0.050252  1
  O  O47  1  0.052416  0.245774  0.037868  1
