# generated using pymatgen
data_Na8Li9(FeO4)4
_symmetry_space_group_name_H-M   'P 1'
_cell_length_a   6.64760882
_cell_length_b   8.04104562
_cell_length_c   8.25572636
_cell_angle_alpha   89.82535425
_cell_angle_beta   89.11346411
_cell_angle_gamma   89.67920270
_symmetry_Int_Tables_number   1
_chemical_formula_structural   Na8Li9(FeO4)4
_chemical_formula_sum   'Na8 Li9 Fe4 O16'
_cell_volume   441.23765559
_cell_formula_units_Z   1
loop_
 _symmetry_equiv_pos_site_id
 _symmetry_equiv_pos_as_xyz
  1  'x, y, z'
loop_
 _atom_site_type_symbol
 _atom_site_label
 _atom_site_symmetry_multiplicity
 _atom_site_fract_x
 _atom_site_fract_y
 _atom_site_fract_z
 _atom_site_occupancy
  Na  Na0  1  0.744943  0.497268  0.988354  1
  Na  Na1  1  0.252114  0.496412  0.025322  1
  Na  Na2  1  0.990284  0.743280  0.250634  1
  Na  Na3  1  0.493423  0.245520  0.251003  1
  Na  Na4  1  0.238024  0.998574  0.509095  1
  Na  Na5  1  0.757908  0.003052  0.474754  1
  Na  Na6  1  0.531787  0.736818  0.735587  1
  Na  Na7  1  0.972786  0.275257  0.748064  1
  Li  Li8  1  0.520040  0.790143  0.083906  1
  Li  Li9  1  0.249838  0.990861  0.155621  1
  Li  Li10  1  0.754621  0.486053  0.362906  1
  Li  Li11  1  0.023541  0.286426  0.411111  1
  Li  Li12  1  0.979470  0.706772  0.582144  1
  Li  Li13  1  0.249656  0.511130  0.639968  1
  Li  Li14  1  0.744681  0.013874  0.860616  1
  Li  Li15  1  0.259905  0.022066  0.849340  1
  Li  Li16  1  0.495392  0.232982  0.917748  1
  Fe  Fe17  1  0.983914  0.215614  0.122919  1
  Fe  Fe18  1  0.485620  0.718605  0.375269  1
  Fe  Fe19  1  0.506838  0.277160  0.625653  1
  Fe  Fe20  1  0.012146  0.776396  0.876283  1
  O  O21  1  0.758727  0.208776  0.990767  1
  O  O22  1  0.243263  0.192830  0.016902  1
  O  O23  1  0.512651  0.553180  0.222630  1
  O  O24  1  0.975817  0.430328  0.217388  1
  O  O25  1  0.475904  0.930027  0.289333  1
  O  O26  1  0.019718  0.058183  0.290554  1
  O  O27  1  0.251963  0.703586  0.493495  1
  O  O28  1  0.738112  0.710137  0.465087  1
  O  O29  1  0.742636  0.292144  0.509460  1
  O  O30  1  0.254152  0.289158  0.544740  1
  O  O31  1  0.005874  0.954290  0.735691  1
  O  O32  1  0.508990  0.061876  0.719952  1
  O  O33  1  0.026676  0.569048  0.789818  1
  O  O34  1  0.488445  0.444722  0.775386  1
  O  O35  1  0.757232  0.786870  0.955664  1
  O  O36  1  0.250085  0.806201  0.984518  1
