# generated using pymatgen
data_Li3Fe7O12
_symmetry_space_group_name_H-M   'P 1'
_cell_length_a   5.19997149
_cell_length_b   5.19997149
_cell_length_c   9.85218875
_cell_angle_alpha   84.52650133
_cell_angle_beta   95.47349867
_cell_angle_gamma   58.43476219
_symmetry_Int_Tables_number   1
_chemical_formula_structural   Li3Fe7O12
_chemical_formula_sum   'Li3 Fe7 O12'
_cell_volume   222.60894405
_cell_formula_units_Z   1
loop_
 _symmetry_equiv_pos_site_id
 _symmetry_equiv_pos_as_xyz
  1  'x, y, z'
loop_
 _atom_site_type_symbol
 _atom_site_label
 _atom_site_symmetry_multiplicity
 _atom_site_fract_x
 _atom_site_fract_y
 _atom_site_fract_z
 _atom_site_occupancy
  Li  Li0  1  0.165057  0.674639  0.239206  1
  Li  Li1  1  0.674639  0.165057  0.760794  1
  Li  Li2  1  0.081887  0.081887  0.000000  1
  Fe  Fe3  1  0.919080  0.919080  0.500000  1
  Fe  Fe4  1  0.486852  0.004072  0.237437  1
  Fe  Fe5  1  0.743918  0.743918  0.000000  1
  Fe  Fe6  1  0.004072  0.486852  0.762563  1
  Fe  Fe7  1  0.583598  0.583598  0.500000  1
  Fe  Fe8  1  0.426827  0.426827  0.000000  1
  Fe  Fe9  1  0.247654  0.247654  0.500000  1
  O  O10  1  0.641175  0.872357  0.615042  1
  O  O11  1  0.872357  0.641175  0.384958  1
  O  O12  1  0.236660  0.946483  0.390386  1
  O  O13  1  0.452532  0.726663  0.116780  1
  O  O14  1  0.726663  0.452532  0.883220  1
  O  O15  1  0.026560  0.768124  0.878431  1
  O  O16  1  0.946483  0.236660  0.609614  1
  O  O17  1  0.278042  0.520339  0.611217  1
  O  O18  1  0.151061  0.382328  0.122347  1
  O  O19  1  0.768124  0.026560  0.121569  1
  O  O20  1  0.520339  0.278042  0.388783  1
  O  O21  1  0.382328  0.151061  0.877653  1
