# generated using pymatgen
data_Fe4OF7
_symmetry_space_group_name_H-M   'P 1'
_cell_length_a   4.85432080
_cell_length_b   4.85432080
_cell_length_c   6.36789495
_cell_angle_alpha   90.00000000
_cell_angle_beta   90.00000000
_cell_angle_gamma   90.62539065
_symmetry_Int_Tables_number   1
_chemical_formula_structural   Fe4OF7
_chemical_formula_sum   'Fe4 O1 F7'
_cell_volume   150.04687897
_cell_formula_units_Z   1
loop_
 _symmetry_equiv_pos_site_id
 _symmetry_equiv_pos_as_xyz
  1  'x, y, z'
loop_
 _atom_site_type_symbol
 _atom_site_label
 _atom_site_symmetry_multiplicity
 _atom_site_fract_x
 _atom_site_fract_y
 _atom_site_fract_z
 _atom_site_occupancy
  Fe  Fe0  1  0.009195  0.009195  0.730470  1
  Fe  Fe1  1  0.009195  0.009195  0.269530  1
  Fe  Fe2  1  0.480249  0.480249  0.500000  1
  Fe  Fe3  1  0.506535  0.506535  0.000000  1
  O  O4  1  0.194626  0.194626  0.500000  1
  F  F5  1  0.199167  0.199167  1.000000  1
  F  F6  1  0.707643  0.293977  0.755547  1
  F  F7  1  0.707643  0.293977  0.244453  1
  F  F8  1  0.293977  0.707643  0.755547  1
  F  F9  1  0.293977  0.707643  0.244453  1
  F  F10  1  0.785202  0.785202  0.500000  1
  F  F11  1  0.812593  0.812593  0.000000  1
