# generated using pymatgen
data_Li4Cr3Co2Sn3O16
_symmetry_space_group_name_H-M   'P 1'
_cell_length_a   6.07585735
_cell_length_b   6.10061372
_cell_length_c   9.65567789
_cell_angle_alpha   89.76990209
_cell_angle_beta   90.77616306
_cell_angle_gamma   119.81736460
_symmetry_Int_Tables_number   1
_chemical_formula_structural   Li4Cr3Co2Sn3O16
_chemical_formula_sum   'Li4 Cr3 Co2 Sn3 O16'
_cell_volume   310.49086770
_cell_formula_units_Z   1
loop_
 _symmetry_equiv_pos_site_id
 _symmetry_equiv_pos_as_xyz
  1  'x, y, z'
loop_
 _atom_site_type_symbol
 _atom_site_label
 _atom_site_symmetry_multiplicity
 _atom_site_fract_x
 _atom_site_fract_y
 _atom_site_fract_z
 _atom_site_occupancy
  Li  Li0  1  0.669248  0.343441  0.891256  1
  Li  Li1  1  0.984612  0.970001  0.992360  1
  Li  Li2  1  0.986043  0.977374  0.500020  1
  Li  Li3  1  0.335691  0.672111  0.398813  1
  Cr  Cr4  1  0.830482  0.661468  0.213860  1
  Cr  Cr5  1  0.173069  0.837646  0.711408  1
  Cr  Cr6  1  0.656946  0.828990  0.716183  1
  Co  Co7  1  0.679343  0.335667  0.489871  1
  Co  Co8  1  0.335966  0.676407  0.985952  1
  Sn  Sn9  1  0.338051  0.169922  0.212610  1
  Sn  Sn10  1  0.833602  0.171708  0.212810  1
  Sn  Sn11  1  0.168922  0.339690  0.714390  1
  O  O12  1  0.319551  0.146747  0.600880  1
  O  O13  1  0.522673  0.040673  0.346340  1
  O  O14  1  0.670058  0.343845  0.097665  1
  O  O15  1  0.996881  0.990683  0.315213  1
  O  O16  1  0.997731  0.992797  0.809209  1
  O  O17  1  0.829642  0.159393  0.595633  1
  O  O18  1  0.529552  0.486534  0.344827  1
  O  O19  1  0.965951  0.490273  0.341456  1
  O  O20  1  0.157746  0.318171  0.091949  1
  O  O21  1  0.846569  0.669018  0.612191  1
  O  O22  1  0.048214  0.540596  0.843315  1
  O  O23  1  0.488360  0.533836  0.843821  1
  O  O24  1  0.333539  0.674531  0.604267  1
  O  O25  1  0.161483  0.831769  0.098560  1
  O  O26  1  0.471971  0.963696  0.826177  1
  O  O27  1  0.667803  0.833014  0.096804  1
