# generated using pymatgen
data_Tb3NbO7
_symmetry_space_group_name_H-M   'P 1'
_cell_length_a   7.49942654
_cell_length_b   7.63413419
_cell_length_c   10.64209881
_cell_angle_alpha   90.00000000
_cell_angle_beta   90.00000000
_cell_angle_gamma   90.00000000
_symmetry_Int_Tables_number   1
_chemical_formula_structural   Tb3NbO7
_chemical_formula_sum   'Tb12 Nb4 O28'
_cell_volume   609.27748811
_cell_formula_units_Z   4
loop_
 _symmetry_equiv_pos_site_id
 _symmetry_equiv_pos_as_xyz
  1  'x, y, z'
loop_
 _atom_site_type_symbol
 _atom_site_label
 _atom_site_symmetry_multiplicity
 _atom_site_fract_x
 _atom_site_fract_y
 _atom_site_fract_z
 _atom_site_occupancy
  Tb  Tb0  1  0.984559  0.700419  0.250000  1
  Tb  Tb1  1  0.750393  0.533366  0.521786  1
  Tb  Tb2  1  0.750393  0.533366  0.978214  1
  Tb  Tb3  1  0.749607  0.033366  0.021786  1
  Tb  Tb4  1  0.749607  0.033366  0.478214  1
  Tb  Tb5  1  0.515441  0.200419  0.750000  1
  Tb  Tb6  1  0.484559  0.799581  0.250000  1
  Tb  Tb7  1  0.250393  0.966634  0.521786  1
  Tb  Tb8  1  0.250393  0.966634  0.978214  1
  Tb  Tb9  1  0.249607  0.466634  0.021786  1
  Tb  Tb10  1  0.249607  0.466634  0.478214  1
  Tb  Tb11  1  0.015441  0.299581  0.750000  1
  Nb  Nb12  1  0.004385  0.754260  0.750000  1
  Nb  Nb13  1  0.495615  0.254260  0.250000  1
  Nb  Nb14  1  0.504385  0.745740  0.750000  1
  Nb  Nb15  1  0.995615  0.245740  0.250000  1
  O  O16  1  0.962730  0.454144  0.124651  1
  O  O17  1  0.962730  0.454144  0.375349  1
  O  O18  1  0.958298  0.909379  0.609799  1
  O  O19  1  0.958298  0.909379  0.890201  1
  O  O20  1  0.750794  0.161424  0.250000  1
  O  O21  1  0.742775  0.767253  0.115916  1
  O  O22  1  0.742775  0.767253  0.384084  1
  O  O23  1  0.757225  0.267253  0.615916  1
  O  O24  1  0.757225  0.267253  0.884084  1
  O  O25  1  0.749206  0.661424  0.750000  1
  O  O26  1  0.541702  0.409379  0.109799  1
  O  O27  1  0.541702  0.409379  0.390201  1
  O  O28  1  0.537270  0.954144  0.624651  1
  O  O29  1  0.537270  0.954144  0.875349  1
  O  O30  1  0.462730  0.045856  0.124651  1
  O  O31  1  0.462730  0.045856  0.375349  1
  O  O32  1  0.458298  0.590621  0.609799  1
  O  O33  1  0.458298  0.590621  0.890201  1
  O  O34  1  0.250794  0.338576  0.250000  1
  O  O35  1  0.242775  0.732747  0.115916  1
  O  O36  1  0.242775  0.732747  0.384084  1
  O  O37  1  0.257225  0.232747  0.615916  1
  O  O38  1  0.257225  0.232747  0.884084  1
  O  O39  1  0.249206  0.838576  0.750000  1
  O  O40  1  0.041702  0.090621  0.109799  1
  O  O41  1  0.041702  0.090621  0.390201  1
  O  O42  1  0.037270  0.545856  0.624651  1
  O  O43  1  0.037270  0.545856  0.875349  1
