# generated using pymatgen
data_Li3NiPCO7
_symmetry_space_group_name_H-M   'P 1'
_cell_length_a   6.39882949
_cell_length_b   8.35760077
_cell_length_c   9.93020409
_cell_angle_alpha   85.34026033
_cell_angle_beta   89.85884365
_cell_angle_gamma   89.64421492
_symmetry_Int_Tables_number   1
_chemical_formula_structural   Li3NiPCO7
_chemical_formula_sum   'Li12 Ni4 P4 C4 O28'
_cell_volume   529.28949891
_cell_formula_units_Z   4
loop_
 _symmetry_equiv_pos_site_id
 _symmetry_equiv_pos_as_xyz
  1  'x, y, z'
loop_
 _atom_site_type_symbol
 _atom_site_label
 _atom_site_symmetry_multiplicity
 _atom_site_fract_x
 _atom_site_fract_y
 _atom_site_fract_z
 _atom_site_occupancy
  Li  Li0  1  0.251580  0.901643  0.613169  1
  Li  Li1  1  0.255930  0.899869  0.119572  1
  Li  Li2  1  0.498064  0.724967  0.891224  1
  Li  Li3  1  0.009943  0.725044  0.365830  1
  Li  Li4  1  0.488605  0.724921  0.364334  1
  Li  Li5  1  0.744670  0.657058  0.118154  1
  Li  Li6  1  0.522142  0.277866  0.619464  1
  Li  Li7  1  0.978035  0.278315  0.619489  1
  Li  Li8  1  0.527554  0.280871  0.127219  1
  Li  Li9  1  0.973029  0.279913  0.127327  1
  Li  Li10  1  0.749617  0.104738  0.888619  1
  Li  Li11  1  0.748842  0.091171  0.376892  1
  Ni  Ni12  1  0.002059  0.730888  0.884810  1
  Ni  Ni13  1  0.749132  0.665716  0.600045  1
  Ni  Ni14  1  0.250450  0.332479  0.897562  1
  Ni  Ni15  1  0.249143  0.333757  0.395573  1
  P  P16  1  0.245596  0.587674  0.640370  1
  P  P17  1  0.252260  0.585092  0.135856  1
  P  P18  1  0.753555  0.415220  0.856019  1
  P  P19  1  0.749342  0.412360  0.360597  1
  C  C20  1  0.755629  0.958811  0.650914  1
  C  C21  1  0.754616  0.960701  0.145146  1
  C  C22  1  0.244738  0.038870  0.852797  1
  C  C23  1  0.249868  0.040221  0.351688  1
  O  O24  1  0.747994  0.922752  0.527375  1
  O  O25  1  0.232661  0.889198  0.821480  1
  O  O26  1  0.760075  0.926423  0.020105  1
  O  O27  1  0.763213  0.837777  0.745011  1
  O  O28  1  0.250422  0.892065  0.321906  1
  O  O29  1  0.753438  0.849799  0.243571  1
  O  O30  1  0.060662  0.693572  0.585042  1
  O  O31  1  0.436433  0.691796  0.594540  1
  O  O32  1  0.059824  0.687869  0.083687  1
  O  O33  1  0.440314  0.689388  0.088190  1
  O  O34  1  0.756795  0.582145  0.912096  1
  O  O35  1  0.231400  0.566899  0.799929  1
  O  O36  1  0.747666  0.581890  0.413391  1
  O  O37  1  0.245016  0.562414  0.293601  1
  O  O38  1  0.752453  0.436491  0.698350  1
  O  O39  1  0.250119  0.419015  0.588669  1
  O  O40  1  0.750200  0.431539  0.205194  1
  O  O41  1  0.251736  0.416014  0.083234  1
  O  O42  1  0.938951  0.306485  0.907272  1
  O  O43  1  0.563020  0.315503  0.909409  1
  O  O44  1  0.561460  0.308396  0.415458  1
  O  O45  1  0.937480  0.307829  0.416023  1
  O  O46  1  0.254575  0.152405  0.756779  1
  O  O47  1  0.751988  0.104116  0.684716  1
  O  O48  1  0.249443  0.156704  0.256509  1
  O  O49  1  0.249602  0.074151  0.976334  1
  O  O50  1  0.748700  0.111194  0.173653  1
  O  O51  1  0.249966  0.078006  0.475804  1
