# generated using pymatgen
data_V5Sn(PO4)6
_symmetry_space_group_name_H-M   'P 1'
_cell_length_a   8.66091240
_cell_length_b   8.66091240
_cell_length_c   8.66091240
_cell_angle_alpha   60.35909886
_cell_angle_beta   60.35909886
_cell_angle_gamma   60.35909886
_symmetry_Int_Tables_number   1
_chemical_formula_structural   V5Sn(PO4)6
_chemical_formula_sum   'V5 Sn1 P6 O24'
_cell_volume   463.11567055
_cell_formula_units_Z   1
loop_
 _symmetry_equiv_pos_site_id
 _symmetry_equiv_pos_as_xyz
  1  'x, y, z'
loop_
 _atom_site_type_symbol
 _atom_site_label
 _atom_site_symmetry_multiplicity
 _atom_site_fract_x
 _atom_site_fract_y
 _atom_site_fract_z
 _atom_site_occupancy
  V  V0  1  0.997588  0.997588  0.997588  1
  V  V1  1  0.644464  0.644464  0.644464  1
  V  V2  1  0.500238  0.500238  0.500238  1
  V  V3  1  0.856220  0.856220  0.856220  1
  V  V4  1  0.357687  0.357687  0.357687  1
  Sn  Sn5  1  0.144516  0.144516  0.144516  1
  P  P6  1  0.954157  0.252334  0.547901  1
  P  P7  1  0.547901  0.954157  0.252334  1
  P  P8  1  0.252334  0.547901  0.954157  1
  P  P9  1  0.746841  0.459627  0.043294  1
  P  P10  1  0.459627  0.043295  0.746841  1
  P  P11  1  0.043294  0.746841  0.459627  1
  O  O12  1  0.503848  0.113107  0.311767  1
  O  O13  1  0.311767  0.503848  0.113107  1
  O  O14  1  0.113107  0.311767  0.503848  1
  O  O15  1  0.938422  0.089725  0.741663  1
  O  O16  1  0.983289  0.188931  0.393849  1
  O  O17  1  0.758366  0.411931  0.564450  1
  O  O18  1  0.741663  0.938422  0.089725  1
  O  O19  1  0.564450  0.758366  0.411931  1
  O  O20  1  0.813891  0.612004  0.005260  1
  O  O21  1  0.411931  0.564450  0.758366  1
  O  O22  1  0.908807  0.260282  0.056689  1
  O  O23  1  0.612004  0.005260  0.813891  1
  O  O24  1  0.393849  0.983289  0.188931  1
  O  O25  1  0.089725  0.741663  0.938422  1
  O  O26  1  0.589790  0.439940  0.240542  1
  O  O27  1  0.188931  0.393849  0.983289  1
  O  O28  1  0.439940  0.240542  0.589790  1
  O  O29  1  0.260282  0.056689  0.908807  1
  O  O30  1  0.240542  0.589790  0.439940  1
  O  O31  1  0.005260  0.813891  0.612004  1
  O  O32  1  0.056689  0.908807  0.260282  1
  O  O33  1  0.888210  0.683114  0.497266  1
  O  O34  1  0.683114  0.497266  0.888210  1
  O  O35  1  0.497266  0.888210  0.683114  1
