# generated using pymatgen
data_Y2TeO6
_symmetry_space_group_name_H-M   'P 1'
_cell_length_a   9.21016796
_cell_length_b   9.21016796
_cell_length_c   5.21771910
_cell_angle_alpha   90.00000000
_cell_angle_beta   90.00000000
_cell_angle_gamma   120.00000000
_symmetry_Int_Tables_number   1
_chemical_formula_structural   Y2TeO6
_chemical_formula_sum   'Y6 Te3 O18'
_cell_volume   383.30671447
_cell_formula_units_Z   3
loop_
 _symmetry_equiv_pos_site_id
 _symmetry_equiv_pos_as_xyz
  1  'x, y, z'
loop_
 _atom_site_type_symbol
 _atom_site_label
 _atom_site_symmetry_multiplicity
 _atom_site_fract_x
 _atom_site_fract_y
 _atom_site_fract_z
 _atom_site_occupancy
  Y  Y0  1  0.000000  0.621803  0.000000  1
  Y  Y1  1  0.000000  0.284207  0.500000  1
  Y  Y2  1  0.378197  0.378197  0.000000  1
  Y  Y3  1  0.284207  0.000000  0.500000  1
  Y  Y4  1  0.715793  0.715793  0.500000  1
  Y  Y5  1  0.621803  0.000000  0.000000  1
  Te  Te6  1  0.333333  0.666667  0.505491  1
  Te  Te7  1  0.000000  0.000000  0.000000  1
  Te  Te8  1  0.666667  0.333333  0.494509  1
  O  O9  1  0.079864  0.879868  0.789703  1
  O  O10  1  0.222376  0.757633  0.292803  1
  O  O11  1  0.133423  0.542854  0.719072  1
  O  O12  1  0.409431  0.866577  0.719072  1
  O  O13  1  0.242367  0.464742  0.292803  1
  O  O14  1  0.120132  0.199996  0.789703  1
  O  O15  1  0.199996  0.120132  0.210297  1
  O  O16  1  0.535258  0.777624  0.292803  1
  O  O17  1  0.457146  0.590569  0.719072  1
  O  O18  1  0.800004  0.920136  0.789703  1
  O  O19  1  0.464742  0.242367  0.707197  1
  O  O20  1  0.590569  0.457146  0.280928  1
  O  O21  1  0.542854  0.133423  0.280928  1
  O  O22  1  0.777624  0.535258  0.707197  1
  O  O23  1  0.920136  0.800004  0.210297  1
  O  O24  1  0.757633  0.222376  0.707197  1
  O  O25  1  0.866577  0.409431  0.280928  1
  O  O26  1  0.879868  0.079864  0.210297  1
