# generated using pymatgen
data_Li8Fe7Ni(PO4)12
_symmetry_space_group_name_H-M   'P 1'
_cell_length_a   8.68801984
_cell_length_b   8.82226208
_cell_length_c   12.26899190
_cell_angle_alpha   89.86989415
_cell_angle_beta   89.96682338
_cell_angle_gamma   89.96172646
_symmetry_Int_Tables_number   1
_chemical_formula_structural   Li8Fe7Ni(PO4)12
_chemical_formula_sum   'Li8 Fe7 Ni1 P12 O48'
_cell_volume   940.39075288
_cell_formula_units_Z   1
loop_
 _symmetry_equiv_pos_site_id
 _symmetry_equiv_pos_as_xyz
  1  'x, y, z'
loop_
 _atom_site_type_symbol
 _atom_site_label
 _atom_site_symmetry_multiplicity
 _atom_site_fract_x
 _atom_site_fract_y
 _atom_site_fract_z
 _atom_site_occupancy
  Li  Li0  1  0.217714  0.722153  0.183108  1
  Li  Li1  1  0.218582  0.777593  0.816721  1
  Li  Li2  1  0.281610  0.222026  0.317584  1
  Li  Li3  1  0.282862  0.277727  0.682339  1
  Li  Li4  1  0.716598  0.722173  0.317597  1
  Li  Li5  1  0.717165  0.776330  0.682577  1
  Li  Li6  1  0.782844  0.222269  0.183140  1
  Li  Li7  1  0.782835  0.278517  0.814196  1
  Fe  Fe8  1  0.249654  0.958078  0.613388  1
  Fe  Fe9  1  0.248498  0.541500  0.386818  1
  Fe  Fe10  1  0.250535  0.040965  0.113426  1
  Fe  Fe11  1  0.250828  0.458132  0.887254  1
  Fe  Fe12  1  0.750386  0.540610  0.112163  1
  Fe  Fe13  1  0.749552  0.959420  0.886191  1
  Fe  Fe14  1  0.749518  0.040615  0.386711  1
  Ni  Ni15  1  0.748927  0.460524  0.614080  1
  P  P16  1  0.038848  0.251272  0.500560  1
  P  P17  1  0.460127  0.749859  0.999957  1
  P  P18  1  0.539601  0.250003  0.999897  1
  P  P19  1  0.961252  0.749710  0.500085  1
  P  P20  1  0.106085  0.392730  0.146425  1
  P  P21  1  0.106219  0.107093  0.853252  1
  P  P22  1  0.395524  0.607855  0.646567  1
  P  P23  1  0.394161  0.892786  0.353521  1
  P  P24  1  0.605396  0.108570  0.646774  1
  P  P25  1  0.605588  0.391932  0.352579  1
  P  P26  1  0.893963  0.607276  0.853005  1
  P  P27  1  0.894019  0.892286  0.146375  1
  O  O28  1  0.057001  0.642505  0.429278  1
  O  O29  1  0.058423  0.856230  0.570053  1
  O  O30  1  0.072811  0.895280  0.155222  1
  O  O31  1  0.072958  0.604054  0.843718  1
  O  O32  1  0.146782  0.162421  0.579286  1
  O  O33  1  0.147418  0.338642  0.421300  1
  O  O34  1  0.156487  0.434765  0.030912  1
  O  O35  1  0.156779  0.065177  0.968985  1
  O  O36  1  0.162359  0.232374  0.179458  1
  O  O37  1  0.163025  0.266999  0.820370  1
  O  O38  1  0.173569  0.512103  0.226760  1
  O  O39  1  0.173172  0.987155  0.773117  1
  O  O40  1  0.326772  0.012307  0.273670  1
  O  O41  1  0.328480  0.487341  0.726892  1
  O  O42  1  0.338009  0.767817  0.679094  1
  O  O43  1  0.337711  0.732208  0.321111  1
  O  O44  1  0.343928  0.564423  0.531153  1
  O  O45  1  0.342574  0.934460  0.469221  1
  O  O46  1  0.351243  0.837553  0.078525  1
  O  O47  1  0.350844  0.662389  0.921566  1
  O  O48  1  0.426274  0.103941  0.654497  1
  O  O49  1  0.426782  0.394429  0.344450  1
  O  O50  1  0.442400  0.142944  0.069748  1
  O  O51  1  0.442723  0.357316  0.930407  1
  O  O52  1  0.557946  0.642964  0.069465  1
  O  O53  1  0.557889  0.856473  0.929988  1
  O  O54  1  0.572843  0.606320  0.656902  1
  O  O55  1  0.572492  0.895378  0.344910  1
  O  O56  1  0.648855  0.337212  0.078576  1
  O  O57  1  0.649228  0.162912  0.921396  1
  O  O58  1  0.656078  0.066119  0.530641  1
  O  O59  1  0.655930  0.439543  0.466754  1
  O  O60  1  0.662969  0.232247  0.320487  1
  O  O61  1  0.660205  0.266736  0.680027  1
  O  O62  1  0.671570  0.512217  0.272044  1
  O  O63  1  0.672398  0.987256  0.726266  1
  O  O64  1  0.827239  0.011738  0.226771  1
  O  O65  1  0.829736  0.487089  0.774495  1
  O  O66  1  0.837278  0.732106  0.179053  1
  O  O67  1  0.837766  0.768160  0.820778  1
  O  O68  1  0.843314  0.565375  0.969030  1
  O  O69  1  0.843252  0.934202  0.030672  1
  O  O70  1  0.852769  0.664558  0.578931  1
  O  O71  1  0.851366  0.836903  0.421778  1
  O  O72  1  0.927528  0.103916  0.844505  1
  O  O73  1  0.927251  0.396112  0.155727  1
  O  O74  1  0.939540  0.145345  0.430375  1
  O  O75  1  0.947145  0.354272  0.575347  1
