# generated using pymatgen
data_Li4Ti7O16
_symmetry_space_group_name_H-M   'P 1'
_cell_length_a   5.84963015
_cell_length_b   5.84963015
_cell_length_c   9.70109277
_cell_angle_alpha   89.97286133
_cell_angle_beta   90.02713867
_cell_angle_gamma   119.01699011
_symmetry_Int_Tables_number   1
_chemical_formula_structural   Li4Ti7O16
_chemical_formula_sum   'Li4 Ti7 O16'
_cell_volume   290.28544200
_cell_formula_units_Z   1
loop_
 _symmetry_equiv_pos_site_id
 _symmetry_equiv_pos_as_xyz
  1  'x, y, z'
loop_
 _atom_site_type_symbol
 _atom_site_label
 _atom_site_symmetry_multiplicity
 _atom_site_fract_x
 _atom_site_fract_y
 _atom_site_fract_z
 _atom_site_occupancy
  Li  Li0  1  0.089746  0.910254  0.038947  1
  Li  Li1  1  0.107614  0.892386  0.356094  1
  Li  Li2  1  0.095078  0.411234  0.456450  1
  Li  Li3  1  0.588766  0.904922  0.456450  1
  Ti  Ti4  1  0.375019  0.110040  0.632906  1
  Ti  Ti5  1  0.097818  0.389247  0.142635  1
  Ti  Ti6  1  0.610753  0.902182  0.142635  1
  Ti  Ti7  1  0.867652  0.132348  0.854759  1
  Ti  Ti8  1  0.404243  0.595757  0.867053  1
  Ti  Ti9  1  0.605374  0.394626  0.358228  1
  Ti  Ti10  1  0.889960  0.624981  0.632906  1
  O  O11  1  0.291258  0.236633  0.470224  1
  O  O12  1  0.034236  0.965764  0.721227  1
  O  O13  1  0.497214  0.039469  0.281495  1
  O  O14  1  0.231690  0.768310  0.545168  1
  O  O15  1  0.277737  0.722263  0.036139  1
  O  O16  1  0.770065  0.229935  0.030633  1
  O  O17  1  0.043265  0.466255  0.774237  1
  O  O18  1  0.533745  0.956735  0.774237  1
  O  O19  1  0.462797  0.537203  0.226978  1
  O  O20  1  0.966645  0.033355  0.204454  1
  O  O21  1  0.217580  0.269596  0.960598  1
  O  O22  1  0.730404  0.782420  0.960598  1
  O  O23  1  0.763367  0.708742  0.470224  1
  O  O24  1  0.543230  0.456770  0.728772  1
  O  O25  1  0.960531  0.502786  0.281495  1
  O  O26  1  0.732157  0.267843  0.535587  1
