# generated using pymatgen
data_Zr2N2O
_symmetry_space_group_name_H-M   'P 1'
_cell_length_a   8.86647702
_cell_length_b   8.87546078
_cell_length_c   8.87770151
_cell_angle_alpha   109.45060705
_cell_angle_beta   109.46045959
_cell_angle_gamma   109.46636410
_symmetry_Int_Tables_number   1
_chemical_formula_structural   Zr2N2O
_chemical_formula_sum   'Zr16 N16 O8'
_cell_volume   538.04014712
_cell_formula_units_Z   8
loop_
 _symmetry_equiv_pos_site_id
 _symmetry_equiv_pos_as_xyz
  1  'x, y, z'
loop_
 _atom_site_type_symbol
 _atom_site_label
 _atom_site_symmetry_multiplicity
 _atom_site_fract_x
 _atom_site_fract_y
 _atom_site_fract_z
 _atom_site_occupancy
  Zr  Zr0  1  0.011414  0.001474  0.509995  1
  Zr  Zr1  1  0.792256  0.751511  0.033946  1
  Zr  Zr2  1  0.747606  0.526225  0.285222  1
  Zr  Zr3  1  0.246435  0.961805  0.214315  1
  Zr  Zr4  1  0.971238  0.220053  0.253746  1
  Zr  Zr5  1  0.462938  0.710934  0.245397  1
  Zr  Zr6  1  0.703726  0.238545  0.456247  1
  Zr  Zr7  1  0.000344  0.492062  0.989288  1
  Zr  Zr8  1  0.500710  0.999599  0.997466  1
  Zr  Zr9  1  0.487862  0.492027  0.497320  1
  Zr  Zr10  1  0.280909  0.753178  0.547204  1
  Zr  Zr11  1  0.033333  0.785015  0.749846  1
  Zr  Zr12  1  0.531409  0.283556  0.743007  1
  Zr  Zr13  1  0.757062  0.046458  0.787116  1
  Zr  Zr14  1  0.258301  0.469557  0.718035  1
  Zr  Zr15  1  0.215855  0.257490  0.965882  1
  N  N16  1  0.511366  0.963142  0.238097  1
  N  N17  1  0.951003  0.984011  0.724548  1
  N  N18  1  0.740056  0.273434  0.228032  1
  N  N19  1  0.988299  0.726839  0.955001  1
  N  N20  1  0.470089  0.454713  0.229363  1
  N  N21  1  0.777113  0.265066  0.727564  1
  N  N22  1  0.538626  0.551159  0.774852  1
  N  N23  1  0.030881  0.758590  0.482784  1
  N  N24  1  0.228290  0.466652  0.456739  1
  N  N25  1  0.006425  0.271817  0.044075  1
  N  N26  1  0.454746  0.229264  0.464739  1
  N  N27  1  0.261164  0.730852  0.777218  1
  N  N28  1  0.042770  0.012343  0.272561  1
  N  N29  1  0.239288  0.514372  0.970095  1
  N  N30  1  0.491680  0.034236  0.764107  1
  N  N31  1  0.270546  0.226757  0.736883  1
  O  O32  1  0.724064  0.769453  0.256035  1
  O  O33  1  0.762852  0.494041  0.037468  1
  O  O34  1  0.541714  0.772437  0.529639  1
  O  O35  1  0.773824  0.535021  0.546203  1
  O  O36  1  0.230496  0.740347  0.274882  1
  O  O37  1  0.724593  0.951992  0.988716  1
  O  O38  1  0.964884  0.238383  0.513090  1
  O  O39  1  0.273833  0.045588  0.013274  1
