# generated using pymatgen
data_Gd5Y3O12
_symmetry_space_group_name_H-M   'P 1'
_cell_length_a   9.35625319
_cell_length_b   9.35625319
_cell_length_c   9.35625319
_cell_angle_alpha   109.49196900
_cell_angle_beta   109.48841437
_cell_angle_gamma   109.43328521
_symmetry_Int_Tables_number   1
_chemical_formula_structural   Gd5Y3O12
_chemical_formula_sum   'Gd10 Y6 O24'
_cell_volume   630.49821749
_cell_formula_units_Z   2
loop_
 _symmetry_equiv_pos_site_id
 _symmetry_equiv_pos_as_xyz
  1  'x, y, z'
loop_
 _atom_site_type_symbol
 _atom_site_label
 _atom_site_symmetry_multiplicity
 _atom_site_fract_x
 _atom_site_fract_y
 _atom_site_fract_z
 _atom_site_occupancy
  Gd  Gd0  1  0.216490  0.966490  0.250000  1
  Gd  Gd1  1  0.032478  0.750000  0.782478  1
  Gd  Gd2  1  0.532033  0.750000  0.282033  1
  Gd  Gd3  1  0.718161  0.468161  0.250000  1
  Gd  Gd4  1  0.283510  0.533510  0.750000  1
  Gd  Gd5  1  0.467522  0.250000  0.717522  1
  Gd  Gd6  1  0.967967  0.250000  0.217967  1
  Gd  Gd7  1  0.750000  0.282406  0.532406  1
  Gd  Gd8  1  0.250000  0.217594  0.967594  1
  Gd  Gd9  1  0.781839  0.031839  0.750000  1
  Y  Y10  1  0.999514  0.500595  0.000799  1
  Y  Y11  1  0.750000  0.783292  0.033292  1
  Y  Y12  1  0.250000  0.716708  0.466708  1
  Y  Y13  1  0.999796  0.998715  0.499201  1
  Y  Y14  1  0.500204  0.999405  0.998919  1
  Y  Y15  1  0.500486  0.501285  0.501081  1
  O  O16  1  0.491141  0.763513  0.031638  1
  O  O17  1  0.268125  0.736487  0.227628  1
  O  O18  1  0.041784  0.273331  0.010597  1
  O  O19  1  0.237401  0.966104  0.510389  1
  O  O20  1  0.262599  0.772988  0.728703  1
  O  O21  1  0.458216  0.468813  0.231547  1
  O  O22  1  0.008859  0.040497  0.272372  1
  O  O23  1  0.231875  0.459503  0.468362  1
  O  O24  1  0.529206  0.769330  0.541862  1
  O  O25  1  0.772532  0.730670  0.259876  1
  O  O26  1  0.032021  0.490336  0.763584  1
  O  O27  1  0.273248  0.009664  0.041685  1
  O  O28  1  0.226752  0.268437  0.736416  1
  O  O29  1  0.467979  0.231563  0.458315  1
  O  O30  1  0.727468  0.987344  0.958138  1
  O  O31  1  0.970794  0.512656  0.240124  1
  O  O32  1  0.768677  0.542225  0.531399  1
  O  O33  1  0.989174  0.957775  0.726452  1
  O  O34  1  0.544285  0.533896  0.771297  1
  O  O35  1  0.737266  0.226669  0.268453  1
  O  O36  1  0.955715  0.727012  0.989611  1
  O  O37  1  0.762734  0.031187  0.489403  1
  O  O38  1  0.510826  0.237278  0.968601  1
  O  O39  1  0.731323  0.262722  0.773548  1
