# generated using pymatgen
data_Y2HfO5
_symmetry_space_group_name_H-M   'P 1'
_cell_length_a   3.74445947
_cell_length_b   10.75468282
_cell_length_c   11.62966592
_cell_angle_alpha   90.00000000
_cell_angle_beta   90.00000000
_cell_angle_gamma   90.00000000
_symmetry_Int_Tables_number   1
_chemical_formula_structural   Y2HfO5
_chemical_formula_sum   'Y8 Hf4 O20'
_cell_volume   468.33215827
_cell_formula_units_Z   4
loop_
 _symmetry_equiv_pos_site_id
 _symmetry_equiv_pos_as_xyz
  1  'x, y, z'
loop_
 _atom_site_type_symbol
 _atom_site_label
 _atom_site_symmetry_multiplicity
 _atom_site_fract_x
 _atom_site_fract_y
 _atom_site_fract_z
 _atom_site_occupancy
  Y  Y0  1  0.750000  0.878037  0.223902  1
  Y  Y1  1  0.750000  0.869642  0.560776  1
  Y  Y2  1  0.250000  0.630358  0.060776  1
  Y  Y3  1  0.250000  0.621963  0.723902  1
  Y  Y4  1  0.750000  0.378037  0.276098  1
  Y  Y5  1  0.750000  0.369642  0.939224  1
  Y  Y6  1  0.250000  0.130358  0.439224  1
  Y  Y7  1  0.250000  0.121963  0.776098  1
  Hf  Hf8  1  0.750000  0.829858  0.885685  1
  Hf  Hf9  1  0.250000  0.670142  0.385685  1
  Hf  Hf10  1  0.750000  0.329858  0.614315  1
  Hf  Hf11  1  0.250000  0.170142  0.114315  1
  O  O12  1  0.250000  0.995675  0.604633  1
  O  O13  1  0.750000  0.005317  0.843752  1
  O  O14  1  0.750000  0.770151  0.051444  1
  O  O15  1  0.250000  0.754994  0.888550  1
  O  O16  1  0.250000  0.750619  0.229484  1
  O  O17  1  0.750000  0.749381  0.729484  1
  O  O18  1  0.750000  0.745006  0.388550  1
  O  O19  1  0.250000  0.729849  0.551444  1
  O  O20  1  0.250000  0.494683  0.343752  1
  O  O21  1  0.750000  0.504325  0.104633  1
  O  O22  1  0.250000  0.495675  0.895367  1
  O  O23  1  0.750000  0.505317  0.656248  1
  O  O24  1  0.750000  0.270151  0.448556  1
  O  O25  1  0.250000  0.254994  0.611450  1
  O  O26  1  0.250000  0.250619  0.270516  1
  O  O27  1  0.750000  0.249381  0.770516  1
  O  O28  1  0.750000  0.245006  0.111450  1
  O  O29  1  0.250000  0.229849  0.948556  1
  O  O30  1  0.250000  0.994683  0.156248  1
  O  O31  1  0.750000  0.004325  0.395367  1
