# generated using pymatgen
data_Bi3(TeCl5)2
_symmetry_space_group_name_H-M   'P 1'
_cell_length_a   7.01398070
_cell_length_b   9.99167964
_cell_length_c   15.21548375
_cell_angle_alpha   94.45579284
_cell_angle_beta   94.84731287
_cell_angle_gamma   99.26644305
_symmetry_Int_Tables_number   1
_chemical_formula_structural   Bi3(TeCl5)2
_chemical_formula_sum   'Bi6 Te4 Cl20'
_cell_volume   1044.11515989
_cell_formula_units_Z   2
loop_
 _symmetry_equiv_pos_site_id
 _symmetry_equiv_pos_as_xyz
  1  'x, y, z'
loop_
 _atom_site_type_symbol
 _atom_site_label
 _atom_site_symmetry_multiplicity
 _atom_site_fract_x
 _atom_site_fract_y
 _atom_site_fract_z
 _atom_site_occupancy
  Bi  Bi0  1  0.087138  0.704678  0.964648  1
  Bi  Bi1  1  0.453451  0.536534  0.731417  1
  Bi  Bi2  1  0.579227  0.009809  0.840897  1
  Bi  Bi3  1  0.420773  0.990191  0.159103  1
  Bi  Bi4  1  0.546549  0.463466  0.268583  1
  Bi  Bi5  1  0.912862  0.295322  0.035352  1
  Te  Te6  1  0.067174  0.172614  0.453888  1
  Te  Te7  1  0.171852  0.924498  0.422269  1
  Te  Te8  1  0.828148  0.075502  0.577731  1
  Te  Te9  1  0.932826  0.827386  0.546112  1
  Cl  Cl10  1  0.096302  0.448801  0.900098  1
  Cl  Cl11  1  0.232768  0.748217  0.811657  1
  Cl  Cl12  1  0.183111  0.516722  0.609661  1
  Cl  Cl13  1  0.239962  0.983486  0.980679  1
  Cl  Cl14  1  0.077464  0.918778  0.198268  1
  Cl  Cl15  1  0.270492  0.306811  0.099565  1
  Cl  Cl16  1  0.370781  0.239860  0.315136  1
  Cl  Cl17  1  0.348134  0.599064  0.357513  1
  Cl  Cl18  1  0.432804  0.059799  0.687317  1
  Cl  Cl19  1  0.570811  0.262082  0.896006  1
  Cl  Cl20  1  0.429189  0.737918  0.103994  1
  Cl  Cl21  1  0.567196  0.940202  0.312683  1
  Cl  Cl22  1  0.651866  0.400936  0.642487  1
  Cl  Cl23  1  0.629219  0.760140  0.684864  1
  Cl  Cl24  1  0.729508  0.693189  0.900435  1
  Cl  Cl25  1  0.922536  0.081222  0.801732  1
  Cl  Cl26  1  0.760038  0.016514  0.019321  1
  Cl  Cl27  1  0.816889  0.483278  0.390339  1
  Cl  Cl28  1  0.767232  0.251783  0.188343  1
  Cl  Cl29  1  0.903698  0.551199  0.099902  1
