# generated using pymatgen
data_Mn6OF11
_symmetry_space_group_name_H-M   'P 1'
_cell_length_a   5.89226364
_cell_length_b   4.96651966
_cell_length_c   16.19399264
_cell_angle_alpha   90.00000000
_cell_angle_beta   90.44177404
_cell_angle_gamma   90.00000000
_symmetry_Int_Tables_number   1
_chemical_formula_structural   Mn6OF11
_chemical_formula_sum   'Mn12 O2 F22'
_cell_volume   473.88761384
_cell_formula_units_Z   2
loop_
 _symmetry_equiv_pos_site_id
 _symmetry_equiv_pos_as_xyz
  1  'x, y, z'
loop_
 _atom_site_type_symbol
 _atom_site_label
 _atom_site_symmetry_multiplicity
 _atom_site_fract_x
 _atom_site_fract_y
 _atom_site_fract_z
 _atom_site_occupancy
  Mn  Mn0  1  0.079701  0.000821  0.916501  1
  Mn  Mn1  1  0.420068  0.012344  0.087268  1
  Mn  Mn2  1  0.062181  0.976249  0.255519  1
  Mn  Mn3  1  0.079624  0.020112  0.586999  1
  Mn  Mn4  1  0.394999  0.008016  0.746443  1
  Mn  Mn5  1  0.416738  0.996643  0.416583  1
  Mn  Mn6  1  0.937819  0.476249  0.744481  1
  Mn  Mn7  1  0.920376  0.520112  0.413001  1
  Mn  Mn8  1  0.920299  0.500821  0.083499  1
  Mn  Mn9  1  0.605001  0.508016  0.253557  1
  Mn  Mn10  1  0.579932  0.512344  0.912732  1
  Mn  Mn11  1  0.583262  0.496643  0.583417  1
  O  O12  1  0.160658  0.206474  0.697835  1
  O  O13  1  0.839342  0.706474  0.302165  1
  F  F14  1  0.146545  0.232708  0.026434  1
  F  F15  1  0.134853  0.216985  0.360301  1
  F  F16  1  0.375641  0.251057  0.199809  1
  F  F17  1  0.361848  0.220969  0.857367  1
  F  F18  1  0.359505  0.231154  0.524782  1
  F  F19  1  0.856340  0.261206  0.191237  1
  F  F20  1  0.643297  0.273574  0.024724  1
  F  F21  1  0.858002  0.283704  0.859636  1
  F  F22  1  0.644775  0.259442  0.694237  1
  F  F23  1  0.859770  0.278090  0.521787  1
  F  F24  1  0.632907  0.270453  0.356902  1
  F  F25  1  0.638152  0.720969  0.142633  1
  F  F26  1  0.853455  0.732708  0.973566  1
  F  F27  1  0.624359  0.751057  0.800191  1
  F  F28  1  0.640495  0.731154  0.475218  1
  F  F29  1  0.865147  0.716985  0.639699  1
  F  F30  1  0.141998  0.783704  0.140364  1
  F  F31  1  0.143660  0.761206  0.808763  1
  F  F32  1  0.356703  0.773574  0.975276  1
  F  F33  1  0.355225  0.759442  0.305763  1
  F  F34  1  0.140230  0.778090  0.478213  1
  F  F35  1  0.367093  0.770453  0.643098  1
