# generated using pymatgen
data_Na3CrAsCO7
_symmetry_space_group_name_H-M   'P 1'
_cell_length_a   5.36406494
_cell_length_b   6.84938652
_cell_length_c   9.33427788
_cell_angle_alpha   90.00000000
_cell_angle_beta   92.46434525
_cell_angle_gamma   90.00000000
_symmetry_Int_Tables_number   1
_chemical_formula_structural   Na3CrAsCO7
_chemical_formula_sum   'Na6 Cr2 As2 C2 O14'
_cell_volume   342.62937471
_cell_formula_units_Z   2
loop_
 _symmetry_equiv_pos_site_id
 _symmetry_equiv_pos_as_xyz
  1  'x, y, z'
loop_
 _atom_site_type_symbol
 _atom_site_label
 _atom_site_symmetry_multiplicity
 _atom_site_fract_x
 _atom_site_fract_y
 _atom_site_fract_z
 _atom_site_occupancy
  Na  Na0  1  0.228122  0.750000  0.081415  1
  Na  Na1  1  0.753670  0.996327  0.256905  1
  Na  Na2  1  0.753670  0.503673  0.256905  1
  Na  Na3  1  0.246330  0.496327  0.743095  1
  Na  Na4  1  0.246330  0.003673  0.743095  1
  Na  Na5  1  0.771878  0.250000  0.918585  1
  Cr  Cr6  1  0.228070  0.250000  0.345076  1
  Cr  Cr7  1  0.771930  0.750000  0.654924  1
  As  As8  1  0.309389  0.750000  0.419647  1
  As  As9  1  0.690611  0.250000  0.580353  1
  C  C10  1  0.283530  0.250000  0.052887  1
  C  C11  1  0.716470  0.750000  0.947113  1
  O  O12  1  0.740465  0.750000  0.085999  1
  O  O13  1  0.081445  0.250000  0.127768  1
  O  O14  1  0.500966  0.250000  0.118353  1
  O  O15  1  0.225566  0.946199  0.311413  1
  O  O16  1  0.225566  0.553801  0.311413  1
  O  O17  1  0.632623  0.750000  0.442090  1
  O  O18  1  0.819590  0.250000  0.416399  1
  O  O19  1  0.180410  0.750000  0.583601  1
  O  O20  1  0.367377  0.250000  0.557910  1
  O  O21  1  0.774434  0.446199  0.688587  1
  O  O22  1  0.774434  0.053801  0.688587  1
  O  O23  1  0.499034  0.750000  0.881647  1
  O  O24  1  0.918555  0.750000  0.872232  1
  O  O25  1  0.259535  0.250000  0.914001  1
