# generated using pymatgen
data_Li4Ni3(OF3)2
_symmetry_space_group_name_H-M   'P 1'
_cell_length_a   5.12258604
_cell_length_b   5.14405564
_cell_length_c   5.87942977
_cell_angle_alpha   89.65039995
_cell_angle_beta   106.99666453
_cell_angle_gamma   100.00059471
_symmetry_Int_Tables_number   1
_chemical_formula_structural   Li4Ni3(OF3)2
_chemical_formula_sum   'Li4 Ni3 O2 F6'
_cell_volume   145.74576912
_cell_formula_units_Z   1
loop_
 _symmetry_equiv_pos_site_id
 _symmetry_equiv_pos_as_xyz
  1  'x, y, z'
loop_
 _atom_site_type_symbol
 _atom_site_label
 _atom_site_symmetry_multiplicity
 _atom_site_fract_x
 _atom_site_fract_y
 _atom_site_fract_z
 _atom_site_occupancy
  Li  Li0  1  0.984995  0.268523  0.377077  1
  Li  Li1  1  0.015005  0.731477  0.622923  1
  Li  Li2  1  0.986651  0.237863  0.864587  1
  Li  Li3  1  0.013349  0.762137  0.135413  1
  Ni  Ni4  1  0.500000  0.000000  0.500000  1
  Ni  Ni5  1  0.502116  0.498857  0.739090  1
  Ni  Ni6  1  0.497884  0.501143  0.260910  1
  O  O7  1  0.729725  0.360122  0.557784  1
  O  O8  1  0.270275  0.639878  0.442216  1
  F  F9  1  0.239521  0.131240  0.675772  1
  F  F10  1  0.775439  0.864900  0.807873  1
  F  F11  1  0.751488  0.404888  0.063921  1
  F  F12  1  0.248512  0.595112  0.936079  1
  F  F13  1  0.760479  0.868760  0.324228  1
  F  F14  1  0.224561  0.135100  0.192127  1
