# generated using pymatgen
data_Mn7O7F
_symmetry_space_group_name_H-M   'P 1'
_cell_length_a   3.53626200
_cell_length_b   3.53626200
_cell_length_c   19.56948451
_cell_angle_alpha   90.00000000
_cell_angle_beta   90.00000000
_cell_angle_gamma   120.00000000
_symmetry_Int_Tables_number   1
_chemical_formula_structural   Mn7O7F
_chemical_formula_sum   'Mn7 O7 F1'
_cell_volume   211.93314683
_cell_formula_units_Z   1
loop_
 _symmetry_equiv_pos_site_id
 _symmetry_equiv_pos_as_xyz
  1  'x, y, z'
loop_
 _atom_site_type_symbol
 _atom_site_label
 _atom_site_symmetry_multiplicity
 _atom_site_fract_x
 _atom_site_fract_y
 _atom_site_fract_z
 _atom_site_occupancy
  Mn  Mn0  1  0.333333  0.666667  0.079631  1
  Mn  Mn1  1  0.333333  0.666667  0.350696  1
  Mn  Mn2  1  0.333333  0.666667  0.617421  1
  Mn  Mn3  1  0.333333  0.666667  0.871869  1
  Mn  Mn4  1  0.666667  0.333333  0.216297  1
  Mn  Mn5  1  0.666667  0.333333  0.483928  1
  Mn  Mn6  1  0.666667  0.333333  0.742541  1
  O  O7  1  0.333333  0.666667  0.243116  1
  O  O8  1  0.333333  0.666667  0.508663  1
  O  O9  1  0.333333  0.666667  0.740275  1
  O  O10  1  0.666667  0.333333  0.109183  1
  O  O11  1  0.666667  0.333333  0.375969  1
  O  O12  1  0.666667  0.333333  0.640171  1
  O  O13  1  0.666667  0.333333  0.842951  1
  F  F14  1  0.333333  0.666667  0.975241  1
