# generated using pymatgen
data_NiP4O11
_symmetry_space_group_name_H-M   'P 1'
_cell_length_a   5.38219209
_cell_length_b   22.47325162
_cell_length_c   7.46359980
_cell_angle_alpha   90.00000000
_cell_angle_beta   110.17044164
_cell_angle_gamma   90.00000000
_symmetry_Int_Tables_number   1
_chemical_formula_structural   NiP4O11
_chemical_formula_sum   'Ni4 P16 O44'
_cell_volume   847.39689568
_cell_formula_units_Z   4
loop_
 _symmetry_equiv_pos_site_id
 _symmetry_equiv_pos_as_xyz
  1  'x, y, z'
loop_
 _atom_site_type_symbol
 _atom_site_label
 _atom_site_symmetry_multiplicity
 _atom_site_fract_x
 _atom_site_fract_y
 _atom_site_fract_z
 _atom_site_occupancy
  Ni  Ni0  1  0.002315  0.886711  0.373698  1
  Ni  Ni1  1  0.002315  0.613289  0.873698  1
  Ni  Ni2  1  0.997685  0.386711  0.126302  1
  Ni  Ni3  1  0.997685  0.113289  0.626302  1
  P  P4  1  0.307318  0.572171  0.314100  1
  P  P5  1  0.403751  0.194496  0.467163  1
  P  P6  1  0.328566  0.178675  0.049206  1
  P  P7  1  0.405385  0.965141  0.211436  1
  P  P8  1  0.307318  0.927829  0.814100  1
  P  P9  1  0.403751  0.305504  0.967163  1
  P  P10  1  0.594615  0.465141  0.288564  1
  P  P11  1  0.671434  0.678675  0.450794  1
  P  P12  1  0.328566  0.321325  0.549206  1
  P  P13  1  0.405385  0.534859  0.711436  1
  P  P14  1  0.596249  0.694496  0.032837  1
  P  P15  1  0.692682  0.072171  0.185900  1
  P  P16  1  0.594615  0.034859  0.788564  1
  P  P17  1  0.671434  0.821325  0.950794  1
  P  P18  1  0.596249  0.805504  0.532837  1
  P  P19  1  0.692682  0.427829  0.685900  1
  O  O20  1  0.093454  0.345462  0.399514  1
  O  O21  1  0.074449  0.575624  0.139216  1
  O  O22  1  0.232238  0.545742  0.483461  1
  O  O23  1  0.221659  0.955180  0.316858  1
  O  O24  1  0.340839  0.837090  0.479098  1
  O  O25  1  0.093454  0.154538  0.899514  1
  O  O26  1  0.264221  0.194218  0.233448  1
  O  O27  1  0.193399  0.318954  0.047277  1
  O  O28  1  0.332209  0.436571  0.244262  1
  O  O29  1  0.469490  0.265757  0.496606  1
  O  O30  1  0.420028  0.636416  0.387196  1
  O  O31  1  0.074449  0.924376  0.639216  1
  O  O32  1  0.232238  0.954258  0.983461  1
  O  O33  1  0.221659  0.544820  0.816858  1
  O  O34  1  0.442343  0.037919  0.199608  1
  O  O35  1  0.340839  0.662910  0.979098  1
  O  O36  1  0.264221  0.305782  0.733448  1
  O  O37  1  0.193399  0.181046  0.547277  1
  O  O38  1  0.557657  0.537919  0.300392  1
  O  O39  1  0.332209  0.063429  0.744262  1
  O  O40  1  0.469490  0.234243  0.996606  1
  O  O41  1  0.420028  0.863584  0.887196  1
  O  O42  1  0.579972  0.136416  0.112804  1
  O  O43  1  0.530510  0.765757  0.003394  1
  O  O44  1  0.667791  0.936571  0.255738  1
  O  O45  1  0.442343  0.462081  0.699608  1
  O  O46  1  0.806601  0.818954  0.452723  1
  O  O47  1  0.735779  0.694218  0.266552  1
  O  O48  1  0.659161  0.337090  0.020902  1
  O  O49  1  0.557657  0.962081  0.800392  1
  O  O50  1  0.778341  0.455180  0.183142  1
  O  O51  1  0.767762  0.045742  0.016539  1
  O  O52  1  0.925551  0.075624  0.360784  1
  O  O53  1  0.579972  0.363584  0.612804  1
  O  O54  1  0.530510  0.734243  0.503394  1
  O  O55  1  0.667791  0.563429  0.755738  1
  O  O56  1  0.806601  0.681046  0.952723  1
  O  O57  1  0.735779  0.805782  0.766552  1
  O  O58  1  0.906546  0.845462  0.100486  1
  O  O59  1  0.659161  0.162910  0.520902  1
  O  O60  1  0.778341  0.044820  0.683142  1
  O  O61  1  0.767762  0.454258  0.516539  1
  O  O62  1  0.925551  0.424376  0.860784  1
  O  O63  1  0.906546  0.654538  0.600486  1
