# generated using pymatgen
data_Li3V3P8O29
_symmetry_space_group_name_H-M   'P 1'
_cell_length_a   9.77326816
_cell_length_b   9.77326816
_cell_length_c   13.89416495
_cell_angle_alpha   89.99537681
_cell_angle_beta   90.00462319
_cell_angle_gamma   120.11319615
_symmetry_Int_Tables_number   1
_chemical_formula_structural   Li3V3P8O29
_chemical_formula_sum   'Li6 V6 P16 O58'
_cell_volume   1148.01141472
_cell_formula_units_Z   2
loop_
 _symmetry_equiv_pos_site_id
 _symmetry_equiv_pos_as_xyz
  1  'x, y, z'
loop_
 _atom_site_type_symbol
 _atom_site_label
 _atom_site_symmetry_multiplicity
 _atom_site_fract_x
 _atom_site_fract_y
 _atom_site_fract_z
 _atom_site_occupancy
  Li  Li0  1  0.321987  0.090125  0.439395  1
  Li  Li1  1  0.316389  0.224807  0.942629  1
  Li  Li2  1  0.909875  0.678013  0.939395  1
  Li  Li3  1  0.224415  0.321628  0.557956  1
  Li  Li4  1  0.775193  0.683611  0.442629  1
  Li  Li5  1  0.678372  0.775585  0.057956  1
  V  V6  1  0.434409  0.433503  0.751409  1
  V  V7  1  0.566497  0.565591  0.251409  1
  V  V8  1  0.997371  0.431079  0.249797  1
  V  V9  1  0.006142  0.566380  0.745440  1
  V  V10  1  0.568921  0.002629  0.749797  1
  V  V11  1  0.433620  0.993858  0.245440  1
  P  P12  1  0.773058  0.085787  0.157058  1
  P  P13  1  0.914213  0.226942  0.657058  1
  P  P14  1  0.315862  0.085895  0.655947  1
  P  P15  1  0.668580  0.334660  0.872732  1
  P  P16  1  0.665340  0.331420  0.372732  1
  P  P17  1  0.316586  0.227457  0.157747  1
  P  P18  1  0.226728  0.316371  0.340636  1
  P  P19  1  0.914105  0.684138  0.155947  1
  P  P20  1  0.082476  0.312502  0.845917  1
  P  P21  1  0.772543  0.683414  0.657747  1
  P  P22  1  0.683629  0.773272  0.840636  1
  P  P23  1  0.337061  0.667862  0.626746  1
  P  P24  1  0.332138  0.662939  0.126746  1
  P  P25  1  0.687498  0.917524  0.345917  1
  P  P26  1  0.086057  0.770274  0.342397  1
  P  P27  1  0.229726  0.913943  0.842397  1
  O  O28  1  0.764330  0.999899  0.435542  1
  O  O29  1  0.743558  0.086107  0.664164  1
  O  O30  1  0.000101  0.235670  0.935542  1
  O  O31  1  0.913893  0.256442  0.164164  1
  O  O32  1  0.617923  0.093785  0.175812  1
  O  O33  1  0.665605  0.186249  0.826369  1
  O  O34  1  0.476963  0.095208  0.676410  1
  O  O35  1  0.238994  0.006352  0.929080  1
  O  O36  1  0.343163  0.085140  0.166431  1
  O  O37  1  0.813751  0.334395  0.326369  1
  O  O38  1  0.906215  0.382077  0.675812  1
  O  O39  1  0.513383  0.183506  0.332129  1
  O  O40  1  0.659136  0.334178  0.979533  1
  O  O41  1  0.665822  0.340864  0.479533  1
  O  O42  1  0.512595  0.330686  0.829836  1
  O  O43  1  0.904792  0.523037  0.176410  1
  O  O44  1  0.816494  0.486617  0.832129  1
  O  O45  1  0.338961  0.256461  0.661546  1
  O  O46  1  0.205474  0.205629  0.249619  1
  O  O47  1  0.243929  0.243703  0.431377  1
  O  O48  1  0.247121  0.241125  0.066271  1
  O  O49  1  0.477189  0.382405  0.179317  1
  O  O50  1  0.669314  0.487405  0.329836  1
  O  O51  1  0.255827  0.340473  0.837822  1
  O  O52  1  0.617595  0.522811  0.679317  1
  O  O53  1  0.914860  0.656837  0.666431  1
  O  O54  1  0.000625  0.207071  0.750442  1
  O  O55  1  0.004903  0.240633  0.568900  1
  O  O56  1  0.993648  0.761006  0.429080  1
  O  O57  1  0.084002  0.341193  0.336756  1
  O  O58  1  0.381236  0.477856  0.322448  1
  O  O59  1  0.743539  0.661039  0.161546  1
  O  O60  1  0.331575  0.513446  0.669105  1
  O  O61  1  0.522144  0.618764  0.822448  1
  O  O62  1  0.756297  0.756071  0.931377  1
  O  O63  1  0.758875  0.752879  0.566271  1
  O  O64  1  0.794371  0.794526  0.749619  1
  O  O65  1  0.659527  0.744173  0.337822  1
  O  O66  1  0.184701  0.518685  0.173041  1
  O  O67  1  0.092569  0.474875  0.822445  1
  O  O68  1  0.486554  0.668425  0.169105  1
  O  O69  1  0.338972  0.669293  0.020237  1
  O  O70  1  0.330707  0.661028  0.520237  1
  O  O71  1  0.481315  0.815299  0.673041  1
  O  O72  1  0.093486  0.617224  0.323249  1
  O  O73  1  0.186007  0.666557  0.672346  1
  O  O74  1  0.658807  0.915998  0.836756  1
  O  O75  1  0.792929  0.999375  0.250442  1
  O  O76  1  0.759367  0.995097  0.068900  1
  O  O77  1  0.525125  0.907431  0.322445  1
  O  O78  1  0.333443  0.813993  0.172346  1
  O  O79  1  0.382776  0.906514  0.823249  1
  O  O80  1  0.083979  0.744218  0.839781  1
  O  O81  1  0.992456  0.755045  0.063383  1
  O  O82  1  0.004234  0.794855  0.246499  1
  O  O83  1  0.255782  0.916021  0.339781  1
  O  O84  1  0.244955  0.007544  0.563383  1
  O  O85  1  0.205145  0.995766  0.746499  1
