# generated using pymatgen
data_Ni3C
_symmetry_space_group_name_H-M   'P 1'
_cell_length_a   5.05101838
_cell_length_b   5.05101838
_cell_length_c   5.05101838
_cell_angle_alpha   53.93665289
_cell_angle_beta   53.93665289
_cell_angle_gamma   53.93665289
_symmetry_Int_Tables_number   1
_chemical_formula_structural   Ni3C
_chemical_formula_sum   'Ni6 C2'
_cell_volume   78.21361293
_cell_formula_units_Z   2
loop_
 _symmetry_equiv_pos_site_id
 _symmetry_equiv_pos_as_xyz
  1  'x, y, z'
loop_
 _atom_site_type_symbol
 _atom_site_label
 _atom_site_symmetry_multiplicity
 _atom_site_fract_x
 _atom_site_fract_y
 _atom_site_fract_z
 _atom_site_occupancy
  Ni  Ni0  1  0.923081  0.576919  0.250000  1
  Ni  Ni1  1  0.250000  0.923081  0.576919  1
  Ni  Ni2  1  0.576919  0.250000  0.923081  1
  Ni  Ni3  1  0.750000  0.076919  0.423081  1
  Ni  Ni4  1  0.423081  0.750000  0.076919  1
  Ni  Ni5  1  0.076919  0.423081  0.750000  1
  C  C6  1  0.500000  0.500000  0.500000  1
  C  C7  1  0.000000  0.000000  0.000000  1
