# generated using pymatgen
data_Fe6O7F5
_symmetry_space_group_name_H-M   'P 1'
_cell_length_a   4.66097100
_cell_length_b   5.58790924
_cell_length_c   7.81052569
_cell_angle_alpha   86.22689338
_cell_angle_beta   89.23264020
_cell_angle_gamma   89.36641093
_symmetry_Int_Tables_number   1
_chemical_formula_structural   Fe6O7F5
_chemical_formula_sum   'Fe6 O7 F5'
_cell_volume   202.95609470
_cell_formula_units_Z   1
loop_
 _symmetry_equiv_pos_site_id
 _symmetry_equiv_pos_as_xyz
  1  'x, y, z'
loop_
 _atom_site_type_symbol
 _atom_site_label
 _atom_site_symmetry_multiplicity
 _atom_site_fract_x
 _atom_site_fract_y
 _atom_site_fract_z
 _atom_site_occupancy
  Fe  Fe0  1  0.538686  0.840365  0.654454  1
  Fe  Fe1  1  0.498171  0.498478  0.001153  1
  Fe  Fe2  1  0.476967  0.168273  0.351381  1
  Fe  Fe3  1  0.009447  0.332061  0.688527  1
  Fe  Fe4  1  0.982831  0.660537  0.313774  1
  Fe  Fe5  1  0.984818  0.999238  0.986905  1
  O  O6  1  0.800531  0.044124  0.770993  1
  O  O7  1  0.801365  0.703522  0.092573  1
  O  O8  1  0.690104  0.542148  0.770374  1
  O  O9  1  0.698053  0.869027  0.424086  1
  O  O10  1  0.301845  0.127141  0.571483  1
  O  O11  1  0.308239  0.460623  0.233620  1
  O  O12  1  0.198040  0.296033  0.911085  1
  F  F13  1  0.809199  0.366656  0.439631  1
  F  F14  1  0.706508  0.200986  0.116565  1
  F  F15  1  0.300427  0.799694  0.892044  1
  F  F16  1  0.203118  0.960028  0.220574  1
  F  F17  1  0.191654  0.631065  0.560780  1
