# generated using pymatgen
data_Li4Cr3CoO8
_symmetry_space_group_name_H-M   'P 1'
_cell_length_a   5.10333828
_cell_length_b   5.85724723
_cell_length_c   10.15010675
_cell_angle_alpha   90.13544576
_cell_angle_beta   99.50101836
_cell_angle_gamma   106.68223053
_symmetry_Int_Tables_number   1
_chemical_formula_structural   Li4Cr3CoO8
_chemical_formula_sum   'Li8 Cr6 Co2 O16'
_cell_volume   286.24797690
_cell_formula_units_Z   2
loop_
 _symmetry_equiv_pos_site_id
 _symmetry_equiv_pos_as_xyz
  1  'x, y, z'
loop_
 _atom_site_type_symbol
 _atom_site_label
 _atom_site_symmetry_multiplicity
 _atom_site_fract_x
 _atom_site_fract_y
 _atom_site_fract_z
 _atom_site_occupancy
  Li  Li0  1  0.995773  0.746692  0.750435  1
  Li  Li1  1  0.000514  0.748175  0.252691  1
  Li  Li2  1  0.000000  0.500000  0.500000  1
  Li  Li3  1  0.000000  0.500000  0.000000  1
  Li  Li4  1  0.999486  0.251825  0.747309  1
  Li  Li5  1  0.004227  0.253308  0.249565  1
  Li  Li6  1  0.000000  0.000000  0.500000  1
  Li  Li7  1  0.000000  0.000000  0.000000  1
  Cr  Cr8  1  0.500054  0.623669  0.872986  1
  Cr  Cr9  1  0.499946  0.376331  0.127014  1
  Cr  Cr10  1  0.500228  0.127283  0.377284  1
  Cr  Cr11  1  0.499608  0.125789  0.872780  1
  Cr  Cr12  1  0.499772  0.872717  0.622716  1
  Cr  Cr13  1  0.500392  0.874211  0.127220  1
  Co  Co14  1  0.500272  0.624506  0.376675  1
  Co  Co15  1  0.499728  0.375494  0.623325  1
  O  O16  1  0.276715  0.563961  0.686703  1
  O  O17  1  0.276211  0.569085  0.194858  1
  O  O18  1  0.718671  0.672766  0.557449  1
  O  O19  1  0.727284  0.681433  0.060448  1
  O  O20  1  0.281329  0.327234  0.442551  1
  O  O21  1  0.723285  0.436039  0.313297  1
  O  O22  1  0.272716  0.318567  0.939552  1
  O  O23  1  0.723789  0.430915  0.805142  1
  O  O24  1  0.275542  0.072987  0.685818  1
  O  O25  1  0.723287  0.185638  0.562091  1
  O  O26  1  0.272645  0.068832  0.191080  1
  O  O27  1  0.726727  0.182249  0.060868  1
  O  O28  1  0.276713  0.814362  0.437909  1
  O  O29  1  0.724458  0.927013  0.314182  1
  O  O30  1  0.273273  0.817751  0.939132  1
  O  O31  1  0.727355  0.931168  0.808920  1
