# generated using pymatgen
data_Li4Nb3Ni3(SbO8)2
_symmetry_space_group_name_H-M   'P 1'
_cell_length_a   6.14910557
_cell_length_b   6.14910557
_cell_length_c   10.15668556
_cell_angle_alpha   89.96191418
_cell_angle_beta   90.03808582
_cell_angle_gamma   120.54320686
_symmetry_Int_Tables_number   1
_chemical_formula_structural   Li4Nb3Ni3(SbO8)2
_chemical_formula_sum   'Li4 Nb3 Ni3 Sb2 O16'
_cell_volume   330.75246377
_cell_formula_units_Z   1
loop_
 _symmetry_equiv_pos_site_id
 _symmetry_equiv_pos_as_xyz
  1  'x, y, z'
loop_
 _atom_site_type_symbol
 _atom_site_label
 _atom_site_symmetry_multiplicity
 _atom_site_fract_x
 _atom_site_fract_y
 _atom_site_fract_z
 _atom_site_occupancy
  Li  Li0  1  0.661057  0.338943  0.887886  1
  Li  Li1  1  0.994208  0.005792  0.980762  1
  Li  Li2  1  0.996235  0.003765  0.502485  1
  Li  Li3  1  0.330380  0.669620  0.408400  1
  Nb  Nb4  1  0.333822  0.166851  0.218500  1
  Nb  Nb5  1  0.833149  0.666178  0.218500  1
  Nb  Nb6  1  0.176741  0.823259  0.718883  1
  Ni  Ni7  1  0.830466  0.169534  0.221898  1
  Ni  Ni8  1  0.171045  0.339058  0.704694  1
  Ni  Ni9  1  0.660942  0.828955  0.704694  1
  Sb  Sb10  1  0.673610  0.326390  0.499429  1
  Sb  Sb11  1  0.351099  0.648901  0.975710  1
  O  O12  1  0.333478  0.160732  0.591955  1
  O  O13  1  0.517186  0.482814  0.342787  1
  O  O14  1  0.662024  0.337976  0.109575  1
  O  O15  1  0.998884  0.001116  0.322500  1
  O  O16  1  0.004618  0.995382  0.795291  1
  O  O17  1  0.839268  0.666522  0.591955  1
  O  O18  1  0.508021  0.041528  0.346626  1
  O  O19  1  0.958472  0.491979  0.346626  1
  O  O20  1  0.159540  0.840460  0.116467  1
  O  O21  1  0.836513  0.163487  0.591946  1
  O  O22  1  0.023055  0.525422  0.833843  1
  O  O23  1  0.474578  0.976945  0.833843  1
  O  O24  1  0.322473  0.677527  0.599582  1
  O  O25  1  0.162724  0.296996  0.104660  1
  O  O26  1  0.483465  0.516535  0.833726  1
  O  O27  1  0.703004  0.837276  0.104660  1
