# generated using pymatgen
data_Li3CaPCO7
_symmetry_space_group_name_H-M   'P 1'
_cell_length_a   4.92766941
_cell_length_b   6.95336513
_cell_length_c   8.92130834
_cell_angle_alpha   90.00000000
_cell_angle_beta   94.09115658
_cell_angle_gamma   90.00000000
_symmetry_Int_Tables_number   1
_chemical_formula_structural   Li3CaPCO7
_chemical_formula_sum   'Li6 Ca2 P2 C2 O14'
_cell_volume   304.89975150
_cell_formula_units_Z   2
loop_
 _symmetry_equiv_pos_site_id
 _symmetry_equiv_pos_as_xyz
  1  'x, y, z'
loop_
 _atom_site_type_symbol
 _atom_site_label
 _atom_site_symmetry_multiplicity
 _atom_site_fract_x
 _atom_site_fract_y
 _atom_site_fract_z
 _atom_site_occupancy
  Li  Li0  1  0.255573  0.750000  0.078010  1
  Li  Li1  1  0.768033  0.950379  0.262188  1
  Li  Li2  1  0.768033  0.549621  0.262188  1
  Li  Li3  1  0.231967  0.450379  0.737812  1
  Li  Li4  1  0.231967  0.049621  0.737812  1
  Li  Li5  1  0.744427  0.250000  0.921990  1
  Ca  Ca6  1  0.237929  0.250000  0.349277  1
  Ca  Ca7  1  0.762071  0.750000  0.650723  1
  P  P8  1  0.287309  0.750000  0.400338  1
  P  P9  1  0.712691  0.250000  0.599662  1
  C  C10  1  0.284004  0.250000  0.036535  1
  C  C11  1  0.715996  0.750000  0.963465  1
  O  O12  1  0.038037  0.250000  0.078100  1
  O  O13  1  0.668350  0.750000  0.106396  1
  O  O14  1  0.490983  0.250000  0.135044  1
  O  O15  1  0.169402  0.927760  0.312218  1
  O  O16  1  0.169402  0.572240  0.312218  1
  O  O17  1  0.604569  0.750000  0.398695  1
  O  O18  1  0.776319  0.250000  0.430533  1
  O  O19  1  0.223681  0.750000  0.569467  1
  O  O20  1  0.395431  0.250000  0.601305  1
  O  O21  1  0.830598  0.427760  0.687782  1
  O  O22  1  0.830598  0.072240  0.687782  1
  O  O23  1  0.509017  0.750000  0.864956  1
  O  O24  1  0.331650  0.250000  0.893604  1
  O  O25  1  0.961963  0.750000  0.921900  1
