# generated using pymatgen
data_LiAg2F4
_symmetry_space_group_name_H-M   'P 1'
_cell_length_a   6.18591871
_cell_length_b   6.18591871
_cell_length_c   6.18591871
_cell_angle_alpha   130.30521099
_cell_angle_beta   130.30521099
_cell_angle_gamma   72.91930417
_symmetry_Int_Tables_number   1
_chemical_formula_structural   LiAg2F4
_chemical_formula_sum   'Li1 Ag2 F4'
_cell_volume   134.46072581
_cell_formula_units_Z   1
loop_
 _symmetry_equiv_pos_site_id
 _symmetry_equiv_pos_as_xyz
  1  'x, y, z'
loop_
 _atom_site_type_symbol
 _atom_site_label
 _atom_site_symmetry_multiplicity
 _atom_site_fract_x
 _atom_site_fract_y
 _atom_site_fract_z
 _atom_site_occupancy
  Li  Li0  1  0.000000  0.000000  0.000000  1
  Ag  Ag1  1  0.250000  0.750000  0.500000  1
  Ag  Ag2  1  0.500000  0.500000  0.000000  1
  F  F3  1  0.648473  0.103945  0.923933  1
  F  F4  1  0.896055  0.819989  0.544529  1
  F  F5  1  0.180011  0.724540  0.076067  1
  F  F6  1  0.275460  0.351527  0.455471  1
