# generated using pymatgen
data_Cu6OF11
_symmetry_space_group_name_H-M   'P 1'
_cell_length_a   4.57207022
_cell_length_b   4.67418105
_cell_length_c   9.95448009
_cell_angle_alpha   82.15912470
_cell_angle_beta   89.15821889
_cell_angle_gamma   88.36069039
_symmetry_Int_Tables_number   1
_chemical_formula_structural   Cu6OF11
_chemical_formula_sum   'Cu6 O1 F11'
_cell_volume   210.64639197
_cell_formula_units_Z   1
loop_
 _symmetry_equiv_pos_site_id
 _symmetry_equiv_pos_as_xyz
  1  'x, y, z'
loop_
 _atom_site_type_symbol
 _atom_site_label
 _atom_site_symmetry_multiplicity
 _atom_site_fract_x
 _atom_site_fract_y
 _atom_site_fract_z
 _atom_site_occupancy
  Cu  Cu0  1  0.981593  0.022927  0.000625  1
  Cu  Cu1  1  0.514091  0.487303  0.841217  1
  Cu  Cu2  1  0.007181  0.995922  0.668940  1
  Cu  Cu3  1  0.499637  0.500167  0.499484  1
  Cu  Cu4  1  0.000906  0.997280  0.332465  1
  Cu  Cu5  1  0.519178  0.483270  0.148903  1
  O  O6  1  0.688577  0.301028  0.994899  1
  F  F7  1  0.796734  0.789084  0.817568  1
  F  F8  1  0.198229  0.210249  0.849886  1
  F  F9  1  0.305534  0.698276  0.685961  1
  F  F10  1  0.706279  0.291623  0.652461  1
  F  F11  1  0.795040  0.791456  0.484265  1
  F  F12  1  0.208077  0.206351  0.516131  1
  F  F13  1  0.299242  0.701318  0.343316  1
  F  F14  1  0.705713  0.294672  0.316458  1
  F  F15  1  0.790801  0.800022  0.149835  1
  F  F16  1  0.206056  0.207520  0.184202  1
  F  F17  1  0.277133  0.721531  0.013389  1
