# generated using pymatgen
data_CuNi3O4
_symmetry_space_group_name_H-M   'P 1'
_cell_length_a   5.19550553
_cell_length_b   5.19550553
_cell_length_c   2.98419534
_cell_angle_alpha   90.00000000
_cell_angle_beta   90.00000000
_cell_angle_gamma   109.75096266
_symmetry_Int_Tables_number   1
_chemical_formula_structural   CuNi3O4
_chemical_formula_sum   'Cu1 Ni3 O4'
_cell_volume   75.81429512
_cell_formula_units_Z   1
loop_
 _symmetry_equiv_pos_site_id
 _symmetry_equiv_pos_as_xyz
  1  'x, y, z'
loop_
 _atom_site_type_symbol
 _atom_site_label
 _atom_site_symmetry_multiplicity
 _atom_site_fract_x
 _atom_site_fract_y
 _atom_site_fract_z
 _atom_site_occupancy
  Cu  Cu0  1  0.500000  0.500000  0.000000  1
  Ni  Ni1  1  0.500000  1.000000  0.500000  1
  Ni  Ni2  1  0.000000  0.500000  0.500000  1
  Ni  Ni3  1  0.000000  0.000000  0.000000  1
  O  O4  1  0.245236  0.754764  0.000000  1
  O  O5  1  0.245325  0.245325  0.500000  1
  O  O6  1  0.754675  0.754675  0.500000  1
  O  O7  1  0.754764  0.245236  1.000000  1
