# generated using pymatgen
data_Li3Co2(CO3)4
_symmetry_space_group_name_H-M   'P 1'
_cell_length_a   5.60499761
_cell_length_b   6.08642827
_cell_length_c   8.33574184
_cell_angle_alpha   85.23500039
_cell_angle_beta   104.92186708
_cell_angle_gamma   116.59836193
_symmetry_Int_Tables_number   1
_chemical_formula_structural   Li3Co2(CO3)4
_chemical_formula_sum   'Li3 Co2 C4 O12'
_cell_volume   245.52778742
_cell_formula_units_Z   1
loop_
 _symmetry_equiv_pos_site_id
 _symmetry_equiv_pos_as_xyz
  1  'x, y, z'
loop_
 _atom_site_type_symbol
 _atom_site_label
 _atom_site_symmetry_multiplicity
 _atom_site_fract_x
 _atom_site_fract_y
 _atom_site_fract_z
 _atom_site_occupancy
  Li  Li0  1  0.460567  0.904396  0.336724  1
  Li  Li1  1  0.190725  0.088202  0.652444  1
  Li  Li2  1  0.311897  0.616865  0.862815  1
  Co  Co3  1  0.928261  0.027077  0.010134  1
  Co  Co4  1  0.678737  0.494904  0.498655  1
  C  C5  1  0.383912  0.427551  0.214723  1
  C  C6  1  0.923754  0.902324  0.300041  1
  C  C7  1  0.682403  0.085257  0.695681  1
  C  C8  1  0.725767  0.586865  0.793045  1
  O  O9  1  0.226068  0.386643  0.066852  1
  O  O10  1  0.122786  0.928413  0.240126  1
  O  O11  1  0.729047  0.946727  0.204851  1
  O  O12  1  0.332622  0.505107  0.338141  1
  O  O13  1  0.602612  0.392354  0.255420  1
  O  O14  1  0.919643  0.838927  0.454728  1
  O  O15  1  0.625936  0.152608  0.541340  1
  O  O16  1  0.487849  0.495704  0.679648  1
  O  O17  1  0.934139  0.598601  0.745798  1
  O  O18  1  0.496866  0.001868  0.777694  1
  O  O19  1  0.927653  0.104974  0.762098  1
  O  O20  1  0.736754  0.662014  0.933393  1
