# generated using pymatgen
data_Y11Ta5O28
_symmetry_space_group_name_H-M   'P 1'
_cell_length_a   6.45334063
_cell_length_b   7.37129516
_cell_length_c   13.02979013
_cell_angle_alpha   106.42101308
_cell_angle_beta   99.50637853
_cell_angle_gamma   90.07829288
_symmetry_Int_Tables_number   1
_chemical_formula_structural   Y11Ta5O28
_chemical_formula_sum   'Y11 Ta5 O28'
_cell_volume   585.61642437
_cell_formula_units_Z   1
loop_
 _symmetry_equiv_pos_site_id
 _symmetry_equiv_pos_as_xyz
  1  'x, y, z'
loop_
 _atom_site_type_symbol
 _atom_site_label
 _atom_site_symmetry_multiplicity
 _atom_site_fract_x
 _atom_site_fract_y
 _atom_site_fract_z
 _atom_site_occupancy
  Y  Y0  1  0.716568  0.621964  0.254322  1
  Y  Y1  1  0.500000  0.500000  0.500000  1
  Y  Y2  1  0.777580  0.125871  0.248346  1
  Y  Y3  1  0.500000  0.000000  0.000000  1
  Y  Y4  1  0.006993  0.745958  0.498296  1
  Y  Y5  1  0.993007  0.254042  0.501704  1
  Y  Y6  1  0.500000  0.500000  0.000000  1
  Y  Y7  1  0.222420  0.874129  0.751654  1
  Y  Y8  1  0.977432  0.759078  0.980623  1
  Y  Y9  1  0.283432  0.378036  0.745678  1
  Y  Y10  1  0.022568  0.240922  0.019377  1
  Ta  Ta11  1  0.500000  0.000000  0.500000  1
  Ta  Ta12  1  0.758333  0.606609  0.754774  1
  Ta  Ta13  1  0.240711  0.861014  0.245145  1
  Ta  Ta14  1  0.241667  0.393391  0.245226  1
  Ta  Ta15  1  0.759289  0.138986  0.754855  1
  O  O16  1  0.619959  0.403094  0.692008  1
  O  O17  1  0.854889  0.857563  0.783773  1
  O  O18  1  0.639705  0.755203  0.592422  1
  O  O19  1  0.648446  0.154732  0.589599  1
  O  O20  1  0.705220  0.215725  0.069371  1
  O  O21  1  0.695998  0.714400  0.069348  1
  O  O22  1  0.229782  0.966803  0.568954  1
  O  O23  1  0.201061  0.470989  0.554960  1
  O  O24  1  0.531454  0.369686  0.211464  1
  O  O25  1  0.030748  0.623227  0.697174  1
  O  O26  1  0.360295  0.244797  0.407578  1
  O  O27  1  0.351554  0.845268  0.410401  1
  O  O28  1  0.032024  0.177646  0.698520  1
  O  O29  1  0.531322  0.917869  0.210642  1
  O  O30  1  0.145111  0.142437  0.216227  1
  O  O31  1  0.380041  0.596906  0.307992  1
  O  O32  1  0.969252  0.376773  0.302826  1
  O  O33  1  0.468546  0.630314  0.788536  1
  O  O34  1  0.468678  0.082131  0.789358  1
  O  O35  1  0.161459  0.485402  0.086769  1
  O  O36  1  0.967976  0.822354  0.301480  1
  O  O37  1  0.161165  0.926375  0.086559  1
  O  O38  1  0.798939  0.529011  0.445040  1
  O  O39  1  0.294780  0.784275  0.930629  1
  O  O40  1  0.304002  0.285600  0.930652  1
  O  O41  1  0.770218  0.033197  0.431046  1
  O  O42  1  0.838835  0.073625  0.913441  1
  O  O43  1  0.838541  0.514598  0.913231  1
