# generated using pymatgen
data_Na3GePCO7
_symmetry_space_group_name_H-M   'P 1'
_cell_length_a   5.15306241
_cell_length_b   7.06796168
_cell_length_c   9.24403729
_cell_angle_alpha   90.00000000
_cell_angle_beta   91.15373317
_cell_angle_gamma   90.00000000
_symmetry_Int_Tables_number   1
_chemical_formula_structural   Na3GePCO7
_chemical_formula_sum   'Na6 Ge2 P2 C2 O14'
_cell_volume   336.61481307
_cell_formula_units_Z   2
loop_
 _symmetry_equiv_pos_site_id
 _symmetry_equiv_pos_as_xyz
  1  'x, y, z'
loop_
 _atom_site_type_symbol
 _atom_site_label
 _atom_site_symmetry_multiplicity
 _atom_site_fract_x
 _atom_site_fract_y
 _atom_site_fract_z
 _atom_site_occupancy
  Na  Na0  1  0.766498  0.250000  0.083975  1
  Na  Na1  1  0.250186  0.001407  0.256828  1
  Na  Na2  1  0.250186  0.498593  0.256828  1
  Na  Na3  1  0.749814  0.501407  0.743172  1
  Na  Na4  1  0.749814  0.998593  0.743172  1
  Na  Na5  1  0.233502  0.750000  0.916025  1
  Ge  Ge6  1  0.778844  0.750000  0.363271  1
  Ge  Ge7  1  0.221156  0.250000  0.636729  1
  P  P8  1  0.707981  0.250000  0.403783  1
  P  P9  1  0.292019  0.750000  0.596217  1
  C  C10  1  0.729993  0.750000  0.054988  1
  C  C11  1  0.270007  0.250000  0.945012  1
  O  O12  1  0.272814  0.250000  0.084557  1
  O  O13  1  0.954133  0.750000  0.126369  1
  O  O14  1  0.514524  0.750000  0.125504  1
  O  O15  1  0.802929  0.073767  0.318626  1
  O  O16  1  0.802929  0.426233  0.318626  1
  O  O17  1  0.405831  0.250000  0.407387  1
  O  O18  1  0.185199  0.750000  0.434969  1
  O  O19  1  0.814801  0.250000  0.565031  1
  O  O20  1  0.594169  0.750000  0.592613  1
  O  O21  1  0.197071  0.573767  0.681374  1
  O  O22  1  0.197071  0.926233  0.681374  1
  O  O23  1  0.485476  0.250000  0.874496  1
  O  O24  1  0.045867  0.250000  0.873631  1
  O  O25  1  0.727186  0.750000  0.915443  1
