# generated using pymatgen
data_LiFe4(BO3)4
_symmetry_space_group_name_H-M   'P 1'
_cell_length_a   5.33777482
_cell_length_b   9.03990491
_cell_length_c   10.13065122
_cell_angle_alpha   89.76678293
_cell_angle_beta   89.44430988
_cell_angle_gamma   89.58646605
_symmetry_Int_Tables_number   1
_chemical_formula_structural   LiFe4(BO3)4
_chemical_formula_sum   'Li2 Fe8 B8 O24'
_cell_volume   488.79444411
_cell_formula_units_Z   2
loop_
 _symmetry_equiv_pos_site_id
 _symmetry_equiv_pos_as_xyz
  1  'x, y, z'
loop_
 _atom_site_type_symbol
 _atom_site_label
 _atom_site_symmetry_multiplicity
 _atom_site_fract_x
 _atom_site_fract_y
 _atom_site_fract_z
 _atom_site_occupancy
  Li  Li0  1  0.650280  0.002559  0.895509  1
  Li  Li1  1  0.850356  0.511772  0.653977  1
  Fe  Fe2  1  0.158460  0.825602  0.876686  1
  Fe  Fe3  1  0.839900  0.848134  0.625539  1
  Fe  Fe4  1  0.338409  0.666736  0.133324  1
  Fe  Fe5  1  0.658023  0.666343  0.380825  1
  Fe  Fe6  1  0.340759  0.325135  0.627260  1
  Fe  Fe7  1  0.161041  0.165639  0.375040  1
  Fe  Fe8  1  0.650472  0.343302  0.880287  1
  Fe  Fe9  1  0.843360  0.167483  0.127030  1
  B  B10  1  0.159422  0.829145  0.375959  1
  B  B11  1  0.337588  0.658775  0.631438  1
  B  B12  1  0.827703  0.830458  0.124808  1
  B  B13  1  0.666136  0.679651  0.876143  1
  B  B14  1  0.337291  0.330730  0.130538  1
  B  B15  1  0.668319  0.328712  0.377778  1
  B  B16  1  0.160724  0.158396  0.874848  1
  B  B17  1  0.831030  0.180945  0.629089  1
  O  O18  1  0.254688  0.967451  0.370550  1
  O  O19  1  0.069910  0.800080  0.078350  1
  O  O20  1  0.729671  0.969533  0.111363  1
  O  O21  1  0.207407  0.778973  0.684626  1
  O  O22  1  0.302597  0.706442  0.333696  1
  O  O23  1  0.795145  0.810684  0.845808  1
  O  O24  1  0.919082  0.804275  0.423968  1
  O  O25  1  0.430268  0.696292  0.937818  1
  O  O26  1  0.218971  0.523815  0.627243  1
  O  O27  1  0.582395  0.674834  0.582517  1
  O  O28  1  0.690232  0.714126  0.179468  1
  O  O29  1  0.241706  0.469394  0.135612  1
  O  O30  1  0.760107  0.546698  0.842877  1
  O  O31  1  0.286511  0.278183  0.820163  1
  O  O32  1  0.428691  0.298470  0.427807  1
  O  O33  1  0.761297  0.467174  0.381721  1
  O  O34  1  0.578167  0.304604  0.081569  1
  O  O35  1  0.069728  0.196564  0.569307  1
  O  O36  1  0.197185  0.208284  0.173460  1
  O  O37  1  0.704631  0.314260  0.661197  1
  O  O38  1  0.807564  0.208865  0.326666  1
  O  O39  1  0.279768  0.022995  0.881263  1
  O  O40  1  0.915189  0.175859  0.924690  1
  O  O41  1  0.729702  0.050155  0.656111  1
