# generated using pymatgen
data_LiVPO4
_symmetry_space_group_name_H-M   'P 1'
_cell_length_a   5.55952788
_cell_length_b   8.47666747
_cell_length_c   18.91249286
_cell_angle_alpha   90.00000000
_cell_angle_beta   90.00000000
_cell_angle_gamma   90.00000000
_symmetry_Int_Tables_number   1
_chemical_formula_structural   LiVPO4
_chemical_formula_sum   'Li12 V12 P12 O48'
_cell_volume   891.27522842
_cell_formula_units_Z   12
loop_
 _symmetry_equiv_pos_site_id
 _symmetry_equiv_pos_as_xyz
  1  'x, y, z'
loop_
 _atom_site_type_symbol
 _atom_site_label
 _atom_site_symmetry_multiplicity
 _atom_site_fract_x
 _atom_site_fract_y
 _atom_site_fract_z
 _atom_site_occupancy
  Li  Li0  1  0.015518  0.831275  0.082974  1
  Li  Li1  1  0.484482  0.331275  0.082974  1
  Li  Li2  1  0.000000  0.166614  0.250000  1
  Li  Li3  1  0.500000  0.666614  0.250000  1
  Li  Li4  1  0.984482  0.831275  0.417026  1
  Li  Li5  1  0.515518  0.331275  0.417026  1
  Li  Li6  1  0.015518  0.168725  0.582974  1
  Li  Li7  1  0.484482  0.668725  0.582974  1
  Li  Li8  1  0.000000  0.833386  0.750000  1
  Li  Li9  1  0.500000  0.333386  0.750000  1
  Li  Li10  1  0.984482  0.168725  0.917026  1
  Li  Li11  1  0.515518  0.668725  0.917026  1
  V  V12  1  0.000000  0.500000  0.000000  1
  V  V13  1  0.500384  0.999644  0.166284  1
  V  V14  1  0.999616  0.499644  0.166284  1
  V  V15  1  0.499616  0.999644  0.333716  1
  V  V16  1  0.000384  0.499644  0.333716  1
  V  V17  1  0.500000  0.000000  0.500000  1
  V  V18  1  0.000000  0.500000  0.500000  1
  V  V19  1  0.500384  0.000356  0.666284  1
  V  V20  1  0.999616  0.500356  0.666284  1
  V  V21  1  0.499616  0.000356  0.833716  1
  V  V22  1  0.000384  0.500356  0.833716  1
  V  V23  1  0.500000  0.000000  0.000000  1
  P  P24  1  0.997749  0.146343  0.082825  1
  P  P25  1  0.502251  0.646343  0.082825  1
  P  P26  1  0.000000  0.852245  0.250000  1
  P  P27  1  0.500000  0.352245  0.250000  1
  P  P28  1  0.002251  0.146343  0.417175  1
  P  P29  1  0.497749  0.646343  0.417175  1
  P  P30  1  0.997749  0.853657  0.582825  1
  P  P31  1  0.502251  0.353657  0.582825  1
  P  P32  1  0.000000  0.147755  0.750000  1
  P  P33  1  0.500000  0.647755  0.750000  1
  P  P34  1  0.002251  0.853657  0.917175  1
  P  P35  1  0.497749  0.353657  0.917175  1
  O  O36  1  0.996036  0.247939  0.015660  1
  O  O37  1  0.503964  0.747939  0.015660  1
  O  O38  1  0.723583  0.531001  0.083679  1
  O  O39  1  0.273916  0.533267  0.083867  1
  O  O40  1  0.226084  0.033267  0.083867  1
  O  O41  1  0.776417  0.031001  0.083679  1
  O  O42  1  0.998792  0.246852  0.150355  1
  O  O43  1  0.501208  0.746852  0.150355  1
  O  O44  1  0.002597  0.751029  0.182343  1
  O  O45  1  0.497403  0.251029  0.182343  1
  O  O46  1  0.725068  0.466744  0.250328  1
  O  O47  1  0.274932  0.466744  0.249672  1
  O  O48  1  0.774932  0.966744  0.250328  1
  O  O49  1  0.225068  0.966744  0.249672  1
  O  O50  1  0.997403  0.751029  0.317657  1
  O  O51  1  0.502597  0.251029  0.317657  1
  O  O52  1  0.001208  0.246852  0.349645  1
  O  O53  1  0.498792  0.746852  0.349645  1
  O  O54  1  0.276417  0.531001  0.416321  1
  O  O55  1  0.726084  0.533267  0.416133  1
  O  O56  1  0.773916  0.033267  0.416133  1
  O  O57  1  0.223583  0.031001  0.416321  1
  O  O58  1  0.003964  0.247939  0.484340  1
  O  O59  1  0.496036  0.747939  0.484340  1
  O  O60  1  0.996036  0.752061  0.515660  1
  O  O61  1  0.503964  0.252061  0.515660  1
  O  O62  1  0.723583  0.468999  0.583679  1
  O  O63  1  0.273916  0.466733  0.583867  1
  O  O64  1  0.226084  0.966733  0.583867  1
  O  O65  1  0.776417  0.968999  0.583679  1
  O  O66  1  0.998792  0.753148  0.650355  1
  O  O67  1  0.501208  0.253148  0.650355  1
  O  O68  1  0.002597  0.248971  0.682343  1
  O  O69  1  0.497403  0.748971  0.682343  1
  O  O70  1  0.725068  0.533256  0.750328  1
  O  O71  1  0.274932  0.533256  0.749672  1
  O  O72  1  0.774932  0.033256  0.750328  1
  O  O73  1  0.225068  0.033256  0.749672  1
  O  O74  1  0.997403  0.248971  0.817657  1
  O  O75  1  0.502597  0.748971  0.817657  1
  O  O76  1  0.001208  0.753148  0.849645  1
  O  O77  1  0.498792  0.253148  0.849645  1
  O  O78  1  0.276417  0.468999  0.916321  1
  O  O79  1  0.726084  0.466733  0.916133  1
  O  O80  1  0.773916  0.966733  0.916133  1
  O  O81  1  0.223583  0.968999  0.916321  1
  O  O82  1  0.003964  0.752061  0.984340  1
  O  O83  1  0.496036  0.252061  0.984340  1
