# generated using pymatgen
data_LiFePO4
_symmetry_space_group_name_H-M   'P 1'
_cell_length_a   5.29077665
_cell_length_b   5.29077665
_cell_length_c   13.12492619
_cell_angle_alpha   90.00000000
_cell_angle_beta   90.00000000
_cell_angle_gamma   120.00000000
_symmetry_Int_Tables_number   1
_chemical_formula_structural   LiFePO4
_chemical_formula_sum   'Li3 Fe3 P3 O12'
_cell_volume   318.17522403
_cell_formula_units_Z   3
loop_
 _symmetry_equiv_pos_site_id
 _symmetry_equiv_pos_as_xyz
  1  'x, y, z'
loop_
 _atom_site_type_symbol
 _atom_site_label
 _atom_site_symmetry_multiplicity
 _atom_site_fract_x
 _atom_site_fract_y
 _atom_site_fract_z
 _atom_site_occupancy
  Li  Li0  1  0.000000  0.000000  0.166667  1
  Li  Li1  1  0.000000  0.000000  0.500000  1
  Li  Li2  1  0.000000  0.000000  0.833333  1
  Fe  Fe3  1  0.000000  0.500000  0.666667  1
  Fe  Fe4  1  0.500000  0.500000  0.333333  1
  Fe  Fe5  1  0.500000  0.000000  0.000000  1
  P  P6  1  0.000000  0.500000  0.166667  1
  P  P7  1  0.500000  0.500000  0.833333  1
  P  P8  1  0.500000  0.000000  0.500000  1
  O  O9  1  0.180927  0.776713  0.100563  1
  O  O10  1  0.223287  0.819073  0.566103  1
  O  O11  1  0.180927  0.404214  0.232770  1
  O  O12  1  0.223287  0.404214  0.767230  1
  O  O13  1  0.595786  0.776713  0.899437  1
  O  O14  1  0.595786  0.819073  0.433897  1
  O  O15  1  0.404214  0.180927  0.433897  1
  O  O16  1  0.404214  0.223287  0.899437  1
  O  O17  1  0.819073  0.595786  0.232770  1
  O  O18  1  0.776713  0.595786  0.767230  1
  O  O19  1  0.819073  0.223287  0.100563  1
  O  O20  1  0.776713  0.180927  0.566103  1
