# generated using pymatgen
data_Fe2O3F
_symmetry_space_group_name_H-M   'P 1'
_cell_length_a   4.70778113
_cell_length_b   3.00931690
_cell_length_c   23.39590681
_cell_angle_alpha   90.00000000
_cell_angle_beta   92.50890163
_cell_angle_gamma   90.00000000
_symmetry_Int_Tables_number   1
_chemical_formula_structural   Fe2O3F
_chemical_formula_sum   'Fe10 O15 F5'
_cell_volume   331.13689350
_cell_formula_units_Z   5
loop_
 _symmetry_equiv_pos_site_id
 _symmetry_equiv_pos_as_xyz
  1  'x, y, z'
loop_
 _atom_site_type_symbol
 _atom_site_label
 _atom_site_symmetry_multiplicity
 _atom_site_fract_x
 _atom_site_fract_y
 _atom_site_fract_z
 _atom_site_occupancy
  Fe  Fe0  1  0.041093  0.000000  0.000402  1
  Fe  Fe1  1  0.936293  0.000000  0.804511  1
  Fe  Fe2  1  0.966977  0.000000  0.603505  1
  Fe  Fe3  1  0.993387  0.000000  0.403525  1
  Fe  Fe4  1  0.012961  0.000000  0.204420  1
  Fe  Fe5  1  0.454389  0.500000  0.894474  1
  Fe  Fe6  1  0.492615  0.500000  0.696950  1
  Fe  Fe7  1  0.518264  0.500000  0.497320  1
  Fe  Fe8  1  0.534202  0.500000  0.296588  1
  Fe  Fe9  1  0.558927  0.500000  0.095673  1
  O  O10  1  0.756975  0.500000  0.840473  1
  O  O11  1  0.795248  0.500000  0.640968  1
  O  O12  1  0.811815  0.500000  0.440016  1
  O  O13  1  0.861200  0.500000  0.036209  1
  O  O14  1  0.823649  0.500000  0.237469  1
  O  O15  1  0.687121  0.000000  0.541088  1
  O  O16  1  0.702319  0.000000  0.339642  1
  O  O17  1  0.727283  0.000000  0.136736  1
  O  O18  1  0.651603  0.000000  0.740267  1
  O  O19  1  0.260896  0.000000  0.860108  1
  O  O20  1  0.288292  0.000000  0.662448  1
  O  O21  1  0.323357  0.000000  0.261184  1
  O  O22  1  0.366228  0.000000  0.058858  1
  O  O23  1  0.306379  0.000000  0.463298  1
  O  O24  1  0.193013  0.500000  0.958504  1
  F  F25  1  0.680250  0.000000  0.938523  1
  F  F26  1  0.145607  0.500000  0.762704  1
  F  F27  1  0.184311  0.500000  0.563260  1
  F  F28  1  0.203805  0.500000  0.361449  1
  F  F29  1  0.221540  0.500000  0.159427  1
