# generated using pymatgen
data_LiV4O5F7
_symmetry_space_group_name_H-M   'P 1'
_cell_length_a   5.23879940
_cell_length_b   5.37102842
_cell_length_c   17.24308976
_cell_angle_alpha   87.12495748
_cell_angle_beta   98.71924236
_cell_angle_gamma   118.94441009
_symmetry_Int_Tables_number   1
_chemical_formula_structural   LiV4O5F7
_chemical_formula_sum   'Li2 V8 O10 F14'
_cell_volume   419.51949180
_cell_formula_units_Z   2
loop_
 _symmetry_equiv_pos_site_id
 _symmetry_equiv_pos_as_xyz
  1  'x, y, z'
loop_
 _atom_site_type_symbol
 _atom_site_label
 _atom_site_symmetry_multiplicity
 _atom_site_fract_x
 _atom_site_fract_y
 _atom_site_fract_z
 _atom_site_occupancy
  Li  Li0  1  0.416109  0.786048  0.074269  1
  Li  Li1  1  0.086390  0.459373  0.678109  1
  V  V2  1  0.490112  0.709843  0.254195  1
  V  V3  1  0.715676  0.870458  0.629980  1
  V  V4  1  0.993152  0.470952  0.502923  1
  V  V5  1  0.280834  0.655994  0.871687  1
  V  V6  1  0.687505  0.359649  0.128466  1
  V  V7  1  0.511879  0.254718  0.747799  1
  V  V8  1  0.023656  0.045481  0.995690  1
  V  V9  1  0.225821  0.089391  0.380035  1
  O  O10  1  0.508185  0.544347  0.684596  1
  O  O11  1  0.464736  0.949865  0.816834  1
  O  O12  1  0.955863  0.192155  0.560799  1
  O  O13  1  0.051369  0.316310  0.936275  1
  O  O14  1  0.047182  0.813664  0.438393  1
  O  O15  1  0.555454  0.074963  0.187076  1
  O  O16  1  0.430665  0.207341  0.042919  1
  O  O17  1  0.572666  0.589387  0.159226  1
  O  O18  1  0.590630  0.081830  0.663321  1
  O  O19  1  0.444239  0.432118  0.311086  1
  F  F20  1  0.921392  0.947094  0.287950  1
  F  F21  1  0.434355  0.924168  0.336242  1
  F  F22  1  0.423357  0.699394  0.535470  1
  F  F23  1  0.917336  0.155983  0.086009  1
  F  F24  1  0.575921  0.794766  0.970687  1
  F  F25  1  0.079233  0.554089  0.205956  1
  F  F26  1  0.057780  0.324544  0.410262  1
  F  F27  1  0.990256  0.687547  0.061304  1
  F  F28  1  0.944119  0.664065  0.593846  1
  F  F29  1  0.959715  0.472126  0.779282  1
  F  F30  1  0.067397  0.827642  0.914584  1
  F  F31  1  0.570730  0.303307  0.461298  1
  F  F32  1  0.454948  0.435494  0.838780  1
  F  F33  1  0.065645  0.041322  0.713183  1
