# generated using pymatgen
data_Cs2NiO2
_symmetry_space_group_name_H-M   'P 1'
_cell_length_a   7.52271373
_cell_length_b   7.52271373
_cell_length_c   7.52271373
_cell_angle_alpha   145.06444961
_cell_angle_beta   145.06444961
_cell_angle_gamma   50.23849029
_symmetry_Int_Tables_number   1
_chemical_formula_structural   Cs2NiO2
_chemical_formula_sum   'Cs2 Ni1 O2'
_cell_volume   138.92147512
_cell_formula_units_Z   1
loop_
 _symmetry_equiv_pos_site_id
 _symmetry_equiv_pos_as_xyz
  1  'x, y, z'
loop_
 _atom_site_type_symbol
 _atom_site_label
 _atom_site_symmetry_multiplicity
 _atom_site_fract_x
 _atom_site_fract_y
 _atom_site_fract_z
 _atom_site_occupancy
  Cs  Cs0  1  0.653167  0.653167  0.000000  1
  Cs  Cs1  1  0.346833  0.346833  0.000000  1
  Ni  Ni2  1  0.000000  0.000000  0.000000  1
  O  O3  1  0.873631  0.873631  0.000000  1
  O  O4  1  0.126369  0.126369  0.000000  1
