# generated using pymatgen
data_MnV4O12
_symmetry_space_group_name_H-M   'P 1'
_cell_length_a   6.63614275
_cell_length_b   6.63614275
_cell_length_c   5.99788673
_cell_angle_alpha   74.71084101
_cell_angle_beta   105.28915899
_cell_angle_gamma   96.48190316
_symmetry_Int_Tables_number   1
_chemical_formula_structural   MnV4O12
_chemical_formula_sum   'Mn1 V4 O12'
_cell_volume   245.50414014
_cell_formula_units_Z   1
loop_
 _symmetry_equiv_pos_site_id
 _symmetry_equiv_pos_as_xyz
  1  'x, y, z'
loop_
 _atom_site_type_symbol
 _atom_site_label
 _atom_site_symmetry_multiplicity
 _atom_site_fract_x
 _atom_site_fract_y
 _atom_site_fract_z
 _atom_site_occupancy
  Mn  Mn0  1  0.084062  0.084062  0.500000  1
  V  V1  1  0.379631  0.800833  0.998418  1
  V  V2  1  0.210992  0.610487  0.520301  1
  V  V3  1  0.800833  0.379631  0.001582  1
  V  V4  1  0.610487  0.210992  0.479699  1
  O  O5  1  0.194121  0.982243  0.831795  1
  O  O6  1  0.606555  0.924044  0.038191  1
  O  O7  1  0.037070  0.801902  0.451159  1
  O  O8  1  0.376033  0.630510  0.801037  1
  O  O9  1  0.924044  0.606555  0.961809  1
  O  O10  1  0.351174  0.659091  0.299029  1
  O  O11  1  0.630510  0.376033  0.198963  1
  O  O12  1  0.090261  0.362901  0.543697  1
  O  O13  1  0.659091  0.351174  0.700971  1
  O  O14  1  0.982243  0.194121  0.168205  1
  O  O15  1  0.362901  0.090261  0.456303  1
  O  O16  1  0.801902  0.037070  0.548841  1
