# generated using pymatgen
data_LiV(SiO3)2
_symmetry_space_group_name_H-M   'P 1'
_cell_length_a   5.35778862
_cell_length_b   8.78766079
_cell_length_c   18.28882832
_cell_angle_alpha   90.00000000
_cell_angle_beta   90.00000000
_cell_angle_gamma   90.00000000
_symmetry_Int_Tables_number   1
_chemical_formula_structural   LiV(SiO3)2
_chemical_formula_sum   'Li8 V8 Si16 O48'
_cell_volume   861.08246059
_cell_formula_units_Z   8
loop_
 _symmetry_equiv_pos_site_id
 _symmetry_equiv_pos_as_xyz
  1  'x, y, z'
loop_
 _atom_site_type_symbol
 _atom_site_label
 _atom_site_symmetry_multiplicity
 _atom_site_fract_x
 _atom_site_fract_y
 _atom_site_fract_z
 _atom_site_occupancy
  Li  Li0  1  0.120366  0.503530  0.626364  1
  Li  Li1  1  0.620366  0.996470  0.626364  1
  Li  Li2  1  0.620366  0.496470  0.873636  1
  Li  Li3  1  0.120366  0.003530  0.873636  1
  Li  Li4  1  0.879634  0.996470  0.126364  1
  Li  Li5  1  0.379634  0.503530  0.126364  1
  Li  Li6  1  0.879634  0.496470  0.373636  1
  Li  Li7  1  0.379634  0.003530  0.373636  1
  V  V8  1  0.119358  0.152681  0.624752  1
  V  V9  1  0.619358  0.347319  0.624752  1
  V  V10  1  0.619358  0.847319  0.875248  1
  V  V11  1  0.119358  0.652681  0.875248  1
  V  V12  1  0.880642  0.347319  0.124752  1
  V  V13  1  0.380642  0.152681  0.124752  1
  V  V14  1  0.880642  0.847319  0.375248  1
  V  V15  1  0.380642  0.652681  0.375248  1
  Si  Si16  1  0.226657  0.838056  0.524962  1
  Si  Si17  1  0.726657  0.661944  0.524962  1
  Si  Si18  1  0.953521  0.838828  0.725546  1
  Si  Si19  1  0.453521  0.661172  0.725546  1
  Si  Si20  1  0.953521  0.338828  0.774454  1
  Si  Si21  1  0.453521  0.161172  0.774454  1
  Si  Si22  1  0.226657  0.338056  0.975038  1
  Si  Si23  1  0.726657  0.161944  0.975038  1
  Si  Si24  1  0.273343  0.838056  0.024962  1
  Si  Si25  1  0.773343  0.661944  0.024962  1
  Si  Si26  1  0.546479  0.838828  0.225546  1
  Si  Si27  1  0.046479  0.661172  0.225546  1
  Si  Si28  1  0.546479  0.338828  0.274454  1
  Si  Si29  1  0.046479  0.161172  0.274454  1
  Si  Si30  1  0.273343  0.338056  0.475038  1
  Si  Si31  1  0.773343  0.161944  0.475038  1
  O  O32  1  0.948784  0.779702  0.551871  1
  O  O33  1  0.448784  0.720298  0.551871  1
  O  O34  1  0.280103  0.334018  0.565760  1
  O  O35  1  0.780103  0.165982  0.565760  1
  O  O36  1  0.288289  0.999628  0.563668  1
  O  O37  1  0.788289  0.500372  0.563668  1
  O  O38  1  0.954023  0.332944  0.684162  1
  O  O39  1  0.454023  0.167056  0.684162  1
  O  O40  1  0.454401  0.493349  0.689903  1
  O  O41  1  0.954401  0.006651  0.689903  1
  O  O42  1  0.688219  0.764706  0.695850  1
  O  O43  1  0.188219  0.735294  0.695850  1
  O  O44  1  0.688219  0.264706  0.804150  1
  O  O45  1  0.188219  0.235294  0.804150  1
  O  O46  1  0.454401  0.993349  0.810097  1
  O  O47  1  0.954401  0.506651  0.810097  1
  O  O48  1  0.954023  0.832944  0.815838  1
  O  O49  1  0.454023  0.667056  0.815838  1
  O  O50  1  0.288289  0.499628  0.936332  1
  O  O51  1  0.788289  0.000372  0.936332  1
  O  O52  1  0.280103  0.834018  0.934240  1
  O  O53  1  0.780103  0.665982  0.934240  1
  O  O54  1  0.948784  0.279702  0.948129  1
  O  O55  1  0.448784  0.220298  0.948129  1
  O  O56  1  0.551216  0.779702  0.051871  1
  O  O57  1  0.051216  0.720298  0.051871  1
  O  O58  1  0.219897  0.334018  0.065760  1
  O  O59  1  0.719897  0.165982  0.065760  1
  O  O60  1  0.211711  0.999628  0.063668  1
  O  O61  1  0.711711  0.500372  0.063668  1
  O  O62  1  0.545977  0.332944  0.184162  1
  O  O63  1  0.045977  0.167056  0.184162  1
  O  O64  1  0.045599  0.493349  0.189903  1
  O  O65  1  0.545599  0.006651  0.189903  1
  O  O66  1  0.811781  0.764706  0.195850  1
  O  O67  1  0.311781  0.735294  0.195850  1
  O  O68  1  0.811781  0.264706  0.304150  1
  O  O69  1  0.311781  0.235294  0.304150  1
  O  O70  1  0.045599  0.993349  0.310097  1
  O  O71  1  0.545599  0.506651  0.310097  1
  O  O72  1  0.545977  0.832944  0.315838  1
  O  O73  1  0.045977  0.667056  0.315838  1
  O  O74  1  0.211711  0.499628  0.436332  1
  O  O75  1  0.711711  0.000372  0.436332  1
  O  O76  1  0.219897  0.834018  0.434240  1
  O  O77  1  0.719897  0.665982  0.434240  1
  O  O78  1  0.551216  0.279702  0.448129  1
  O  O79  1  0.051216  0.220298  0.448129  1
