# generated using pymatgen
data_Li4Mn(BO3)2
_symmetry_space_group_name_H-M   'P 1'
_cell_length_a   3.39789408
_cell_length_b   7.95808897
_cell_length_c   9.26095500
_cell_angle_alpha   90.00000000
_cell_angle_beta   90.00000000
_cell_angle_gamma   90.00000000
_symmetry_Int_Tables_number   1
_chemical_formula_structural   Li4Mn(BO3)2
_chemical_formula_sum   'Li8 Mn2 B4 O12'
_cell_volume   250.42310779
_cell_formula_units_Z   2
loop_
 _symmetry_equiv_pos_site_id
 _symmetry_equiv_pos_as_xyz
  1  'x, y, z'
loop_
 _atom_site_type_symbol
 _atom_site_label
 _atom_site_symmetry_multiplicity
 _atom_site_fract_x
 _atom_site_fract_y
 _atom_site_fract_z
 _atom_site_occupancy
  Li  Li0  1  0.500000  0.825123  0.950016  1
  Li  Li1  1  0.000000  0.989565  0.801533  1
  Li  Li2  1  0.500000  0.489565  0.698467  1
  Li  Li3  1  0.000000  0.325123  0.549984  1
  Li  Li4  1  0.000000  0.674877  0.450016  1
  Li  Li5  1  0.500000  0.510435  0.301533  1
  Li  Li6  1  0.000000  0.010435  0.198467  1
  Li  Li7  1  0.500000  0.174877  0.049984  1
  Mn  Mn8  1  0.000000  0.500000  0.000000  1
  Mn  Mn9  1  0.500000  0.000000  0.500000  1
  B  B10  1  0.500000  0.229510  0.793920  1
  B  B11  1  0.000000  0.729510  0.706080  1
  B  B12  1  0.000000  0.270490  0.293920  1
  B  B13  1  0.500000  0.770490  0.206080  1
  O  O14  1  0.500000  0.374475  0.883089  1
  O  O15  1  0.000000  0.747398  0.855667  1
  O  O16  1  0.500000  0.073899  0.858178  1
  O  O17  1  0.000000  0.573899  0.641822  1
  O  O18  1  0.500000  0.247398  0.644333  1
  O  O19  1  0.000000  0.874475  0.616911  1
  O  O20  1  0.000000  0.125525  0.383089  1
  O  O21  1  0.500000  0.752602  0.355667  1
  O  O22  1  0.000000  0.426101  0.358178  1
  O  O23  1  0.500000  0.926101  0.141822  1
  O  O24  1  0.000000  0.252602  0.144333  1
  O  O25  1  0.500000  0.625525  0.116911  1
