# generated using pymatgen
data_Li2Sn3(P2O7)2
_symmetry_space_group_name_H-M   'P 1'
_cell_length_a   8.00334054
_cell_length_b   8.20058451
_cell_length_c   11.19986234
_cell_angle_alpha   90.00000000
_cell_angle_beta   108.98298347
_cell_angle_gamma   90.00000000
_symmetry_Int_Tables_number   1
_chemical_formula_structural   Li2Sn3(P2O7)2
_chemical_formula_sum   'Li4 Sn6 P8 O28'
_cell_volume   695.09353000
_cell_formula_units_Z   2
loop_
 _symmetry_equiv_pos_site_id
 _symmetry_equiv_pos_as_xyz
  1  'x, y, z'
loop_
 _atom_site_type_symbol
 _atom_site_label
 _atom_site_symmetry_multiplicity
 _atom_site_fract_x
 _atom_site_fract_y
 _atom_site_fract_z
 _atom_site_occupancy
  Li  Li0  1  0.706089  0.434433  0.178627  1
  Li  Li1  1  0.706089  0.065567  0.678627  1
  Li  Li2  1  0.293911  0.934433  0.321373  1
  Li  Li3  1  0.293911  0.565567  0.821373  1
  Sn  Sn4  1  0.000000  0.000000  0.500000  1
  Sn  Sn5  1  0.787921  0.377532  0.495966  1
  Sn  Sn6  1  0.000000  0.500000  0.000000  1
  Sn  Sn7  1  0.787921  0.122468  0.995966  1
  Sn  Sn8  1  0.212079  0.877532  0.004034  1
  Sn  Sn9  1  0.212079  0.622468  0.504034  1
  P  P10  1  0.863480  0.792470  0.190504  1
  P  P11  1  0.863480  0.707530  0.690504  1
  P  P12  1  0.604574  0.041713  0.225771  1
  P  P13  1  0.395426  0.541713  0.274229  1
  P  P14  1  0.604574  0.458287  0.725771  1
  P  P15  1  0.395426  0.958287  0.774229  1
  P  P16  1  0.136520  0.292470  0.309496  1
  P  P17  1  0.136520  0.207530  0.809496  1
  O  O18  1  0.006498  0.299912  0.173896  1
  O  O19  1  0.925446  0.904375  0.100582  1
  O  O20  1  0.824531  0.620432  0.136880  1
  O  O21  1  0.006498  0.200088  0.673896  1
  O  O22  1  0.925446  0.595625  0.600582  1
  O  O23  1  0.674697  0.866500  0.189606  1
  O  O24  1  0.634977  0.169461  0.132065  1
  O  O25  1  0.824531  0.879568  0.636880  1
  O  O26  1  0.708784  0.081757  0.363188  1
  O  O27  1  0.591271  0.509060  0.297042  1
  O  O28  1  0.674697  0.633500  0.689606  1
  O  O29  1  0.634977  0.330539  0.632065  1
  O  O30  1  0.708784  0.418243  0.863188  1
  O  O31  1  0.408729  0.009060  0.202958  1
  O  O32  1  0.591271  0.990940  0.797042  1
  O  O33  1  0.291216  0.581757  0.136812  1
  O  O34  1  0.365023  0.669461  0.367935  1
  O  O35  1  0.325303  0.366500  0.310394  1
  O  O36  1  0.408729  0.490940  0.702958  1
  O  O37  1  0.291216  0.918243  0.636812  1
  O  O38  1  0.175469  0.120432  0.363120  1
  O  O39  1  0.365023  0.830539  0.867935  1
  O  O40  1  0.325303  0.133500  0.810394  1
  O  O41  1  0.074554  0.404375  0.399418  1
  O  O42  1  0.993502  0.799912  0.326104  1
  O  O43  1  0.175469  0.379568  0.863120  1
  O  O44  1  0.074554  0.095625  0.899418  1
  O  O45  1  0.993502  0.700088  0.826104  1
