# generated using pymatgen
data_LiFeB2O5
_symmetry_space_group_name_H-M   'P 1'
_cell_length_a   5.48391773
_cell_length_b   10.83602364
_cell_length_c   12.02367384
_cell_angle_alpha   90.00000000
_cell_angle_beta   100.58898838
_cell_angle_gamma   90.00000000
_symmetry_Int_Tables_number   1
_chemical_formula_structural   LiFeB2O5
_chemical_formula_sum   'Li8 Fe8 B16 O40'
_cell_volume   702.32580738
_cell_formula_units_Z   8
loop_
 _symmetry_equiv_pos_site_id
 _symmetry_equiv_pos_as_xyz
  1  'x, y, z'
loop_
 _atom_site_type_symbol
 _atom_site_label
 _atom_site_symmetry_multiplicity
 _atom_site_fract_x
 _atom_site_fract_y
 _atom_site_fract_z
 _atom_site_occupancy
  Li  Li0  1  0.367532  0.625121  0.938641  1
  Li  Li1  1  0.867532  0.874879  0.938641  1
  Li  Li2  1  0.118743  0.112213  0.560854  1
  Li  Li3  1  0.618743  0.387787  0.560854  1
  Li  Li4  1  0.381257  0.612213  0.439146  1
  Li  Li5  1  0.881257  0.887787  0.439146  1
  Li  Li6  1  0.132468  0.125121  0.061359  1
  Li  Li7  1  0.632468  0.374879  0.061359  1
  Fe  Fe8  1  0.270651  0.376774  0.761801  1
  Fe  Fe9  1  0.249405  0.874688  0.741199  1
  Fe  Fe10  1  0.770651  0.123226  0.761801  1
  Fe  Fe11  1  0.749405  0.625312  0.741199  1
  Fe  Fe12  1  0.250595  0.374688  0.258801  1
  Fe  Fe13  1  0.229349  0.876774  0.238199  1
  Fe  Fe14  1  0.750595  0.125312  0.258801  1
  Fe  Fe15  1  0.729349  0.623226  0.238199  1
  B  B16  1  0.143681  0.369937  0.996669  1
  B  B17  1  0.643681  0.130063  0.996669  1
  B  B18  1  0.308957  0.119173  0.834529  1
  B  B19  1  0.808957  0.380827  0.834529  1
  B  B20  1  0.204690  0.627672  0.663757  1
  B  B21  1  0.704690  0.872328  0.663757  1
  B  B22  1  0.157222  0.388061  0.492081  1
  B  B23  1  0.342778  0.888061  0.507919  1
  B  B24  1  0.657222  0.111939  0.492081  1
  B  B25  1  0.842778  0.611939  0.507919  1
  B  B26  1  0.295310  0.127672  0.336243  1
  B  B27  1  0.795310  0.372328  0.336243  1
  B  B28  1  0.191043  0.619173  0.165471  1
  B  B29  1  0.691043  0.880827  0.165471  1
  B  B30  1  0.356319  0.869937  0.003331  1
  B  B31  1  0.856319  0.630063  0.003331  1
  O  O32  1  0.318906  0.396204  0.932818  1
  O  O33  1  0.385963  0.111145  0.951339  1
  O  O34  1  0.298699  0.821191  0.897444  1
  O  O35  1  0.818906  0.103796  0.932818  1
  O  O36  1  0.885963  0.388855  0.951339  1
  O  O37  1  0.798699  0.678809  0.897444  1
  O  O38  1  0.120095  0.044988  0.780342  1
  O  O39  1  0.115128  0.554378  0.742212  1
  O  O40  1  0.430945  0.198910  0.773470  1
  O  O41  1  0.620095  0.455012  0.780342  1
  O  O42  1  0.402864  0.705003  0.701203  1
  O  O43  1  0.615128  0.945622  0.742212  1
  O  O44  1  0.930945  0.301090  0.773470  1
  O  O45  1  0.902864  0.794997  0.701203  1
  O  O46  1  0.255419  0.356194  0.600411  1
  O  O47  1  0.102314  0.627733  0.547703  1
  O  O48  1  0.190060  0.927940  0.578799  1
  O  O49  1  0.755419  0.143806  0.600411  1
  O  O50  1  0.602314  0.872267  0.547703  1
  O  O51  1  0.690060  0.572060  0.578799  1
  O  O52  1  0.309940  0.427940  0.421201  1
  O  O53  1  0.397686  0.127733  0.452297  1
  O  O54  1  0.244581  0.856194  0.399589  1
  O  O55  1  0.809940  0.072060  0.421201  1
  O  O56  1  0.897686  0.372267  0.452297  1
  O  O57  1  0.744581  0.643806  0.399589  1
  O  O58  1  0.097136  0.205003  0.298797  1
  O  O59  1  0.069055  0.698910  0.226530  1
  O  O60  1  0.384872  0.054378  0.257788  1
  O  O61  1  0.597136  0.294997  0.298797  1
  O  O62  1  0.379905  0.544988  0.219658  1
  O  O63  1  0.569055  0.801090  0.226530  1
  O  O64  1  0.884872  0.445622  0.257788  1
  O  O65  1  0.879905  0.955012  0.219658  1
  O  O66  1  0.201301  0.321191  0.102556  1
  O  O67  1  0.114037  0.611145  0.048661  1
  O  O68  1  0.181094  0.896204  0.067182  1
  O  O69  1  0.701301  0.178809  0.102556  1
  O  O70  1  0.614037  0.888855  0.048661  1
  O  O71  1  0.681094  0.603796  0.067182  1
