# generated using pymatgen
data_Ti2Fe4O9
_symmetry_space_group_name_H-M   'P 1'
_cell_length_a   5.51852076
_cell_length_b   5.51852076
_cell_length_c   12.90578563
_cell_angle_alpha   86.88206912
_cell_angle_beta   93.11793088
_cell_angle_gamma   124.22653560
_symmetry_Int_Tables_number   1
_chemical_formula_structural   Ti2Fe4O9
_chemical_formula_sum   'Ti4 Fe8 O18'
_cell_volume   324.35231591
_cell_formula_units_Z   2
loop_
 _symmetry_equiv_pos_site_id
 _symmetry_equiv_pos_as_xyz
  1  'x, y, z'
loop_
 _atom_site_type_symbol
 _atom_site_label
 _atom_site_symmetry_multiplicity
 _atom_site_fract_x
 _atom_site_fract_y
 _atom_site_fract_z
 _atom_site_occupancy
  Ti  Ti0  1  0.197271  0.812146  0.455143  1
  Ti  Ti1  1  0.187854  0.802729  0.955143  1
  Ti  Ti2  1  0.855657  0.134469  0.278353  1
  Ti  Ti3  1  0.865531  0.144343  0.778353  1
  Fe  Fe4  1  0.136235  0.853725  0.217138  1
  Fe  Fe5  1  0.472098  0.527915  0.382186  1
  Fe  Fe6  1  0.146275  0.863765  0.717138  1
  Fe  Fe7  1  0.472085  0.527902  0.882186  1
  Fe  Fe8  1  0.527893  0.468481  0.118863  1
  Fe  Fe9  1  0.811681  0.188885  0.046522  1
  Fe  Fe10  1  0.531519  0.472107  0.618863  1
  Fe  Fe11  1  0.811115  0.188319  0.546522  1
  O  O12  1  0.787401  0.887489  0.656827  1
  O  O13  1  0.630508  0.968744  0.403361  1
  O  O14  1  0.684714  0.696956  0.248629  1
  O  O15  1  0.507411  0.742869  0.017166  1
  O  O16  1  0.466039  0.889116  0.820248  1
  O  O17  1  0.110884  0.533961  0.320248  1
  O  O18  1  0.257131  0.492589  0.517166  1
  O  O19  1  0.907009  0.796521  0.861295  1
  O  O20  1  0.968417  0.648900  0.071844  1
  O  O21  1  0.303044  0.315286  0.748629  1
  O  O22  1  0.031256  0.369492  0.903361  1
  O  O23  1  0.112511  0.212599  0.156827  1
  O  O24  1  0.790886  0.564632  0.480376  1
  O  O25  1  0.848230  0.410603  0.692048  1
  O  O26  1  0.589397  0.151770  0.192048  1
  O  O27  1  0.435368  0.209114  0.980376  1
  O  O28  1  0.351100  0.031583  0.571844  1
  O  O29  1  0.203479  0.092991  0.361295  1
