# generated using pymatgen
data_Li4Mn2Fe3Cu3O16
_symmetry_space_group_name_H-M   'P 1'
_cell_length_a   5.85585844
_cell_length_b   5.85585844
_cell_length_c   9.42063535
_cell_angle_alpha   89.86024763
_cell_angle_beta   90.13975237
_cell_angle_gamma   119.88512293
_symmetry_Int_Tables_number   1
_chemical_formula_structural   Li4Mn2Fe3Cu3O16
_chemical_formula_sum   'Li4 Mn2 Fe3 Cu3 O16'
_cell_volume   280.08626141
_cell_formula_units_Z   1
loop_
 _symmetry_equiv_pos_site_id
 _symmetry_equiv_pos_as_xyz
  1  'x, y, z'
loop_
 _atom_site_type_symbol
 _atom_site_label
 _atom_site_symmetry_multiplicity
 _atom_site_fract_x
 _atom_site_fract_y
 _atom_site_fract_z
 _atom_site_occupancy
  Li  Li0  1  0.339209  0.660791  0.100829  1
  Li  Li1  1  0.998131  0.001869  0.005862  1
  Li  Li2  1  0.992031  0.007969  0.508805  1
  Li  Li3  1  0.668204  0.331796  0.602800  1
  Mn  Mn4  1  0.331160  0.668840  0.515150  1
  Mn  Mn5  1  0.667898  0.332102  0.015011  1
  Fe  Fe6  1  0.168984  0.831016  0.786799  1
  Fe  Fe7  1  0.340020  0.170298  0.287061  1
  Fe  Fe8  1  0.829702  0.659980  0.287061  1
  Cu  Cu9  1  0.170345  0.341750  0.787403  1
  Cu  Cu10  1  0.658250  0.829655  0.787403  1
  Cu  Cu11  1  0.829009  0.170991  0.288412  1
  O  O12  1  0.175548  0.340038  0.405969  1
  O  O13  1  0.478448  0.521552  0.651040  1
  O  O14  1  0.338764  0.661236  0.892140  1
  O  O15  1  0.992525  0.007475  0.698713  1
  O  O16  1  0.993998  0.006002  0.195590  1
  O  O17  1  0.659962  0.824452  0.405969  1
  O  O18  1  0.039192  0.521372  0.651601  1
  O  O19  1  0.478628  0.960808  0.651601  1
  O  O20  1  0.832281  0.167719  0.905371  1
  O  O21  1  0.167616  0.832384  0.403965  1
  O  O22  1  0.518325  0.036946  0.149897  1
  O  O23  1  0.963054  0.481675  0.149897  1
  O  O24  1  0.670467  0.329533  0.395517  1
  O  O25  1  0.338791  0.164656  0.904579  1
  O  O26  1  0.521615  0.478385  0.152709  1
  O  O27  1  0.835344  0.661209  0.904579  1
