# generated using pymatgen
data_TiAlO3
_symmetry_space_group_name_H-M   'P 1'
_cell_length_a   5.43979196
_cell_length_b   5.43979196
_cell_length_c   5.43979196
_cell_angle_alpha   53.98988838
_cell_angle_beta   53.98988838
_cell_angle_gamma   53.98988838
_symmetry_Int_Tables_number   1
_chemical_formula_structural   TiAlO3
_chemical_formula_sum   'Ti2 Al2 O6'
_cell_volume   97.84418851
_cell_formula_units_Z   2
loop_
 _symmetry_equiv_pos_site_id
 _symmetry_equiv_pos_as_xyz
  1  'x, y, z'
loop_
 _atom_site_type_symbol
 _atom_site_label
 _atom_site_symmetry_multiplicity
 _atom_site_fract_x
 _atom_site_fract_y
 _atom_site_fract_z
 _atom_site_occupancy
  Ti  Ti0  1  0.350988  0.350988  0.350988  1
  Ti  Ti1  1  0.649012  0.649012  0.649012  1
  Al  Al2  1  0.151183  0.151183  0.151183  1
  Al  Al3  1  0.848817  0.848817  0.848817  1
  O  O4  1  0.771081  0.053462  0.439082  1
  O  O5  1  0.053462  0.439082  0.771081  1
  O  O6  1  0.439082  0.771081  0.053462  1
  O  O7  1  0.560918  0.228919  0.946538  1
  O  O8  1  0.946538  0.560918  0.228919  1
  O  O9  1  0.228919  0.946538  0.560918  1
