# generated using pymatgen
data_LiNiPO4
_symmetry_space_group_name_H-M   'P 1'
_cell_length_a   5.17807648
_cell_length_b   7.53596370
_cell_length_c   8.03633701
_cell_angle_alpha   91.82152279
_cell_angle_beta   89.81478921
_cell_angle_gamma   101.81320598
_symmetry_Int_Tables_number   1
_chemical_formula_structural   LiNiPO4
_chemical_formula_sum   'Li4 Ni4 P4 O16'
_cell_volume   306.79366918
_cell_formula_units_Z   4
loop_
 _symmetry_equiv_pos_site_id
 _symmetry_equiv_pos_as_xyz
  1  'x, y, z'
loop_
 _atom_site_type_symbol
 _atom_site_label
 _atom_site_symmetry_multiplicity
 _atom_site_fract_x
 _atom_site_fract_y
 _atom_site_fract_z
 _atom_site_occupancy
  Li  Li0  1  0.305958  0.812299  0.095690  1
  Li  Li1  1  0.321135  0.335264  0.420706  1
  Li  Li2  1  0.678865  0.664736  0.579294  1
  Li  Li3  1  0.694042  0.187701  0.904310  1
  Ni  Ni4  1  0.134861  0.055119  0.686277  1
  Ni  Ni5  1  0.199302  0.520580  0.789837  1
  Ni  Ni6  1  0.800698  0.479420  0.210163  1
  Ni  Ni7  1  0.865139  0.944881  0.313723  1
  P  P8  1  0.248484  0.720771  0.436901  1
  P  P9  1  0.213429  0.225110  0.083723  1
  P  P10  1  0.786571  0.774890  0.916277  1
  P  P11  1  0.751516  0.279229  0.563099  1
  O  O12  1  0.053961  0.835309  0.516850  1
  O  O13  1  0.058696  0.714183  0.911477  1
  O  O14  1  0.133288  0.654736  0.262882  1
  O  O15  1  0.264391  0.557360  0.547469  1
  O  O16  1  0.184623  0.040888  0.171919  1
  O  O17  1  0.421346  0.369812  0.177215  1
  O  O18  1  0.304947  0.206247  0.899343  1
  O  O19  1  0.531196  0.829696  0.424752  1
  O  O20  1  0.468804  0.170304  0.575248  1
  O  O21  1  0.695053  0.793753  0.100657  1
  O  O22  1  0.578654  0.630188  0.822785  1
  O  O23  1  0.815377  0.959112  0.828081  1
  O  O24  1  0.735609  0.442640  0.452531  1
  O  O25  1  0.866712  0.345264  0.737118  1
  O  O26  1  0.941304  0.285817  0.088523  1
  O  O27  1  0.946039  0.164691  0.483150  1
