# generated using pymatgen
data_LiVPO4
_symmetry_space_group_name_H-M   'P 1'
_cell_length_a   7.51603165
_cell_length_b   7.51603165
_cell_length_c   9.77954063
_cell_angle_alpha   90.00000000
_cell_angle_beta   90.00000000
_cell_angle_gamma   120.00000000
_symmetry_Int_Tables_number   1
_chemical_formula_structural   LiVPO4
_chemical_formula_sum   'Li6 V6 P6 O24'
_cell_volume   478.43868428
_cell_formula_units_Z   6
loop_
 _symmetry_equiv_pos_site_id
 _symmetry_equiv_pos_as_xyz
  1  'x, y, z'
loop_
 _atom_site_type_symbol
 _atom_site_label
 _atom_site_symmetry_multiplicity
 _atom_site_fract_x
 _atom_site_fract_y
 _atom_site_fract_z
 _atom_site_occupancy
  Li  Li0  1  0.202035  0.949548  0.253788  1
  Li  Li1  1  0.050452  0.252487  0.253788  1
  Li  Li2  1  0.252487  0.050452  0.753788  1
  Li  Li3  1  0.747513  0.797965  0.253788  1
  Li  Li4  1  0.797965  0.747513  0.753788  1
  Li  Li5  1  0.949548  0.202035  0.753788  1
  V  V6  1  0.054717  0.574725  0.476102  1
  V  V7  1  0.520008  0.945283  0.476102  1
  V  V8  1  0.425275  0.479992  0.476102  1
  V  V9  1  0.479992  0.425275  0.976102  1
  V  V10  1  0.574725  0.054717  0.976102  1
  V  V11  1  0.945283  0.520008  0.976102  1
  P  P12  1  0.333333  0.666667  0.176586  1
  P  P13  1  0.000000  0.000000  0.002067  1
  P  P14  1  0.000000  0.000000  0.502067  1
  P  P15  1  0.333333  0.666667  0.768270  1
  P  P16  1  0.666667  0.333333  0.676586  1
  P  P17  1  0.666667  0.333333  0.268270  1
  O  O18  1  0.102595  0.877663  0.445927  1
  O  O19  1  0.170395  0.719496  0.127499  1
  O  O20  1  0.376999  0.879738  0.815376  1
  O  O21  1  0.120262  0.497260  0.815376  1
  O  O22  1  0.280504  0.450899  0.127499  1
  O  O23  1  0.333333  0.666667  0.340849  1
  O  O24  1  0.000000  0.000000  0.160354  1
  O  O25  1  0.000000  0.000000  0.660354  1
  O  O26  1  0.333333  0.666667  0.605618  1
  O  O27  1  0.122337  0.224931  0.445927  1
  O  O28  1  0.549101  0.829605  0.127499  1
  O  O29  1  0.224931  0.122337  0.945927  1
  O  O30  1  0.502740  0.623001  0.815376  1
  O  O31  1  0.775069  0.897405  0.445927  1
  O  O32  1  0.450899  0.280504  0.627499  1
  O  O33  1  0.497260  0.120262  0.315376  1
  O  O34  1  0.623001  0.502740  0.315376  1
  O  O35  1  0.829605  0.549101  0.627499  1
  O  O36  1  0.666667  0.333333  0.840849  1
  O  O37  1  0.666667  0.333333  0.105618  1
  O  O38  1  0.897405  0.775069  0.945927  1
  O  O39  1  0.719496  0.170395  0.627499  1
  O  O40  1  0.879738  0.376999  0.315376  1
  O  O41  1  0.877663  0.102595  0.945927  1
