# generated using pymatgen
data_V5FeO12
_symmetry_space_group_name_H-M   'P 1'
_cell_length_a   6.83536086
_cell_length_b   6.83536086
_cell_length_c   5.87572284
_cell_angle_alpha   75.10208103
_cell_angle_beta   104.89791897
_cell_angle_gamma   95.57857232
_symmetry_Int_Tables_number   1
_chemical_formula_structural   V5FeO12
_chemical_formula_sum   'V5 Fe1 O12'
_cell_volume   256.23816231
_cell_formula_units_Z   1
loop_
 _symmetry_equiv_pos_site_id
 _symmetry_equiv_pos_as_xyz
  1  'x, y, z'
loop_
 _atom_site_type_symbol
 _atom_site_label
 _atom_site_symmetry_multiplicity
 _atom_site_fract_x
 _atom_site_fract_y
 _atom_site_fract_z
 _atom_site_occupancy
  V  V0  1  0.084917  0.084917  0.500000  1
  V  V1  1  0.387403  0.792296  0.008861  1
  V  V2  1  0.205367  0.608221  0.513951  1
  V  V3  1  0.792296  0.387403  0.991139  1
  V  V4  1  0.608221  0.205367  0.486049  1
  Fe  Fe5  1  0.914184  0.914184  0.000000  1
  O  O6  1  0.193107  0.963994  0.882845  1
  O  O7  1  0.617193  0.909755  0.029301  1
  O  O8  1  0.041141  0.812208  0.404585  1
  O  O9  1  0.358844  0.629350  0.808667  1
  O  O10  1  0.909755  0.617193  0.970699  1
  O  O11  1  0.364922  0.651362  0.302480  1
  O  O12  1  0.629350  0.358844  0.191333  1
  O  O13  1  0.098635  0.367101  0.536885  1
  O  O14  1  0.651362  0.364922  0.697520  1
  O  O15  1  0.963994  0.193107  0.117155  1
  O  O16  1  0.367101  0.098635  0.463115  1
  O  O17  1  0.812208  0.041141  0.595415  1
