# generated using pymatgen
data_Na4P4(H2O5)3
_symmetry_space_group_name_H-M   'P 1'
_cell_length_a   6.69445398
_cell_length_b   10.08207722
_cell_length_c   11.31572459
_cell_angle_alpha   103.98280622
_cell_angle_beta   101.08267203
_cell_angle_gamma   90.98928826
_symmetry_Int_Tables_number   1
_chemical_formula_structural   Na4P4(H2O5)3
_chemical_formula_sum   'Na8 P8 H12 O30'
_cell_volume   725.66171086
_cell_formula_units_Z   2
loop_
 _symmetry_equiv_pos_site_id
 _symmetry_equiv_pos_as_xyz
  1  'x, y, z'
loop_
 _atom_site_type_symbol
 _atom_site_label
 _atom_site_symmetry_multiplicity
 _atom_site_fract_x
 _atom_site_fract_y
 _atom_site_fract_z
 _atom_site_occupancy
  Na  Na0  1  0.749087  0.027380  0.413009  1
  Na  Na1  1  0.250913  0.972620  0.586991  1
  Na  Na2  1  0.919288  0.715979  0.235593  1
  Na  Na3  1  0.080712  0.284021  0.764407  1
  Na  Na4  1  0.506313  0.660446  0.635973  1
  Na  Na5  1  0.493687  0.339554  0.364027  1
  Na  Na6  1  0.815693  0.560638  0.892984  1
  Na  Na7  1  0.184307  0.439362  0.107016  1
  P  P8  1  0.403202  0.773714  0.189508  1
  P  P9  1  0.596798  0.226286  0.810492  1
  P  P10  1  0.318623  0.642957  0.911846  1
  P  P11  1  0.681377  0.357043  0.088154  1
  P  P12  1  0.032236  0.754845  0.738913  1
  P  P13  1  0.967764  0.245155  0.261087  1
  P  P14  1  0.218857  0.019134  0.301937  1
  P  P15  1  0.781143  0.980866  0.698063  1
  H  H16  1  0.960541  0.860163  0.041168  1
  H  H17  1  0.039459  0.139837  0.958832  1
  H  H18  1  0.726560  0.818357  0.016104  1
  H  H19  1  0.273440  0.181643  0.983896  1
  H  H20  1  0.979033  0.343437  0.507104  1
  H  H21  1  0.020967  0.656563  0.492896  1
  H  H22  1  0.961772  0.459825  0.625738  1
  H  H23  1  0.038228  0.540175  0.374262  1
  H  H24  1  0.575804  0.385173  0.642441  1
  H  H25  1  0.424196  0.614827  0.357559  1
  H  H26  1  0.341025  0.388857  0.595949  1
  H  H27  1  0.658975  0.611143  0.404051  1
  O  O28  1  0.732583  0.332418  0.786183  1
  O  O29  1  0.267417  0.667582  0.213817  1
  O  O30  1  0.561489  0.267676  0.952356  1
  O  O31  1  0.438511  0.732324  0.047644  1
  O  O32  1  0.725159  0.090975  0.817104  1
  O  O33  1  0.274841  0.909025  0.182896  1
  O  O34  1  0.389684  0.184967  0.729168  1
  O  O35  1  0.610316  0.815033  0.270832  1
  O  O36  1  0.178422  0.762937  0.872719  1
  O  O37  1  0.821578  0.237063  0.127281  1
  O  O38  1  0.183064  0.527815  0.922705  1
  O  O39  1  0.816936  0.472185  0.077295  1
  O  O40  1  0.476370  0.615367  0.833590  1
  O  O41  1  0.523630  0.384633  0.166410  1
  O  O42  1  0.873527  0.637315  0.708161  1
  O  O43  1  0.126473  0.362685  0.291839  1
  O  O44  1  0.158024  0.764569  0.643850  1
  O  O45  1  0.841976  0.235431  0.356150  1
  O  O46  1  0.930859  0.898921  0.783568  1
  O  O47  1  0.069141  0.101079  0.216432  1
  O  O48  1  0.906777  0.051599  0.631336  1
  O  O49  1  0.093223  0.948401  0.368664  1
  O  O50  1  0.594102  0.892958  0.625313  1
  O  O51  1  0.405898  0.107042  0.374687  1
  O  O52  1  0.138062  0.212891  0.960722  1
  O  O53  1  0.861938  0.787109  0.039278  1
  O  O54  1  0.042951  0.383074  0.595378  1
  O  O55  1  0.957049  0.616926  0.404622  1
  O  O56  1  0.474527  0.409960  0.577808  1
  O  O57  1  0.525473  0.590040  0.422192  1
