# generated using pymatgen
data_Li4VFe3O8
_symmetry_space_group_name_H-M   'P 1'
_cell_length_a   6.00062958
_cell_length_b   6.00062958
_cell_length_c   6.00062958
_cell_angle_alpha   59.69373001
_cell_angle_beta   59.69373001
_cell_angle_gamma   59.69373001
_symmetry_Int_Tables_number   1
_chemical_formula_structural   Li4VFe3O8
_chemical_formula_sum   'Li4 V1 Fe3 O8'
_cell_volume   151.72021231
_cell_formula_units_Z   1
loop_
 _symmetry_equiv_pos_site_id
 _symmetry_equiv_pos_as_xyz
  1  'x, y, z'
loop_
 _atom_site_type_symbol
 _atom_site_label
 _atom_site_symmetry_multiplicity
 _atom_site_fract_x
 _atom_site_fract_y
 _atom_site_fract_z
 _atom_site_occupancy
  Li  Li0  1  0.000000  0.000000  0.500000  1
  Li  Li1  1  0.500000  0.500000  0.500000  1
  Li  Li2  1  0.500000  0.000000  1.000000  1
  Li  Li3  1  0.000000  0.500000  1.000000  1
  V  V4  1  0.000000  0.000000  0.000000  1
  Fe  Fe5  1  0.500000  0.000000  0.500000  1
  Fe  Fe6  1  0.500000  0.500000  0.000000  1
  Fe  Fe7  1  1.000000  0.500000  0.500000  1
  O  O8  1  0.756796  0.756796  0.254542  1
  O  O9  1  0.257328  0.257328  0.257328  1
  O  O10  1  0.756796  0.254542  0.756796  1
  O  O11  1  0.254542  0.756796  0.756796  1
  O  O12  1  0.742672  0.742672  0.742672  1
  O  O13  1  0.243204  0.243204  0.745458  1
  O  O14  1  0.745458  0.243204  0.243204  1
  O  O15  1  0.243204  0.745458  0.243204  1
