# generated using pymatgen
data_V4O7F5
_symmetry_space_group_name_H-M   'P 1'
_cell_length_a   5.18539774
_cell_length_b   5.35148237
_cell_length_c   7.40601668
_cell_angle_alpha   92.77054749
_cell_angle_beta   90.24242756
_cell_angle_gamma   90.56385876
_symmetry_Int_Tables_number   1
_chemical_formula_structural   V4O7F5
_chemical_formula_sum   'V4 O7 F5'
_cell_volume   205.26129689
_cell_formula_units_Z   1
loop_
 _symmetry_equiv_pos_site_id
 _symmetry_equiv_pos_as_xyz
  1  'x, y, z'
loop_
 _atom_site_type_symbol
 _atom_site_label
 _atom_site_symmetry_multiplicity
 _atom_site_fract_x
 _atom_site_fract_y
 _atom_site_fract_z
 _atom_site_occupancy
  V  V0  1  0.534747  0.471190  0.519394  1
  V  V1  1  0.466804  0.473201  0.023733  1
  V  V2  1  0.971330  0.973293  0.513209  1
  V  V3  1  0.969866  0.982932  0.002907  1
  O  O4  1  0.294618  0.217605  0.958081  1
  O  O5  1  0.416229  0.504687  0.245215  1
  O  O6  1  0.587019  0.498268  0.740545  1
  O  O7  1  0.718087  0.215682  0.453868  1
  O  O8  1  0.716587  0.797429  0.034596  1
  O  O9  1  0.786678  0.717169  0.452934  1
  O  O10  1  0.924223  0.002597  0.737751  1
  F  F11  1  0.095754  0.007287  0.253342  1
  F  F12  1  0.210788  0.309675  0.536340  1
  F  F13  1  0.217782  0.710564  0.946705  1
  F  F14  1  0.293318  0.808730  0.535506  1
  F  F15  1  0.796169  0.309692  0.045875  1
