# generated using pymatgen
data_Fe3P2(HO)16
_symmetry_space_group_name_H-M   'P 1'
_cell_length_a   8.42427990
_cell_length_b   8.42427990
_cell_length_c   4.78610917
_cell_angle_alpha   81.35778173
_cell_angle_beta   98.64221827
_cell_angle_gamma   74.93625658
_symmetry_Int_Tables_number   1
_chemical_formula_structural   Fe3P2(HO)16
_chemical_formula_sum   'Fe3 P2 H16 O16'
_cell_volume   317.82734577
_cell_formula_units_Z   1
loop_
 _symmetry_equiv_pos_site_id
 _symmetry_equiv_pos_as_xyz
  1  'x, y, z'
loop_
 _atom_site_type_symbol
 _atom_site_label
 _atom_site_symmetry_multiplicity
 _atom_site_fract_x
 _atom_site_fract_y
 _atom_site_fract_z
 _atom_site_occupancy
  Fe  Fe0  1  0.000000  0.000000  0.000000  1
  Fe  Fe1  1  0.389883  0.389883  0.000000  1
  Fe  Fe2  1  0.610117  0.610117  0.000000  1
  P  P3  1  0.688414  0.311586  0.626084  1
  P  P4  1  0.311586  0.688414  0.373916  1
  H  H5  1  0.318902  0.939507  0.942933  1
  H  H6  1  0.939507  0.318902  0.057067  1
  H  H7  1  0.681098  0.060493  0.057067  1
  H  H8  1  0.060493  0.681098  0.942933  1
  H  H9  1  0.210098  0.956402  0.633919  1
  H  H10  1  0.956402  0.210098  0.366081  1
  H  H11  1  0.789902  0.043598  0.366081  1
  H  H12  1  0.043598  0.789902  0.633919  1
  H  H13  1  0.827675  0.566408  0.484901  1
  H  H14  1  0.566408  0.827675  0.515099  1
  H  H15  1  0.172325  0.433592  0.515099  1
  H  H16  1  0.433592  0.172325  0.484901  1
  H  H17  1  0.824699  0.737797  0.285102  1
  H  H18  1  0.737797  0.824699  0.714898  1
  H  H19  1  0.175301  0.262203  0.714898  1
  H  H20  1  0.262203  0.175301  0.285102  1
  O  O21  1  0.843058  0.156942  0.632084  1
  O  O22  1  0.156942  0.843058  0.367916  1
  O  O23  1  0.610712  0.389288  0.305672  1
  O  O24  1  0.389288  0.610712  0.694328  1
  O  O25  1  0.561401  0.244377  0.780980  1
  O  O26  1  0.244377  0.561401  0.219020  1
  O  O27  1  0.438599  0.755623  0.219020  1
  O  O28  1  0.755623  0.438599  0.780980  1
  O  O29  1  0.015373  0.219373  0.201150  1
  O  O30  1  0.219373  0.015373  0.798850  1
  O  O31  1  0.984627  0.780627  0.798850  1
  O  O32  1  0.780627  0.984627  0.201150  1
  O  O33  1  0.827250  0.620134  0.286640  1
  O  O34  1  0.620134  0.827250  0.713360  1
  O  O35  1  0.172750  0.379866  0.713360  1
  O  O36  1  0.379866  0.172750  0.286640  1
