# generated using pymatgen
data_Li6FeO5F
_symmetry_space_group_name_H-M   'P 1'
_cell_length_a   5.49969585
_cell_length_b   5.51167472
_cell_length_c   5.56871676
_cell_angle_alpha   62.42088774
_cell_angle_beta   63.73755189
_cell_angle_gamma   62.39319668
_symmetry_Int_Tables_number   1
_chemical_formula_structural   Li6FeO5F
_chemical_formula_sum   'Li6 Fe1 O5 F1'
_cell_volume   126.88094568
_cell_formula_units_Z   1
loop_
 _symmetry_equiv_pos_site_id
 _symmetry_equiv_pos_as_xyz
  1  'x, y, z'
loop_
 _atom_site_type_symbol
 _atom_site_label
 _atom_site_symmetry_multiplicity
 _atom_site_fract_x
 _atom_site_fract_y
 _atom_site_fract_z
 _atom_site_occupancy
  Li  Li0  1  0.711039  0.477453  0.063174  1
  Li  Li1  1  0.505485  0.081989  0.749922  1
  Li  Li2  1  0.916750  0.301997  0.504630  1
  Li  Li3  1  0.073643  0.709645  0.476814  1
  Li  Li4  1  0.518867  0.923201  0.270369  1
  Li  Li5  1  0.274137  0.490384  0.926014  1
  Fe  Fe6  1  0.027175  0.989961  0.963162  1
  O  O7  1  0.350484  0.801710  0.094712  1
  O  O8  1  0.913138  0.661882  0.199826  1
  O  O9  1  0.207836  0.893159  0.639563  1
  O  O10  1  0.105181  0.339712  0.792873  1
  O  O11  1  0.661518  0.212809  0.910833  1
  F  F12  1  0.769743  0.116460  0.390546  1
