# generated using pymatgen
data_LiV3O4
_symmetry_space_group_name_H-M   'P 1'
_cell_length_a   5.31188463
_cell_length_b   5.31188463
_cell_length_c   3.00285541
_cell_angle_alpha   90.00000000
_cell_angle_beta   90.00000000
_cell_angle_gamma   108.99572177
_symmetry_Int_Tables_number   1
_chemical_formula_structural   LiV3O4
_chemical_formula_sum   'Li1 V3 O4'
_cell_volume   80.11483056
_cell_formula_units_Z   1
loop_
 _symmetry_equiv_pos_site_id
 _symmetry_equiv_pos_as_xyz
  1  'x, y, z'
loop_
 _atom_site_type_symbol
 _atom_site_label
 _atom_site_symmetry_multiplicity
 _atom_site_fract_x
 _atom_site_fract_y
 _atom_site_fract_z
 _atom_site_occupancy
  Li  Li0  1  0.500000  0.500000  0.000000  1
  V  V1  1  0.000000  0.000000  0.000000  1
  V  V2  1  0.500000  1.000000  0.500000  1
  V  V3  1  1.000000  0.500000  0.500000  1
  O  O4  1  0.761573  0.761573  0.500000  1
  O  O5  1  0.250061  0.749939  1.000000  1
  O  O6  1  0.238427  0.238427  0.500000  1
  O  O7  1  0.749939  0.250061  0.000000  1
