# generated using pymatgen
data_V4O5F7
_symmetry_space_group_name_H-M   'P 1'
_cell_length_a   5.18751515
_cell_length_b   5.31729992
_cell_length_c   9.06078973
_cell_angle_alpha   106.90572321
_cell_angle_beta   89.78802321
_cell_angle_gamma   118.19395427
_symmetry_Int_Tables_number   1
_chemical_formula_structural   V4O5F7
_chemical_formula_sum   'V4 O5 F7'
_cell_volume   208.09092420
_cell_formula_units_Z   1
loop_
 _symmetry_equiv_pos_site_id
 _symmetry_equiv_pos_as_xyz
  1  'x, y, z'
loop_
 _atom_site_type_symbol
 _atom_site_label
 _atom_site_symmetry_multiplicity
 _atom_site_fract_x
 _atom_site_fract_y
 _atom_site_fract_z
 _atom_site_occupancy
  V  V0  1  0.749542  0.218697  0.263807  1
  V  V1  1  0.527621  0.500602  0.497337  1
  V  V2  1  0.209763  0.743548  0.759020  1
  V  V3  1  0.975124  0.005118  0.004438  1
  O  O4  1  0.713973  0.891805  0.374812  1
  O  O5  1  0.840184  0.163968  0.079999  1
  O  O6  1  0.854445  0.597493  0.670794  1
  O  O7  1  0.172183  0.835490  0.911207  1
  O  O8  1  0.665052  0.349175  0.416800  1
  F  F9  1  0.338473  0.660376  0.584876  1
  F  F10  1  0.326321  0.072031  0.168827  1
  F  F11  1  0.778202  0.612155  0.120374  1
  F  F12  1  0.173367  0.430772  0.329556  1
  F  F13  1  0.285744  0.118946  0.624511  1
  F  F14  1  0.224323  0.379208  0.871517  1
  F  F15  1  0.665682  0.920617  0.822125  1
