# generated using pymatgen
data_Li3V5O12
_symmetry_space_group_name_H-M   'P 1'
_cell_length_a   6.90331454
_cell_length_b   6.90331454
_cell_length_c   5.78647555
_cell_angle_alpha   74.18605244
_cell_angle_beta   105.81394756
_cell_angle_gamma   97.87666469
_symmetry_Int_Tables_number   1
_chemical_formula_structural   Li3V5O12
_chemical_formula_sum   'Li3 V5 O12'
_cell_volume   254.69220648
_cell_formula_units_Z   1
loop_
 _symmetry_equiv_pos_site_id
 _symmetry_equiv_pos_as_xyz
  1  'x, y, z'
loop_
 _atom_site_type_symbol
 _atom_site_label
 _atom_site_symmetry_multiplicity
 _atom_site_fract_x
 _atom_site_fract_y
 _atom_site_fract_z
 _atom_site_occupancy
  Li  Li0  1  0.903966  0.903966  0.000000  1
  Li  Li1  1  0.746168  0.746168  0.500000  1
  Li  Li2  1  0.240826  0.240826  0.000000  1
  V  V3  1  0.389175  0.798047  0.013161  1
  V  V4  1  0.187414  0.608351  0.513022  1
  V  V5  1  0.798047  0.389175  0.986839  1
  V  V6  1  0.608351  0.187414  0.486978  1
  V  V7  1  0.084718  0.084718  0.500000  1
  O  O8  1  0.214447  0.983538  0.887074  1
  O  O9  1  0.626704  0.907350  0.054489  1
  O  O10  1  0.021929  0.807709  0.419376  1
  O  O11  1  0.357352  0.631542  0.818265  1
  O  O12  1  0.907350  0.626704  0.945511  1
  O  O13  1  0.371497  0.663218  0.315542  1
  O  O14  1  0.631542  0.357352  0.181735  1
  O  O15  1  0.104857  0.351194  0.574146  1
  O  O16  1  0.663218  0.371497  0.684458  1
  O  O17  1  0.983538  0.214447  0.112926  1
  O  O18  1  0.351194  0.104857  0.425854  1
  O  O19  1  0.807709  0.021929  0.580624  1
