# generated using pymatgen
data_Na8TiO6
_symmetry_space_group_name_H-M   'P 1'
_cell_length_a   11.64826316
_cell_length_b   11.64826316
_cell_length_c   11.67493527
_cell_angle_alpha   90.00000000
_cell_angle_beta   90.00000000
_cell_angle_gamma   120.00000000
_symmetry_Int_Tables_number   1
_chemical_formula_structural   Na8TiO6
_chemical_formula_sum   'Na48 Ti6 O36'
_cell_volume   1371.85263172
_cell_formula_units_Z   6
loop_
 _symmetry_equiv_pos_site_id
 _symmetry_equiv_pos_as_xyz
  1  'x, y, z'
loop_
 _atom_site_type_symbol
 _atom_site_label
 _atom_site_symmetry_multiplicity
 _atom_site_fract_x
 _atom_site_fract_y
 _atom_site_fract_z
 _atom_site_occupancy
  Na  Na0  1  0.000000  0.836047  0.962597  1
  Na  Na1  1  0.000000  0.521227  0.186762  1
  Na  Na2  1  0.142397  0.805439  0.304852  1
  Na  Na3  1  0.159943  0.775378  0.575417  1
  Na  Na4  1  0.194561  0.857603  0.804852  1
  Na  Na5  1  0.000000  0.478773  0.686762  1
  Na  Na6  1  0.224622  0.840057  0.075417  1
  Na  Na7  1  0.134893  0.588953  0.935158  1
  Na  Na8  1  0.134893  0.545940  0.435158  1
  Na  Na9  1  0.000000  0.163953  0.462597  1
  Na  Na10  1  0.411047  0.865107  0.435158  1
  Na  Na11  1  0.142397  0.336959  0.804852  1
  Na  Na12  1  0.159943  0.384565  0.075417  1
  Na  Na13  1  0.224622  0.384565  0.575417  1
  Na  Na14  1  0.194561  0.336959  0.304852  1
  Na  Na15  1  0.454060  0.865107  0.935158  1
  Na  Na16  1  0.163953  0.163953  0.962597  1
  Na  Na17  1  0.411047  0.545940  0.935158  1
  Na  Na18  1  0.163953  0.000000  0.462597  1
  Na  Na19  1  0.454060  0.588953  0.435158  1
  Na  Na20  1  0.615435  0.840057  0.575417  1
  Na  Na21  1  0.478773  0.478773  0.186762  1
  Na  Na22  1  0.663041  0.857603  0.304852  1
  Na  Na23  1  0.336959  0.194561  0.304852  1
  Na  Na24  1  0.615435  0.775378  0.075417  1
  Na  Na25  1  0.384565  0.224622  0.575417  1
  Na  Na26  1  0.663041  0.805439  0.804852  1
  Na  Na27  1  0.336959  0.142397  0.804852  1
  Na  Na28  1  0.521227  0.521227  0.686762  1
  Na  Na29  1  0.384565  0.159943  0.075417  1
  Na  Na30  1  0.545940  0.411047  0.935158  1
  Na  Na31  1  0.588953  0.454060  0.435158  1
  Na  Na32  1  0.836047  0.836047  0.462597  1
  Na  Na33  1  0.545940  0.134893  0.435158  1
  Na  Na34  1  0.478773  0.000000  0.686762  1
  Na  Na35  1  0.805439  0.663041  0.804852  1
  Na  Na36  1  0.775378  0.615435  0.075417  1
  Na  Na37  1  0.840057  0.615435  0.575417  1
  Na  Na38  1  0.857603  0.663041  0.304852  1
  Na  Na39  1  0.521227  0.000000  0.186762  1
  Na  Na40  1  0.588953  0.134893  0.935158  1
  Na  Na41  1  0.865107  0.454060  0.935158  1
  Na  Na42  1  0.865107  0.411047  0.435158  1
  Na  Na43  1  0.775378  0.159943  0.575417  1
  Na  Na44  1  0.805439  0.142397  0.304852  1
  Na  Na45  1  0.840057  0.224622  0.075417  1
  Na  Na46  1  0.857603  0.194561  0.804852  1
  Na  Na47  1  0.836047  0.000000  0.962597  1
  Ti  Ti48  1  0.333333  0.666667  0.193764  1
  Ti  Ti49  1  0.000000  0.000000  0.210074  1
  Ti  Ti50  1  0.000000  0.000000  0.710074  1
  Ti  Ti51  1  0.333333  0.666667  0.693764  1
  Ti  Ti52  1  0.666667  0.333333  0.693764  1
  Ti  Ti53  1  0.666667  0.333333  0.193764  1
  O  O54  1  0.000000  0.849946  0.762001  1
  O  O55  1  0.000000  0.659474  0.045939  1
  O  O56  1  0.000000  0.650365  0.435130  1
  O  O57  1  0.000000  0.349635  0.935130  1
  O  O58  1  0.185824  0.670745  0.743541  1
  O  O59  1  0.000000  0.340526  0.545939  1
  O  O60  1  0.329255  0.814176  0.243541  1
  O  O61  1  0.000000  0.150054  0.262001  1
  O  O62  1  0.185824  0.515079  0.243541  1
  O  O63  1  0.333333  0.666667  0.036199  1
  O  O64  1  0.333333  0.666667  0.536199  1
  O  O65  1  0.000000  0.000000  0.053617  1
  O  O66  1  0.000000  0.000000  0.553617  1
  O  O67  1  0.329255  0.515079  0.743541  1
  O  O68  1  0.150054  0.150054  0.762001  1
  O  O69  1  0.484921  0.814176  0.743541  1
  O  O70  1  0.340526  0.340526  0.045939  1
  O  O71  1  0.484921  0.670745  0.243541  1
  O  O72  1  0.349635  0.349635  0.435130  1
  O  O73  1  0.150054  0.000000  0.262001  1
  O  O74  1  0.650365  0.650365  0.935130  1
  O  O75  1  0.515079  0.329255  0.743541  1
  O  O76  1  0.659474  0.659474  0.545939  1
  O  O77  1  0.340526  0.000000  0.545939  1
  O  O78  1  0.349635  0.000000  0.935130  1
  O  O79  1  0.515079  0.185824  0.243541  1
  O  O80  1  0.849946  0.849946  0.262001  1
  O  O81  1  0.670745  0.484921  0.243541  1
  O  O82  1  0.666667  0.333333  0.536199  1
  O  O83  1  0.666667  0.333333  0.036199  1
  O  O84  1  0.814176  0.484921  0.743541  1
  O  O85  1  0.670745  0.185824  0.743541  1
  O  O86  1  0.650365  0.000000  0.435130  1
  O  O87  1  0.659474  0.000000  0.045939  1
  O  O88  1  0.814176  0.329255  0.243541  1
  O  O89  1  0.849946  0.000000  0.762001  1
