# generated using pymatgen
data_Li5Nb2V5O12
_symmetry_space_group_name_H-M   'P 1'
_cell_length_a   5.24921428
_cell_length_b   5.24921428
_cell_length_c   10.20038386
_cell_angle_alpha   84.60339495
_cell_angle_beta   95.39660505
_cell_angle_gamma   59.16424722
_symmetry_Int_Tables_number   1
_chemical_formula_structural   Li5Nb2V5O12
_chemical_formula_sum   'Li5 Nb2 V5 O12'
_cell_volume   236.91283280
_cell_formula_units_Z   1
loop_
 _symmetry_equiv_pos_site_id
 _symmetry_equiv_pos_as_xyz
  1  'x, y, z'
loop_
 _atom_site_type_symbol
 _atom_site_label
 _atom_site_symmetry_multiplicity
 _atom_site_fract_x
 _atom_site_fract_y
 _atom_site_fract_z
 _atom_site_occupancy
  Li  Li0  1  0.320546  0.835215  0.754817  1
  Li  Li1  1  0.175293  0.681976  0.242070  1
  Li  Li2  1  0.835215  0.320546  0.245183  1
  Li  Li3  1  0.681976  0.175293  0.757930  1
  Li  Li4  1  0.076913  0.076913  0.000000  1
  Nb  Nb5  1  0.748214  0.748214  0.000000  1
  Nb  Nb6  1  0.256710  0.256710  0.500000  1
  V  V7  1  0.496219  0.002189  0.243424  1
  V  V8  1  0.002189  0.496219  0.756576  1
  V  V9  1  0.568744  0.568744  0.500000  1
  V  V10  1  0.418329  0.418329  0.000000  1
  V  V11  1  0.921937  0.921937  0.500000  1
  O  O12  1  0.796958  0.025210  0.119767  1
  O  O13  1  0.025210  0.796958  0.880233  1
  O  O14  1  0.617999  0.877251  0.618141  1
  O  O15  1  0.877251  0.617999  0.381859  1
  O  O16  1  0.467398  0.708153  0.119355  1
  O  O17  1  0.708153  0.467398  0.880645  1
  O  O18  1  0.289620  0.542714  0.632449  1
  O  O19  1  0.542714  0.289620  0.367551  1
  O  O20  1  0.112449  0.385706  0.118524  1
  O  O21  1  0.385706  0.112449  0.881476  1
  O  O22  1  0.964347  0.209911  0.625840  1
  O  O23  1  0.209911  0.964347  0.374160  1
