# generated using pymatgen
data_Li3P3(WO6)2
_symmetry_space_group_name_H-M   'P 1'
_cell_length_a   9.26827582
_cell_length_b   9.26827582
_cell_length_c   9.26827582
_cell_angle_alpha   55.93929688
_cell_angle_beta   55.93929688
_cell_angle_gamma   55.93929688
_symmetry_Int_Tables_number   1
_chemical_formula_structural   Li3P3(WO6)2
_chemical_formula_sum   'Li6 P6 W4 O24'
_cell_volume   509.99036447
_cell_formula_units_Z   2
loop_
 _symmetry_equiv_pos_site_id
 _symmetry_equiv_pos_as_xyz
  1  'x, y, z'
loop_
 _atom_site_type_symbol
 _atom_site_label
 _atom_site_symmetry_multiplicity
 _atom_site_fract_x
 _atom_site_fract_y
 _atom_site_fract_z
 _atom_site_occupancy
  Li  Li0  1  0.660949  0.264097  0.924269  1
  Li  Li1  1  0.264097  0.924269  0.660949  1
  Li  Li2  1  0.924269  0.660949  0.264097  1
  Li  Li3  1  0.075731  0.339051  0.735903  1
  Li  Li4  1  0.735903  0.075731  0.339051  1
  Li  Li5  1  0.339051  0.735903  0.075731  1
  P  P6  1  0.250281  0.544329  0.957581  1
  P  P7  1  0.957581  0.250281  0.544329  1
  P  P8  1  0.544329  0.957581  0.250281  1
  P  P9  1  0.455671  0.042419  0.749719  1
  P  P10  1  0.042419  0.749719  0.455671  1
  P  P11  1  0.749719  0.455671  0.042419  1
  W  W12  1  0.653322  0.653322  0.653322  1
  W  W13  1  0.346678  0.346678  0.346678  1
  W  W14  1  0.855733  0.855733  0.855733  1
  W  W15  1  0.144267  0.144267  0.144267  1
  O  O16  1  0.796090  0.448893  0.852522  1
  O  O17  1  0.448893  0.852522  0.796090  1
  O  O18  1  0.852522  0.796090  0.448893  1
  O  O19  1  0.463356  0.501753  0.844080  1
  O  O20  1  0.137634  0.745289  0.854247  1
  O  O21  1  0.192928  0.399978  0.994220  1
  O  O22  1  0.854247  0.137634  0.745289  1
  O  O23  1  0.844080  0.463356  0.501753  1
  O  O24  1  0.501753  0.844080  0.463356  1
  O  O25  1  0.600022  0.005780  0.807072  1
  O  O26  1  0.254711  0.145753  0.862366  1
  O  O27  1  0.005780  0.807072  0.600022  1
  O  O28  1  0.994220  0.192928  0.399978  1
  O  O29  1  0.745289  0.854247  0.137634  1
  O  O30  1  0.399978  0.994220  0.192928  1
  O  O31  1  0.498247  0.155920  0.536644  1
  O  O32  1  0.155920  0.536644  0.498247  1
  O  O33  1  0.145753  0.862366  0.254711  1
  O  O34  1  0.807072  0.600022  0.005780  1
  O  O35  1  0.862366  0.254711  0.145753  1
  O  O36  1  0.536644  0.498247  0.155920  1
  O  O37  1  0.147478  0.203910  0.551107  1
  O  O38  1  0.551107  0.147478  0.203910  1
  O  O39  1  0.203910  0.551107  0.147478  1
