# generated using pymatgen
data_LiCr2(CO3)4
_symmetry_space_group_name_H-M   'P 1'
_cell_length_a   5.17864818
_cell_length_b   6.55048575
_cell_length_c   7.66545558
_cell_angle_alpha   88.75816158
_cell_angle_beta   88.34681087
_cell_angle_gamma   67.21238530
_symmetry_Int_Tables_number   1
_chemical_formula_structural   LiCr2(CO3)4
_chemical_formula_sum   'Li1 Cr2 C4 O12'
_cell_volume   239.62095891
_cell_formula_units_Z   1
loop_
 _symmetry_equiv_pos_site_id
 _symmetry_equiv_pos_as_xyz
  1  'x, y, z'
loop_
 _atom_site_type_symbol
 _atom_site_label
 _atom_site_symmetry_multiplicity
 _atom_site_fract_x
 _atom_site_fract_y
 _atom_site_fract_z
 _atom_site_occupancy
  Li  Li0  1  0.785436  0.834213  0.552866  1
  Cr  Cr1  1  0.996881  0.003392  0.001339  1
  Cr  Cr2  1  0.494871  0.489852  0.504967  1
  C  C3  1  0.749332  0.130939  0.268064  1
  C  C4  1  0.752939  0.361434  0.765876  1
  C  C5  1  0.240450  0.644516  0.242197  1
  C  C6  1  0.263908  0.866685  0.734277  1
  O  O7  1  0.635993  0.087330  0.131640  1
  O  O8  1  0.620947  0.175907  0.417501  1
  O  O9  1  0.497843  0.378584  0.753465  1
  O  O10  1  0.007393  0.110717  0.242648  1
  O  O11  1  0.890201  0.294638  0.910046  1
  O  O12  1  0.865668  0.417626  0.630211  1
  O  O13  1  0.106450  0.622570  0.382912  1
  O  O14  1  0.114117  0.710928  0.094515  1
  O  O15  1  0.003122  0.886531  0.748928  1
  O  O16  1  0.505680  0.589329  0.253523  1
  O  O17  1  0.413857  0.799647  0.593691  1
  O  O18  1  0.362158  0.921592  0.870193  1
