# generated using pymatgen
data_Ba2Ti6N2O11
_symmetry_space_group_name_H-M   'P 1'
_cell_length_a   8.00733083
_cell_length_b   8.00733083
_cell_length_c   9.27685720
_cell_angle_alpha   82.40058388
_cell_angle_beta   97.59941612
_cell_angle_gamma   151.72566164
_symmetry_Int_Tables_number   1
_chemical_formula_structural   Ba2Ti6N2O11
_chemical_formula_sum   'Ba2 Ti6 N2 O11'
_cell_volume   279.12418512
_cell_formula_units_Z   1
loop_
 _symmetry_equiv_pos_site_id
 _symmetry_equiv_pos_as_xyz
  1  'x, y, z'
loop_
 _atom_site_type_symbol
 _atom_site_label
 _atom_site_symmetry_multiplicity
 _atom_site_fract_x
 _atom_site_fract_y
 _atom_site_fract_z
 _atom_site_occupancy
  Ba  Ba0  1  0.548016  0.451984  0.774900  1
  Ba  Ba1  1  0.448399  0.551601  0.235961  1
  Ti  Ti2  1  0.114088  0.885912  0.094191  1
  Ti  Ti3  1  0.170512  0.829488  0.439228  1
  Ti  Ti4  1  0.239041  0.760959  0.771521  1
  Ti  Ti5  1  0.750371  0.249629  0.220095  1
  Ti  Ti6  1  0.831492  0.168508  0.559653  1
  Ti  Ti7  1  0.883612  0.116388  0.912169  1
  N  N8  1  0.639583  0.360417  0.110795  1
  N  N9  1  0.997528  0.002472  0.000347  1
  O  O10  1  0.074208  0.925792  0.303190  1
  O  O11  1  0.131638  0.868362  0.616964  1
  O  O12  1  0.167416  0.832584  0.907952  1
  O  O13  1  0.702123  0.297877  0.428529  1
  O  O14  1  0.756054  0.243946  0.753931  1
  O  O15  1  0.243211  0.756789  0.249807  1
  O  O16  1  0.297862  0.702138  0.570619  1
  O  O17  1  0.357630  0.642370  0.883329  1
  O  O18  1  0.831723  0.168277  0.088954  1
  O  O19  1  0.874781  0.125219  0.391341  1
  O  O20  1  0.924940  0.075060  0.704161  1
