# generated using pymatgen
data_Li5Cr3FeO8
_symmetry_space_group_name_H-M   'P 1'
_cell_length_a   8.44962802
_cell_length_b   8.60089419
_cell_length_c   8.61212597
_cell_angle_alpha   89.65186093
_cell_angle_beta   89.96140485
_cell_angle_gamma   89.95391562
_symmetry_Int_Tables_number   1
_chemical_formula_structural   Li5Cr3FeO8
_chemical_formula_sum   'Li20 Cr12 Fe4 O32'
_cell_volume   625.86881706
_cell_formula_units_Z   4
loop_
 _symmetry_equiv_pos_site_id
 _symmetry_equiv_pos_as_xyz
  1  'x, y, z'
loop_
 _atom_site_type_symbol
 _atom_site_label
 _atom_site_symmetry_multiplicity
 _atom_site_fract_x
 _atom_site_fract_y
 _atom_site_fract_z
 _atom_site_occupancy
  Li  Li0  1  0.100719  0.885706  0.123166  1
  Li  Li1  1  0.929557  0.456073  0.440966  1
  Li  Li2  1  0.883274  0.653246  0.633424  1
  Li  Li3  1  0.875006  0.866503  0.884266  1
  Li  Li4  1  0.869113  0.115587  0.096484  1
  Li  Li5  1  0.814255  0.303891  0.289482  1
  Li  Li6  1  0.652333  0.628554  0.859985  1
  Li  Li7  1  0.657960  0.838785  0.672483  1
  Li  Li8  1  0.616270  0.148868  0.353986  1
  Li  Li9  1  0.630873  0.353826  0.093164  1
  Li  Li10  1  0.522802  0.977075  0.507926  1
  Li  Li11  1  0.454461  0.556887  0.046760  1
  Li  Li12  1  0.405834  0.392563  0.863504  1
  Li  Li13  1  0.373964  0.147194  0.602317  1
  Li  Li14  1  0.342758  0.884955  0.354534  1
  Li  Li15  1  0.225988  0.242305  0.772764  1
  Li  Li16  1  0.305007  0.694708  0.188998  1
  Li  Li17  1  0.119104  0.656518  0.395646  1
  Li  Li18  1  0.129983  0.398576  0.601403  1
  Li  Li19  1  0.091602  0.078157  0.913032  1
  Cr  Cr20  1  0.876890  0.379425  0.867083  1
  Cr  Cr21  1  0.873538  0.884018  0.371486  1
  Cr  Cr22  1  0.875464  0.130522  0.620533  1
  Cr  Cr23  1  0.625616  0.380460  0.620526  1
  Cr  Cr24  1  0.374711  0.128146  0.120432  1
  Cr  Cr25  1  0.375262  0.876640  0.874953  1
  Cr  Cr26  1  0.375142  0.630757  0.622962  1
  Cr  Cr27  1  0.125002  0.628407  0.870937  1
  Cr  Cr28  1  0.124509  0.130568  0.370613  1
  Cr  Cr29  1  0.625502  0.879964  0.122931  1
  Cr  Cr30  1  0.625441  0.633119  0.374137  1
  Cr  Cr31  1  0.125048  0.377584  0.118100  1
  Fe  Fe32  1  0.875033  0.627637  0.123291  1
  Fe  Fe33  1  0.623264  0.124776  0.864853  1
  Fe  Fe34  1  0.374884  0.384620  0.366772  1
  Fe  Fe35  1  0.127043  0.885832  0.625962  1
  O  O36  1  0.882890  0.371259  0.100882  1
  O  O37  1  0.875780  0.893523  0.611241  1
  O  O38  1  0.883511  0.120745  0.382497  1
  O  O39  1  0.886798  0.618405  0.866626  1
  O  O40  1  0.866791  0.369163  0.630694  1
  O  O41  1  0.863789  0.884212  0.132920  1
  O  O42  1  0.867352  0.649885  0.379698  1
  O  O43  1  0.875243  0.139519  0.857194  1
  O  O44  1  0.633467  0.870059  0.359815  1
  O  O45  1  0.636001  0.384946  0.859325  1
  O  O46  1  0.629789  0.142327  0.613900  1
  O  O47  1  0.629450  0.642114  0.138330  1
  O  O48  1  0.616561  0.120581  0.120957  1
  O  O49  1  0.617066  0.618689  0.612785  1
  O  O50  1  0.617202  0.872065  0.888242  1
  O  O51  1  0.626528  0.392398  0.381609  1
  O  O52  1  0.369072  0.114543  0.882216  1
  O  O53  1  0.381656  0.889428  0.114061  1
  O  O54  1  0.380897  0.638406  0.387189  1
  O  O55  1  0.380063  0.386501  0.629417  1
  O  O56  1  0.370028  0.120800  0.364366  1
  O  O57  1  0.368587  0.637050  0.861036  1
  O  O58  1  0.370080  0.364680  0.113153  1
  O  O59  1  0.380554  0.869799  0.637526  1
  O  O60  1  0.124282  0.369970  0.358421  1
  O  O61  1  0.133502  0.863138  0.878586  1
  O  O62  1  0.133271  0.138446  0.132522  1
  O  O63  1  0.134238  0.629926  0.631332  1
  O  O64  1  0.120420  0.614102  0.108806  1
  O  O65  1  0.113530  0.892251  0.367264  1
  O  O66  1  0.120448  0.138278  0.607749  1
  O  O67  1  0.116947  0.390944  0.881391  1
