# generated using pymatgen
data_Fe10O11
_symmetry_space_group_name_H-M   'P 1'
_cell_length_a   6.81031972
_cell_length_b   6.89313153
_cell_length_c   10.75721587
_cell_angle_alpha   96.90542435
_cell_angle_beta   103.99551703
_cell_angle_gamma   108.13812566
_symmetry_Int_Tables_number   1
_chemical_formula_structural   Fe10O11
_chemical_formula_sum   'Fe20 O22'
_cell_volume   455.06357521
_cell_formula_units_Z   2
loop_
 _symmetry_equiv_pos_site_id
 _symmetry_equiv_pos_as_xyz
  1  'x, y, z'
loop_
 _atom_site_type_symbol
 _atom_site_label
 _atom_site_symmetry_multiplicity
 _atom_site_fract_x
 _atom_site_fract_y
 _atom_site_fract_z
 _atom_site_occupancy
  Fe  Fe0  1  0.500000  0.000000  0.500000  1
  Fe  Fe1  1  0.668272  0.912399  0.270387  1
  Fe  Fe2  1  0.500000  0.000000  0.000000  1
  Fe  Fe3  1  0.130956  0.178093  0.953103  1
  Fe  Fe4  1  0.331728  0.087601  0.729613  1
  Fe  Fe5  1  0.944731  0.259378  0.684859  1
  Fe  Fe6  1  0.142786  0.180539  0.451003  1
  Fe  Fe7  1  0.762125  0.360692  0.406408  1
  Fe  Fe8  1  0.966056  0.273159  0.186028  1
  Fe  Fe9  1  0.582563  0.442628  0.137312  1
  Fe  Fe10  1  0.774996  0.348923  0.908719  1
  Fe  Fe11  1  0.417437  0.557372  0.862688  1
  Fe  Fe12  1  0.593724  0.470581  0.641573  1
  Fe  Fe13  1  0.237875  0.639308  0.593592  1
  Fe  Fe14  1  0.406276  0.529419  0.358427  1
  Fe  Fe15  1  0.055269  0.740622  0.315141  1
  Fe  Fe16  1  0.225004  0.651077  0.091281  1
  Fe  Fe17  1  0.869044  0.821907  0.046897  1
  Fe  Fe18  1  0.033944  0.726841  0.813972  1
  Fe  Fe19  1  0.857214  0.819461  0.548997  1
  O  O20  1  0.077001  0.445693  0.378728  1
  O  O21  1  0.904074  0.532072  0.120073  1
  O  O22  1  0.095926  0.467928  0.879927  1
  O  O23  1  0.741860  0.624332  0.852952  1
  O  O24  1  0.922999  0.554307  0.621272  1
  O  O25  1  0.538866  0.719353  0.560154  1
  O  O26  1  0.735331  0.651668  0.337864  1
  O  O27  1  0.372814  0.802946  0.301734  1
  O  O28  1  0.552086  0.733399  0.078663  1
  O  O29  1  0.173228  0.890399  0.003625  1
  O  O30  1  0.340059  0.821252  0.794262  1
  O  O31  1  0.028788  0.000016  0.754824  1
  O  O32  1  0.182996  0.915719  0.533567  1
  O  O33  1  0.817004  0.084281  0.466433  1
  O  O34  1  0.971212  0.999984  0.245176  1
  O  O35  1  0.659941  0.178748  0.205738  1
  O  O36  1  0.826772  0.109601  0.996375  1
  O  O37  1  0.447914  0.266601  0.921337  1
  O  O38  1  0.627186  0.197054  0.698266  1
  O  O39  1  0.264669  0.348332  0.662136  1
  O  O40  1  0.461134  0.280647  0.439846  1
  O  O41  1  0.258140  0.375668  0.147048  1
