# generated using pymatgen
data_Hf2N2O
_symmetry_space_group_name_H-M   'P 1'
_cell_length_a   8.70968281
_cell_length_b   8.72005256
_cell_length_c   8.72509872
_cell_angle_alpha   109.36708400
_cell_angle_beta   109.35907482
_cell_angle_gamma   109.39046193
_symmetry_Int_Tables_number   1
_chemical_formula_structural   Hf2N2O
_chemical_formula_sum   'Hf16 N16 O8'
_cell_volume   511.97858349
_cell_formula_units_Z   8
loop_
 _symmetry_equiv_pos_site_id
 _symmetry_equiv_pos_as_xyz
  1  'x, y, z'
loop_
 _atom_site_type_symbol
 _atom_site_label
 _atom_site_symmetry_multiplicity
 _atom_site_fract_x
 _atom_site_fract_y
 _atom_site_fract_z
 _atom_site_occupancy
  Hf  Hf0  1  0.482709  0.991296  0.989692  1
  Hf  Hf1  1  0.723418  0.973671  0.753293  1
  Hf  Hf2  1  0.754892  0.716388  0.966950  1
  Hf  Hf3  1  0.249545  0.784961  0.534031  1
  Hf  Hf4  1  0.966622  0.258778  0.217156  1
  Hf  Hf5  1  0.458572  0.234092  0.700986  1
  Hf  Hf6  1  0.514230  0.500734  0.502255  1
  Hf  Hf7  1  0.994581  0.003846  0.490297  1
  Hf  Hf8  1  0.786624  0.542398  0.250980  1
  Hf  Hf9  1  0.012060  0.501510  0.001594  1
  Hf  Hf10  1  0.205171  0.469713  0.747946  1
  Hf  Hf11  1  0.538190  0.751038  0.282349  1
  Hf  Hf12  1  0.031388  0.749729  0.793324  1
  Hf  Hf13  1  0.252229  0.287445  0.037482  1
  Hf  Hf14  1  0.749083  0.209083  0.466535  1
  Hf  Hf15  1  0.289323  0.030708  0.248495  1
  N  N16  1  0.969377  0.225752  0.960209  1
  N  N17  1  0.518418  0.049344  0.775330  1
  N  N18  1  0.042566  0.534091  0.275550  1
  N  N19  1  0.224902  0.987672  0.457019  1
  N  N20  1  0.771772  0.009226  0.545571  1
  N  N21  1  0.539059  0.486830  0.267272  1
  N  N22  1  0.273435  0.726492  0.759056  1
  N  N23  1  0.764847  0.773220  0.227741  1
  N  N24  1  0.951356  0.464472  0.728332  1
  N  N25  1  0.260856  0.036751  0.988179  1
  N  N26  1  0.011992  0.237819  0.462939  1
  N  N27  1  0.273736  0.544369  0.032464  1
  N  N28  1  0.768450  0.738779  0.726346  1
  N  N29  1  0.488827  0.954616  0.224908  1
  N  N30  1  0.544021  0.274254  0.511858  1
  N  N31  1  0.030910  0.772112  0.048117  1
  O  O32  1  0.448629  0.721984  0.485358  1
  O  O33  1  0.229823  0.270075  0.277431  1
  O  O34  1  0.721255  0.455744  0.966855  1
  O  O35  1  0.985999  0.760497  0.534498  1
  O  O36  1  0.738880  0.964641  0.016365  1
  O  O37  1  0.239257  0.228791  0.773182  1
  O  O38  1  0.466499  0.507754  0.741255  1
  O  O39  1  0.726496  0.269323  0.230804  1
