# generated using pymatgen
data_FeP3H5NO10
_symmetry_space_group_name_H-M   'P 1'
_cell_length_a   7.45470763
_cell_length_b   7.45470763
_cell_length_c   9.46556865
_cell_angle_alpha   71.88824950
_cell_angle_beta   108.11175050
_cell_angle_gamma   110.00776482
_symmetry_Int_Tables_number   1
_chemical_formula_structural   FeP3H5NO10
_chemical_formula_sum   'Fe2 P6 H10 N2 O20'
_cell_volume   457.30589410
_cell_formula_units_Z   2
loop_
 _symmetry_equiv_pos_site_id
 _symmetry_equiv_pos_as_xyz
  1  'x, y, z'
loop_
 _atom_site_type_symbol
 _atom_site_label
 _atom_site_symmetry_multiplicity
 _atom_site_fract_x
 _atom_site_fract_y
 _atom_site_fract_z
 _atom_site_occupancy
  Fe  Fe0  1  0.000000  0.500000  0.500000  1
  Fe  Fe1  1  0.500000  0.000000  0.000000  1
  P  P2  1  0.277524  0.857093  0.295362  1
  P  P3  1  0.857093  0.277524  0.204638  1
  P  P4  1  0.722476  0.142907  0.704638  1
  P  P5  1  0.142907  0.722476  0.795362  1
  P  P6  1  0.875977  0.875977  0.250000  1
  P  P7  1  0.124023  0.124023  0.750000  1
  H  H8  1  0.679156  0.547272  0.740501  1
  H  H9  1  0.547272  0.679156  0.759499  1
  H  H10  1  0.320844  0.452728  0.259499  1
  H  H11  1  0.452728  0.320844  0.240501  1
  H  H12  1  0.565543  0.489910  0.343855  1
  H  H13  1  0.489910  0.565543  0.156145  1
  H  H14  1  0.434457  0.510090  0.656145  1
  H  H15  1  0.510090  0.434457  0.843855  1
  H  H16  1  0.000000  0.500000  0.000000  1
  H  H17  1  0.500000  0.000000  0.500000  1
  N  N18  1  0.456401  0.456401  0.250000  1
  N  N19  1  0.543599  0.543599  0.750000  1
  O  O20  1  0.069063  0.905547  0.197158  1
  O  O21  1  0.905547  0.069063  0.302842  1
  O  O22  1  0.930937  0.094453  0.802842  1
  O  O23  1  0.094453  0.930937  0.697158  1
  O  O24  1  0.230758  0.654087  0.402409  1
  O  O25  1  0.654087  0.230758  0.097591  1
  O  O26  1  0.769242  0.345913  0.597591  1
  O  O27  1  0.345913  0.769242  0.902409  1
  O  O28  1  0.386198  0.025716  0.377978  1
  O  O29  1  0.025716  0.386198  0.122022  1
  O  O30  1  0.613802  0.974284  0.622022  1
  O  O31  1  0.974284  0.613802  0.877978  1
  O  O32  1  0.372861  0.855959  0.175870  1
  O  O33  1  0.855959  0.372861  0.324130  1
  O  O34  1  0.627139  0.144041  0.824130  1
  O  O35  1  0.144041  0.627139  0.675870  1
  O  O36  1  0.854622  0.708854  0.389708  1
  O  O37  1  0.708854  0.854622  0.110292  1
  O  O38  1  0.145378  0.291146  0.610292  1
  O  O39  1  0.291146  0.145378  0.889708  1
