# generated using pymatgen
data_Li2FeO2F
_symmetry_space_group_name_H-M   'P 1'
_cell_length_a   2.96758869
_cell_length_b   2.96758869
_cell_length_c   14.50121540
_cell_angle_alpha   90.00000000
_cell_angle_beta   90.00000000
_cell_angle_gamma   120.00000000
_symmetry_Int_Tables_number   1
_chemical_formula_structural   Li2FeO2F
_chemical_formula_sum   'Li4 Fe2 O4 F2'
_cell_volume   110.59677180
_cell_formula_units_Z   2
loop_
 _symmetry_equiv_pos_site_id
 _symmetry_equiv_pos_as_xyz
  1  'x, y, z'
loop_
 _atom_site_type_symbol
 _atom_site_label
 _atom_site_symmetry_multiplicity
 _atom_site_fract_x
 _atom_site_fract_y
 _atom_site_fract_z
 _atom_site_occupancy
  Li  Li0  1  0.666667  0.333333  0.838801  1
  Li  Li1  1  0.333333  0.666667  0.161199  1
  Li  Li2  1  0.000000  0.000000  0.500000  1
  Li  Li3  1  0.000000  0.000000  0.000000  1
  Fe  Fe4  1  0.666667  0.333333  0.331289  1
  Fe  Fe5  1  0.333333  0.666667  0.668711  1
  O  O6  1  0.666667  0.333333  0.590629  1
  O  O7  1  0.333333  0.666667  0.409371  1
  O  O8  1  0.000000  0.000000  0.253137  1
  O  O9  1  0.000000  0.000000  0.746863  1
  F  F10  1  0.666667  0.333333  0.080956  1
  F  F11  1  0.333333  0.666667  0.919044  1
