# generated using pymatgen
data_Li2Mn2F7
_symmetry_space_group_name_H-M   'P 1'
_cell_length_a   5.51737310
_cell_length_b   5.51737310
_cell_length_c   10.69586103
_cell_angle_alpha   81.22409632
_cell_angle_beta   98.77590368
_cell_angle_gamma   75.11442595
_symmetry_Int_Tables_number   1
_chemical_formula_structural   Li2Mn2F7
_chemical_formula_sum   'Li4 Mn4 F14'
_cell_volume   304.65391866
_cell_formula_units_Z   2
loop_
 _symmetry_equiv_pos_site_id
 _symmetry_equiv_pos_as_xyz
  1  'x, y, z'
loop_
 _atom_site_type_symbol
 _atom_site_label
 _atom_site_symmetry_multiplicity
 _atom_site_fract_x
 _atom_site_fract_y
 _atom_site_fract_z
 _atom_site_occupancy
  Li  Li0  1  0.727819  0.634074  0.989852  1
  Li  Li1  1  0.634074  0.727819  0.510148  1
  Li  Li2  1  0.365926  0.272181  0.489852  1
  Li  Li3  1  0.272181  0.365926  0.010148  1
  Mn  Mn4  1  0.237072  0.736238  0.690528  1
  Mn  Mn5  1  0.263762  0.762928  0.190528  1
  Mn  Mn6  1  0.736238  0.237072  0.809472  1
  Mn  Mn7  1  0.762928  0.263762  0.309472  1
  F  F8  1  0.960534  0.624011  0.611738  1
  F  F9  1  0.421356  0.956960  0.610478  1
  F  F10  1  0.453324  0.494322  0.869797  1
  F  F11  1  0.375989  0.039466  0.111738  1
  F  F12  1  0.009462  0.009462  0.750000  1
  F  F13  1  0.043040  0.578644  0.110478  1
  F  F14  1  0.505678  0.546676  0.369797  1
  F  F15  1  0.494322  0.453324  0.630203  1
  F  F16  1  0.956960  0.421356  0.889522  1
  F  F17  1  0.990538  0.990538  0.250000  1
  F  F18  1  0.624011  0.960534  0.888262  1
  F  F19  1  0.546676  0.505678  0.130203  1
  F  F20  1  0.578644  0.043040  0.389522  1
  F  F21  1  0.039466  0.375989  0.388262  1
