# generated using pymatgen
data_K2LiFeO3
_symmetry_space_group_name_H-M   'P 1'
_cell_length_a   6.15141678
_cell_length_b   6.15141678
_cell_length_c   6.66369824
_cell_angle_alpha   90.00000000
_cell_angle_beta   90.00000000
_cell_angle_gamma   120.51737462
_symmetry_Int_Tables_number   1
_chemical_formula_structural   K2LiFeO3
_chemical_formula_sum   'K4 Li2 Fe2 O6'
_cell_volume   217.22430377
_cell_formula_units_Z   2
loop_
 _symmetry_equiv_pos_site_id
 _symmetry_equiv_pos_as_xyz
  1  'x, y, z'
loop_
 _atom_site_type_symbol
 _atom_site_label
 _atom_site_symmetry_multiplicity
 _atom_site_fract_x
 _atom_site_fract_y
 _atom_site_fract_z
 _atom_site_occupancy
  K  K0  1  0.250000  0.250000  1.000000  1
  K  K1  1  0.750000  0.750000  0.000000  1
  K  K2  1  0.750000  0.250000  0.660089  1
  K  K3  1  0.250000  0.750000  0.339911  1
  Li  Li4  1  0.250000  0.250000  0.500000  1
  Li  Li5  1  0.750000  0.750000  0.500000  1
  Fe  Fe6  1  0.750000  0.250000  0.179936  1
  Fe  Fe7  1  0.250000  0.750000  0.820064  1
  O  O8  1  0.399722  0.600278  0.669903  1
  O  O9  1  0.899722  0.100278  0.330097  1
  O  O10  1  0.600278  0.399722  0.330097  1
  O  O11  1  0.100278  0.899722  0.669903  1
  O  O12  1  0.000000  0.500000  0.000000  1
  O  O13  1  0.500000  0.000000  0.000000  1
