# generated using pymatgen
data_Ba6YBr15
_symmetry_space_group_name_H-M   'P 1'
_cell_length_a   11.26211464
_cell_length_b   11.26211464
_cell_length_c   32.37402213
_cell_angle_alpha   88.97506390
_cell_angle_beta   91.02493610
_cell_angle_gamma   88.62409571
_symmetry_Int_Tables_number   1
_chemical_formula_structural   Ba6YBr15
_chemical_formula_sum   'Ba24 Y4 Br60'
_cell_volume   4103.63652767
_cell_formula_units_Z   4
loop_
 _symmetry_equiv_pos_site_id
 _symmetry_equiv_pos_as_xyz
  1  'x, y, z'
loop_
 _atom_site_type_symbol
 _atom_site_label
 _atom_site_symmetry_multiplicity
 _atom_site_fract_x
 _atom_site_fract_y
 _atom_site_fract_z
 _atom_site_occupancy
  Ba  Ba0  1  0.015531  0.973678  0.617451  1
  Ba  Ba1  1  0.026322  0.984469  0.117451  1
  Ba  Ba2  1  0.947593  0.537291  0.638883  1
  Ba  Ba3  1  0.198954  0.748111  0.745834  1
  Ba  Ba4  1  0.462709  0.052407  0.138883  1
  Ba  Ba5  1  0.251889  0.801046  0.245834  1
  Ba  Ba6  1  0.448606  0.915501  0.630675  1
  Ba  Ba7  1  0.221379  0.673593  0.524776  1
  Ba  Ba8  1  0.084499  0.551394  0.130675  1
  Ba  Ba9  1  0.326407  0.778621  0.024776  1
  Ba  Ba10  1  0.397523  0.449536  0.645618  1
  Ba  Ba11  1  0.550464  0.602477  0.145618  1
  Ba  Ba12  1  0.449536  0.397523  0.854382  1
  Ba  Ba13  1  0.602477  0.550464  0.354382  1
  Ba  Ba14  1  0.673593  0.221379  0.975224  1
  Ba  Ba15  1  0.915501  0.448606  0.869325  1
  Ba  Ba16  1  0.778621  0.326407  0.475224  1
  Ba  Ba17  1  0.551394  0.084499  0.369325  1
  Ba  Ba18  1  0.748111  0.198954  0.754166  1
  Ba  Ba19  1  0.537291  0.947593  0.861117  1
  Ba  Ba20  1  0.801046  0.251889  0.254166  1
  Ba  Ba21  1  0.052407  0.462709  0.361117  1
  Ba  Ba22  1  0.973678  0.015531  0.882549  1
  Ba  Ba23  1  0.984469  0.026322  0.382549  1
  Y  Y24  1  0.240214  0.712925  0.887709  1
  Y  Y25  1  0.287075  0.759786  0.387709  1
  Y  Y26  1  0.712925  0.240214  0.612291  1
  Y  Y27  1  0.759786  0.287075  0.112291  1
  Br  Br28  1  0.174931  0.895257  0.946575  1
  Br  Br29  1  0.104743  0.825069  0.446575  1
  Br  Br30  1  0.217411  0.918839  0.831361  1
  Br  Br31  1  0.248580  0.947717  0.559653  1
  Br  Br32  1  0.081161  0.782589  0.331361  1
  Br  Br33  1  0.052283  0.751420  0.059653  1
  Br  Br34  1  0.457581  0.756639  0.934428  1
  Br  Br35  1  0.166444  0.486322  0.704319  1
  Br  Br36  1  0.243361  0.542419  0.434428  1
  Br  Br37  1  0.719097  0.981350  0.611575  1
  Br  Br38  1  0.513678  0.833556  0.204319  1
  Br  Br39  1  0.439371  0.686501  0.827538  1
  Br  Br40  1  0.018650  0.280903  0.111575  1
  Br  Br41  1  0.169341  0.440260  0.582726  1
  Br  Br42  1  0.441220  0.699789  0.698775  1
  Br  Br43  1  0.254412  0.499848  0.931319  1
  Br  Br44  1  0.735056  0.969937  0.933421  1
  Br  Br45  1  0.991368  0.226591  0.812095  1
  Br  Br46  1  0.313499  0.560629  0.327538  1
  Br  Br47  1  0.559740  0.830659  0.082726  1
  Br  Br48  1  0.300211  0.558780  0.198775  1
  Br  Br49  1  0.500152  0.745588  0.431319  1
  Br  Br50  1  0.030063  0.264944  0.433421  1
  Br  Br51  1  0.773409  0.008632  0.312095  1
  Br  Br52  1  0.168178  0.541832  0.822211  1
  Br  Br53  1  0.459424  0.660753  0.580747  1
  Br  Br54  1  0.780612  0.949490  0.807410  1
  Br  Br55  1  0.458168  0.831822  0.322211  1
  Br  Br56  1  0.339247  0.540576  0.080747  1
  Br  Br57  1  0.050510  0.219388  0.307410  1
  Br  Br58  1  0.949490  0.780612  0.692590  1
  Br  Br59  1  0.660753  0.459424  0.919253  1
  Br  Br60  1  0.541832  0.168178  0.677789  1
  Br  Br61  1  0.219388  0.050510  0.192590  1
  Br  Br62  1  0.540576  0.339247  0.419253  1
  Br  Br63  1  0.831822  0.458168  0.177789  1
  Br  Br64  1  0.226591  0.991368  0.687905  1
  Br  Br65  1  0.969937  0.735056  0.566579  1
  Br  Br66  1  0.499848  0.254412  0.568681  1
  Br  Br67  1  0.699789  0.441220  0.801225  1
  Br  Br68  1  0.440260  0.169341  0.917274  1
  Br  Br69  1  0.686501  0.439371  0.672462  1
  Br  Br70  1  0.008632  0.773409  0.187905  1
  Br  Br71  1  0.264944  0.030063  0.066579  1
  Br  Br72  1  0.745588  0.500152  0.068681  1
  Br  Br73  1  0.558780  0.300211  0.301225  1
  Br  Br74  1  0.830659  0.559740  0.417274  1
  Br  Br75  1  0.981350  0.719097  0.888425  1
  Br  Br76  1  0.560629  0.313499  0.172462  1
  Br  Br77  1  0.486322  0.166444  0.795681  1
  Br  Br78  1  0.280903  0.018650  0.388425  1
  Br  Br79  1  0.756639  0.457581  0.565572  1
  Br  Br80  1  0.833556  0.513678  0.295681  1
  Br  Br81  1  0.542419  0.243361  0.065572  1
  Br  Br82  1  0.947717  0.248580  0.940347  1
  Br  Br83  1  0.918839  0.217411  0.668639  1
  Br  Br84  1  0.751420  0.052283  0.440347  1
  Br  Br85  1  0.782589  0.081161  0.168639  1
  Br  Br86  1  0.895257  0.174931  0.553425  1
  Br  Br87  1  0.825069  0.104743  0.053425  1
