# generated using pymatgen
data_SbO2F
_symmetry_space_group_name_H-M   'P 1'
_cell_length_a   5.10515920
_cell_length_b   5.10515920
_cell_length_c   5.55783131
_cell_angle_alpha   60.63550637
_cell_angle_beta   119.36449363
_cell_angle_gamma   118.29166806
_symmetry_Int_Tables_number   1
_chemical_formula_structural   SbO2F
_chemical_formula_sum   'Sb2 O4 F2'
_cell_volume   104.69311951
_cell_formula_units_Z   2
loop_
 _symmetry_equiv_pos_site_id
 _symmetry_equiv_pos_as_xyz
  1  'x, y, z'
loop_
 _atom_site_type_symbol
 _atom_site_label
 _atom_site_symmetry_multiplicity
 _atom_site_fract_x
 _atom_site_fract_y
 _atom_site_fract_z
 _atom_site_occupancy
  Sb  Sb0  1  0.311674  0.251616  0.850602  1
  Sb  Sb1  1  0.748384  0.688326  0.350602  1
  O  O2  1  0.904157  0.324441  0.589141  1
  O  O3  1  0.538053  0.616745  0.598154  1
  O  O4  1  0.675559  0.095843  0.089141  1
  O  O5  1  0.383255  0.461947  0.098154  1
  F  F6  1  0.155216  0.958728  0.598455  1
  F  F7  1  0.041272  0.844784  0.098455  1
