# generated using pymatgen
data_LiCr3Ni(SO4)6
_symmetry_space_group_name_H-M   'P 1'
_cell_length_a   8.28422580
_cell_length_b   8.30008304
_cell_length_c   8.85890230
_cell_angle_alpha   62.12890227
_cell_angle_beta   62.33770402
_cell_angle_gamma   60.24231261
_symmetry_Int_Tables_number   1
_chemical_formula_structural   LiCr3Ni(SO4)6
_chemical_formula_sum   'Li1 Cr3 Ni1 S6 O24'
_cell_volume   445.55193893
_cell_formula_units_Z   1
loop_
 _symmetry_equiv_pos_site_id
 _symmetry_equiv_pos_as_xyz
  1  'x, y, z'
loop_
 _atom_site_type_symbol
 _atom_site_label
 _atom_site_symmetry_multiplicity
 _atom_site_fract_x
 _atom_site_fract_y
 _atom_site_fract_z
 _atom_site_occupancy
  Li  Li0  1  0.766528  0.424236  0.626374  1
  Cr  Cr1  1  0.353857  0.351251  0.937121  1
  Cr  Cr2  1  0.642315  0.644832  0.068943  1
  Cr  Cr3  1  0.850669  0.853098  0.449575  1
  Ni  Ni4  1  0.160042  0.146185  0.543828  1
  S  S5  1  0.037823  0.466627  0.748941  1
  S  S6  1  0.538425  0.253519  0.251540  1
  S  S7  1  0.254238  0.955415  0.251968  1
  S  S8  1  0.750748  0.037108  0.748691  1
  S  S9  1  0.460905  0.747475  0.751694  1
  S  S10  1  0.956771  0.542356  0.249820  1
  O  O11  1  0.300708  0.105484  0.077317  1
  O  O12  1  0.108005  0.509228  0.081867  1
  O  O13  1  0.003464  0.337618  0.703544  1
  O  O14  1  0.025152  0.657818  0.604203  1
  O  O15  1  0.350266  0.286618  0.391795  1
  O  O16  1  0.047373  0.985057  0.293223  1
  O  O17  1  0.516051  0.299979  0.076460  1
  O  O18  1  0.235676  0.376632  0.767088  1
  O  O19  1  0.674405  0.047694  0.294564  1
  O  O20  1  0.380883  0.759074  0.230072  1
  O  O21  1  0.629627  0.381724  0.229371  1
  O  O22  1  0.288161  0.968956  0.393024  1
  O  O23  1  0.714047  0.025205  0.605208  1
  O  O24  1  0.382986  0.611512  0.766659  1
  O  O25  1  0.620452  0.240442  0.763561  1
  O  O26  1  0.333495  0.949597  0.705142  1
  O  O27  1  0.760042  0.631227  0.228794  1
  O  O28  1  0.490539  0.693281  0.922965  1
  O  O29  1  0.952118  0.013563  0.706000  1
  O  O30  1  0.657807  0.708888  0.606794  1
  O  O31  1  0.962597  0.357124  0.400952  1
  O  O32  1  0.984801  0.678203  0.291671  1
  O  O33  1  0.891846  0.493632  0.921397  1
  O  O34  1  0.691378  0.896441  0.922436  1
