# generated using pymatgen
data_AsH18N3O7
_symmetry_space_group_name_H-M   'P 1'
_cell_length_a   6.79066662
_cell_length_b   6.36618225
_cell_length_c   23.13277791
_cell_angle_alpha   90.00000000
_cell_angle_beta   94.06229345
_cell_angle_gamma   90.00000000
_symmetry_Int_Tables_number   1
_chemical_formula_structural   AsH18N3O7
_chemical_formula_sum   'As4 H72 N12 O28'
_cell_volume   997.53186944
_cell_formula_units_Z   4
loop_
 _symmetry_equiv_pos_site_id
 _symmetry_equiv_pos_as_xyz
  1  'x, y, z'
loop_
 _atom_site_type_symbol
 _atom_site_label
 _atom_site_symmetry_multiplicity
 _atom_site_fract_x
 _atom_site_fract_y
 _atom_site_fract_z
 _atom_site_occupancy
  As  As0  1  0.209521  0.860045  0.842958  1
  As  As1  1  0.790479  0.360045  0.657042  1
  As  As2  1  0.790479  0.139955  0.157042  1
  As  As3  1  0.209521  0.639955  0.342958  1
  H  H4  1  0.255251  0.891394  0.640077  1
  H  H5  1  0.744749  0.391394  0.859923  1
  H  H6  1  0.744749  0.108606  0.359923  1
  H  H7  1  0.255251  0.608606  0.140077  1
  H  H8  1  0.019682  0.969981  0.657812  1
  H  H9  1  0.980318  0.469981  0.842188  1
  H  H10  1  0.980318  0.030019  0.342188  1
  H  H11  1  0.019682  0.530019  0.157812  1
  H  H12  1  0.801579  0.888908  0.784716  1
  H  H13  1  0.198421  0.388908  0.715284  1
  H  H14  1  0.198421  0.111092  0.215284  1
  H  H15  1  0.801579  0.611092  0.284716  1
  H  H16  1  0.719143  0.960852  0.715479  1
  H  H17  1  0.280857  0.460852  0.784521  1
  H  H18  1  0.280857  0.039148  0.284521  1
  H  H19  1  0.719143  0.539148  0.215479  1
  H  H20  1  0.131537  0.724444  0.010074  1
  H  H21  1  0.868463  0.224444  0.489926  1
  H  H22  1  0.868463  0.275556  0.989926  1
  H  H23  1  0.131537  0.775556  0.510074  1
  H  H24  1  0.367470  0.658504  0.028380  1
  H  H25  1  0.632530  0.158504  0.471620  1
  H  H26  1  0.632530  0.341496  0.971620  1
  H  H27  1  0.367470  0.841496  0.528380  1
  H  H28  1  0.827548  0.799068  0.993983  1
  H  H29  1  0.172452  0.299068  0.506017  1
  H  H30  1  0.172452  0.200932  0.006017  1
  H  H31  1  0.827548  0.700932  0.493983  1
  H  H32  1  0.592922  0.950639  0.617188  1
  H  H33  1  0.407078  0.450639  0.882812  1
  H  H34  1  0.407078  0.049361  0.382812  1
  H  H35  1  0.592922  0.549361  0.117188  1
  H  H36  1  0.829179  0.882440  0.896356  1
  H  H37  1  0.170821  0.382440  0.603644  1
  H  H38  1  0.170821  0.117560  0.103644  1
  H  H39  1  0.829179  0.617560  0.396356  1
  H  H40  1  0.196503  0.888931  0.710220  1
  H  H41  1  0.803497  0.388931  0.789780  1
  H  H42  1  0.803497  0.111069  0.289780  1
  H  H43  1  0.196503  0.611069  0.210220  1
  H  H44  1  0.090673  0.711606  0.661502  1
  H  H45  1  0.909327  0.211606  0.838498  1
  H  H46  1  0.909327  0.288394  0.338498  1
  H  H47  1  0.090673  0.788394  0.161502  1
  H  H48  1  0.551145  0.893604  0.765055  1
  H  H49  1  0.448855  0.393604  0.734945  1
  H  H50  1  0.448855  0.106396  0.234945  1
  H  H51  1  0.551145  0.606396  0.265055  1
  H  H52  1  0.696417  0.704948  0.736891  1
  H  H53  1  0.303583  0.204948  0.763109  1
  H  H54  1  0.303583  0.295052  0.263109  1
  H  H55  1  0.696417  0.795052  0.236891  1
  H  H56  1  0.304076  0.775951  0.961200  1
  H  H57  1  0.695924  0.275951  0.538800  1
  H  H58  1  0.695924  0.224049  0.038800  1
  H  H59  1  0.304076  0.724049  0.461200  1
  H  H60  1  0.230355  0.523485  0.975608  1
  H  H61  1  0.769645  0.023485  0.524392  1
  H  H62  1  0.769645  0.476515  0.024392  1
  H  H63  1  0.230355  0.976515  0.475608  1
  H  H64  1  0.832124  0.848587  0.060900  1
  H  H65  1  0.167876  0.348587  0.439100  1
  H  H66  1  0.167876  0.151413  0.939100  1
  H  H67  1  0.832124  0.651413  0.560900  1
  H  H68  1  0.559074  0.707099  0.604133  1
  H  H69  1  0.440926  0.207099  0.895867  1
  H  H70  1  0.440926  0.292901  0.395867  1
  H  H71  1  0.559074  0.792901  0.104133  1
  H  H72  1  0.605374  0.893656  0.915913  1
  H  H73  1  0.394626  0.393656  0.584087  1
  H  H74  1  0.394626  0.106344  0.084087  1
  H  H75  1  0.605374  0.606344  0.415913  1
  N  N76  1  0.140587  0.868326  0.666965  1
  N  N77  1  0.859413  0.368326  0.833035  1
  N  N78  1  0.859413  0.131674  0.333035  1
  N  N79  1  0.140587  0.631674  0.166965  1
  N  N80  1  0.692072  0.862925  0.750749  1
  N  N81  1  0.307928  0.362925  0.749251  1
  N  N82  1  0.307928  0.137075  0.249251  1
  N  N83  1  0.692072  0.637075  0.250749  1
  N  N84  1  0.262101  0.671376  0.993303  1
  N  N85  1  0.737899  0.171376  0.506697  1
  N  N86  1  0.737899  0.328624  0.006697  1
  N  N87  1  0.262101  0.828624  0.493303  1
  O  O88  1  0.308668  0.941678  0.780118  1
  O  O89  1  0.691332  0.441678  0.719882  1
  O  O90  1  0.691332  0.058322  0.219882  1
  O  O91  1  0.308668  0.558322  0.280118  1
  O  O92  1  0.339875  0.964402  0.903473  1
  O  O93  1  0.660125  0.464402  0.596527  1
  O  O94  1  0.660125  0.035598  0.096527  1
  O  O95  1  0.339875  0.535598  0.403473  1
  O  O96  1  0.214332  0.590228  0.847782  1
  O  O97  1  0.785668  0.090228  0.652218  1
  O  O98  1  0.785668  0.409772  0.152218  1
  O  O99  1  0.214332  0.909772  0.347782  1
  O  O100  1  0.968793  0.947283  0.842167  1
  O  O101  1  0.031207  0.447283  0.657833  1
  O  O102  1  0.031207  0.052717  0.157833  1
  O  O103  1  0.968793  0.552717  0.342167  1
  O  O104  1  0.885773  0.749495  0.032930  1
  O  O105  1  0.114227  0.249495  0.467070  1
  O  O106  1  0.114227  0.250505  0.967070  1
  O  O107  1  0.885773  0.750505  0.532930  1
  O  O108  1  0.491248  0.847482  0.601708  1
  O  O109  1  0.508752  0.347482  0.898292  1
  O  O110  1  0.508752  0.152518  0.398292  1
  O  O111  1  0.491248  0.652518  0.101708  1
  O  O112  1  0.740391  0.846026  0.927809  1
  O  O113  1  0.259609  0.346026  0.572191  1
  O  O114  1  0.259609  0.153974  0.072191  1
  O  O115  1  0.740391  0.653974  0.427809  1
