# generated using pymatgen
data_CrInO3
_symmetry_space_group_name_H-M   'P 1'
_cell_length_a   5.24029320
_cell_length_b   5.45271220
_cell_length_c   7.71516628
_cell_angle_alpha   90.00000000
_cell_angle_beta   90.00000000
_cell_angle_gamma   90.00000000
_symmetry_Int_Tables_number   1
_chemical_formula_structural   CrInO3
_chemical_formula_sum   'Cr4 In4 O12'
_cell_volume   220.45170052
_cell_formula_units_Z   4
loop_
 _symmetry_equiv_pos_site_id
 _symmetry_equiv_pos_as_xyz
  1  'x, y, z'
loop_
 _atom_site_type_symbol
 _atom_site_label
 _atom_site_symmetry_multiplicity
 _atom_site_fract_x
 _atom_site_fract_y
 _atom_site_fract_z
 _atom_site_occupancy
  Cr  Cr0  1  0.500000  0.500000  0.500000  1
  Cr  Cr1  1  0.500000  0.500000  0.000000  1
  Cr  Cr2  1  0.000000  0.000000  0.500000  1
  Cr  Cr3  1  0.000000  0.000000  0.000000  1
  In  In4  1  0.523320  0.938694  0.250000  1
  In  In5  1  0.976680  0.438694  0.250000  1
  In  In6  1  0.023320  0.561306  0.750000  1
  In  In7  1  0.476680  0.061306  0.750000  1
  O  O8  1  0.627076  0.442288  0.750000  1
  O  O9  1  0.694937  0.198257  0.068728  1
  O  O10  1  0.694937  0.198257  0.431272  1
  O  O11  1  0.805063  0.698257  0.068728  1
  O  O12  1  0.805063  0.698257  0.431272  1
  O  O13  1  0.872924  0.942288  0.750000  1
  O  O14  1  0.127076  0.057712  0.250000  1
  O  O15  1  0.194937  0.301743  0.568728  1
  O  O16  1  0.194937  0.301743  0.931272  1
  O  O17  1  0.305063  0.801743  0.568728  1
  O  O18  1  0.305063  0.801743  0.931272  1
  O  O19  1  0.372924  0.557712  0.250000  1
