# generated using pymatgen
data_Li4Cr3NiO8
_symmetry_space_group_name_H-M   'P 1'
_cell_length_a   5.10062736
_cell_length_b   5.11077826
_cell_length_c   5.87826618
_cell_angle_alpha   90.10517838
_cell_angle_beta   106.67186941
_cell_angle_gamma   99.52520603
_symmetry_Int_Tables_number   1
_chemical_formula_structural   Li4Cr3NiO8
_chemical_formula_sum   'Li4 Cr3 Ni1 O8'
_cell_volume   144.57298274
_cell_formula_units_Z   1
loop_
 _symmetry_equiv_pos_site_id
 _symmetry_equiv_pos_as_xyz
  1  'x, y, z'
loop_
 _atom_site_type_symbol
 _atom_site_label
 _atom_site_symmetry_multiplicity
 _atom_site_fract_x
 _atom_site_fract_y
 _atom_site_fract_z
 _atom_site_occupancy
  Li  Li0  1  0.494712  0.748032  0.871687  1
  Li  Li1  1  0.505288  0.251968  0.128313  1
  Li  Li2  1  0.500295  0.746021  0.377644  1
  Li  Li3  1  0.499705  0.253979  0.622356  1
  Cr  Cr4  1  0.000000  0.500000  0.000000  1
  Cr  Cr5  1  0.998435  0.997333  0.252071  1
  Cr  Cr6  1  0.001565  0.002667  0.747929  1
  Ni  Ni7  1  0.000000  0.500000  0.500000  1
  O  O8  1  0.223271  0.869994  0.054066  1
  O  O9  1  0.776729  0.130006  0.945934  1
  O  O10  1  0.222792  0.369133  0.304024  1
  O  O11  1  0.771363  0.635441  0.186581  1
  O  O12  1  0.230221  0.881912  0.555220  1
  O  O13  1  0.769779  0.118088  0.444780  1
  O  O14  1  0.228637  0.364559  0.813419  1
  O  O15  1  0.777208  0.630867  0.695976  1
