# generated using pymatgen
data_Li2Ti6Zn3O16
_symmetry_space_group_name_H-M   'P 1'
_cell_length_a   8.45611331
_cell_length_b   8.46251578
_cell_length_c   8.46209931
_cell_angle_alpha   90.00000000
_cell_angle_beta   90.44366890
_cell_angle_gamma   90.00000000
_symmetry_Int_Tables_number   1
_chemical_formula_structural   Li2Ti6Zn3O16
_chemical_formula_sum   'Li4 Ti12 Zn6 O32'
_cell_volume   605.52960734
_cell_formula_units_Z   2
loop_
 _symmetry_equiv_pos_site_id
 _symmetry_equiv_pos_as_xyz
  1  'x, y, z'
loop_
 _atom_site_type_symbol
 _atom_site_label
 _atom_site_symmetry_multiplicity
 _atom_site_fract_x
 _atom_site_fract_y
 _atom_site_fract_z
 _atom_site_occupancy
  Li  Li0  1  0.746980  0.504428  0.501989  1
  Li  Li1  1  0.625654  0.375429  0.125420  1
  Li  Li2  1  0.374346  0.875429  0.874580  1
  Li  Li3  1  0.253020  0.004428  0.498011  1
  Ti  Ti4  1  0.131118  0.866199  0.134367  1
  Ti  Ti5  1  0.123030  0.115487  0.858956  1
  Ti  Ti6  1  0.111284  0.372843  0.612387  1
  Ti  Ti7  1  0.888716  0.872843  0.387613  1
  Ti  Ti8  1  0.876970  0.615487  0.141044  1
  Ti  Ti9  1  0.868882  0.366199  0.865633  1
  Ti  Ti10  1  0.634891  0.137916  0.381831  1
  Ti  Ti11  1  0.624919  0.880736  0.629032  1
  Ti  Ti12  1  0.619130  0.625106  0.876371  1
  Ti  Ti13  1  0.380870  0.125106  0.123629  1
  Ti  Ti14  1  0.375081  0.380736  0.370968  1
  Ti  Ti15  1  0.365109  0.637916  0.618169  1
  Zn  Zn16  1  0.247795  0.499041  0.996155  1
  Zn  Zn17  1  0.001411  0.244924  0.246210  1
  Zn  Zn18  1  0.998589  0.744924  0.753790  1
  Zn  Zn19  1  0.752205  0.999041  0.003845  1
  Zn  Zn20  1  0.505521  0.751253  0.252010  1
  Zn  Zn21  1  0.494479  0.251253  0.747990  1
  O  O22  1  0.146317  0.606151  0.640079  1
  O  O23  1  0.142102  0.361778  0.392600  1
  O  O24  1  0.140716  0.110024  0.112401  1
  O  O25  1  0.137290  0.145541  0.645897  1
  O  O26  1  0.121784  0.893699  0.889020  1
  O  O27  1  0.110530  0.361145  0.863715  1
  O  O28  1  0.108403  0.645053  0.112694  1
  O  O29  1  0.105517  0.887049  0.356784  1
  O  O30  1  0.894483  0.387049  0.643216  1
  O  O31  1  0.891597  0.145053  0.887306  1
  O  O32  1  0.889470  0.861145  0.136285  1
  O  O33  1  0.878216  0.393699  0.110980  1
  O  O34  1  0.862710  0.645541  0.354103  1
  O  O35  1  0.859284  0.610024  0.887599  1
  O  O36  1  0.857898  0.861778  0.607400  1
  O  O37  1  0.853683  0.106151  0.359921  1
  O  O38  1  0.641812  0.388352  0.872979  1
  O  O39  1  0.640201  0.628668  0.105089  1
  O  O40  1  0.637172  0.888763  0.390802  1
  O  O41  1  0.628458  0.861876  0.857752  1
  O  O42  1  0.611737  0.105440  0.609159  1
  O  O43  1  0.609313  0.640690  0.643177  1
  O  O44  1  0.609195  0.355603  0.377012  1
  O  O45  1  0.605807  0.121824  0.138285  1
  O  O46  1  0.394193  0.621824  0.861715  1
  O  O47  1  0.390805  0.855603  0.622988  1
  O  O48  1  0.390687  0.140690  0.356823  1
  O  O49  1  0.388263  0.605440  0.390841  1
  O  O50  1  0.371542  0.361876  0.142248  1
  O  O51  1  0.362828  0.388763  0.609198  1
  O  O52  1  0.359799  0.128668  0.894911  1
  O  O53  1  0.358188  0.888352  0.127021  1
