# generated using pymatgen
data_Cr3Co3(TeO8)2
_symmetry_space_group_name_H-M   'P 1'
_cell_length_a   5.81457169
_cell_length_b   5.81457169
_cell_length_c   9.11825660
_cell_angle_alpha   88.64864411
_cell_angle_beta   91.35135589
_cell_angle_gamma   119.72845835
_symmetry_Int_Tables_number   1
_chemical_formula_structural   Cr3Co3(TeO8)2
_chemical_formula_sum   'Cr3 Co3 Te2 O16'
_cell_volume   267.60745512
_cell_formula_units_Z   1
loop_
 _symmetry_equiv_pos_site_id
 _symmetry_equiv_pos_as_xyz
  1  'x, y, z'
loop_
 _atom_site_type_symbol
 _atom_site_label
 _atom_site_symmetry_multiplicity
 _atom_site_fract_x
 _atom_site_fract_y
 _atom_site_fract_z
 _atom_site_occupancy
  Cr  Cr0  1  0.660919  0.826580  0.217077  1
  Cr  Cr1  1  0.173420  0.339081  0.217077  1
  Cr  Cr2  1  0.831673  0.168327  0.718931  1
  Co  Co3  1  0.173160  0.826840  0.212285  1
  Co  Co4  1  0.830387  0.655828  0.712663  1
  Co  Co5  1  0.344172  0.169613  0.712663  1
  Te  Te6  1  0.330280  0.669720  0.493871  1
  Te  Te7  1  0.664093  0.335907  0.989648  1
  O  O8  1  0.667353  0.835020  0.596730  1
  O  O9  1  0.481049  0.518951  0.351416  1
  O  O10  1  0.331017  0.668983  0.108246  1
  O  O11  1  0.007354  0.992646  0.298105  1
  O  O12  1  0.006088  0.993912  0.797148  1
  O  O13  1  0.164980  0.332647  0.596730  1
  O  O14  1  0.473868  0.963003  0.340835  1
  O  O15  1  0.036997  0.526132  0.340835  1
  O  O16  1  0.831120  0.168880  0.096020  1
  O  O17  1  0.162629  0.837371  0.596901  1
  O  O18  1  0.962058  0.486062  0.842991  1
  O  O19  1  0.513938  0.037942  0.842991  1
  O  O20  1  0.664119  0.335881  0.611955  1
  O  O21  1  0.833314  0.666312  0.094666  1
  O  O22  1  0.518481  0.481519  0.831368  1
  O  O23  1  0.333688  0.166686  0.094666  1
