# generated using pymatgen
data_Li4Nb3Fe3(TeO8)2
_symmetry_space_group_name_H-M   'P 1'
_cell_length_a   6.26615052
_cell_length_b   6.26615052
_cell_length_c   10.50071995
_cell_angle_alpha   89.58766804
_cell_angle_beta   90.41233196
_cell_angle_gamma   121.96686755
_symmetry_Int_Tables_number   1
_chemical_formula_structural   Li4Nb3Fe3(TeO8)2
_chemical_formula_sum   'Li4 Nb3 Fe3 Te2 O16'
_cell_volume   349.77062028
_cell_formula_units_Z   1
loop_
 _symmetry_equiv_pos_site_id
 _symmetry_equiv_pos_as_xyz
  1  'x, y, z'
loop_
 _atom_site_type_symbol
 _atom_site_label
 _atom_site_symmetry_multiplicity
 _atom_site_fract_x
 _atom_site_fract_y
 _atom_site_fract_z
 _atom_site_occupancy
  Li  Li0  1  0.669645  0.330355  0.903803  1
  Li  Li1  1  0.002338  0.997662  0.996663  1
  Li  Li2  1  0.999075  0.000925  0.483790  1
  Li  Li3  1  0.339541  0.660459  0.403487  1
  Nb  Nb4  1  0.818965  0.181035  0.234927  1
  Nb  Nb5  1  0.164405  0.350632  0.720737  1
  Nb  Nb6  1  0.649368  0.835595  0.720737  1
  Fe  Fe7  1  0.342571  0.169890  0.213887  1
  Fe  Fe8  1  0.830110  0.657429  0.213887  1
  Fe  Fe9  1  0.166367  0.833633  0.706270  1
  Te  Te10  1  0.644086  0.355914  0.495913  1
  Te  Te11  1  0.329875  0.670125  0.017264  1
  O  O12  1  0.318377  0.174309  0.591302  1
  O  O13  1  0.523354  0.476646  0.354413  1
  O  O14  1  0.685853  0.314147  0.103476  1
  O  O15  1  0.988890  0.011110  0.300783  1
  O  O16  1  0.999170  0.000830  0.811107  1
  O  O17  1  0.825691  0.681623  0.591302  1
  O  O18  1  0.521238  0.011887  0.335308  1
  O  O19  1  0.988113  0.478762  0.335308  1
  O  O20  1  0.167612  0.832388  0.098352  1
  O  O21  1  0.860691  0.139309  0.604737  1
  O  O22  1  0.017727  0.494686  0.817186  1
  O  O23  1  0.505314  0.982273  0.817186  1
  O  O24  1  0.342244  0.657756  0.596901  1
  O  O25  1  0.165398  0.339978  0.104232  1
  O  O26  1  0.496170  0.503830  0.826127  1
  O  O27  1  0.660022  0.834602  0.104232  1
