# generated using pymatgen
data_Ti3CrSb2(PO4)6
_symmetry_space_group_name_H-M   'P 1'
_cell_length_a   8.85085999
_cell_length_b   8.85085999
_cell_length_c   8.85085999
_cell_angle_alpha   58.48335078
_cell_angle_beta   58.48335078
_cell_angle_gamma   58.48335078
_symmetry_Int_Tables_number   1
_chemical_formula_structural   Ti3CrSb2(PO4)6
_chemical_formula_sum   'Ti3 Cr1 Sb2 P6 O24'
_cell_volume   473.26530619
_cell_formula_units_Z   1
loop_
 _symmetry_equiv_pos_site_id
 _symmetry_equiv_pos_as_xyz
  1  'x, y, z'
loop_
 _atom_site_type_symbol
 _atom_site_label
 _atom_site_symmetry_multiplicity
 _atom_site_fract_x
 _atom_site_fract_y
 _atom_site_fract_z
 _atom_site_occupancy
  Ti  Ti0  1  0.852400  0.852400  0.852400  1
  Ti  Ti1  1  0.648431  0.648431  0.648431  1
  Ti  Ti2  1  0.352523  0.352523  0.352523  1
  Cr  Cr3  1  0.146634  0.146634  0.146634  1
  Sb  Sb4  1  0.000822  0.000822  0.000822  1
  Sb  Sb5  1  0.502091  0.502091  0.502091  1
  P  P6  1  0.250031  0.538604  0.959211  1
  P  P7  1  0.959211  0.250031  0.538604  1
  P  P8  1  0.458801  0.041078  0.750117  1
  P  P9  1  0.041078  0.750117  0.458801  1
  P  P10  1  0.750117  0.458801  0.041078  1
  P  P11  1  0.538604  0.959211  0.250031  1
  O  O12  1  0.697144  0.495871  0.882493  1
  O  O13  1  0.495871  0.882493  0.697144  1
  O  O14  1  0.083240  0.733075  0.937459  1
  O  O15  1  0.882493  0.697144  0.495871  1
  O  O16  1  0.200428  0.384966  0.988289  1
  O  O17  1  0.419382  0.564289  0.767076  1
  O  O18  1  0.937459  0.083240  0.733075  1
  O  O19  1  0.767076  0.419382  0.564289  1
  O  O20  1  0.617008  0.005236  0.802542  1
  O  O21  1  0.564289  0.767076  0.419382  1
  O  O22  1  0.266736  0.059840  0.917172  1
  O  O23  1  0.005236  0.802542  0.617008  1
  O  O24  1  0.988289  0.200428  0.384966  1
  O  O25  1  0.733075  0.937459  0.083240  1
  O  O26  1  0.437999  0.231291  0.581810  1
  O  O27  1  0.384966  0.988289  0.200428  1
  O  O28  1  0.231291  0.581810  0.437999  1
  O  O29  1  0.059840  0.917173  0.266736  1
  O  O30  1  0.581810  0.437999  0.231291  1
  O  O31  1  0.802542  0.617008  0.005236  1
  O  O32  1  0.117021  0.302453  0.506441  1
  O  O33  1  0.917172  0.266736  0.059840  1
  O  O34  1  0.506441  0.117021  0.302453  1
  O  O35  1  0.302453  0.506441  0.117021  1
