# generated using pymatgen
data_Li2V3FeO8
_symmetry_space_group_name_H-M   'P 1'
_cell_length_a   8.41882257
_cell_length_b   8.40319873
_cell_length_c   8.45123214
_cell_angle_alpha   90.00000000
_cell_angle_beta   90.24168145
_cell_angle_gamma   90.00000000
_symmetry_Int_Tables_number   1
_chemical_formula_structural   Li2V3FeO8
_chemical_formula_sum   'Li8 V12 Fe4 O32'
_cell_volume   597.87742973
_cell_formula_units_Z   4
loop_
 _symmetry_equiv_pos_site_id
 _symmetry_equiv_pos_as_xyz
  1  'x, y, z'
loop_
 _atom_site_type_symbol
 _atom_site_label
 _atom_site_symmetry_multiplicity
 _atom_site_fract_x
 _atom_site_fract_y
 _atom_site_fract_z
 _atom_site_occupancy
  Li  Li0  1  0.374532  0.124120  0.126125  1
  Li  Li1  1  0.500823  0.252199  0.750079  1
  Li  Li2  1  0.999687  0.249350  0.250557  1
  Li  Li3  1  0.122016  0.374598  0.625542  1
  Li  Li4  1  0.625468  0.624120  0.873875  1
  Li  Li5  1  0.499177  0.752199  0.249921  1
  Li  Li6  1  0.000313  0.749350  0.749443  1
  Li  Li7  1  0.877984  0.874598  0.374458  1
  V  V8  1  0.629148  0.114006  0.376235  1
  V  V9  1  0.875446  0.113625  0.618154  1
  V  V10  1  0.135565  0.124512  0.880237  1
  V  V11  1  0.374084  0.376159  0.372050  1
  V  V12  1  0.627989  0.372006  0.124915  1
  V  V13  1  0.865158  0.380792  0.874490  1
  V  V14  1  0.370852  0.614006  0.623765  1
  V  V15  1  0.124554  0.613625  0.381846  1
  V  V16  1  0.864435  0.624512  0.119763  1
  V  V17  1  0.625916  0.876159  0.627950  1
  V  V18  1  0.372011  0.872006  0.875085  1
  V  V19  1  0.134842  0.880792  0.125510  1
  Fe  Fe20  1  0.753460  0.999532  0.000355  1
  Fe  Fe21  1  0.752043  0.500611  0.502524  1
  Fe  Fe22  1  0.246540  0.499532  0.999645  1
  Fe  Fe23  1  0.247957  0.000611  0.497476  1
  O  O24  1  0.115141  0.104823  0.106226  1
  O  O25  1  0.347840  0.116830  0.869492  1
  O  O26  1  0.637068  0.118525  0.611551  1
  O  O27  1  0.856935  0.133736  0.395871  1
  O  O28  1  0.110065  0.122358  0.633423  1
  O  O29  1  0.887099  0.132951  0.865353  1
  O  O30  1  0.628866  0.129463  0.139294  1
  O  O31  1  0.384189  0.138639  0.378589  1
  O  O32  1  0.109675  0.359682  0.879840  1
  O  O33  1  0.871698  0.362547  0.642100  1
  O  O34  1  0.620677  0.363080  0.369812  1
  O  O35  1  0.389557  0.378940  0.133399  1
  O  O36  1  0.650140  0.369799  0.887970  1
  O  O37  1  0.866767  0.387554  0.113169  1
  O  O38  1  0.135336  0.398823  0.370964  1
  O  O39  1  0.378702  0.400450  0.612861  1
  O  O40  1  0.884859  0.604823  0.893774  1
  O  O41  1  0.652160  0.616830  0.130508  1
  O  O42  1  0.362932  0.618525  0.388449  1
  O  O43  1  0.143065  0.633736  0.604129  1
  O  O44  1  0.889935  0.622358  0.366577  1
  O  O45  1  0.112901  0.632951  0.134647  1
  O  O46  1  0.371134  0.629463  0.860706  1
  O  O47  1  0.615811  0.638639  0.621411  1
  O  O48  1  0.890325  0.859682  0.120160  1
  O  O49  1  0.128302  0.862547  0.357900  1
  O  O50  1  0.379323  0.863080  0.630188  1
  O  O51  1  0.610443  0.878940  0.866601  1
  O  O52  1  0.349860  0.869799  0.112030  1
  O  O53  1  0.133233  0.887554  0.886831  1
  O  O54  1  0.864664  0.898823  0.629036  1
  O  O55  1  0.621298  0.900450  0.387139  1
