# generated using pymatgen
data_Na2VO3
_symmetry_space_group_name_H-M   'P 1'
_cell_length_a   5.39509101
_cell_length_b   5.39509101
_cell_length_c   5.69750360
_cell_angle_alpha   81.28947110
_cell_angle_beta   98.71052890
_cell_angle_gamma   58.86073835
_symmetry_Int_Tables_number   1
_chemical_formula_structural   Na2VO3
_chemical_formula_sum   'Na4 V2 O6'
_cell_volume   135.03240578
_cell_formula_units_Z   2
loop_
 _symmetry_equiv_pos_site_id
 _symmetry_equiv_pos_as_xyz
  1  'x, y, z'
loop_
 _atom_site_type_symbol
 _atom_site_label
 _atom_site_symmetry_multiplicity
 _atom_site_fract_x
 _atom_site_fract_y
 _atom_site_fract_z
 _atom_site_occupancy
  Na  Na0  1  0.840767  0.840767  0.500000  1
  Na  Na1  1  0.159233  0.159233  0.500000  1
  Na  Na2  1  0.500000  0.500000  0.500000  1
  Na  Na3  1  0.000000  0.000000  0.000000  1
  V  V4  1  0.337792  0.337792  0.000000  1
  V  V5  1  0.662208  0.662208  0.000000  1
  O  O6  1  0.304061  0.695939  0.795143  1
  O  O7  1  0.458235  0.912806  0.199597  1
  O  O8  1  0.087194  0.541765  0.199597  1
  O  O9  1  0.541765  0.087194  0.800403  1
  O  O10  1  0.912806  0.458235  0.800403  1
  O  O11  1  0.695939  0.304061  0.204857  1
