# generated using pymatgen
data_LiVCoO4
_symmetry_space_group_name_H-M   'P 1'
_cell_length_a   4.94942775
_cell_length_b   6.07035091
_cell_length_c   10.56002989
_cell_angle_alpha   90.00000000
_cell_angle_beta   90.00000000
_cell_angle_gamma   90.00000000
_symmetry_Int_Tables_number   1
_chemical_formula_structural   LiVCoO4
_chemical_formula_sum   'Li4 V4 Co4 O16'
_cell_volume   317.27359816
_cell_formula_units_Z   4
loop_
 _symmetry_equiv_pos_site_id
 _symmetry_equiv_pos_as_xyz
  1  'x, y, z'
loop_
 _atom_site_type_symbol
 _atom_site_label
 _atom_site_symmetry_multiplicity
 _atom_site_fract_x
 _atom_site_fract_y
 _atom_site_fract_z
 _atom_site_occupancy
  Li  Li0  1  0.500000  0.500000  0.000000  1
  Li  Li1  1  0.000000  0.500000  0.500000  1
  Li  Li2  1  0.500000  0.000000  0.000000  1
  Li  Li3  1  0.000000  0.000000  0.500000  1
  V  V4  1  0.931175  0.750000  0.905719  1
  V  V5  1  0.568825  0.750000  0.405719  1
  V  V6  1  0.431175  0.250000  0.594281  1
  V  V7  1  0.068825  0.250000  0.094281  1
  Co  Co8  1  0.488771  0.750000  0.730233  1
  Co  Co9  1  0.011229  0.750000  0.230233  1
  Co  Co10  1  0.988771  0.250000  0.769767  1
  Co  Co11  1  0.511229  0.250000  0.269767  1
  O  O12  1  0.777878  0.522687  0.829551  1
  O  O13  1  0.722122  0.522687  0.329551  1
  O  O14  1  0.704749  0.750000  0.557029  1
  O  O15  1  0.282068  0.750000  0.905753  1
  O  O16  1  0.217932  0.750000  0.405753  1
  O  O17  1  0.795251  0.750000  0.057029  1
  O  O18  1  0.777878  0.977313  0.829551  1
  O  O19  1  0.722122  0.977313  0.329551  1
  O  O20  1  0.222122  0.022687  0.170449  1
  O  O21  1  0.277878  0.022687  0.670449  1
  O  O22  1  0.295251  0.250000  0.442971  1
  O  O23  1  0.204749  0.250000  0.942971  1
  O  O24  1  0.782068  0.250000  0.594247  1
  O  O25  1  0.717932  0.250000  0.094247  1
  O  O26  1  0.277878  0.477313  0.670449  1
  O  O27  1  0.222122  0.477313  0.170449  1
