# generated using pymatgen
data_Li6MnFe5(BO3)6
_symmetry_space_group_name_H-M   'P 1'
_cell_length_a   8.24364432
_cell_length_b   8.24476534
_cell_length_c   12.55723063
_cell_angle_alpha   89.78503543
_cell_angle_beta   89.82981313
_cell_angle_gamma   60.01455609
_symmetry_Int_Tables_number   1
_chemical_formula_structural   Li6MnFe5(BO3)6
_chemical_formula_sum   'Li12 Mn2 Fe10 B12 O36'
_cell_volume   739.23466754
_cell_formula_units_Z   2
loop_
 _symmetry_equiv_pos_site_id
 _symmetry_equiv_pos_as_xyz
  1  'x, y, z'
loop_
 _atom_site_type_symbol
 _atom_site_label
 _atom_site_symmetry_multiplicity
 _atom_site_fract_x
 _atom_site_fract_y
 _atom_site_fract_z
 _atom_site_occupancy
  Li  Li0  1  0.984256  0.301717  0.874761  1
  Li  Li1  1  0.985074  0.301788  0.125719  1
  Li  Li2  1  0.984684  0.300905  0.375165  1
  Li  Li3  1  0.984461  0.300556  0.624419  1
  Li  Li4  1  0.301506  0.714511  0.874391  1
  Li  Li5  1  0.301975  0.713934  0.624487  1
  Li  Li6  1  0.301056  0.713459  0.375057  1
  Li  Li7  1  0.300988  0.714103  0.125311  1
  Li  Li8  1  0.713184  0.986086  0.624193  1
  Li  Li9  1  0.713851  0.984885  0.374887  1
  Li  Li10  1  0.712632  0.985219  0.875956  1
  Li  Li11  1  0.714199  0.984737  0.125270  1
  Mn  Mn12  1  0.361069  0.012171  0.750245  1
  Mn  Mn13  1  0.012296  0.626597  0.999649  1
  Fe  Fe14  1  0.359016  0.007301  0.001879  1
  Fe  Fe15  1  0.361367  0.007438  0.499406  1
  Fe  Fe16  1  0.359701  0.006941  0.250907  1
  Fe  Fe17  1  0.007558  0.631876  0.499181  1
  Fe  Fe18  1  0.006483  0.634061  0.747926  1
  Fe  Fe19  1  0.007603  0.630656  0.250841  1
  Fe  Fe20  1  0.632729  0.360046  0.499443  1
  Fe  Fe21  1  0.633873  0.359315  0.999915  1
  Fe  Fe22  1  0.633712  0.358946  0.749870  1
  Fe  Fe23  1  0.632956  0.359890  0.249680  1
  B  B24  1  0.998360  0.002131  0.000238  1
  B  B25  1  0.999663  0.998115  0.749763  1
  B  B26  1  0.000214  0.999839  0.499749  1
  B  B27  1  0.999909  0.999905  0.250246  1
  B  B28  1  0.666019  0.666727  0.126926  1
  B  B29  1  0.666575  0.665704  0.875035  1
  B  B30  1  0.668081  0.665442  0.623179  1
  B  B31  1  0.666747  0.665986  0.375139  1
  B  B32  1  0.333626  0.334290  0.874967  1
  B  B33  1  0.332908  0.335246  0.623564  1
  B  B34  1  0.333109  0.333335  0.375038  1
  B  B35  1  0.334765  0.332597  0.126515  1
  O  O36  1  0.916337  0.192945  0.750325  1
  O  O37  1  0.916464  0.196782  0.000797  1
  O  O38  1  0.914636  0.194446  0.500258  1
  O  O39  1  0.915311  0.194298  0.250546  1
  O  O40  1  0.579483  0.558974  0.125054  1
  O  O41  1  0.580018  0.557747  0.874894  1
  O  O42  1  0.580639  0.558368  0.624923  1
  O  O43  1  0.579379  0.558847  0.374820  1
  O  O44  1  0.192895  0.891267  0.000185  1
  O  O45  1  0.194258  0.891252  0.498611  1
  O  O46  1  0.194335  0.890425  0.249418  1
  O  O47  1  0.192897  0.886933  0.749442  1
  O  O48  1  0.860343  0.579709  0.128733  1
  O  O49  1  0.860906  0.578783  0.376723  1
  O  O50  1  0.860229  0.579631  0.872425  1
  O  O51  1  0.861894  0.578790  0.624304  1
  O  O52  1  0.558660  0.860831  0.125670  1
  O  O53  1  0.558786  0.859749  0.877834  1
  O  O54  1  0.559529  0.860274  0.373676  1
  O  O55  1  0.560594  0.859907  0.621579  1
  O  O56  1  0.252833  0.220758  0.877268  1
  O  O57  1  0.254278  0.217977  0.374957  1
  O  O58  1  0.253384  0.220344  0.623675  1
  O  O59  1  0.254741  0.218521  0.126607  1
  O  O60  1  0.886866  0.920192  0.999786  1
  O  O61  1  0.886823  0.916402  0.749728  1
  O  O62  1  0.890774  0.914924  0.500396  1
  O  O63  1  0.890744  0.915011  0.250958  1
  O  O64  1  0.527540  0.254469  0.875292  1
  O  O65  1  0.527149  0.255021  0.624713  1
  O  O66  1  0.527148  0.254607  0.374908  1
  O  O67  1  0.528575  0.254160  0.125007  1
  O  O68  1  0.218139  0.528825  0.623356  1
  O  O69  1  0.219500  0.528223  0.872379  1
  O  O70  1  0.217741  0.527306  0.375127  1
  O  O71  1  0.219965  0.526840  0.126709  1
