# generated using pymatgen
data_LiSi6Bi9O26
_symmetry_space_group_name_H-M   'P 1'
_cell_length_a   9.71819536
_cell_length_b   9.71819536
_cell_length_c   14.14931913
_cell_angle_alpha   90.00000000
_cell_angle_beta   90.00000000
_cell_angle_gamma   120.00000000
_symmetry_Int_Tables_number   1
_chemical_formula_structural   LiSi6Bi9O26
_chemical_formula_sum   'Li2 Si12 Bi18 O52'
_cell_volume   1157.27727316
_cell_formula_units_Z   2
loop_
 _symmetry_equiv_pos_site_id
 _symmetry_equiv_pos_as_xyz
  1  'x, y, z'
loop_
 _atom_site_type_symbol
 _atom_site_label
 _atom_site_symmetry_multiplicity
 _atom_site_fract_x
 _atom_site_fract_y
 _atom_site_fract_z
 _atom_site_occupancy
  Li  Li0  1  0.333333  0.666667  0.242156  1
  Li  Li1  1  0.666667  0.333333  0.757844  1
  Si  Si2  1  0.029545  0.627827  0.372374  1
  Si  Si3  1  0.024550  0.624165  0.874439  1
  Si  Si4  1  0.599615  0.975450  0.874439  1
  Si  Si5  1  0.598282  0.970455  0.372374  1
  Si  Si6  1  0.375835  0.400385  0.874439  1
  Si  Si7  1  0.372173  0.401718  0.372374  1
  Si  Si8  1  0.627827  0.598282  0.627626  1
  Si  Si9  1  0.624165  0.599615  0.125561  1
  Si  Si10  1  0.401718  0.029545  0.627626  1
  Si  Si11  1  0.400385  0.024550  0.125561  1
  Si  Si12  1  0.970455  0.372173  0.627626  1
  Si  Si13  1  0.975450  0.375835  0.125561  1
  Bi  Bi14  1  0.987938  0.759024  0.626756  1
  Bi  Bi15  1  0.989090  0.758723  0.126030  1
  Bi  Bi16  1  0.333333  0.666667  0.744731  1
  Bi  Bi17  1  0.333333  0.666667  0.019698  1
  Bi  Bi18  1  0.333333  0.666667  0.486476  1
  Bi  Bi19  1  0.240976  0.228914  0.626756  1
  Bi  Bi20  1  0.241277  0.230368  0.126030  1
  Bi  Bi21  1  0.228914  0.987938  0.373244  1
  Bi  Bi22  1  0.230368  0.989090  0.873970  1
  Bi  Bi23  1  0.771086  0.012062  0.626756  1
  Bi  Bi24  1  0.769632  0.010910  0.126030  1
  Bi  Bi25  1  0.758723  0.769632  0.873970  1
  Bi  Bi26  1  0.759024  0.771086  0.373244  1
  Bi  Bi27  1  0.666667  0.333333  0.980302  1
  Bi  Bi28  1  0.666667  0.333333  0.513524  1
  Bi  Bi29  1  0.666667  0.333333  0.255269  1
  Bi  Bi30  1  0.010910  0.241277  0.873970  1
  Bi  Bi31  1  0.012062  0.240976  0.373244  1
  O  O32  1  0.079466  0.759294  0.286015  1
  O  O33  1  0.090041  0.750531  0.784072  1
  O  O34  1  0.089796  0.748385  0.965459  1
  O  O35  1  0.095924  0.749134  0.465386  1
  O  O36  1  0.132273  0.534697  0.370888  1
  O  O37  1  0.121545  0.525673  0.871865  1
  O  O38  1  0.335796  0.838225  0.626316  1
  O  O39  1  0.324541  0.831510  0.127855  1
  O  O40  1  0.168490  0.493031  0.127855  1
  O  O41  1  0.161775  0.497570  0.626316  1
  O  O42  1  0.402424  0.867727  0.370888  1
  O  O43  1  0.404127  0.878455  0.871865  1
  O  O44  1  0.000000  0.000000  0.873145  1
  O  O45  1  0.000000  0.000000  0.622249  1
  O  O46  1  0.000000  0.000000  0.377751  1
  O  O47  1  0.000000  0.000000  0.126855  1
  O  O48  1  0.250866  0.346790  0.465386  1
  O  O49  1  0.249469  0.339510  0.784072  1
  O  O50  1  0.251615  0.341411  0.965459  1
  O  O51  1  0.240706  0.320173  0.286015  1
  O  O52  1  0.502430  0.664204  0.626316  1
  O  O53  1  0.506969  0.675459  0.127855  1
  O  O54  1  0.465303  0.597576  0.370888  1
  O  O55  1  0.474327  0.595873  0.871865  1
  O  O56  1  0.653210  0.904076  0.465386  1
  O  O57  1  0.658589  0.910204  0.965459  1
  O  O58  1  0.660490  0.909959  0.784072  1
  O  O59  1  0.679827  0.920534  0.286015  1
  O  O60  1  0.346790  0.095924  0.534614  1
  O  O61  1  0.320173  0.079466  0.713985  1
  O  O62  1  0.341411  0.089796  0.034541  1
  O  O63  1  0.339510  0.090041  0.215928  1
  O  O64  1  0.534697  0.402424  0.629112  1
  O  O65  1  0.525673  0.404127  0.128135  1
  O  O66  1  0.493031  0.324541  0.872145  1
  O  O67  1  0.497570  0.335796  0.373684  1
  O  O68  1  0.748385  0.658589  0.034541  1
  O  O69  1  0.750531  0.660490  0.215928  1
  O  O70  1  0.749134  0.653210  0.534614  1
  O  O71  1  0.759294  0.679827  0.713985  1
  O  O72  1  0.597576  0.132273  0.629112  1
  O  O73  1  0.595873  0.121545  0.128135  1
  O  O74  1  0.831510  0.506969  0.872145  1
  O  O75  1  0.838225  0.502430  0.373684  1
  O  O76  1  0.675459  0.168490  0.872145  1
  O  O77  1  0.664204  0.161775  0.373684  1
  O  O78  1  0.867727  0.465303  0.629112  1
  O  O79  1  0.878455  0.474327  0.128135  1
  O  O80  1  0.910204  0.251615  0.034541  1
  O  O81  1  0.904076  0.250866  0.534614  1
  O  O82  1  0.920534  0.240706  0.713985  1
  O  O83  1  0.909959  0.249469  0.215928  1
