# generated using pymatgen
data_Ni2H
_symmetry_space_group_name_H-M   'P 1'
_cell_length_a   2.55018382
_cell_length_b   2.55018382
_cell_length_c   4.18790088
_cell_angle_alpha   90.00000000
_cell_angle_beta   90.00000000
_cell_angle_gamma   120.00000000
_symmetry_Int_Tables_number   1
_chemical_formula_structural   Ni2H
_chemical_formula_sum   'Ni2 H1'
_cell_volume   23.58685290
_cell_formula_units_Z   1
loop_
 _symmetry_equiv_pos_site_id
 _symmetry_equiv_pos_as_xyz
  1  'x, y, z'
loop_
 _atom_site_type_symbol
 _atom_site_label
 _atom_site_symmetry_multiplicity
 _atom_site_fract_x
 _atom_site_fract_y
 _atom_site_fract_z
 _atom_site_occupancy
  Ni  Ni0  1  0.333333  0.666667  0.259578  1
  Ni  Ni1  1  0.666667  0.333333  0.740422  1
  H  H2  1  0.000000  0.000000  0.000000  1
