# generated using pymatgen
data_Na2FePCO7
_symmetry_space_group_name_H-M   'P 1'
_cell_length_a   5.20928934
_cell_length_b   6.56109681
_cell_length_c   17.82061654
_cell_angle_alpha   90.00000000
_cell_angle_beta   90.29972283
_cell_angle_gamma   90.00000000
_symmetry_Int_Tables_number   1
_chemical_formula_structural   Na2FePCO7
_chemical_formula_sum   'Na8 Fe4 P4 C4 O28'
_cell_volume   609.07631117
_cell_formula_units_Z   4
loop_
 _symmetry_equiv_pos_site_id
 _symmetry_equiv_pos_as_xyz
  1  'x, y, z'
loop_
 _atom_site_type_symbol
 _atom_site_label
 _atom_site_symmetry_multiplicity
 _atom_site_fract_x
 _atom_site_fract_y
 _atom_site_fract_z
 _atom_site_occupancy
  Na  Na0  1  0.765020  0.244108  0.209613  1
  Na  Na1  1  0.251482  0.489702  0.119020  1
  Na  Na2  1  0.748518  0.510298  0.880980  1
  Na  Na3  1  0.234980  0.755892  0.790387  1
  Na  Na4  1  0.765020  0.255892  0.709613  1
  Na  Na5  1  0.251482  0.010298  0.619020  1
  Na  Na6  1  0.748518  0.989702  0.380980  1
  Na  Na7  1  0.234980  0.744108  0.290387  1
  Fe  Fe8  1  0.785207  0.762052  0.076931  1
  Fe  Fe9  1  0.214793  0.237948  0.923069  1
  Fe  Fe10  1  0.785207  0.737948  0.576931  1
  Fe  Fe11  1  0.214793  0.262052  0.423069  1
  P  P12  1  0.707224  0.252240  0.038576  1
  P  P13  1  0.292776  0.747760  0.961424  1
  P  P14  1  0.707224  0.247760  0.538576  1
  P  P15  1  0.292776  0.752240  0.461424  1
  C  C16  1  0.730006  0.746541  0.218088  1
  C  C17  1  0.269994  0.253459  0.781912  1
  C  C18  1  0.730006  0.753459  0.718088  1
  C  C19  1  0.269994  0.246541  0.281912  1
  O  O20  1  0.293404  0.260382  0.211464  1
  O  O21  1  0.956260  0.740517  0.185329  1
  O  O22  1  0.533023  0.741388  0.171951  1
  O  O23  1  0.765507  0.062108  0.087198  1
  O  O24  1  0.771308  0.437832  0.089918  1
  O  O25  1  0.134559  0.743173  0.034543  1
  O  O26  1  0.416725  0.261348  0.016913  1
  O  O27  1  0.583275  0.738652  0.983087  1
  O  O28  1  0.865441  0.256827  0.965457  1
  O  O29  1  0.228692  0.562168  0.910082  1
  O  O30  1  0.234493  0.937892  0.912802  1
  O  O31  1  0.466977  0.258612  0.828049  1
  O  O32  1  0.043740  0.259483  0.814671  1
  O  O33  1  0.706596  0.739618  0.788536  1
  O  O34  1  0.293404  0.239618  0.711464  1
  O  O35  1  0.956260  0.759483  0.685329  1
  O  O36  1  0.533023  0.758612  0.671951  1
  O  O37  1  0.771308  0.062168  0.589918  1
  O  O38  1  0.765507  0.437892  0.587198  1
  O  O39  1  0.134559  0.756827  0.534543  1
  O  O40  1  0.416725  0.238652  0.516913  1
  O  O41  1  0.583275  0.761348  0.483087  1
  O  O42  1  0.865441  0.243173  0.465457  1
  O  O43  1  0.234493  0.562108  0.412802  1
  O  O44  1  0.228692  0.937832  0.410082  1
  O  O45  1  0.466977  0.241388  0.328049  1
  O  O46  1  0.043740  0.240517  0.314671  1
  O  O47  1  0.706596  0.760382  0.288536  1
