# generated using pymatgen
data_VF5
_symmetry_space_group_name_H-M   'P 1'
_cell_length_a   9.30640592
_cell_length_b   7.80584702
_cell_length_c   13.58852185
_cell_angle_alpha   90.00000000
_cell_angle_beta   128.60228269
_cell_angle_gamma   90.00000000
_symmetry_Int_Tables_number   1
_chemical_formula_structural   VF5
_chemical_formula_sum   'V8 F40'
_cell_volume   771.43757781
_cell_formula_units_Z   8
loop_
 _symmetry_equiv_pos_site_id
 _symmetry_equiv_pos_as_xyz
  1  'x, y, z'
loop_
 _atom_site_type_symbol
 _atom_site_label
 _atom_site_symmetry_multiplicity
 _atom_site_fract_x
 _atom_site_fract_y
 _atom_site_fract_z
 _atom_site_occupancy
  V  V0  1  0.202438  0.206955  0.182831  1
  V  V1  1  0.782199  0.224548  0.663022  1
  V  V2  1  0.217801  0.724548  0.836978  1
  V  V3  1  0.797562  0.706955  0.317169  1
  V  V4  1  0.202438  0.293045  0.682831  1
  V  V5  1  0.782199  0.275452  0.163022  1
  V  V6  1  0.217801  0.775452  0.336978  1
  V  V7  1  0.797562  0.793045  0.817169  1
  F  F8  1  0.379773  0.237710  0.346433  1
  F  F9  1  0.436289  0.776786  0.378283  1
  F  F10  1  0.241042  0.404324  0.143756  1
  F  F11  1  0.010775  0.827482  0.967668  1
  F  F12  1  0.844286  0.016764  0.765748  1
  F  F13  1  0.898566  0.330169  0.809270  1
  F  F14  1  0.330253  0.083727  0.155184  1
  F  F15  1  0.748747  0.410744  0.580092  1
  F  F16  1  0.736592  0.080869  0.546230  1
  F  F17  1  0.955301  0.704840  0.778496  1
  F  F18  1  0.669747  0.583727  0.344816  1
  F  F19  1  0.044699  0.204840  0.721504  1
  F  F20  1  0.263408  0.580869  0.953770  1
  F  F21  1  0.251253  0.910744  0.919908  1
  F  F22  1  0.758958  0.904324  0.356244  1
  F  F23  1  0.563711  0.276786  0.121717  1
  F  F24  1  0.620227  0.737710  0.153567  1
  F  F25  1  0.101434  0.830169  0.690730  1
  F  F26  1  0.155714  0.516764  0.734252  1
  F  F27  1  0.989225  0.327482  0.532332  1
  F  F28  1  0.010775  0.672518  0.467668  1
  F  F29  1  0.844286  0.483236  0.265748  1
  F  F30  1  0.898566  0.169831  0.309270  1
  F  F31  1  0.379773  0.262290  0.846433  1
  F  F32  1  0.436289  0.723214  0.878283  1
  F  F33  1  0.241042  0.095676  0.643756  1
  F  F34  1  0.748747  0.089256  0.080092  1
  F  F35  1  0.736592  0.419131  0.046230  1
  F  F36  1  0.955301  0.795160  0.278496  1
  F  F37  1  0.330253  0.416273  0.655184  1
  F  F38  1  0.044699  0.295160  0.221504  1
  F  F39  1  0.263408  0.919131  0.453770  1
  F  F40  1  0.251253  0.589256  0.419908  1
  F  F41  1  0.669747  0.916273  0.844816  1
  F  F42  1  0.101434  0.669831  0.190730  1
  F  F43  1  0.155714  0.983236  0.234252  1
  F  F44  1  0.989225  0.172518  0.032332  1
  F  F45  1  0.758958  0.595676  0.856244  1
  F  F46  1  0.563711  0.223214  0.621717  1
  F  F47  1  0.620227  0.762290  0.653567  1
