# generated using pymatgen
data_Li3Ti2(FeO4)2
_symmetry_space_group_name_H-M   'P 1'
_cell_length_a   5.93920637
_cell_length_b   5.98868181
_cell_length_c   6.02911107
_cell_angle_alpha   119.51324993
_cell_angle_beta   89.68553452
_cell_angle_gamma   119.67186350
_symmetry_Int_Tables_number   1
_chemical_formula_structural   Li3Ti2(FeO4)2
_chemical_formula_sum   'Li3 Ti2 Fe2 O8'
_cell_volume   153.87885442
_cell_formula_units_Z   1
loop_
 _symmetry_equiv_pos_site_id
 _symmetry_equiv_pos_as_xyz
  1  'x, y, z'
loop_
 _atom_site_type_symbol
 _atom_site_label
 _atom_site_symmetry_multiplicity
 _atom_site_fract_x
 _atom_site_fract_y
 _atom_site_fract_z
 _atom_site_occupancy
  Li  Li0  1  0.500000  0.500000  0.000000  1
  Li  Li1  1  0.500000  0.000000  0.500000  1
  Li  Li2  1  0.500000  0.500000  0.500000  1
  Ti  Ti3  1  0.500000  0.000000  0.000000  1
  Ti  Ti4  1  0.000000  0.000000  0.000000  1
  Fe  Fe5  1  0.000000  0.500000  0.000000  1
  Fe  Fe6  1  0.000000  0.000000  0.500000  1
  O  O7  1  0.259037  0.766677  0.777997  1
  O  O8  1  0.742918  0.779880  0.214221  1
  O  O9  1  0.774715  0.754234  0.780544  1
  O  O10  1  0.753334  0.229886  0.779038  1
  O  O11  1  0.246666  0.770114  0.220962  1
  O  O12  1  0.225285  0.245766  0.219456  1
  O  O13  1  0.257082  0.220120  0.785779  1
  O  O14  1  0.740963  0.233323  0.222003  1
