# generated using pymatgen
data_Li4Fe3(BO3)4
_symmetry_space_group_name_H-M   'P 1'
_cell_length_a   5.25241219
_cell_length_b   8.94871565
_cell_length_c   11.05338910
_cell_angle_alpha   90.00000000
_cell_angle_beta   115.91633755
_cell_angle_gamma   90.00000000
_symmetry_Int_Tables_number   1
_chemical_formula_structural   Li4Fe3(BO3)4
_chemical_formula_sum   'Li8 Fe6 B8 O24'
_cell_volume   467.28719140
_cell_formula_units_Z   2
loop_
 _symmetry_equiv_pos_site_id
 _symmetry_equiv_pos_as_xyz
  1  'x, y, z'
loop_
 _atom_site_type_symbol
 _atom_site_label
 _atom_site_symmetry_multiplicity
 _atom_site_fract_x
 _atom_site_fract_y
 _atom_site_fract_z
 _atom_site_occupancy
  Li  Li0  1  0.519846  0.237080  0.680555  1
  Li  Li1  1  0.454123  0.913328  0.617998  1
  Li  Li2  1  0.893999  0.236674  0.078386  1
  Li  Li3  1  0.088551  0.735787  0.389228  1
  Li  Li4  1  0.519846  0.762920  0.180555  1
  Li  Li5  1  0.893999  0.763326  0.578386  1
  Li  Li6  1  0.454123  0.086672  0.117998  1
  Li  Li7  1  0.088551  0.264213  0.889228  1
  Fe  Fe8  1  0.974856  0.570282  0.129943  1
  Fe  Fe9  1  0.470745  0.699107  0.830499  1
  Fe  Fe10  1  0.019898  0.061803  0.376454  1
  Fe  Fe11  1  0.974856  0.429718  0.629943  1
  Fe  Fe12  1  0.019898  0.938197  0.876454  1
  Fe  Fe13  1  0.470745  0.300893  0.330499  1
  B  B14  1  0.449111  0.572697  0.614747  1
  B  B15  1  0.972667  0.910698  0.133096  1
  B  B16  1  0.560759  0.058790  0.880682  1
  B  B17  1  0.021975  0.409018  0.372974  1
  B  B18  1  0.972667  0.089302  0.633096  1
  B  B19  1  0.449111  0.427303  0.114747  1
  B  B20  1  0.021975  0.590982  0.872974  1
  B  B21  1  0.560759  0.941210  0.380682  1
  O  O22  1  0.824596  0.583891  0.925559  1
  O  O23  1  0.331199  0.918387  0.408407  1
  O  O24  1  0.748431  0.167695  0.885959  1
  O  O25  1  0.617159  0.915060  0.845357  1
  O  O26  1  0.114151  0.533038  0.329865  1
  O  O27  1  0.126282  0.269699  0.359913  1
  O  O28  1  0.352297  0.435115  0.634353  1
  O  O29  1  0.877992  0.038822  0.172041  1
  O  O30  1  0.299373  0.701994  0.618181  1
  O  O31  1  0.863635  0.772603  0.148017  1
  O  O32  1  0.172019  0.080707  0.581875  1
  O  O33  1  0.696679  0.413209  0.102268  1
  O  O34  1  0.331199  0.081613  0.908407  1
  O  O35  1  0.824596  0.416109  0.425559  1
  O  O36  1  0.114151  0.466962  0.829865  1
  O  O37  1  0.748431  0.832305  0.385959  1
  O  O38  1  0.126282  0.730301  0.859913  1
  O  O39  1  0.617159  0.084940  0.345357  1
  O  O40  1  0.877992  0.961178  0.672041  1
  O  O41  1  0.352297  0.564885  0.134353  1
  O  O42  1  0.863635  0.227397  0.648017  1
  O  O43  1  0.299373  0.298006  0.118181  1
  O  O44  1  0.696679  0.586791  0.602268  1
  O  O45  1  0.172019  0.919293  0.081875  1
