# generated using pymatgen
data_Li3FeSiO5
_symmetry_space_group_name_H-M   'P 1'
_cell_length_a   5.02564319
_cell_length_b   5.79972244
_cell_length_c   6.51497307
_cell_angle_alpha   104.53543505
_cell_angle_beta   97.86719216
_cell_angle_gamma   106.62286387
_symmetry_Int_Tables_number   1
_chemical_formula_structural   Li3FeSiO5
_chemical_formula_sum   'Li6 Fe2 Si2 O10'
_cell_volume   171.61877163
_cell_formula_units_Z   2
loop_
 _symmetry_equiv_pos_site_id
 _symmetry_equiv_pos_as_xyz
  1  'x, y, z'
loop_
 _atom_site_type_symbol
 _atom_site_label
 _atom_site_symmetry_multiplicity
 _atom_site_fract_x
 _atom_site_fract_y
 _atom_site_fract_z
 _atom_site_occupancy
  Li  Li0  1  0.702382  0.400174  0.397715  1
  Li  Li1  1  0.500000  0.000000  0.000000  1
  Li  Li2  1  0.500000  0.500000  0.000000  1
  Li  Li3  1  0.297618  0.599826  0.602285  1
  Li  Li4  1  0.109126  0.201344  0.186203  1
  Li  Li5  1  0.890874  0.798656  0.813797  1
  Fe  Fe6  1  0.696421  0.889972  0.390456  1
  Fe  Fe7  1  0.303579  0.110028  0.609544  1
  Si  Si8  1  0.096500  0.691905  0.191692  1
  Si  Si9  1  0.903500  0.308095  0.808308  1
  O  O10  1  0.835958  0.836807  0.120241  1
  O  O11  1  0.835516  0.373707  0.081852  1
  O  O12  1  0.625320  0.988813  0.711988  1
  O  O13  1  0.630123  0.427108  0.705194  1
  O  O14  1  0.374680  0.011187  0.288012  1
  O  O15  1  0.369877  0.572892  0.294806  1
  O  O16  1  0.164042  0.163193  0.879759  1
  O  O17  1  0.164484  0.626293  0.918148  1
  O  O18  1  0.989952  0.252880  0.537740  1
  O  O19  1  0.010048  0.747120  0.462260  1
