# generated using pymatgen
data_Fe3Co3(SbO8)2
_symmetry_space_group_name_H-M   'P 1'
_cell_length_a   5.87649669
_cell_length_b   5.87649669
_cell_length_c   9.26903850
_cell_angle_alpha   88.11010622
_cell_angle_beta   91.88989378
_cell_angle_gamma   120.23089550
_symmetry_Int_Tables_number   1
_chemical_formula_structural   Fe3Co3(SbO8)2
_chemical_formula_sum   'Fe3 Co3 Sb2 O16'
_cell_volume   276.35845364
_cell_formula_units_Z   1
loop_
 _symmetry_equiv_pos_site_id
 _symmetry_equiv_pos_as_xyz
  1  'x, y, z'
loop_
 _atom_site_type_symbol
 _atom_site_label
 _atom_site_symmetry_multiplicity
 _atom_site_fract_x
 _atom_site_fract_y
 _atom_site_fract_z
 _atom_site_occupancy
  Fe  Fe0  1  0.165770  0.834230  0.787077  1
  Fe  Fe1  1  0.331632  0.172082  0.290738  1
  Fe  Fe2  1  0.827918  0.668368  0.290738  1
  Co  Co3  1  0.169257  0.341436  0.786285  1
  Co  Co4  1  0.658564  0.830743  0.786285  1
  Co  Co5  1  0.828058  0.171942  0.282383  1
  Sb  Sb6  1  0.335112  0.664888  0.510849  1
  Sb  Sb7  1  0.668763  0.331237  0.008298  1
  O  O8  1  0.164195  0.332290  0.400732  1
  O  O9  1  0.482585  0.517415  0.674852  1
  O  O10  1  0.343755  0.656245  0.889271  1
  O  O11  1  0.988454  0.011546  0.693448  1
  O  O12  1  0.987938  0.012062  0.194157  1
  O  O13  1  0.667710  0.835805  0.400732  1
  O  O14  1  0.037313  0.502023  0.660182  1
  O  O15  1  0.497977  0.962687  0.660182  1
  O  O16  1  0.839054  0.160946  0.893264  1
  O  O17  1  0.166040  0.833960  0.401773  1
  O  O18  1  0.531730  0.032511  0.160744  1
  O  O19  1  0.967489  0.468270  0.160744  1
  O  O20  1  0.678774  0.321226  0.391972  1
  O  O21  1  0.326648  0.163044  0.900327  1
  O  O22  1  0.521247  0.478753  0.154637  1
  O  O23  1  0.836956  0.673352  0.900327  1
