# generated using pymatgen
data_LiBiP2O7
_symmetry_space_group_name_H-M   'P 1'
_cell_length_a   6.75381693
_cell_length_b   6.80525959
_cell_length_c   6.92067455
_cell_angle_alpha   67.50520183
_cell_angle_beta   83.69174330
_cell_angle_gamma   83.14636894
_symmetry_Int_Tables_number   1
_chemical_formula_structural   LiBiP2O7
_chemical_formula_sum   'Li2 Bi2 P4 O14'
_cell_volume   291.06678545
_cell_formula_units_Z   2
loop_
 _symmetry_equiv_pos_site_id
 _symmetry_equiv_pos_as_xyz
  1  'x, y, z'
loop_
 _atom_site_type_symbol
 _atom_site_label
 _atom_site_symmetry_multiplicity
 _atom_site_fract_x
 _atom_site_fract_y
 _atom_site_fract_z
 _atom_site_occupancy
  Li  Li0  1  0.587741  0.343620  0.660336  1
  Li  Li1  1  0.412259  0.656380  0.339664  1
  Bi  Bi2  1  0.159771  0.244889  0.112389  1
  Bi  Bi3  1  0.840229  0.755111  0.887611  1
  P  P4  1  0.636568  0.249566  0.235930  1
  P  P5  1  0.113226  0.177400  0.643376  1
  P  P6  1  0.886774  0.822600  0.356624  1
  P  P7  1  0.363432  0.750434  0.764070  1
  O  O8  1  0.482028  0.156342  0.152401  1
  O  O9  1  0.776908  0.045062  0.375602  1
  O  O10  1  0.903136  0.118961  0.751780  1
  O  O11  1  0.776572  0.381078  0.048925  1
  O  O12  1  0.108186  0.330816  0.415492  1
  O  O13  1  0.550893  0.363599  0.378617  1
  O  O14  1  0.241111  0.242026  0.775354  1
  O  O15  1  0.758889  0.757974  0.224646  1
  O  O16  1  0.449107  0.636401  0.621383  1
  O  O17  1  0.891814  0.669184  0.584508  1
  O  O18  1  0.223428  0.618922  0.951075  1
  O  O19  1  0.096864  0.881039  0.248220  1
  O  O20  1  0.223092  0.954938  0.624398  1
  O  O21  1  0.517972  0.843658  0.847599  1
