# generated using pymatgen
data_LiMn2(PO4)2
_symmetry_space_group_name_H-M   'P 1'
_cell_length_a   6.76133796
_cell_length_b   8.56015408
_cell_length_c   8.71644406
_cell_angle_alpha   91.36359043
_cell_angle_beta   108.92422931
_cell_angle_gamma   108.49045333
_symmetry_Int_Tables_number   1
_chemical_formula_structural   LiMn2(PO4)2
_chemical_formula_sum   'Li3 Mn6 P6 O24'
_cell_volume   448.05365654
_cell_formula_units_Z   3
loop_
 _symmetry_equiv_pos_site_id
 _symmetry_equiv_pos_as_xyz
  1  'x, y, z'
loop_
 _atom_site_type_symbol
 _atom_site_label
 _atom_site_symmetry_multiplicity
 _atom_site_fract_x
 _atom_site_fract_y
 _atom_site_fract_z
 _atom_site_occupancy
  Li  Li0  1  0.743725  0.009671  0.006608  1
  Li  Li1  1  0.256275  0.990329  0.993392  1
  Li  Li2  1  0.000000  0.500000  0.500000  1
  Mn  Mn3  1  0.359927  0.936012  0.618154  1
  Mn  Mn4  1  0.740765  0.718825  0.282224  1
  Mn  Mn5  1  0.861318  0.618526  0.940330  1
  Mn  Mn6  1  0.138682  0.381474  0.059670  1
  Mn  Mn7  1  0.259235  0.281175  0.717776  1
  Mn  Mn8  1  0.640073  0.063988  0.381846  1
  P  P9  1  0.375476  0.661119  0.882264  1
  P  P10  1  0.755062  0.298394  0.710807  1
  P  P11  1  0.885426  0.875948  0.665506  1
  P  P12  1  0.114574  0.124052  0.334494  1
  P  P13  1  0.244938  0.701606  0.289193  1
  P  P14  1  0.624524  0.338881  0.117736  1
  O  O15  1  0.397011  0.843238  0.849534  1
  O  O16  1  0.960041  0.263994  0.833485  1
  O  O17  1  0.194844  0.597295  0.965812  1
  O  O18  1  0.774654  0.279442  0.540439  1
  O  O19  1  0.696083  0.459789  0.273182  1
  O  O20  1  0.605764  0.674744  0.009173  1
  O  O21  1  0.887546  0.984146  0.309774  1
  O  O22  1  0.849832  0.730761  0.543415  1
  O  O23  1  0.750076  0.477180  0.735262  1
  O  O24  1  0.307051  0.051275  0.392877  1
  O  O25  1  0.537805  0.179145  0.729059  1
  O  O26  1  0.911644  0.831389  0.844953  1
  O  O27  1  0.088356  0.168611  0.155047  1
  O  O28  1  0.462195  0.820855  0.270941  1
  O  O29  1  0.692949  0.948725  0.607123  1
  O  O30  1  0.249924  0.522820  0.264738  1
  O  O31  1  0.150168  0.269239  0.456585  1
  O  O32  1  0.112454  0.015854  0.690226  1
  O  O33  1  0.394236  0.325256  0.990827  1
  O  O34  1  0.303917  0.540211  0.726818  1
  O  O35  1  0.225346  0.720558  0.459561  1
  O  O36  1  0.805156  0.402705  0.034188  1
  O  O37  1  0.039959  0.736006  0.166515  1
  O  O38  1  0.602989  0.156762  0.150466  1
