# generated using pymatgen
data_Li3Co3(Ge3O8)2
_symmetry_space_group_name_H-M   'P 1'
_cell_length_a   8.40941316
_cell_length_b   8.42074996
_cell_length_c   8.42091493
_cell_angle_alpha   90.00000000
_cell_angle_beta   90.06049440
_cell_angle_gamma   90.00000000
_symmetry_Int_Tables_number   1
_chemical_formula_structural   Li3Co3(Ge3O8)2
_chemical_formula_sum   'Li6 Co6 Ge12 O32'
_cell_volume   596.31467922
_cell_formula_units_Z   2
loop_
 _symmetry_equiv_pos_site_id
 _symmetry_equiv_pos_as_xyz
  1  'x, y, z'
loop_
 _atom_site_type_symbol
 _atom_site_label
 _atom_site_symmetry_multiplicity
 _atom_site_fract_x
 _atom_site_fract_y
 _atom_site_fract_z
 _atom_site_occupancy
  Li  Li0  1  0.000596  0.000307  0.249908  1
  Li  Li1  1  0.999404  0.500307  0.750092  1
  Li  Li2  1  0.876828  0.125791  0.876625  1
  Li  Li3  1  0.627382  0.875352  0.373839  1
  Li  Li4  1  0.372618  0.375352  0.626161  1
  Li  Li5  1  0.123172  0.625791  0.123375  1
  Co  Co6  1  0.752768  0.751121  0.001279  1
  Co  Co7  1  0.748839  0.247627  0.502108  1
  Co  Co8  1  0.496830  0.502487  0.252036  1
  Co  Co9  1  0.503170  0.002487  0.747964  1
  Co  Co10  1  0.251161  0.747627  0.497892  1
  Co  Co11  1  0.247232  0.251121  0.998721  1
  Ge  Ge12  1  0.873545  0.875275  0.620522  1
  Ge  Ge13  1  0.879005  0.371697  0.119440  1
  Ge  Ge14  1  0.876092  0.631403  0.373450  1
  Ge  Ge15  1  0.625053  0.624937  0.622062  1
  Ge  Ge16  1  0.629183  0.372630  0.872881  1
  Ge  Ge17  1  0.632411  0.121284  0.126213  1
  Ge  Ge18  1  0.370817  0.872630  0.127119  1
  Ge  Ge19  1  0.367589  0.621284  0.873787  1
  Ge  Ge20  1  0.374947  0.124937  0.377938  1
  Ge  Ge21  1  0.120995  0.871697  0.880560  1
  Ge  Ge22  1  0.126455  0.375275  0.379478  1
  Ge  Ge23  1  0.123908  0.131403  0.626550  1
  O  O24  1  0.870671  0.605380  0.148293  1
  O  O25  1  0.859942  0.638774  0.610978  1
  O  O26  1  0.852156  0.145242  0.129332  1
  O  O27  1  0.892948  0.101196  0.621983  1
  O  O28  1  0.896434  0.872159  0.854266  1
  O  O29  1  0.879284  0.851926  0.394505  1
  O  O30  1  0.854743  0.379129  0.898794  1
  O  O31  1  0.887520  0.388369  0.361691  1
  O  O32  1  0.605005  0.896745  0.122158  1
  O  O33  1  0.611303  0.612013  0.861608  1
  O  O34  1  0.647250  0.856126  0.627750  1
  O  O35  1  0.643004  0.621468  0.397294  1
  O  O36  1  0.636042  0.362329  0.112630  1
  O  O37  1  0.621651  0.147718  0.894367  1
  O  O38  1  0.627763  0.393734  0.647643  1
  O  O39  1  0.601326  0.127779  0.356712  1
  O  O40  1  0.363958  0.862329  0.887370  1
  O  O41  1  0.372237  0.893734  0.352357  1
  O  O42  1  0.378349  0.647718  0.105633  1
  O  O43  1  0.398674  0.627779  0.643288  1
  O  O44  1  0.394995  0.396745  0.877842  1
  O  O45  1  0.352750  0.356126  0.372250  1
  O  O46  1  0.388697  0.112013  0.138392  1
  O  O47  1  0.356996  0.121468  0.602706  1
  O  O48  1  0.145257  0.879129  0.101206  1
  O  O49  1  0.112480  0.888369  0.638309  1
  O  O50  1  0.147844  0.645242  0.870668  1
  O  O51  1  0.107052  0.601196  0.378017  1
  O  O52  1  0.103566  0.372159  0.145734  1
  O  O53  1  0.120716  0.351926  0.605495  1
  O  O54  1  0.129329  0.105380  0.851707  1
  O  O55  1  0.140058  0.138774  0.389022  1
