# generated using pymatgen
data_Li5Fe8(BO3)8
_symmetry_space_group_name_H-M   'P 1'
_cell_length_a   5.27073202
_cell_length_b   9.08123871
_cell_length_c   11.30262442
_cell_angle_alpha   113.05888410
_cell_angle_beta   102.77246458
_cell_angle_gamma   89.70714605
_symmetry_Int_Tables_number   1
_chemical_formula_structural   Li5Fe8(BO3)8
_chemical_formula_sum   'Li5 Fe8 B8 O24'
_cell_volume   483.45087072
_cell_formula_units_Z   1
loop_
 _symmetry_equiv_pos_site_id
 _symmetry_equiv_pos_as_xyz
  1  'x, y, z'
loop_
 _atom_site_type_symbol
 _atom_site_label
 _atom_site_symmetry_multiplicity
 _atom_site_fract_x
 _atom_site_fract_y
 _atom_site_fract_z
 _atom_site_occupancy
  Li  Li0  1  0.166888  0.840835  0.655623  1
  Li  Li1  1  0.610219  0.954059  0.914934  1
  Li  Li2  1  0.933250  0.569103  0.167979  1
  Li  Li3  1  0.112952  0.445163  0.901724  1
  Li  Li4  1  0.655974  0.326570  0.637126  1
  Fe  Fe5  1  0.412712  0.730883  0.133432  1
  Fe  Fe6  1  0.095268  0.769665  0.877473  1
  Fe  Fe7  1  0.846262  0.860762  0.381323  1
  Fe  Fe8  1  0.645510  0.657673  0.623477  1
  Fe  Fe9  1  0.350980  0.352738  0.372253  1
  Fe  Fe10  1  0.148379  0.157523  0.626367  1
  Fe  Fe11  1  0.901844  0.218862  0.137443  1
  Fe  Fe12  1  0.600626  0.276879  0.882740  1
  B  B13  1  0.645982  0.987198  0.630442  1
  B  B14  1  0.893828  0.884764  0.120397  1
  B  B15  1  0.152496  0.488798  0.634671  1
  B  B16  1  0.399284  0.400520  0.127975  1
  B  B17  1  0.849574  0.518683  0.377478  1
  B  B18  1  0.604634  0.604667  0.871956  1
  B  B19  1  0.354924  0.026259  0.382979  1
  B  B20  1  0.094933  0.102295  0.878759  1
  O  O21  1  0.116271  0.848475  0.069646  1
  O  O22  1  0.476785  0.884225  0.340858  1
  O  O23  1  0.217531  0.960483  0.861092  1
  O  O24  1  0.512326  0.864640  0.638590  1
  O  O25  1  0.881079  0.960123  0.586502  1
  O  O26  1  0.815030  0.781936  0.175260  1
  O  O27  1  0.249515  0.517555  0.105479  1
  O  O28  1  0.058719  0.643599  0.674167  1
  O  O29  1  0.710907  0.725134  0.843084  1
  O  O30  1  0.623958  0.522516  0.422004  1
  O  O31  1  0.941687  0.650805  0.363233  1
  O  O32  1  0.365340  0.626963  0.908187  1
  O  O33  1  0.644258  0.382491  0.098513  1
  O  O34  1  0.383637  0.467032  0.591146  1
  O  O35  1  0.299182  0.300122  0.176827  1
  O  O36  1  0.980348  0.380964  0.347441  1
  O  O37  1  0.732969  0.472757  0.865752  1
  O  O38  1  0.204293  0.218032  0.848406  1
  O  O39  1  0.120527  0.022681  0.419358  1
  O  O40  1  0.467159  0.166470  0.393007  1
  O  O41  1  0.019766  0.368231  0.645178  1
  O  O42  1  0.753838  0.005636  0.109689  1
  O  O43  1  0.554773  0.138828  0.666160  1
  O  O44  1  0.864132  0.121286  0.919829  1
