# generated using pymatgen
data_LiNiPO4
_symmetry_space_group_name_H-M   'P 1'
_cell_length_a   4.94453073
_cell_length_b   8.14134511
_cell_length_c   17.97535147
_cell_angle_alpha   90.00000000
_cell_angle_beta   90.00000000
_cell_angle_gamma   90.00000000
_symmetry_Int_Tables_number   1
_chemical_formula_structural   LiNiPO4
_chemical_formula_sum   'Li8 Ni8 P8 O32'
_cell_volume   723.60012973
_cell_formula_units_Z   8
loop_
 _symmetry_equiv_pos_site_id
 _symmetry_equiv_pos_as_xyz
  1  'x, y, z'
loop_
 _atom_site_type_symbol
 _atom_site_label
 _atom_site_symmetry_multiplicity
 _atom_site_fract_x
 _atom_site_fract_y
 _atom_site_fract_z
 _atom_site_occupancy
  Li  Li0  1  0.472007  0.627274  0.260745  1
  Li  Li1  1  0.567510  0.585632  0.056244  1
  Li  Li2  1  0.067510  0.914368  0.556244  1
  Li  Li3  1  0.972007  0.872726  0.760745  1
  Li  Li4  1  0.472007  0.127274  0.239255  1
  Li  Li5  1  0.567510  0.085632  0.443756  1
  Li  Li6  1  0.067510  0.414368  0.943756  1
  Li  Li7  1  0.972007  0.372726  0.739255  1
  Ni  Ni8  1  0.968065  0.511088  0.431801  1
  Ni  Ni9  1  0.473475  0.650823  0.846422  1
  Ni  Ni10  1  0.973475  0.849177  0.346422  1
  Ni  Ni11  1  0.468065  0.988912  0.931801  1
  Ni  Ni12  1  0.968065  0.011088  0.068199  1
  Ni  Ni13  1  0.473475  0.150823  0.653578  1
  Ni  Ni14  1  0.973475  0.349177  0.153578  1
  Ni  Ni15  1  0.468065  0.488912  0.568199  1
  P  P16  1  0.937770  0.700035  0.182231  1
  P  P17  1  0.436811  0.734568  0.431168  1
  P  P18  1  0.936811  0.765432  0.931168  1
  P  P19  1  0.437770  0.799965  0.682231  1
  P  P20  1  0.937770  0.200035  0.317769  1
  P  P21  1  0.436811  0.234568  0.068832  1
  P  P22  1  0.936811  0.265432  0.568832  1
  P  P23  1  0.437770  0.299965  0.817769  1
  O  O24  1  0.775109  0.553144  0.146555  1
  O  O25  1  0.326679  0.580095  0.473845  1
  O  O26  1  0.841164  0.607214  0.968133  1
  O  O27  1  0.360299  0.642998  0.639689  1
  O  O28  1  0.237715  0.657340  0.179981  1
  O  O29  1  0.753536  0.722935  0.428470  1
  O  O30  1  0.827864  0.719352  0.263037  1
  O  O31  1  0.813163  0.782600  0.851914  1
  O  O32  1  0.313163  0.717400  0.351914  1
  O  O33  1  0.327864  0.780648  0.763037  1
  O  O34  1  0.253536  0.777065  0.928470  1
  O  O35  1  0.737715  0.842660  0.679981  1
  O  O36  1  0.860299  0.857002  0.139689  1
  O  O37  1  0.341164  0.892786  0.468133  1
  O  O38  1  0.826679  0.919905  0.973845  1
  O  O39  1  0.275109  0.946856  0.646555  1
  O  O40  1  0.775109  0.053144  0.353445  1
  O  O41  1  0.326679  0.080095  0.026155  1
  O  O42  1  0.841164  0.107214  0.531867  1
  O  O43  1  0.360299  0.142998  0.860311  1
  O  O44  1  0.237715  0.157340  0.320019  1
  O  O45  1  0.753536  0.222935  0.071530  1
  O  O46  1  0.827864  0.219352  0.236963  1
  O  O47  1  0.813163  0.282600  0.648086  1
  O  O48  1  0.313163  0.217400  0.148086  1
  O  O49  1  0.327864  0.280648  0.736963  1
  O  O50  1  0.253536  0.277065  0.571530  1
  O  O51  1  0.737715  0.342660  0.820019  1
  O  O52  1  0.860299  0.357002  0.360311  1
  O  O53  1  0.341164  0.392786  0.031867  1
  O  O54  1  0.826679  0.419905  0.526155  1
  O  O55  1  0.275109  0.446856  0.853445  1
