# generated using pymatgen
data_Li4Mn3Co2Sn3O16
_symmetry_space_group_name_H-M   'P 1'
_cell_length_a   6.08543141
_cell_length_b   6.08543141
_cell_length_c   9.76504486
_cell_angle_alpha   89.61758676
_cell_angle_beta   90.38241324
_cell_angle_gamma   119.96072548
_symmetry_Int_Tables_number   1
_chemical_formula_structural   Li4Mn3Co2Sn3O16
_chemical_formula_sum   'Li4 Mn3 Co2 Sn3 O16'
_cell_volume   313.28994301
_cell_formula_units_Z   1
loop_
 _symmetry_equiv_pos_site_id
 _symmetry_equiv_pos_as_xyz
  1  'x, y, z'
loop_
 _atom_site_type_symbol
 _atom_site_label
 _atom_site_symmetry_multiplicity
 _atom_site_fract_x
 _atom_site_fract_y
 _atom_site_fract_z
 _atom_site_occupancy
  Li  Li0  1  0.673078  0.326922  0.117361  1
  Li  Li1  1  0.986613  0.013387  0.004959  1
  Li  Li2  1  0.989496  0.010504  0.497949  1
  Li  Li3  1  0.338011  0.661989  0.608742  1
  Mn  Mn4  1  0.831688  0.168312  0.783703  1
  Mn  Mn5  1  0.662487  0.829692  0.284760  1
  Mn  Mn6  1  0.170308  0.337513  0.284760  1
  Co  Co7  1  0.668564  0.331436  0.502549  1
  Co  Co8  1  0.336566  0.663434  0.009607  1
  Sn  Sn9  1  0.832199  0.660770  0.785370  1
  Sn  Sn10  1  0.339230  0.167801  0.785370  1
  Sn  Sn11  1  0.169877  0.830123  0.285429  1
  O  O12  1  0.833236  0.685882  0.397461  1
  O  O13  1  0.517706  0.482294  0.659000  1
  O  O14  1  0.678798  0.321202  0.900313  1
  O  O15  1  0.989984  0.010016  0.681949  1
  O  O16  1  0.989656  0.010344  0.188881  1
  O  O17  1  0.314118  0.166764  0.397461  1
  O  O18  1  0.967302  0.470217  0.664950  1
  O  O19  1  0.529783  0.032698  0.664950  1
  O  O20  1  0.156507  0.843493  0.907370  1
  O  O21  1  0.840000  0.160000  0.388069  1
  O  O22  1  0.494916  0.961765  0.167059  1
  O  O23  1  0.038235  0.505084  0.167059  1
  O  O24  1  0.345620  0.654380  0.393401  1
  O  O25  1  0.680742  0.850503  0.895479  1
  O  O26  1  0.482562  0.517438  0.172898  1
  O  O27  1  0.149497  0.319258  0.895479  1
