# generated using pymatgen
data_Li2Mn4O5F3
_symmetry_space_group_name_H-M   'P 1'
_cell_length_a   6.12788380
_cell_length_b   6.12788380
_cell_length_c   5.89823935
_cell_angle_alpha   61.52619007
_cell_angle_beta   118.47380993
_cell_angle_gamma   121.33670415
_symmetry_Int_Tables_number   1
_chemical_formula_structural   Li2Mn4O5F3
_chemical_formula_sum   'Li2 Mn4 O5 F3'
_cell_volume   158.38170865
_cell_formula_units_Z   1
loop_
 _symmetry_equiv_pos_site_id
 _symmetry_equiv_pos_as_xyz
  1  'x, y, z'
loop_
 _atom_site_type_symbol
 _atom_site_label
 _atom_site_symmetry_multiplicity
 _atom_site_fract_x
 _atom_site_fract_y
 _atom_site_fract_z
 _atom_site_occupancy
  Li  Li0  1  0.870452  0.618627  0.620305  1
  Li  Li1  1  0.381373  0.129548  0.620305  1
  Mn  Mn2  1  0.389020  0.610980  0.138078  1
  Mn  Mn3  1  0.987098  0.012902  0.987781  1
  Mn  Mn4  1  0.754698  0.245302  0.270740  1
  Mn  Mn5  1  0.375313  0.624687  0.624096  1
  O  O6  1  0.596745  0.836148  0.380547  1
  O  O7  1  0.597309  0.402691  0.351968  1
  O  O8  1  0.582784  0.845838  0.868106  1
  O  O9  1  0.154162  0.417216  0.868106  1
  O  O10  1  0.163852  0.403255  0.380547  1
  F  F11  1  0.125325  0.874675  0.399320  1
  F  F12  1  0.144749  0.855251  0.885151  1
  F  F13  1  0.627122  0.372878  0.854953  1
