# generated using pymatgen
data_NaCu3O4
_symmetry_space_group_name_H-M   'P 1'
_cell_length_a   6.06596505
_cell_length_b   6.06596505
_cell_length_c   3.51214683
_cell_angle_alpha   89.93853292
_cell_angle_beta   90.06146708
_cell_angle_gamma   126.54899561
_symmetry_Int_Tables_number   1
_chemical_formula_structural   NaCu3O4
_chemical_formula_sum   'Na1 Cu3 O4'
_cell_volume   103.81875761
_cell_formula_units_Z   1
loop_
 _symmetry_equiv_pos_site_id
 _symmetry_equiv_pos_as_xyz
  1  'x, y, z'
loop_
 _atom_site_type_symbol
 _atom_site_label
 _atom_site_symmetry_multiplicity
 _atom_site_fract_x
 _atom_site_fract_y
 _atom_site_fract_z
 _atom_site_occupancy
  Na  Na0  1  0.993226  0.006774  0.495317  1
  Cu  Cu1  1  0.238828  0.761172  0.998783  1
  Cu  Cu2  1  0.754985  0.245015  0.991304  1
  Cu  Cu3  1  0.497433  0.502567  0.008857  1
  O  O4  1  0.870028  0.615238  0.991653  1
  O  O5  1  0.384762  0.129972  0.991653  1
  O  O6  1  0.608364  0.875322  0.002595  1
  O  O7  1  0.124678  0.391636  0.002595  1
