# generated using pymatgen
data_LiFe(Si2O5)2
_symmetry_space_group_name_H-M   'P 1'
_cell_length_a   4.85494608
_cell_length_b   7.15893113
_cell_length_c   11.44561088
_cell_angle_alpha   90.00000000
_cell_angle_beta   90.00000000
_cell_angle_gamma   90.00000000
_symmetry_Int_Tables_number   1
_chemical_formula_structural   LiFe(Si2O5)2
_chemical_formula_sum   'Li2 Fe2 Si8 O20'
_cell_volume   397.80622273
_cell_formula_units_Z   2
loop_
 _symmetry_equiv_pos_site_id
 _symmetry_equiv_pos_as_xyz
  1  'x, y, z'
loop_
 _atom_site_type_symbol
 _atom_site_label
 _atom_site_symmetry_multiplicity
 _atom_site_fract_x
 _atom_site_fract_y
 _atom_site_fract_z
 _atom_site_occupancy
  Li  Li0  1  0.500000  0.500000  0.277260  1
  Li  Li1  1  0.500000  0.000000  0.777260  1
  Fe  Fe2  1  0.000000  0.500000  0.383927  1
  Fe  Fe3  1  0.000000  0.000000  0.883927  1
  Si  Si4  1  0.038182  0.213789  0.169796  1
  Si  Si5  1  0.038182  0.286211  0.669796  1
  Si  Si6  1  0.456069  0.713066  0.011982  1
  Si  Si7  1  0.456069  0.786934  0.511982  1
  Si  Si8  1  0.543931  0.213066  0.511982  1
  Si  Si9  1  0.543931  0.286934  0.011982  1
  Si  Si10  1  0.961818  0.713789  0.669796  1
  Si  Si11  1  0.961818  0.786211  0.169796  1
  O  O12  1  0.000000  0.000000  0.214696  1
  O  O13  1  0.000000  0.500000  0.714696  1
  O  O14  1  0.234305  0.206356  0.050076  1
  O  O15  1  0.234305  0.293644  0.550076  1
  O  O16  1  0.176954  0.158517  0.770082  1
  O  O17  1  0.176954  0.341483  0.270082  1
  O  O18  1  0.310597  0.652145  0.417249  1
  O  O19  1  0.310597  0.847855  0.917249  1
  O  O20  1  0.267220  0.702771  0.132442  1
  O  O21  1  0.267220  0.797229  0.632442  1
  O  O22  1  0.500000  0.500000  0.964617  1
  O  O23  1  0.500000  0.000000  0.464617  1
  O  O24  1  0.732780  0.202771  0.632442  1
  O  O25  1  0.732780  0.297229  0.132442  1
  O  O26  1  0.689403  0.347855  0.417249  1
  O  O27  1  0.689403  0.152145  0.917249  1
  O  O28  1  0.823046  0.841483  0.770082  1
  O  O29  1  0.823046  0.658517  0.270082  1
  O  O30  1  0.765695  0.706356  0.550076  1
  O  O31  1  0.765695  0.793644  0.050076  1
