# generated using pymatgen
data_Li6Ti8Ni(PO5)8
_symmetry_space_group_name_H-M   'P 1'
_cell_length_a   6.45341123
_cell_length_b   10.43517991
_cell_length_c   10.45237626
_cell_angle_alpha   90.95944998
_cell_angle_beta   90.17636896
_cell_angle_gamma   90.32518374
_symmetry_Int_Tables_number   1
_chemical_formula_structural   Li6Ti8Ni(PO5)8
_chemical_formula_sum   'Li6 Ti8 Ni1 P8 O40'
_cell_volume   703.77565598
_cell_formula_units_Z   1
loop_
 _symmetry_equiv_pos_site_id
 _symmetry_equiv_pos_as_xyz
  1  'x, y, z'
loop_
 _atom_site_type_symbol
 _atom_site_label
 _atom_site_symmetry_multiplicity
 _atom_site_fract_x
 _atom_site_fract_y
 _atom_site_fract_z
 _atom_site_occupancy
  Li  Li0  1  0.000000  0.000000  0.000000  1
  Li  Li1  1  0.000000  0.500000  0.500000  1
  Li  Li2  1  0.500000  0.000000  0.500000  1
  Li  Li3  1  0.500000  0.000000  0.000000  1
  Li  Li4  1  0.500000  0.500000  0.500000  1
  Li  Li5  1  0.000000  0.000000  0.500000  1
  Ti  Ti6  1  0.763644  0.281861  0.943631  1
  Ti  Ti7  1  0.749369  0.779011  0.440658  1
  Ti  Ti8  1  0.748934  0.559462  0.720764  1
  Ti  Ti9  1  0.749598  0.059028  0.221174  1
  Ti  Ti10  1  0.250631  0.220989  0.559342  1
  Ti  Ti11  1  0.236356  0.718139  0.056369  1
  Ti  Ti12  1  0.250402  0.940972  0.778826  1
  Ti  Ti13  1  0.251066  0.440538  0.279236  1
  Ni  Ni14  1  0.500000  0.500000  0.000000  1
  P  P15  1  0.751128  0.250329  0.623880  1
  P  P16  1  0.748874  0.750121  0.122205  1
  P  P17  1  0.750031  0.878476  0.749815  1
  P  P18  1  0.746294  0.378597  0.251848  1
  P  P19  1  0.251126  0.249879  0.877795  1
  P  P20  1  0.248872  0.749671  0.376120  1
  P  P21  1  0.253706  0.621403  0.748152  1
  P  P22  1  0.249969  0.121524  0.250185  1
  O  O23  1  0.943435  0.188010  0.561052  1
  O  O24  1  0.942506  0.690545  0.060582  1
  O  O25  1  0.943474  0.941630  0.812155  1
  O  O26  1  0.944458  0.442833  0.306963  1
  O  O27  1  0.752478  0.397464  0.601157  1
  O  O28  1  0.746214  0.897403  0.101312  1
  O  O29  1  0.751326  0.636179  0.522993  1
  O  O30  1  0.752917  0.137310  0.023338  1
  O  O31  1  0.749109  0.733747  0.779405  1
  O  O32  1  0.750997  0.222154  0.768300  1
  O  O33  1  0.752832  0.233805  0.280772  1
  O  O34  1  0.746605  0.719067  0.266172  1
  O  O35  1  0.721724  0.479194  0.864077  1
  O  O36  1  0.750369  0.977624  0.364398  1
  O  O37  1  0.750329  0.899561  0.602854  1
  O  O38  1  0.728585  0.399275  0.105193  1
  O  O39  1  0.557160  0.188244  0.560570  1
  O  O40  1  0.557635  0.688429  0.055755  1
  O  O41  1  0.557198  0.940874  0.811523  1
  O  O42  1  0.558210  0.439602  0.319349  1
  O  O43  1  0.441790  0.560398  0.680651  1
  O  O44  1  0.442802  0.059126  0.188477  1
  O  O45  1  0.442365  0.311571  0.944245  1
  O  O46  1  0.442840  0.811756  0.439430  1
  O  O47  1  0.247083  0.862690  0.976662  1
  O  O48  1  0.253786  0.102597  0.898688  1
  O  O49  1  0.248674  0.363821  0.477007  1
  O  O50  1  0.247168  0.766195  0.719228  1
  O  O51  1  0.247522  0.602536  0.398843  1
  O  O52  1  0.250891  0.266253  0.220595  1
  O  O53  1  0.271415  0.600725  0.894807  1
  O  O54  1  0.249671  0.100439  0.397146  1
  O  O55  1  0.253395  0.280933  0.733828  1
  O  O56  1  0.249631  0.022376  0.635602  1
  O  O57  1  0.249003  0.777846  0.231700  1
  O  O58  1  0.278276  0.520806  0.135923  1
  O  O59  1  0.055542  0.557167  0.693037  1
  O  O60  1  0.056526  0.058370  0.187845  1
  O  O61  1  0.057494  0.309455  0.939418  1
  O  O62  1  0.056565  0.811990  0.438948  1
