# generated using pymatgen
data_NdZrO3
_symmetry_space_group_name_H-M   'P 1'
_cell_length_a   7.61752466
_cell_length_b   7.61752466
_cell_length_c   7.61752466
_cell_angle_alpha   120.44074259
_cell_angle_beta   120.44074259
_cell_angle_gamma   89.23829170
_symmetry_Int_Tables_number   1
_chemical_formula_structural   NdZrO3
_chemical_formula_sum   'Nd4 Zr4 O12'
_cell_volume   310.44318465
_cell_formula_units_Z   4
loop_
 _symmetry_equiv_pos_site_id
 _symmetry_equiv_pos_as_xyz
  1  'x, y, z'
loop_
 _atom_site_type_symbol
 _atom_site_label
 _atom_site_symmetry_multiplicity
 _atom_site_fract_x
 _atom_site_fract_y
 _atom_site_fract_z
 _atom_site_occupancy
  Nd  Nd0  1  0.625293  0.866348  0.758945  1
  Nd  Nd1  1  0.133652  0.374707  0.241055  1
  Nd  Nd2  1  0.133652  0.892598  0.758945  1
  Nd  Nd3  1  0.107402  0.866348  0.241055  1
  Zr  Zr4  1  0.629559  0.374504  0.744945  1
  Zr  Zr5  1  0.115386  0.370441  0.744945  1
  Zr  Zr6  1  0.625496  0.370441  0.255055  1
  Zr  Zr7  1  0.629559  0.884614  0.255055  1
  O  O8  1  0.971377  0.471377  0.942754  1
  O  O9  1  0.292508  0.707492  0.000000  1
  O  O10  1  0.284407  0.284407  0.000000  1
  O  O11  1  0.000000  0.000000  0.000000  1
  O  O12  1  0.715593  0.715593  0.000000  1
  O  O13  1  0.707492  0.707492  0.414984  1
  O  O14  1  0.528623  0.471377  0.500000  1
  O  O15  1  0.707492  0.292508  1.000000  1
  O  O16  1  0.528623  0.028623  0.057246  1
  O  O17  1  0.250000  0.750000  0.500000  1
  O  O18  1  0.971377  0.028623  0.500000  1
  O  O19  1  0.292508  0.292508  0.585016  1
