# generated using pymatgen
data_CaH2(SO4)2
_symmetry_space_group_name_H-M   'P 1'
_cell_length_a   6.99836920
_cell_length_b   12.80576685
_cell_length_c   14.24909826
_cell_angle_alpha   90.00000000
_cell_angle_beta   90.00000000
_cell_angle_gamma   90.00000000
_symmetry_Int_Tables_number   1
_chemical_formula_structural   CaH2(SO4)2
_chemical_formula_sum   'Ca8 H16 S16 O64'
_cell_volume   1276.99683788
_cell_formula_units_Z   8
loop_
 _symmetry_equiv_pos_site_id
 _symmetry_equiv_pos_as_xyz
  1  'x, y, z'
loop_
 _atom_site_type_symbol
 _atom_site_label
 _atom_site_symmetry_multiplicity
 _atom_site_fract_x
 _atom_site_fract_y
 _atom_site_fract_z
 _atom_site_occupancy
  Ca  Ca0  1  0.651743  0.436596  0.312208  1
  Ca  Ca1  1  0.848257  0.936596  0.687792  1
  Ca  Ca2  1  0.151743  0.563404  0.187792  1
  Ca  Ca3  1  0.348257  0.063404  0.812208  1
  Ca  Ca4  1  0.348257  0.563404  0.687792  1
  Ca  Ca5  1  0.151743  0.063404  0.312208  1
  Ca  Ca6  1  0.848257  0.436596  0.812208  1
  Ca  Ca7  1  0.651743  0.936596  0.187792  1
  H  H8  1  0.671223  0.172321  0.476577  1
  H  H9  1  0.828777  0.672321  0.523423  1
  H  H10  1  0.171223  0.827679  0.023423  1
  H  H11  1  0.328777  0.327679  0.976577  1
  H  H12  1  0.328777  0.827679  0.523423  1
  H  H13  1  0.171223  0.327679  0.476577  1
  H  H14  1  0.828777  0.172321  0.976577  1
  H  H15  1  0.671223  0.672321  0.023423  1
  H  H16  1  0.581401  0.322441  0.118674  1
  H  H17  1  0.918599  0.822441  0.881326  1
  H  H18  1  0.081401  0.677559  0.381326  1
  H  H19  1  0.418599  0.177559  0.618674  1
  H  H20  1  0.418599  0.677559  0.881326  1
  H  H21  1  0.081401  0.177559  0.118674  1
  H  H22  1  0.918599  0.322441  0.618674  1
  H  H23  1  0.581401  0.822441  0.381326  1
  S  S24  1  0.662164  0.140014  0.326068  1
  S  S25  1  0.837836  0.640014  0.673932  1
  S  S26  1  0.162164  0.859986  0.173932  1
  S  S27  1  0.337836  0.359986  0.826068  1
  S  S28  1  0.337836  0.859986  0.673932  1
  S  S29  1  0.162164  0.359986  0.326068  1
  S  S30  1  0.837836  0.140014  0.826068  1
  S  S31  1  0.662164  0.640014  0.173932  1
  S  S32  1  0.864576  0.356443  0.065341  1
  S  S33  1  0.635424  0.856443  0.934659  1
  S  S34  1  0.364576  0.643557  0.434659  1
  S  S35  1  0.135424  0.143557  0.565341  1
  S  S36  1  0.135424  0.643557  0.934659  1
  S  S37  1  0.364576  0.143557  0.065341  1
  S  S38  1  0.635424  0.356443  0.565341  1
  S  S39  1  0.864576  0.856443  0.434659  1
  O  O40  1  0.629004  0.250183  0.308886  1
  O  O41  1  0.870996  0.750183  0.691114  1
  O  O42  1  0.129004  0.749817  0.191114  1
  O  O43  1  0.370996  0.249817  0.808886  1
  O  O44  1  0.370996  0.749817  0.691114  1
  O  O45  1  0.129004  0.249817  0.308886  1
  O  O46  1  0.870996  0.250183  0.808886  1
  O  O47  1  0.629004  0.750183  0.191114  1
  O  O48  1  0.988825  0.423997  0.315628  1
  O  O49  1  0.511175  0.923997  0.684372  1
  O  O50  1  0.488825  0.576003  0.184372  1
  O  O51  1  0.011175  0.076003  0.815628  1
  O  O52  1  0.011175  0.576003  0.684372  1
  O  O53  1  0.488825  0.076003  0.315628  1
  O  O54  1  0.511175  0.423997  0.815628  1
  O  O55  1  0.988825  0.923997  0.184372  1
  O  O56  1  0.815035  0.092574  0.268113  1
  O  O57  1  0.684965  0.592574  0.731887  1
  O  O58  1  0.315035  0.907426  0.231887  1
  O  O59  1  0.184965  0.407426  0.768113  1
  O  O60  1  0.184965  0.907426  0.731887  1
  O  O61  1  0.315035  0.407426  0.268113  1
  O  O62  1  0.684965  0.092574  0.768113  1
  O  O63  1  0.815035  0.592574  0.231887  1
  O  O64  1  0.739799  0.126723  0.428603  1
  O  O65  1  0.760201  0.626723  0.571397  1
  O  O66  1  0.239799  0.873277  0.071397  1
  O  O67  1  0.260201  0.373277  0.928603  1
  O  O68  1  0.260201  0.873277  0.571397  1
  O  O69  1  0.239799  0.373277  0.428603  1
  O  O70  1  0.760201  0.126723  0.928603  1
  O  O71  1  0.739799  0.626723  0.071397  1
  O  O72  1  0.693007  0.367430  0.139468  1
  O  O73  1  0.806993  0.867430  0.860532  1
  O  O74  1  0.193007  0.632570  0.360532  1
  O  O75  1  0.306993  0.132570  0.639468  1
  O  O76  1  0.306993  0.632570  0.860532  1
  O  O77  1  0.193007  0.132570  0.139468  1
  O  O78  1  0.806993  0.367430  0.639468  1
  O  O79  1  0.693007  0.867430  0.360532  1
  O  O80  1  0.515579  0.081211  0.106376  1
  O  O81  1  0.984421  0.581211  0.893624  1
  O  O82  1  0.015579  0.918789  0.393624  1
  O  O83  1  0.484421  0.418789  0.606376  1
  O  O84  1  0.484421  0.918789  0.893624  1
  O  O85  1  0.015579  0.418789  0.106376  1
  O  O86  1  0.984421  0.081211  0.606376  1
  O  O87  1  0.515579  0.581211  0.393624  1
  O  O88  1  0.708672  0.391926  0.475239  1
  O  O89  1  0.791328  0.891926  0.524761  1
  O  O90  1  0.208672  0.608074  0.024761  1
  O  O91  1  0.291328  0.108074  0.975239  1
  O  O92  1  0.291328  0.608074  0.524761  1
  O  O93  1  0.208672  0.108074  0.475239  1
  O  O94  1  0.791328  0.391926  0.975239  1
  O  O95  1  0.708672  0.891926  0.024761  1
  O  O96  1  0.914246  0.243569  0.061600  1
  O  O97  1  0.585754  0.743569  0.938400  1
  O  O98  1  0.414246  0.756431  0.438400  1
  O  O99  1  0.085754  0.256431  0.561600  1
  O  O100  1  0.085754  0.756431  0.938400  1
  O  O101  1  0.414246  0.256431  0.061600  1
  O  O102  1  0.585754  0.243569  0.561600  1
  O  O103  1  0.914246  0.743569  0.438400  1
