# generated using pymatgen
data_MnP2(H4O5)2
_symmetry_space_group_name_H-M   'P 1'
_cell_length_a   5.46906316
_cell_length_b   10.24036230
_cell_length_c   8.76800075
_cell_angle_alpha   90.00000000
_cell_angle_beta   122.99210259
_cell_angle_gamma   90.00000000
_symmetry_Int_Tables_number   1
_chemical_formula_structural   MnP2(H4O5)2
_chemical_formula_sum   'Mn2 P4 H16 O20'
_cell_volume   411.86900495
_cell_formula_units_Z   2
loop_
 _symmetry_equiv_pos_site_id
 _symmetry_equiv_pos_as_xyz
  1  'x, y, z'
loop_
 _atom_site_type_symbol
 _atom_site_label
 _atom_site_symmetry_multiplicity
 _atom_site_fract_x
 _atom_site_fract_y
 _atom_site_fract_z
 _atom_site_occupancy
  Mn  Mn0  1  0.000000  0.000000  0.000000  1
  Mn  Mn1  1  0.000000  0.500000  0.500000  1
  P  P2  1  0.088048  0.716454  0.831252  1
  P  P3  1  0.088048  0.783546  0.331252  1
  P  P4  1  0.911952  0.283546  0.168748  1
  P  P5  1  0.911952  0.216454  0.668748  1
  H  H6  1  0.590876  0.079820  0.168297  1
  H  H7  1  0.590876  0.420180  0.668297  1
  H  H8  1  0.409124  0.920180  0.831703  1
  H  H9  1  0.409124  0.579820  0.331703  1
  H  H10  1  0.879919  0.718354  0.984986  1
  H  H11  1  0.879919  0.781646  0.484986  1
  H  H12  1  0.120081  0.281646  0.015014  1
  H  H13  1  0.120081  0.218354  0.515014  1
  H  H14  1  0.585003  0.958454  0.273736  1
  H  H15  1  0.585003  0.541546  0.773736  1
  H  H16  1  0.414997  0.041546  0.726264  1
  H  H17  1  0.414997  0.458454  0.226264  1
  H  H18  1  0.444523  0.619056  0.084294  1
  H  H19  1  0.444523  0.880944  0.584294  1
  H  H20  1  0.555477  0.380944  0.915706  1
  H  H21  1  0.555477  0.119056  0.415706  1
  O  O22  1  0.128504  0.864202  0.859643  1
  O  O23  1  0.128504  0.635798  0.359643  1
  O  O24  1  0.871496  0.135798  0.140357  1
  O  O25  1  0.871496  0.364202  0.640357  1
  O  O26  1  0.977258  0.672155  0.638395  1
  O  O27  1  0.977258  0.827845  0.138395  1
  O  O28  1  0.022742  0.327845  0.361605  1
  O  O29  1  0.022742  0.172155  0.861605  1
  O  O30  1  0.864420  0.665502  0.881396  1
  O  O31  1  0.864420  0.834498  0.381396  1
  O  O32  1  0.135580  0.334498  0.118604  1
  O  O33  1  0.135580  0.165502  0.618604  1
  O  O34  1  0.388613  0.643398  0.958732  1
  O  O35  1  0.388613  0.856602  0.458732  1
  O  O36  1  0.611387  0.356602  0.041268  1
  O  O37  1  0.611387  0.143398  0.541268  1
  O  O38  1  0.474661  0.039365  0.213070  1
  O  O39  1  0.474661  0.460635  0.713070  1
  O  O40  1  0.525339  0.960635  0.786930  1
  O  O41  1  0.525339  0.539365  0.286930  1
