# generated using pymatgen
data_ZnSeO4
_symmetry_space_group_name_H-M   'P 1'
_cell_length_a   4.98914654
_cell_length_b   6.90757581
_cell_length_c   9.17792840
_cell_angle_alpha   90.00000000
_cell_angle_beta   90.00000000
_cell_angle_gamma   90.00000000
_symmetry_Int_Tables_number   1
_chemical_formula_structural   ZnSeO4
_chemical_formula_sum   'Zn4 Se4 O16'
_cell_volume   316.29810164
_cell_formula_units_Z   4
loop_
 _symmetry_equiv_pos_site_id
 _symmetry_equiv_pos_as_xyz
  1  'x, y, z'
loop_
 _atom_site_type_symbol
 _atom_site_label
 _atom_site_symmetry_multiplicity
 _atom_site_fract_x
 _atom_site_fract_y
 _atom_site_fract_z
 _atom_site_occupancy
  Zn  Zn0  1  0.000000  0.000000  0.000000  1
  Zn  Zn1  1  0.000000  0.500000  0.000000  1
  Zn  Zn2  1  0.500000  0.000000  0.500000  1
  Zn  Zn3  1  0.500000  0.500000  0.500000  1
  Se  Se4  1  0.534157  0.750000  0.181661  1
  Se  Se5  1  0.034157  0.250000  0.318339  1
  Se  Se6  1  0.965843  0.750000  0.681661  1
  Se  Se7  1  0.465843  0.250000  0.818339  1
  O  O8  1  0.682363  0.954870  0.129443  1
  O  O9  1  0.216939  0.750000  0.120694  1
  O  O10  1  0.682363  0.545130  0.129443  1
  O  O11  1  0.065563  0.250000  0.132535  1
  O  O12  1  0.565563  0.750000  0.367465  1
  O  O13  1  0.716939  0.250000  0.379306  1
  O  O14  1  0.182363  0.045130  0.370557  1
  O  O15  1  0.182363  0.454870  0.370557  1
  O  O16  1  0.817637  0.954870  0.629443  1
  O  O17  1  0.283061  0.750000  0.620694  1
  O  O18  1  0.817637  0.545130  0.629443  1
  O  O19  1  0.434437  0.250000  0.632535  1
  O  O20  1  0.934437  0.750000  0.867465  1
  O  O21  1  0.317637  0.454870  0.870557  1
  O  O22  1  0.783061  0.250000  0.879306  1
  O  O23  1  0.317637  0.045130  0.870557  1
