# generated using pymatgen
data_CaZn2H12(BrO)6
_symmetry_space_group_name_H-M   'P 1'
_cell_length_a   8.64975521
_cell_length_b   8.64975521
_cell_length_c   14.11669231
_cell_angle_alpha   73.63237750
_cell_angle_beta   106.36762250
_cell_angle_gamma   100.98915946
_symmetry_Int_Tables_number   1
_chemical_formula_structural   CaZn2H12(BrO)6
_chemical_formula_sum   'Ca2 Zn4 H24 Br12 O12'
_cell_volume   965.19270783
_cell_formula_units_Z   2
loop_
 _symmetry_equiv_pos_site_id
 _symmetry_equiv_pos_as_xyz
  1  'x, y, z'
loop_
 _atom_site_type_symbol
 _atom_site_label
 _atom_site_symmetry_multiplicity
 _atom_site_fract_x
 _atom_site_fract_y
 _atom_site_fract_z
 _atom_site_occupancy
  Ca  Ca0  1  0.429292  0.570708  0.276839  1
  Ca  Ca1  1  0.570708  0.429292  0.723161  1
  Zn  Zn2  1  0.042200  0.957800  0.312856  1
  Zn  Zn3  1  0.957800  0.042200  0.687144  1
  Zn  Zn4  1  0.777527  0.222473  0.160445  1
  Zn  Zn5  1  0.222473  0.777527  0.839555  1
  H  H6  1  0.125549  0.731271  0.152113  1
  H  H7  1  0.268729  0.874451  0.152113  1
  H  H8  1  0.874451  0.268729  0.847887  1
  H  H9  1  0.731271  0.125549  0.847887  1
  H  H10  1  0.355436  0.321237  0.150726  1
  H  H11  1  0.678763  0.644564  0.150726  1
  H  H12  1  0.644564  0.678763  0.849274  1
  H  H13  1  0.321237  0.355436  0.849274  1
  H  H14  1  0.227664  0.441625  0.096023  1
  H  H15  1  0.558375  0.772336  0.096023  1
  H  H16  1  0.772336  0.558375  0.903977  1
  H  H17  1  0.441625  0.227664  0.903977  1
  H  H18  1  0.591575  0.265989  0.398990  1
  H  H19  1  0.734011  0.408425  0.398990  1
  H  H20  1  0.408425  0.734011  0.601010  1
  H  H21  1  0.265989  0.591575  0.601010  1
  H  H22  1  0.204502  0.326127  0.386412  1
  H  H23  1  0.673873  0.795498  0.386412  1
  H  H24  1  0.795498  0.673873  0.613588  1
  H  H25  1  0.326127  0.204502  0.613588  1
  H  H26  1  0.146085  0.491989  0.379253  1
  H  H27  1  0.508011  0.853915  0.379253  1
  H  H28  1  0.853915  0.508011  0.620747  1
  H  H29  1  0.491989  0.146085  0.620747  1
  Br  Br30  1  0.946491  0.053509  0.124241  1
  Br  Br31  1  0.053509  0.946491  0.875759  1
  Br  Br32  1  0.870966  0.129034  0.350264  1
  Br  Br33  1  0.129034  0.870966  0.649736  1
  Br  Br34  1  0.959653  0.678178  0.381298  1
  Br  Br35  1  0.321822  0.040347  0.381298  1
  Br  Br36  1  0.040347  0.321822  0.618702  1
  Br  Br37  1  0.678178  0.959653  0.618702  1
  Br  Br38  1  0.492518  0.143429  0.102026  1
  Br  Br39  1  0.856571  0.507482  0.102026  1
  Br  Br40  1  0.507482  0.856571  0.897974  1
  Br  Br41  1  0.143429  0.492518  0.897974  1
  O  O42  1  0.242937  0.757063  0.174764  1
  O  O43  1  0.757063  0.242937  0.825236  1
  O  O44  1  0.304242  0.405414  0.161286  1
  O  O45  1  0.594586  0.695758  0.161286  1
  O  O46  1  0.695758  0.594586  0.838714  1
  O  O47  1  0.405414  0.304242  0.838714  1
  O  O48  1  0.616040  0.383960  0.380301  1
  O  O49  1  0.383960  0.616040  0.619699  1
  O  O50  1  0.237720  0.442773  0.376270  1
  O  O51  1  0.557227  0.762280  0.376270  1
  O  O52  1  0.762280  0.557227  0.623730  1
  O  O53  1  0.442773  0.237720  0.623730  1
