# generated using pymatgen
data_MgH12(ClO5)2
_symmetry_space_group_name_H-M   'P 1'
_cell_length_a   7.46836995
_cell_length_b   7.46836995
_cell_length_c   10.16911468
_cell_angle_alpha   90.00000000
_cell_angle_beta   90.00000000
_cell_angle_gamma   90.00000000
_symmetry_Int_Tables_number   1
_chemical_formula_structural   MgH12(ClO5)2
_chemical_formula_sum   'Mg2 H24 Cl4 O20'
_cell_volume   567.19813046
_cell_formula_units_Z   2
loop_
 _symmetry_equiv_pos_site_id
 _symmetry_equiv_pos_as_xyz
  1  'x, y, z'
loop_
 _atom_site_type_symbol
 _atom_site_label
 _atom_site_symmetry_multiplicity
 _atom_site_fract_x
 _atom_site_fract_y
 _atom_site_fract_z
 _atom_site_occupancy
  Mg  Mg0  1  0.500000  0.500000  0.000000  1
  Mg  Mg1  1  0.000000  0.000000  0.500000  1
  H  H2  1  0.500000  0.608213  0.260526  1
  H  H3  1  0.500000  0.391787  0.260526  1
  H  H4  1  0.108213  0.000000  0.760526  1
  H  H5  1  0.891787  0.000000  0.760526  1
  H  H6  1  0.000000  0.891787  0.239474  1
  H  H7  1  0.000000  0.108213  0.239474  1
  H  H8  1  0.391787  0.500000  0.739474  1
  H  H9  1  0.608213  0.500000  0.739474  1
  H  H10  1  0.193561  0.305047  0.055231  1
  H  H11  1  0.806439  0.305047  0.055231  1
  H  H12  1  0.193561  0.694953  0.055231  1
  H  H13  1  0.806439  0.694953  0.055231  1
  H  H14  1  0.805047  0.693561  0.555231  1
  H  H15  1  0.194953  0.693561  0.555231  1
  H  H16  1  0.805047  0.306439  0.555231  1
  H  H17  1  0.194953  0.306439  0.555231  1
  H  H18  1  0.306439  0.194953  0.444769  1
  H  H19  1  0.693561  0.194953  0.444769  1
  H  H20  1  0.306439  0.805047  0.444769  1
  H  H21  1  0.693561  0.805047  0.444769  1
  H  H22  1  0.694953  0.806439  0.944769  1
  H  H23  1  0.305047  0.806439  0.944769  1
  H  H24  1  0.694953  0.193561  0.944769  1
  H  H25  1  0.305047  0.193561  0.944769  1
  Cl  Cl26  1  0.000000  0.500000  0.740639  1
  Cl  Cl27  1  0.000000  0.500000  0.240639  1
  Cl  Cl28  1  0.500000  0.000000  0.759361  1
  Cl  Cl29  1  0.500000  0.000000  0.259361  1
  O  O30  1  0.173742  0.500000  0.649656  1
  O  O31  1  0.826258  0.500000  0.649656  1
  O  O32  1  0.000000  0.673742  0.149656  1
  O  O33  1  0.000000  0.326258  0.149656  1
  O  O34  1  0.326258  0.000000  0.850344  1
  O  O35  1  0.673742  0.000000  0.850344  1
  O  O36  1  0.500000  0.826258  0.350344  1
  O  O37  1  0.500000  0.173742  0.350344  1
  O  O38  1  0.500000  0.500000  0.205698  1
  O  O39  1  0.000000  0.000000  0.705698  1
  O  O40  1  0.000000  0.000000  0.294302  1
  O  O41  1  0.500000  0.500000  0.794302  1
  O  O42  1  0.303285  0.303285  0.000000  1
  O  O43  1  0.696715  0.303285  0.000000  1
  O  O44  1  0.303285  0.696715  0.000000  1
  O  O45  1  0.696715  0.696715  0.000000  1
  O  O46  1  0.803285  0.803285  0.500000  1
  O  O47  1  0.196715  0.803285  0.500000  1
  O  O48  1  0.803285  0.196715  0.500000  1
  O  O49  1  0.196715  0.196715  0.500000  1
