# generated using pymatgen
data_InH11S2O13
_symmetry_space_group_name_H-M   'P 1'
_cell_length_a   9.28217819
_cell_length_b   10.89719611
_cell_length_c   10.53276039
_cell_angle_alpha   90.00000000
_cell_angle_beta   99.51334272
_cell_angle_gamma   90.00000000
_symmetry_Int_Tables_number   1
_chemical_formula_structural   InH11S2O13
_chemical_formula_sum   'In4 H44 S8 O52'
_cell_volume   1050.73362204
_cell_formula_units_Z   4
loop_
 _symmetry_equiv_pos_site_id
 _symmetry_equiv_pos_as_xyz
  1  'x, y, z'
loop_
 _atom_site_type_symbol
 _atom_site_label
 _atom_site_symmetry_multiplicity
 _atom_site_fract_x
 _atom_site_fract_y
 _atom_site_fract_z
 _atom_site_occupancy
  In  In0  1  0.406485  0.637321  0.791195  1
  In  In1  1  0.906485  0.862679  0.791195  1
  In  In2  1  0.093515  0.137321  0.208805  1
  In  In3  1  0.593515  0.362679  0.208805  1
  H  H4  1  0.104549  0.677238  0.911508  1
  H  H5  1  0.435715  0.869752  0.904929  1
  H  H6  1  0.604549  0.822762  0.911508  1
  H  H7  1  0.407208  0.309571  0.855508  1
  H  H8  1  0.037539  0.209973  0.751001  1
  H  H9  1  0.935715  0.630248  0.904929  1
  H  H10  1  0.907208  0.190429  0.855508  1
  H  H11  1  0.418474  0.177271  0.777132  1
  H  H12  1  0.537539  0.290027  0.751001  1
  H  H13  1  0.177685  0.480287  0.676366  1
  H  H14  1  0.156622  0.081698  0.656943  1
  H  H15  1  0.425126  0.976543  0.653604  1
  H  H16  1  0.918474  0.322729  0.777132  1
  H  H17  1  0.175465  0.213968  0.606894  1
  H  H18  1  0.677685  0.019713  0.676366  1
  H  H19  1  0.303399  0.472512  0.590527  1
  H  H20  1  0.656622  0.418302  0.656943  1
  H  H21  1  0.452554  0.096502  0.581687  1
  H  H22  1  0.925126  0.523457  0.653604  1
  H  H23  1  0.675465  0.286032  0.606894  1
  H  H24  1  0.803399  0.027488  0.590527  1
  H  H25  1  0.952554  0.403498  0.581687  1
  H  H26  1  0.047446  0.596502  0.418313  1
  H  H27  1  0.196601  0.972512  0.409473  1
  H  H28  1  0.324535  0.713968  0.393106  1
  H  H29  1  0.074874  0.476543  0.346396  1
  H  H30  1  0.547446  0.903498  0.418313  1
  H  H31  1  0.343378  0.581698  0.343057  1
  H  H32  1  0.696601  0.527488  0.409473  1
  H  H33  1  0.322315  0.980287  0.323634  1
  H  H34  1  0.824535  0.786032  0.393106  1
  H  H35  1  0.081526  0.677271  0.222868  1
  H  H36  1  0.574874  0.023457  0.346396  1
  H  H37  1  0.843378  0.918302  0.343057  1
  H  H38  1  0.822315  0.519713  0.323634  1
  H  H39  1  0.462461  0.709973  0.248999  1
  H  H40  1  0.581526  0.822729  0.222868  1
  H  H41  1  0.092792  0.809571  0.144492  1
  H  H42  1  0.064285  0.369752  0.095071  1
  H  H43  1  0.962461  0.790027  0.248999  1
  H  H44  1  0.592792  0.690429  0.144492  1
  H  H45  1  0.395451  0.177238  0.088492  1
  H  H46  1  0.564285  0.130248  0.095071  1
  H  H47  1  0.895451  0.322762  0.088492  1
  S  S48  1  0.208236  0.980793  0.974358  1
  S  S49  1  0.708236  0.519207  0.974358  1
  S  S50  1  0.146875  0.809026  0.601606  1
  S  S51  1  0.646875  0.690974  0.601606  1
  S  S52  1  0.353125  0.309026  0.398394  1
  S  S53  1  0.853125  0.190974  0.398394  1
  S  S54  1  0.291764  0.480793  0.025642  1
  S  S55  1  0.791764  0.019207  0.025642  1
  O  O56  1  0.300878  0.371175  0.947242  1
  O  O57  1  0.282232  0.596825  0.943148  1
  O  O58  1  0.071513  0.994533  0.873756  1
  O  O59  1  0.337120  0.983650  0.910434  1
  O  O60  1  0.800878  0.128825  0.947242  1
  O  O61  1  0.500907  0.798030  0.891147  1
  O  O62  1  0.782232  0.903175  0.943148  1
  O  O63  1  0.571513  0.505467  0.873756  1
  O  O64  1  0.837120  0.516350  0.910434  1
  O  O65  1  0.470072  0.251546  0.812806  1
  O  O66  1  0.000907  0.701970  0.891147  1
  O  O67  1  0.221354  0.762326  0.729689  1
  O  O68  1  0.995634  0.456614  0.654377  1
  O  O69  1  0.150939  0.168838  0.680899  1
  O  O70  1  0.970072  0.248454  0.812806  1
  O  O71  1  0.287065  0.483512  0.680721  1
  O  O72  1  0.721354  0.737674  0.729689  1
  O  O73  1  0.495634  0.043386  0.654377  1
  O  O74  1  0.650939  0.331162  0.680899  1
  O  O75  1  0.209571  0.930930  0.575493  1
  O  O76  1  0.787065  0.016488  0.680721  1
  O  O77  1  0.487492  0.674050  0.613102  1
  O  O78  1  0.157245  0.722147  0.497315  1
  O  O79  1  0.709571  0.569070  0.575493  1
  O  O80  1  0.987492  0.825950  0.613102  1
  O  O81  1  0.342755  0.222147  0.502685  1
  O  O82  1  0.657245  0.777853  0.497315  1
  O  O83  1  0.012508  0.174050  0.386898  1
  O  O84  1  0.290429  0.430930  0.424507  1
  O  O85  1  0.842755  0.277853  0.502685  1
  O  O86  1  0.512508  0.325950  0.386898  1
  O  O87  1  0.212935  0.983512  0.319279  1
  O  O88  1  0.790429  0.069070  0.424507  1
  O  O89  1  0.349061  0.668838  0.319101  1
  O  O90  1  0.504366  0.956614  0.345623  1
  O  O91  1  0.278646  0.262326  0.270311  1
  O  O92  1  0.712935  0.516488  0.319279  1
  O  O93  1  0.029928  0.751546  0.187194  1
  O  O94  1  0.849061  0.831162  0.319101  1
  O  O95  1  0.004366  0.543386  0.345623  1
  O  O96  1  0.778646  0.237674  0.270311  1
  O  O97  1  0.999093  0.298030  0.108853  1
  O  O98  1  0.529928  0.748454  0.187194  1
  O  O99  1  0.162880  0.483650  0.089566  1
  O  O100  1  0.428487  0.494533  0.126244  1
  O  O101  1  0.217768  0.096825  0.056852  1
  O  O102  1  0.499093  0.201970  0.108853  1
  O  O103  1  0.199122  0.871175  0.052758  1
  O  O104  1  0.662880  0.016350  0.089566  1
  O  O105  1  0.928487  0.005467  0.126244  1
  O  O106  1  0.717768  0.403175  0.056852  1
  O  O107  1  0.699122  0.628825  0.052758  1
