# generated using pymatgen
data_Li3V3P8O29
_symmetry_space_group_name_H-M   'P 1'
_cell_length_a   9.75880413
_cell_length_b   9.76784002
_cell_length_c   14.19072196
_cell_angle_alpha   89.73675625
_cell_angle_beta   89.71816060
_cell_angle_gamma   60.06083306
_symmetry_Int_Tables_number   1
_chemical_formula_structural   Li3V3P8O29
_chemical_formula_sum   'Li6 V6 P16 O58'
_cell_volume   1172.16723505
_cell_formula_units_Z   2
loop_
 _symmetry_equiv_pos_site_id
 _symmetry_equiv_pos_as_xyz
  1  'x, y, z'
loop_
 _atom_site_type_symbol
 _atom_site_label
 _atom_site_symmetry_multiplicity
 _atom_site_fract_x
 _atom_site_fract_y
 _atom_site_fract_z
 _atom_site_occupancy
  Li  Li0  1  0.094053  0.673672  0.949748  1
  Li  Li1  1  0.233732  0.094078  0.945790  1
  Li  Li2  1  0.916244  0.779205  0.550692  1
  Li  Li3  1  0.095808  0.225710  0.436170  1
  Li  Li4  1  0.772399  0.312293  0.557096  1
  Li  Li5  1  0.955663  0.028048  0.014076  1
  V  V6  1  0.001351  0.565735  0.750656  1
  V  V7  1  0.993672  0.437134  0.243730  1
  V  V8  1  0.567395  0.000420  0.249962  1
  V  V9  1  0.439510  0.995510  0.747804  1
  V  V10  1  0.558560  0.435023  0.755542  1
  V  V11  1  0.435592  0.566759  0.251289  1
  P  P12  1  0.692682  0.223803  0.160794  1
  P  P13  1  0.687422  0.086244  0.659635  1
  P  P14  1  0.230093  0.687190  0.653632  1
  P  P15  1  0.328963  0.332937  0.870051  1
  P  P16  1  0.330100  0.332560  0.368195  1
  P  P17  1  0.090727  0.687166  0.160320  1
  P  P18  1  0.910625  0.770625  0.339589  1
  P  P19  1  0.227148  0.085027  0.157305  1
  P  P20  1  0.776110  0.916455  0.844722  1
  P  P21  1  0.090187  0.229502  0.658118  1
  P  P22  1  0.912964  0.310310  0.838913  1
  P  P23  1  0.670771  0.661924  0.631544  1
  P  P24  1  0.662808  0.670992  0.129966  1
  P  P25  1  0.772013  0.315480  0.343032  1
  P  P26  1  0.313704  0.912309  0.339332  1
  P  P27  1  0.306132  0.777001  0.839483  1
  O  O28  1  0.765953  0.245154  0.434838  1
  O  O29  1  0.659817  0.256775  0.662338  1
  O  O30  1  0.792308  0.991345  0.930428  1
  O  O31  1  0.653432  0.087835  0.168844  1
  O  O32  1  0.538090  0.384173  0.171139  1
  O  O33  1  0.480412  0.329501  0.825063  1
  O  O34  1  0.382479  0.526202  0.679800  1
  O  O35  1  0.214167  0.778119  0.923203  1
  O  O36  1  0.262274  0.653703  0.168384  1
  O  O37  1  0.474018  0.182016  0.322040  1
  O  O38  1  0.524435  0.094286  0.679263  1
  O  O39  1  0.341844  0.473710  0.322243  1
  O  O40  1  0.321206  0.343811  0.974142  1
  O  O41  1  0.331932  0.329379  0.472958  1
  O  O42  1  0.184237  0.488621  0.826677  1
  O  O43  1  0.383857  0.084979  0.169607  1
  O  O44  1  0.325629  0.185068  0.830786  1
  O  O45  1  0.084299  0.660145  0.663704  1
  O  O46  1  0.001326  0.793615  0.250475  1
  O  O47  1  0.992200  0.760490  0.429127  1
  O  O48  1  0.014994  0.770949  0.070841  1
  O  O49  1  0.090054  0.528774  0.172753  1
  O  O50  1  0.177834  0.337326  0.328501  1
  O  O51  1  0.915426  0.740995  0.835675  1
  O  O52  1  0.098568  0.381554  0.679539  1
  O  O53  1  0.258601  0.085628  0.668247  1
  O  O54  1  0.793633  0.001975  0.751298  1
  O  O55  1  0.765864  0.994906  0.573916  1
  O  O56  1  0.226280  0.004929  0.423126  1
  O  O57  1  0.741296  0.914275  0.332403  1
  O  O58  1  0.903594  0.618419  0.318388  1
  O  O59  1  0.087423  0.257843  0.170164  1
  O  O60  1  0.819614  0.663508  0.676434  1
  O  O61  1  0.914961  0.467971  0.826047  1
  O  O62  1  0.003044  0.213232  0.921091  1
  O  O63  1  0.007224  0.244050  0.567503  1
  O  O64  1  0.990909  0.211100  0.742725  1
  O  O65  1  0.918066  0.340129  0.336691  1
  O  O66  1  0.666440  0.815081  0.174947  1
  O  O67  1  0.616611  0.917915  0.828040  1
  O  O68  1  0.814171  0.518429  0.173625  1
  O  O69  1  0.668643  0.666346  0.025726  1
  O  O70  1  0.677648  0.667878  0.527685  1
  O  O71  1  0.667655  0.514693  0.671868  1
  O  O72  1  0.472935  0.907929  0.322294  1
  O  O73  1  0.525254  0.813039  0.679053  1
  O  O74  1  0.739548  0.347139  0.832766  1
  O  O75  1  0.793200  0.202401  0.256439  1
  O  O76  1  0.792166  0.204706  0.077643  1
  O  O77  1  0.620348  0.475545  0.322868  1
  O  O78  1  0.517915  0.667865  0.175584  1
  O  O79  1  0.467149  0.617979  0.826504  1
  O  O80  1  0.341410  0.915614  0.838135  1
  O  O81  1  0.210091  0.019152  0.066342  1
  O  O82  1  0.208742  0.991098  0.244563  1
  O  O83  1  0.344956  0.740374  0.334888  1
  O  O84  1  0.237822  0.759069  0.564867  1
  O  O85  1  0.208488  0.797288  0.744681  1
