# generated using pymatgen
data_Li2Co(PO3)5
_symmetry_space_group_name_H-M   'P 1'
_cell_length_a   5.14277439
_cell_length_b   13.29276265
_cell_length_c   8.88770036
_cell_angle_alpha   90.00000000
_cell_angle_beta   101.87346296
_cell_angle_gamma   90.00000000
_symmetry_Int_Tables_number   1
_chemical_formula_structural   Li2Co(PO3)5
_chemical_formula_sum   'Li4 Co2 P10 O30'
_cell_volume   594.57861410
_cell_formula_units_Z   2
loop_
 _symmetry_equiv_pos_site_id
 _symmetry_equiv_pos_as_xyz
  1  'x, y, z'
loop_
 _atom_site_type_symbol
 _atom_site_label
 _atom_site_symmetry_multiplicity
 _atom_site_fract_x
 _atom_site_fract_y
 _atom_site_fract_z
 _atom_site_occupancy
  Li  Li0  1  0.942020  0.116275  0.909040  1
  Li  Li1  1  0.057980  0.616275  0.090960  1
  Li  Li2  1  0.942020  0.383725  0.909040  1
  Li  Li3  1  0.057980  0.883725  0.090960  1
  Co  Co4  1  0.500000  0.000000  0.500000  1
  Co  Co5  1  0.500000  0.500000  0.500000  1
  P  P6  1  0.544649  0.750000  0.013554  1
  P  P7  1  0.658206  0.425221  0.185042  1
  P  P8  1  0.341794  0.925221  0.814958  1
  P  P9  1  0.658206  0.074779  0.185042  1
  P  P10  1  0.000150  0.360540  0.481982  1
  P  P11  1  0.455351  0.250000  0.986446  1
  P  P12  1  0.999850  0.860540  0.518018  1
  P  P13  1  0.341794  0.574779  0.814958  1
  P  P14  1  0.999850  0.639460  0.518018  1
  P  P15  1  0.000150  0.139460  0.481982  1
  O  O16  1  0.511930  0.006152  0.275068  1
  O  O17  1  0.295469  0.124950  0.494971  1
  O  O18  1  0.188945  0.969663  0.924468  1
  O  O19  1  0.145837  0.928729  0.427466  1
  O  O20  1  0.811055  0.469663  0.075532  1
  O  O21  1  0.192081  0.250000  0.877916  1
  O  O22  1  0.145837  0.571271  0.427466  1
  O  O23  1  0.860368  0.355044  0.305431  1
  O  O24  1  0.488070  0.993848  0.724932  1
  O  O25  1  0.295469  0.375050  0.494971  1
  O  O26  1  0.811055  0.030337  0.075532  1
  O  O27  1  0.554699  0.843820  0.895827  1
  O  O28  1  0.139632  0.855044  0.694569  1
  O  O29  1  0.854163  0.071271  0.572534  1
  O  O30  1  0.860368  0.144956  0.305431  1
  O  O31  1  0.704531  0.624950  0.505029  1
  O  O32  1  0.046689  0.750000  0.460654  1
  O  O33  1  0.188945  0.530337  0.924468  1
  O  O34  1  0.511930  0.493848  0.275068  1
  O  O35  1  0.953311  0.250000  0.539346  1
  O  O36  1  0.704531  0.875050  0.505029  1
  O  O37  1  0.807919  0.750000  0.122084  1
  O  O38  1  0.139632  0.644956  0.694569  1
  O  O39  1  0.714029  0.250000  0.934162  1
  O  O40  1  0.445301  0.343820  0.104173  1
  O  O41  1  0.854163  0.428729  0.572534  1
  O  O42  1  0.285971  0.750000  0.065838  1
  O  O43  1  0.488070  0.506152  0.724932  1
  O  O44  1  0.554699  0.656180  0.895827  1
  O  O45  1  0.445301  0.156180  0.104173  1
