# generated using pymatgen
data_Fe3O4
_symmetry_space_group_name_H-M   'P 1'
_cell_length_a   6.05050360
_cell_length_b   6.05050360
_cell_length_c   6.05050360
_cell_angle_alpha   59.87147808
_cell_angle_beta   59.87147808
_cell_angle_gamma   59.87147808
_symmetry_Int_Tables_number   1
_chemical_formula_structural   Fe3O4
_chemical_formula_sum   'Fe6 O8'
_cell_volume   156.16769737
_cell_formula_units_Z   2
loop_
 _symmetry_equiv_pos_site_id
 _symmetry_equiv_pos_as_xyz
  1  'x, y, z'
loop_
 _atom_site_type_symbol
 _atom_site_label
 _atom_site_symmetry_multiplicity
 _atom_site_fract_x
 _atom_site_fract_y
 _atom_site_fract_z
 _atom_site_occupancy
  Fe  Fe0  1  0.500000  0.500000  0.500000  1
  Fe  Fe1  1  0.500000  0.500000  0.000000  1
  Fe  Fe2  1  0.123643  0.123643  0.123643  1
  Fe  Fe3  1  0.876357  0.876357  0.876357  1
  Fe  Fe4  1  0.500000  0.000000  0.500000  1
  Fe  Fe5  1  0.000000  0.500000  0.500000  1
  O  O6  1  0.733456  0.248880  0.248880  1
  O  O7  1  0.751120  0.266544  0.751120  1
  O  O8  1  0.266544  0.751120  0.751120  1
  O  O9  1  0.248880  0.733456  0.248880  1
  O  O10  1  0.745093  0.745093  0.745093  1
  O  O11  1  0.254907  0.254907  0.254907  1
  O  O12  1  0.248880  0.248880  0.733456  1
  O  O13  1  0.751120  0.751120  0.266544  1
