# generated using pymatgen
data_Li8Nb(FeO4)3
_symmetry_space_group_name_H-M   'P 1'
_cell_length_a   5.00596950
_cell_length_b   5.69461602
_cell_length_c   7.58213811
_cell_angle_alpha   80.35664289
_cell_angle_beta   89.94320249
_cell_angle_gamma   89.95025718
_symmetry_Int_Tables_number   1
_chemical_formula_structural   Li8Nb(FeO4)3
_chemical_formula_sum   'Li8 Nb1 Fe3 O12'
_cell_volume   213.09019549
_cell_formula_units_Z   1
loop_
 _symmetry_equiv_pos_site_id
 _symmetry_equiv_pos_as_xyz
  1  'x, y, z'
loop_
 _atom_site_type_symbol
 _atom_site_label
 _atom_site_symmetry_multiplicity
 _atom_site_fract_x
 _atom_site_fract_y
 _atom_site_fract_z
 _atom_site_occupancy
  Li  Li0  1  0.492738  0.360419  0.180250  1
  Li  Li1  1  0.496636  0.352170  0.660919  1
  Li  Li2  1  0.994399  0.155840  0.328349  1
  Li  Li3  1  0.998637  0.163210  0.814154  1
  Li  Li4  1  0.001363  0.836790  0.185846  1
  Li  Li5  1  0.005601  0.844160  0.671651  1
  Li  Li6  1  0.503364  0.647830  0.339081  1
  Li  Li7  1  0.507262  0.639581  0.819750  1
  Nb  Nb8  1  0.500000  0.000000  0.000000  1
  Fe  Fe9  1  0.000000  0.500000  0.500000  1
  Fe  Fe10  1  0.500000  0.000000  0.500000  1
  Fe  Fe11  1  0.000000  0.500000  0.000000  1
  O  O12  1  0.855139  0.504453  0.256379  1
  O  O13  1  0.144861  0.495547  0.743621  1
  O  O14  1  0.312507  0.323196  0.428696  1
  O  O15  1  0.671766  0.323644  0.927615  1
  O  O16  1  0.175573  0.174769  0.071079  1
  O  O17  1  0.819782  0.189006  0.570062  1
  O  O18  1  0.641174  0.003266  0.249157  1
  O  O19  1  0.358826  0.996734  0.750843  1
  O  O20  1  0.180218  0.810994  0.429938  1
  O  O21  1  0.824427  0.825231  0.928921  1
  O  O22  1  0.328234  0.676356  0.072385  1
  O  O23  1  0.687493  0.676804  0.571304  1
