# generated using pymatgen
data_Li2V3CoO8
_symmetry_space_group_name_H-M   'P 1'
_cell_length_a   5.95240764
_cell_length_b   5.95240764
_cell_length_c   5.95240764
_cell_angle_alpha   59.77344238
_cell_angle_beta   59.77344238
_cell_angle_gamma   59.77344238
_symmetry_Int_Tables_number   1
_chemical_formula_structural   Li2V3CoO8
_chemical_formula_sum   'Li2 V3 Co1 O8'
_cell_volume   148.36220043
_cell_formula_units_Z   1
loop_
 _symmetry_equiv_pos_site_id
 _symmetry_equiv_pos_as_xyz
  1  'x, y, z'
loop_
 _atom_site_type_symbol
 _atom_site_label
 _atom_site_symmetry_multiplicity
 _atom_site_fract_x
 _atom_site_fract_y
 _atom_site_fract_z
 _atom_site_occupancy
  Li  Li0  1  0.879160  0.879160  0.879160  1
  Li  Li1  1  0.498466  0.498466  0.498466  1
  V  V2  1  0.502127  0.502127  0.992657  1
  V  V3  1  0.502127  0.992657  0.502127  1
  V  V4  1  0.992657  0.502127  0.502127  1
  Co  Co5  1  0.121586  0.121586  0.121586  1
  O  O6  1  0.741234  0.741234  0.741234  1
  O  O7  1  0.288567  0.751049  0.751049  1
  O  O8  1  0.751049  0.288567  0.751049  1
  O  O9  1  0.751049  0.751049  0.288567  1
  O  O10  1  0.249570  0.249570  0.714358  1
  O  O11  1  0.249570  0.714358  0.249570  1
  O  O12  1  0.714358  0.249570  0.249570  1
  O  O13  1  0.258481  0.258481  0.258481  1
