# generated using pymatgen
data_MnP2HO7
_symmetry_space_group_name_H-M   'P 1'
_cell_length_a   5.04023025
_cell_length_b   12.81851289
_cell_length_c   8.70297257
_cell_angle_alpha   90.00000000
_cell_angle_beta   113.60922876
_cell_angle_gamma   90.00000000
_symmetry_Int_Tables_number   1
_chemical_formula_structural   MnP2HO7
_chemical_formula_sum   'Mn4 P8 H4 O28'
_cell_volume   515.21972905
_cell_formula_units_Z   4
loop_
 _symmetry_equiv_pos_site_id
 _symmetry_equiv_pos_as_xyz
  1  'x, y, z'
loop_
 _atom_site_type_symbol
 _atom_site_label
 _atom_site_symmetry_multiplicity
 _atom_site_fract_x
 _atom_site_fract_y
 _atom_site_fract_z
 _atom_site_occupancy
  Mn  Mn0  1  0.634138  0.126308  0.504662  1
  Mn  Mn1  1  0.634138  0.373692  0.004662  1
  Mn  Mn2  1  0.365862  0.873692  0.495338  1
  Mn  Mn3  1  0.365862  0.626308  0.995338  1
  P  P4  1  0.899604  0.035173  0.249811  1
  P  P5  1  0.899604  0.464827  0.749811  1
  P  P6  1  0.100396  0.964827  0.750189  1
  P  P7  1  0.100396  0.535173  0.250189  1
  P  P8  1  0.317990  0.322033  0.254883  1
  P  P9  1  0.317990  0.177967  0.754883  1
  P  P10  1  0.682010  0.677967  0.745117  1
  P  P11  1  0.682010  0.822033  0.245117  1
  H  H12  1  0.966590  0.167767  0.102484  1
  H  H13  1  0.966590  0.332233  0.602484  1
  H  H14  1  0.033410  0.832233  0.897516  1
  H  H15  1  0.033410  0.667767  0.397516  1
  O  O16  1  0.245944  0.428077  0.334526  1
  O  O17  1  0.245944  0.071923  0.834526  1
  O  O18  1  0.754056  0.571923  0.665474  1
  O  O19  1  0.754056  0.928077  0.165474  1
  O  O20  1  0.691987  0.097534  0.301994  1
  O  O21  1  0.691987  0.402466  0.801994  1
  O  O22  1  0.308013  0.902466  0.698006  1
  O  O23  1  0.308013  0.597534  0.198006  1
  O  O24  1  0.037441  0.288912  0.110792  1
  O  O25  1  0.037441  0.211088  0.610792  1
  O  O26  1  0.962559  0.711088  0.889208  1
  O  O27  1  0.962559  0.788912  0.389208  1
  O  O28  1  0.190506  0.011012  0.399217  1
  O  O29  1  0.190506  0.488988  0.899217  1
  O  O30  1  0.809494  0.988988  0.600783  1
  O  O31  1  0.809494  0.511012  0.100783  1
  O  O32  1  0.567486  0.349145  0.204772  1
  O  O33  1  0.567486  0.150855  0.704772  1
  O  O34  1  0.432514  0.650855  0.795228  1
  O  O35  1  0.432514  0.849145  0.295228  1
  O  O36  1  0.408840  0.247749  0.403504  1
  O  O37  1  0.408840  0.252251  0.903504  1
  O  O38  1  0.591160  0.752251  0.596496  1
  O  O39  1  0.591160  0.747749  0.096496  1
  O  O40  1  0.943736  0.088652  0.102671  1
  O  O41  1  0.943736  0.411348  0.602671  1
  O  O42  1  0.056264  0.911348  0.897329  1
  O  O43  1  0.056264  0.588652  0.397329  1
