# generated using pymatgen
data_Cr4OF11
_symmetry_space_group_name_H-M   'P 1'
_cell_length_a   5.06494074
_cell_length_b   5.33361757
_cell_length_c   16.90602190
_cell_angle_alpha   88.96610248
_cell_angle_beta   97.96394743
_cell_angle_gamma   117.91999187
_symmetry_Int_Tables_number   1
_chemical_formula_structural   Cr4OF11
_chemical_formula_sum   'Cr8 O2 F22'
_cell_volume   399.08262315
_cell_formula_units_Z   2
loop_
 _symmetry_equiv_pos_site_id
 _symmetry_equiv_pos_as_xyz
  1  'x, y, z'
loop_
 _atom_site_type_symbol
 _atom_site_label
 _atom_site_symmetry_multiplicity
 _atom_site_fract_x
 _atom_site_fract_y
 _atom_site_fract_z
 _atom_site_occupancy
  Cr  Cr0  1  0.006157  0.739939  0.246003  1
  Cr  Cr1  1  0.993843  0.260061  0.753997  1
  Cr  Cr2  1  0.248072  0.878308  0.625386  1
  Cr  Cr3  1  0.242077  0.384925  0.127690  1
  Cr  Cr4  1  0.500000  0.000000  0.000000  1
  Cr  Cr5  1  0.500000  0.500000  0.500000  1
  Cr  Cr6  1  0.757923  0.615075  0.872310  1
  Cr  Cr7  1  0.751928  0.121692  0.374614  1
  O  O8  1  0.063724  0.592725  0.156852  1
  O  O9  1  0.936276  0.407275  0.843148  1
  F  F10  1  0.936041  0.903827  0.340086  1
  F  F11  1  0.006707  0.062039  0.188046  1
  F  F12  1  0.993293  0.937961  0.811954  1
  F  F13  1  0.998181  0.437227  0.312497  1
  F  F14  1  0.063959  0.096173  0.659914  1
  F  F15  1  0.064838  0.783866  0.966350  1
  F  F16  1  0.935637  0.717400  0.532412  1
  F  F17  1  0.935162  0.216134  0.033650  1
  F  F18  1  0.435337  0.966631  0.281954  1
  F  F19  1  0.001819  0.562773  0.687503  1
  F  F20  1  0.492608  0.686281  0.063098  1
  F  F21  1  0.064363  0.282600  0.467588  1
  F  F22  1  0.564663  0.033369  0.718046  1
  F  F23  1  0.566921  0.533277  0.218238  1
  F  F24  1  0.568901  0.838222  0.907356  1
  F  F25  1  0.435932  0.658095  0.593540  1
  F  F26  1  0.433079  0.466723  0.781762  1
  F  F27  1  0.431099  0.161778  0.092644  1
  F  F28  1  0.505161  0.812696  0.437627  1
  F  F29  1  0.507392  0.313719  0.936902  1
  F  F30  1  0.494839  0.187304  0.562373  1
  F  F31  1  0.564068  0.341905  0.406460  1
