# generated using pymatgen
data_Li2Cr3NiO8
_symmetry_space_group_name_H-M   'P 1'
_cell_length_a   5.91553106
_cell_length_b   5.91553106
_cell_length_c   5.91553106
_cell_angle_alpha   59.26304928
_cell_angle_beta   59.26304928
_cell_angle_gamma   59.26304928
_symmetry_Int_Tables_number   1
_chemical_formula_structural   Li2Cr3NiO8
_chemical_formula_sum   'Li2 Cr3 Ni1 O8'
_cell_volume   143.91799447
_cell_formula_units_Z   1
loop_
 _symmetry_equiv_pos_site_id
 _symmetry_equiv_pos_as_xyz
  1  'x, y, z'
loop_
 _atom_site_type_symbol
 _atom_site_label
 _atom_site_symmetry_multiplicity
 _atom_site_fract_x
 _atom_site_fract_y
 _atom_site_fract_z
 _atom_site_occupancy
  Li  Li0  1  0.876768  0.876768  0.876768  1
  Li  Li1  1  0.499422  0.499422  0.499422  1
  Cr  Cr2  1  0.501608  0.501608  0.994183  1
  Cr  Cr3  1  0.994183  0.501608  0.501608  1
  Cr  Cr4  1  0.501608  0.994183  0.501608  1
  Ni  Ni5  1  0.121618  0.121618  0.121618  1
  O  O6  1  0.739992  0.739992  0.739992  1
  O  O7  1  0.750451  0.291755  0.750451  1
  O  O8  1  0.291755  0.750451  0.750451  1
  O  O9  1  0.750451  0.750451  0.291755  1
  O  O10  1  0.250397  0.250397  0.711672  1
  O  O11  1  0.711672  0.250397  0.250397  1
  O  O12  1  0.250397  0.711672  0.250397  1
  O  O13  1  0.259682  0.259682  0.259682  1
