# generated using pymatgen
data_Co2(SO4)3
_symmetry_space_group_name_H-M   'P 1'
_cell_length_a   8.57653957
_cell_length_b   8.57653957
_cell_length_c   8.57653957
_cell_angle_alpha   60.15935836
_cell_angle_beta   60.15935836
_cell_angle_gamma   60.15935836
_symmetry_Int_Tables_number   1
_chemical_formula_structural   Co2(SO4)3
_chemical_formula_sum   'Co4 S6 O24'
_cell_volume   447.69888445
_cell_formula_units_Z   2
loop_
 _symmetry_equiv_pos_site_id
 _symmetry_equiv_pos_as_xyz
  1  'x, y, z'
loop_
 _atom_site_type_symbol
 _atom_site_label
 _atom_site_symmetry_multiplicity
 _atom_site_fract_x
 _atom_site_fract_y
 _atom_site_fract_z
 _atom_site_occupancy
  Co  Co0  1  0.639845  0.639845  0.639845  1
  Co  Co1  1  0.860155  0.860155  0.860155  1
  Co  Co2  1  0.360155  0.360155  0.360155  1
  Co  Co3  1  0.139845  0.139845  0.139845  1
  S  S4  1  0.540764  0.959236  0.250000  1
  S  S5  1  0.750000  0.459236  0.040764  1
  S  S6  1  0.040764  0.750000  0.459236  1
  S  S7  1  0.959236  0.250000  0.540764  1
  S  S8  1  0.250000  0.540764  0.959236  1
  S  S9  1  0.459236  0.040764  0.750000  1
  O  O10  1  0.723519  0.941672  0.089103  1
  O  O11  1  0.058328  0.910897  0.276481  1
  O  O12  1  0.304518  0.505853  0.115001  1
  O  O13  1  0.195482  0.384999  0.994147  1
  O  O14  1  0.558328  0.776481  0.410897  1
  O  O15  1  0.589103  0.441672  0.223519  1
  O  O16  1  0.910897  0.276481  0.058328  1
  O  O17  1  0.615001  0.005853  0.804518  1
  O  O18  1  0.884999  0.695482  0.494147  1
  O  O19  1  0.494147  0.884999  0.695482  1
  O  O20  1  0.005853  0.804518  0.615001  1
  O  O21  1  0.223519  0.589103  0.441672  1
  O  O22  1  0.776481  0.410897  0.558328  1
  O  O23  1  0.505853  0.115001  0.304518  1
  O  O24  1  0.994147  0.195482  0.384999  1
  O  O25  1  0.384999  0.994147  0.195482  1
  O  O26  1  0.115001  0.304518  0.505853  1
  O  O27  1  0.089103  0.723519  0.941672  1
  O  O28  1  0.410897  0.558328  0.776481  1
  O  O29  1  0.441672  0.223519  0.589103  1
  O  O30  1  0.695482  0.494147  0.884999  1
  O  O31  1  0.804518  0.615001  0.005853  1
  O  O32  1  0.941672  0.089103  0.723519  1
  O  O33  1  0.276481  0.058328  0.910897  1
