# generated using pymatgen
data_K3BaPCO7
_symmetry_space_group_name_H-M   'P 1'
_cell_length_a   5.81913091
_cell_length_b   7.85202418
_cell_length_c   10.24431695
_cell_angle_alpha   90.00000000
_cell_angle_beta   91.23695208
_cell_angle_gamma   90.00000000
_symmetry_Int_Tables_number   1
_chemical_formula_structural   K3BaPCO7
_chemical_formula_sum   'K6 Ba2 P2 C2 O14'
_cell_volume   467.97380803
_cell_formula_units_Z   2
loop_
 _symmetry_equiv_pos_site_id
 _symmetry_equiv_pos_as_xyz
  1  'x, y, z'
loop_
 _atom_site_type_symbol
 _atom_site_label
 _atom_site_symmetry_multiplicity
 _atom_site_fract_x
 _atom_site_fract_y
 _atom_site_fract_z
 _atom_site_occupancy
  K  K0  1  0.761185  0.250000  0.084371  1
  K  K1  1  0.251782  0.007322  0.253739  1
  K  K2  1  0.251782  0.492678  0.253739  1
  K  K3  1  0.748218  0.507322  0.746261  1
  K  K4  1  0.748218  0.992678  0.746261  1
  K  K5  1  0.238815  0.750000  0.915629  1
  Ba  Ba6  1  0.767153  0.750000  0.373000  1
  Ba  Ba7  1  0.232847  0.250000  0.627000  1
  P  P8  1  0.701416  0.250000  0.405635  1
  P  P9  1  0.298584  0.750000  0.594365  1
  C  C10  1  0.737670  0.750000  0.059618  1
  C  C11  1  0.262330  0.250000  0.940382  1
  O  O12  1  0.277705  0.250000  0.067761  1
  O  O13  1  0.939276  0.750000  0.118154  1
  O  O14  1  0.550946  0.750000  0.128573  1
  O  O15  1  0.785901  0.088298  0.332100  1
  O  O16  1  0.785901  0.411702  0.332100  1
  O  O17  1  0.432719  0.250000  0.404497  1
  O  O18  1  0.212190  0.750000  0.447988  1
  O  O19  1  0.787810  0.250000  0.552012  1
  O  O20  1  0.567281  0.750000  0.595503  1
  O  O21  1  0.214099  0.588298  0.667900  1
  O  O22  1  0.214099  0.911702  0.667900  1
  O  O23  1  0.449054  0.250000  0.871427  1
  O  O24  1  0.060724  0.250000  0.881846  1
  O  O25  1  0.722295  0.750000  0.932239  1
