# generated using pymatgen
data_Li2Mn5O12
_symmetry_space_group_name_H-M   'P 1'
_cell_length_a   5.82600636
_cell_length_b   5.82600636
_cell_length_c   13.05433669
_cell_angle_alpha   77.15690637
_cell_angle_beta   102.84309363
_cell_angle_gamma   90.01824818
_symmetry_Int_Tables_number   1
_chemical_formula_structural   Li2Mn5O12
_chemical_formula_sum   'Li4 Mn10 O24'
_cell_volume   420.63985687
_cell_formula_units_Z   2
loop_
 _symmetry_equiv_pos_site_id
 _symmetry_equiv_pos_as_xyz
  1  'x, y, z'
loop_
 _atom_site_type_symbol
 _atom_site_label
 _atom_site_symmetry_multiplicity
 _atom_site_fract_x
 _atom_site_fract_y
 _atom_site_fract_z
 _atom_site_occupancy
  Li  Li0  1  0.659623  0.079028  0.329811  1
  Li  Li1  1  0.920972  0.340377  0.829811  1
  Li  Li2  1  0.999776  0.746568  0.003505  1
  Li  Li3  1  0.253432  0.000224  0.503505  1
  Mn  Mn4  1  0.465316  0.543974  0.419540  1
  Mn  Mn5  1  0.791745  0.208180  0.583879  1
  Mn  Mn6  1  0.121404  0.873259  0.747110  1
  Mn  Mn7  1  0.956737  0.543891  0.419238  1
  Mn  Mn8  1  0.791820  0.208255  0.083879  1
  Mn  Mn9  1  0.456026  0.534684  0.919540  1
  Mn  Mn10  1  0.456109  0.043263  0.919238  1
  Mn  Mn11  1  0.127132  0.375757  0.247505  1
  Mn  Mn12  1  0.126741  0.878596  0.247110  1
  Mn  Mn13  1  0.624243  0.872868  0.747505  1
  O  O14  1  0.335053  0.120548  0.258379  1
  O  O15  1  0.348271  0.621274  0.257980  1
  O  O16  1  0.879452  0.664947  0.758379  1
  O  O17  1  0.870634  0.107186  0.741066  1
  O  O18  1  0.712577  0.309152  0.425147  1
  O  O19  1  0.704063  0.753774  0.408546  1
  O  O20  1  0.557128  0.448808  0.068329  1
  O  O21  1  0.557383  0.983445  0.069231  1
  O  O22  1  0.036714  0.977653  0.597936  1
  O  O23  1  0.016555  0.442617  0.569231  1
  O  O24  1  0.232361  0.794214  0.911067  1
  O  O25  1  0.892814  0.129366  0.241066  1
  O  O26  1  0.914141  0.618735  0.262358  1
  O  O27  1  0.246226  0.295937  0.908546  1
  O  O28  1  0.022606  0.437529  0.097556  1
  O  O29  1  0.022347  0.963286  0.097936  1
  O  O30  1  0.378726  0.651729  0.757980  1
  O  O31  1  0.381265  0.085859  0.762358  1
  O  O32  1  0.203838  0.324714  0.407587  1
  O  O33  1  0.205786  0.767639  0.411067  1
  O  O34  1  0.675286  0.796162  0.907587  1
  O  O35  1  0.690848  0.287423  0.925147  1
  O  O36  1  0.562471  0.977394  0.597556  1
  O  O37  1  0.551192  0.442872  0.568329  1
