# generated using pymatgen
data_MgV3O7
_symmetry_space_group_name_H-M   'P 1'
_cell_length_a   5.33293368
_cell_length_b   10.23090554
_cell_length_c   10.23426432
_cell_angle_alpha   90.00000000
_cell_angle_beta   90.00000000
_cell_angle_gamma   90.00000000
_symmetry_Int_Tables_number   1
_chemical_formula_structural   MgV3O7
_chemical_formula_sum   'Mg4 V12 O28'
_cell_volume   558.38904214
_cell_formula_units_Z   4
loop_
 _symmetry_equiv_pos_site_id
 _symmetry_equiv_pos_as_xyz
  1  'x, y, z'
loop_
 _atom_site_type_symbol
 _atom_site_label
 _atom_site_symmetry_multiplicity
 _atom_site_fract_x
 _atom_site_fract_y
 _atom_site_fract_z
 _atom_site_occupancy
  Mg  Mg0  1  0.654660  0.078092  0.750000  1
  Mg  Mg1  1  0.154660  0.421908  0.250000  1
  Mg  Mg2  1  0.345340  0.921908  0.250000  1
  Mg  Mg3  1  0.845340  0.578092  0.750000  1
  V  V4  1  0.297226  0.682778  0.027325  1
  V  V5  1  0.797226  0.817222  0.972675  1
  V  V6  1  0.702774  0.317222  0.527325  1
  V  V7  1  0.202774  0.182778  0.472675  1
  V  V8  1  0.308068  0.782294  0.750000  1
  V  V9  1  0.808068  0.717706  0.250000  1
  V  V10  1  0.691932  0.217706  0.250000  1
  V  V11  1  0.191932  0.282294  0.750000  1
  V  V12  1  0.797226  0.817222  0.527325  1
  V  V13  1  0.297226  0.682778  0.472675  1
  V  V14  1  0.202774  0.182778  0.027325  1
  V  V15  1  0.702774  0.317222  0.972675  1
  O  O16  1  0.942832  0.287860  0.120852  1
  O  O17  1  0.442832  0.212140  0.879148  1
  O  O18  1  0.057168  0.712140  0.620852  1
  O  O19  1  0.557168  0.787860  0.379148  1
  O  O20  1  0.057168  0.712140  0.879148  1
  O  O21  1  0.557168  0.787860  0.120852  1
  O  O22  1  0.942832  0.287860  0.379148  1
  O  O23  1  0.442832  0.212140  0.620852  1
  O  O24  1  0.458792  0.287339  0.118392  1
  O  O25  1  0.958792  0.212661  0.881608  1
  O  O26  1  0.541208  0.712661  0.618392  1
  O  O27  1  0.041208  0.787339  0.381608  1
  O  O28  1  0.541208  0.712661  0.881608  1
  O  O29  1  0.041208  0.787339  0.118392  1
  O  O30  1  0.458792  0.287339  0.381608  1
  O  O31  1  0.958792  0.212661  0.618392  1
  O  O32  1  0.166269  0.444386  0.750000  1
  O  O33  1  0.666269  0.055614  0.250000  1
  O  O34  1  0.833731  0.555614  0.250000  1
  O  O35  1  0.333731  0.944386  0.750000  1
  O  O36  1  0.221421  0.035698  0.404307  1
  O  O37  1  0.721421  0.464302  0.595693  1
  O  O38  1  0.778579  0.964302  0.904307  1
  O  O39  1  0.278579  0.535698  0.095693  1
  O  O40  1  0.778579  0.964302  0.595693  1
  O  O41  1  0.278579  0.535698  0.404307  1
  O  O42  1  0.221421  0.035698  0.095693  1
  O  O43  1  0.721421  0.464302  0.904307  1
