# generated using pymatgen
data_K2B4H8O11
_symmetry_space_group_name_H-M   'P 1'
_cell_length_a   6.95675235
_cell_length_b   11.78642226
_cell_length_c   13.06382874
_cell_angle_alpha   90.00000000
_cell_angle_beta   90.00000000
_cell_angle_gamma   90.00000000
_symmetry_Int_Tables_number   1
_chemical_formula_structural   K2B4H8O11
_chemical_formula_sum   'K8 B16 H32 O44'
_cell_volume   1071.17152145
_cell_formula_units_Z   4
loop_
 _symmetry_equiv_pos_site_id
 _symmetry_equiv_pos_as_xyz
  1  'x, y, z'
loop_
 _atom_site_type_symbol
 _atom_site_label
 _atom_site_symmetry_multiplicity
 _atom_site_fract_x
 _atom_site_fract_y
 _atom_site_fract_z
 _atom_site_occupancy
  K  K0  1  0.031000  0.077346  0.615918  1
  K  K1  1  0.285007  0.653279  0.538823  1
  K  K2  1  0.785007  0.846721  0.461177  1
  K  K3  1  0.531000  0.422654  0.384082  1
  K  K4  1  0.469000  0.922654  0.115918  1
  K  K5  1  0.214993  0.346721  0.038823  1
  K  K6  1  0.714993  0.153279  0.961177  1
  K  K7  1  0.969000  0.577346  0.884082  1
  B  B8  1  0.636578  0.835523  0.707951  1
  B  B9  1  0.599987  0.043356  0.700480  1
  B  B10  1  0.536945  0.432402  0.655225  1
  B  B11  1  0.218099  0.348115  0.618322  1
  B  B12  1  0.718099  0.151885  0.381678  1
  B  B13  1  0.036945  0.067598  0.344775  1
  B  B14  1  0.099987  0.456644  0.299520  1
  B  B15  1  0.136578  0.664477  0.292049  1
  B  B16  1  0.863422  0.164477  0.207951  1
  B  B17  1  0.900013  0.956644  0.200480  1
  B  B18  1  0.963055  0.567598  0.155225  1
  B  B19  1  0.281901  0.651885  0.118322  1
  B  B20  1  0.781901  0.848115  0.881678  1
  B  B21  1  0.463055  0.932402  0.844775  1
  B  B22  1  0.400013  0.543356  0.799520  1
  B  B23  1  0.363422  0.335523  0.792049  1
  H  H24  1  0.022703  0.831587  0.702964  1
  H  H25  1  0.595427  0.217271  0.684247  1
  H  H26  1  0.247163  0.846044  0.695044  1
  H  H27  1  0.599328  0.674375  0.660033  1
  H  H28  1  0.893471  0.530183  0.644204  1
  H  H29  1  0.915587  0.659167  0.660589  1
  H  H30  1  0.785809  0.375457  0.584337  1
  H  H31  1  0.599806  0.163567  0.520785  1
  H  H32  1  0.099806  0.336433  0.479215  1
  H  H33  1  0.285809  0.124543  0.415663  1
  H  H34  1  0.415587  0.840833  0.339411  1
  H  H35  1  0.393471  0.969817  0.355796  1
  H  H36  1  0.099328  0.825625  0.339967  1
  H  H37  1  0.747163  0.653956  0.304956  1
  H  H38  1  0.095427  0.282729  0.315753  1
  H  H39  1  0.522703  0.668413  0.297036  1
  H  H40  1  0.477297  0.168413  0.202964  1
  H  H41  1  0.252837  0.153956  0.195044  1
  H  H42  1  0.904573  0.782729  0.184247  1
  H  H43  1  0.900672  0.325625  0.160033  1
  H  H44  1  0.606529  0.469817  0.144204  1
  H  H45  1  0.584413  0.340833  0.160589  1
  H  H46  1  0.714191  0.624543  0.084337  1
  H  H47  1  0.900194  0.836433  0.020785  1
  H  H48  1  0.400194  0.663567  0.979215  1
  H  H49  1  0.214191  0.875457  0.915663  1
  H  H50  1  0.084413  0.159167  0.839411  1
  H  H51  1  0.106529  0.030183  0.855796  1
  H  H52  1  0.400672  0.174375  0.839967  1
  H  H53  1  0.404573  0.717271  0.815753  1
  H  H54  1  0.752837  0.346044  0.804956  1
  H  H55  1  0.977297  0.331587  0.797036  1
  O  O56  1  0.545665  0.340492  0.731895  1
  O  O57  1  0.200994  0.311872  0.718376  1
  O  O58  1  0.502279  0.543830  0.709032  1
  O  O59  1  0.988305  0.588340  0.667782  1
  O  O60  1  0.671586  0.946473  0.656597  1
  O  O61  1  0.635750  0.144314  0.648785  1
  O  O62  1  0.126925  0.844623  0.652965  1
  O  O63  1  0.631281  0.748596  0.629048  1
  O  O64  1  0.713935  0.445611  0.596031  1
  O  O65  1  0.371175  0.411732  0.584084  1
  O  O66  1  0.074412  0.313565  0.551575  1
  O  O67  1  0.574412  0.186435  0.448425  1
  O  O68  1  0.871175  0.088268  0.415916  1
  O  O69  1  0.213935  0.054389  0.403969  1
  O  O70  1  0.131281  0.751404  0.370952  1
  O  O71  1  0.626925  0.655377  0.347035  1
  O  O72  1  0.135750  0.355686  0.351215  1
  O  O73  1  0.171586  0.553527  0.343403  1
  O  O74  1  0.488305  0.911660  0.332218  1
  O  O75  1  0.002279  0.956170  0.290968  1
  O  O76  1  0.700994  0.188128  0.281624  1
  O  O77  1  0.045665  0.159508  0.268105  1
  O  O78  1  0.954335  0.659508  0.231895  1
  O  O79  1  0.299006  0.688128  0.218376  1
  O  O80  1  0.997721  0.456170  0.209032  1
  O  O81  1  0.511695  0.411660  0.167782  1
  O  O82  1  0.828414  0.053527  0.156597  1
  O  O83  1  0.864250  0.855686  0.148785  1
  O  O84  1  0.373075  0.155377  0.152965  1
  O  O85  1  0.868719  0.251404  0.129048  1
  O  O86  1  0.786065  0.554389  0.096031  1
  O  O87  1  0.128825  0.588268  0.084084  1
  O  O88  1  0.425588  0.686435  0.051575  1
  O  O89  1  0.925588  0.813565  0.948425  1
  O  O90  1  0.628825  0.911732  0.915916  1
  O  O91  1  0.286065  0.945611  0.903969  1
  O  O92  1  0.368719  0.248596  0.870952  1
  O  O93  1  0.873075  0.344623  0.847035  1
  O  O94  1  0.364250  0.644314  0.851215  1
  O  O95  1  0.328414  0.446473  0.843403  1
  O  O96  1  0.011695  0.088340  0.832218  1
  O  O97  1  0.497721  0.043830  0.790968  1
  O  O98  1  0.799006  0.811872  0.781624  1
  O  O99  1  0.454335  0.840492  0.768105  1
