# generated using pymatgen
data_BeH2SeO4
_symmetry_space_group_name_H-M   'P 1'
_cell_length_a   5.71814677
_cell_length_b   7.62827997
_cell_length_c   7.95244798
_cell_angle_alpha   90.00000000
_cell_angle_beta   90.00000000
_cell_angle_gamma   90.00000000
_symmetry_Int_Tables_number   1
_chemical_formula_structural   BeH2SeO4
_chemical_formula_sum   'Be4 H8 Se4 O16'
_cell_volume   346.88279451
_cell_formula_units_Z   4
loop_
 _symmetry_equiv_pos_site_id
 _symmetry_equiv_pos_as_xyz
  1  'x, y, z'
loop_
 _atom_site_type_symbol
 _atom_site_label
 _atom_site_symmetry_multiplicity
 _atom_site_fract_x
 _atom_site_fract_y
 _atom_site_fract_z
 _atom_site_occupancy
  Be  Be0  1  0.111062  0.267881  0.266270  1
  Be  Be1  1  0.388938  0.732119  0.766270  1
  Be  Be2  1  0.611062  0.232119  0.733730  1
  Be  Be3  1  0.888938  0.767881  0.233730  1
  H  H4  1  0.145776  0.904650  0.943817  1
  H  H5  1  0.217598  0.969194  0.315860  1
  H  H6  1  0.282402  0.030806  0.815860  1
  H  H7  1  0.354224  0.095350  0.443817  1
  H  H8  1  0.645776  0.595350  0.056183  1
  H  H9  1  0.717598  0.530806  0.684140  1
  H  H10  1  0.782402  0.469194  0.184140  1
  H  H11  1  0.854224  0.404650  0.556183  1
  Se  Se12  1  0.212766  0.412539  0.922552  1
  Se  Se13  1  0.287234  0.587461  0.422552  1
  Se  Se14  1  0.712766  0.087461  0.077448  1
  Se  Se15  1  0.787234  0.912539  0.577448  1
  O  O16  1  0.082838  0.418502  0.412843  1
  O  O17  1  0.159212  0.742489  0.292325  1
  O  O18  1  0.210860  0.668056  0.617663  1
  O  O19  1  0.223558  0.091204  0.359721  1
  O  O20  1  0.276442  0.908796  0.859721  1
  O  O21  1  0.289141  0.331944  0.117663  1
  O  O22  1  0.340788  0.257511  0.792325  1
  O  O23  1  0.417162  0.581498  0.912843  1
  O  O24  1  0.582838  0.081498  0.587157  1
  O  O25  1  0.659212  0.757511  0.707675  1
  O  O26  1  0.710859  0.831944  0.382337  1
  O  O27  1  0.723558  0.408796  0.640279  1
  O  O28  1  0.776442  0.591204  0.140279  1
  O  O29  1  0.789141  0.168056  0.882337  1
  O  O30  1  0.840788  0.242489  0.207675  1
  O  O31  1  0.917162  0.918502  0.087157  1
