# generated using pymatgen
data_Li5Mn3(PO4)4
_symmetry_space_group_name_H-M   'P 1'
_cell_length_a   4.78212547
_cell_length_b   6.02267181
_cell_length_c   10.50438871
_cell_angle_alpha   90.00000000
_cell_angle_beta   90.50516155
_cell_angle_gamma   90.00000000
_symmetry_Int_Tables_number   1
_chemical_formula_structural   Li5Mn3(PO4)4
_chemical_formula_sum   'Li5 Mn3 P4 O16'
_cell_volume   302.52695023
_cell_formula_units_Z   1
loop_
 _symmetry_equiv_pos_site_id
 _symmetry_equiv_pos_as_xyz
  1  'x, y, z'
loop_
 _atom_site_type_symbol
 _atom_site_label
 _atom_site_symmetry_multiplicity
 _atom_site_fract_x
 _atom_site_fract_y
 _atom_site_fract_z
 _atom_site_occupancy
  Li  Li0  1  0.996789  0.257131  0.009370  1
  Li  Li1  1  0.996789  0.742869  0.009370  1
  Li  Li2  1  0.497259  0.743947  0.494107  1
  Li  Li3  1  0.497259  0.256053  0.494107  1
  Li  Li4  1  0.975823  0.500000  0.279746  1
  Mn  Mn5  1  0.018924  0.000000  0.721336  1
  Mn  Mn6  1  0.492577  0.000000  0.223422  1
  Mn  Mn7  1  0.515161  0.500000  0.781605  1
  P  P8  1  0.086144  0.500000  0.590798  1
  P  P9  1  0.421249  0.500000  0.094467  1
  P  P10  1  0.589233  0.000000  0.907857  1
  P  P11  1  0.907046  0.000000  0.405259  1
  O  O12  1  0.201687  0.500000  0.454989  1
  O  O13  1  0.223524  0.296692  0.664112  1
  O  O14  1  0.223524  0.703308  0.664112  1
  O  O15  1  0.227544  0.000000  0.402253  1
  O  O16  1  0.269352  0.000000  0.902633  1
  O  O17  1  0.290681  0.290997  0.162368  1
  O  O18  1  0.290681  0.709003  0.162368  1
  O  O19  1  0.287781  0.500000  0.957354  1
  O  O20  1  0.714462  0.000000  0.044255  1
  O  O21  1  0.723998  0.796913  0.835985  1
  O  O22  1  0.723998  0.203087  0.835985  1
  O  O23  1  0.740075  0.500000  0.093295  1
  O  O24  1  0.765372  0.500000  0.599140  1
  O  O25  1  0.767031  0.798266  0.333509  1
  O  O26  1  0.767031  0.201734  0.333509  1
  O  O27  1  0.789003  0.000000  0.542689  1
