# generated using pymatgen
data_Li3FePCO7
_symmetry_space_group_name_H-M   'P 1'
_cell_length_a   8.57823238
_cell_length_b   6.44075556
_cell_length_c   9.77688834
_cell_angle_alpha   90.00000000
_cell_angle_beta   95.03596716
_cell_angle_gamma   90.00000000
_symmetry_Int_Tables_number   1
_chemical_formula_structural   Li3FePCO7
_chemical_formula_sum   'Li12 Fe4 P4 C4 O28'
_cell_volume   538.09080096
_cell_formula_units_Z   4
loop_
 _symmetry_equiv_pos_site_id
 _symmetry_equiv_pos_as_xyz
  1  'x, y, z'
loop_
 _atom_site_type_symbol
 _atom_site_label
 _atom_site_symmetry_multiplicity
 _atom_site_fract_x
 _atom_site_fract_y
 _atom_site_fract_z
 _atom_site_occupancy
  Li  Li0  1  0.896969  0.749571  0.386759  1
  Li  Li1  1  0.896969  0.750429  0.886759  1
  Li  Li2  1  0.714233  0.986245  0.117607  1
  Li  Li3  1  0.714233  0.513755  0.617607  1
  Li  Li4  1  0.646292  0.255897  0.390890  1
  Li  Li5  1  0.646292  0.244103  0.890890  1
  Li  Li6  1  0.353708  0.755897  0.109110  1
  Li  Li7  1  0.353708  0.744103  0.609110  1
  Li  Li8  1  0.285767  0.486245  0.382393  1
  Li  Li9  1  0.285767  0.013755  0.882393  1
  Li  Li10  1  0.103031  0.249571  0.113241  1
  Li  Li11  1  0.103031  0.250429  0.613241  1
  Fe  Fe12  1  0.733396  0.499388  0.128772  1
  Fe  Fe13  1  0.733396  0.000612  0.628772  1
  Fe  Fe14  1  0.266604  0.999388  0.371228  1
  Fe  Fe15  1  0.266604  0.500612  0.871228  1
  P  P16  1  0.591980  0.748194  0.360200  1
  P  P17  1  0.591980  0.751806  0.860200  1
  P  P18  1  0.408020  0.248194  0.139800  1
  P  P19  1  0.408020  0.251806  0.639800  1
  C  C20  1  0.958953  0.253852  0.350870  1
  C  C21  1  0.958953  0.246148  0.850870  1
  C  C22  1  0.041047  0.753852  0.149130  1
  C  C23  1  0.041047  0.746148  0.649130  1
  O  O24  1  0.929638  0.243145  0.476599  1
  O  O25  1  0.895309  0.746259  0.183294  1
  O  O26  1  0.929638  0.256855  0.976599  1
  O  O27  1  0.847087  0.269916  0.252150  1
  O  O28  1  0.895309  0.753741  0.683294  1
  O  O29  1  0.847087  0.230084  0.752150  1
  O  O30  1  0.687187  0.941755  0.418348  1
  O  O31  1  0.692352  0.560056  0.411438  1
  O  O32  1  0.692352  0.939944  0.911438  1
  O  O33  1  0.687187  0.558245  0.918348  1
  O  O34  1  0.575617  0.244701  0.091821  1
  O  O35  1  0.579868  0.752488  0.199708  1
  O  O36  1  0.575617  0.255299  0.591821  1
  O  O37  1  0.579868  0.747512  0.699708  1
  O  O38  1  0.420132  0.252488  0.300292  1
  O  O39  1  0.424383  0.744701  0.408179  1
  O  O40  1  0.420132  0.247512  0.800292  1
  O  O41  1  0.424383  0.755299  0.908179  1
  O  O42  1  0.307648  0.060056  0.088562  1
  O  O43  1  0.312813  0.441755  0.081652  1
  O  O44  1  0.307648  0.439944  0.588562  1
  O  O45  1  0.312813  0.058245  0.581652  1
  O  O46  1  0.152913  0.769916  0.247850  1
  O  O47  1  0.104691  0.246259  0.316706  1
  O  O48  1  0.152913  0.730084  0.747850  1
  O  O49  1  0.070362  0.743145  0.023401  1
  O  O50  1  0.104691  0.253741  0.816706  1
  O  O51  1  0.070362  0.756855  0.523401  1
