# generated using pymatgen
data_Li2ZrFe(PO4)3
_symmetry_space_group_name_H-M   'P 1'
_cell_length_a   10.88188882
_cell_length_b   10.10076307
_cell_length_c   13.60985217
_cell_angle_alpha   90.00000000
_cell_angle_beta   128.59035901
_cell_angle_gamma   90.00000000
_symmetry_Int_Tables_number   1
_chemical_formula_structural   Li2ZrFe(PO4)3
_chemical_formula_sum   'Li8 Zr4 Fe4 P12 O48'
_cell_volume   1169.25857195
_cell_formula_units_Z   4
loop_
 _symmetry_equiv_pos_site_id
 _symmetry_equiv_pos_as_xyz
  1  'x, y, z'
loop_
 _atom_site_type_symbol
 _atom_site_label
 _atom_site_symmetry_multiplicity
 _atom_site_fract_x
 _atom_site_fract_y
 _atom_site_fract_z
 _atom_site_occupancy
  Li  Li0  1  0.163260  0.099272  0.147438  1
  Li  Li1  1  0.122767  0.322331  0.264656  1
  Li  Li2  1  0.877233  0.822331  0.235344  1
  Li  Li3  1  0.836740  0.599272  0.352562  1
  Li  Li4  1  0.163260  0.400728  0.647438  1
  Li  Li5  1  0.122767  0.177669  0.764656  1
  Li  Li6  1  0.877233  0.677669  0.735344  1
  Li  Li7  1  0.836740  0.900728  0.852562  1
  Zr  Zr8  1  0.457243  0.963199  0.237805  1
  Zr  Zr9  1  0.542757  0.463199  0.262195  1
  Zr  Zr10  1  0.457243  0.536801  0.737805  1
  Zr  Zr11  1  0.542757  0.036801  0.762195  1
  Fe  Fe12  1  0.785065  0.377605  0.167246  1
  Fe  Fe13  1  0.214935  0.877605  0.332754  1
  Fe  Fe14  1  0.785065  0.122395  0.667246  1
  Fe  Fe15  1  0.214935  0.622395  0.832754  1
  P  P16  1  0.531582  0.755721  0.079213  1
  P  P17  1  0.585599  0.804678  0.888621  1
  P  P18  1  0.053946  0.911045  0.791576  1
  P  P19  1  0.414401  0.304678  0.611379  1
  P  P20  1  0.946054  0.411045  0.708424  1
  P  P21  1  0.468418  0.255721  0.420787  1
  P  P22  1  0.531582  0.744279  0.579213  1
  P  P23  1  0.585599  0.695322  0.388621  1
  P  P24  1  0.053946  0.588955  0.291576  1
  P  P25  1  0.414401  0.195322  0.111379  1
  P  P26  1  0.946054  0.088955  0.208424  1
  P  P27  1  0.468418  0.244279  0.920787  1
  O  O28  1  0.589871  0.356173  0.992805  1
  O  O29  1  0.455100  0.170714  0.019519  1
  O  O30  1  0.381033  0.343285  0.110354  1
  O  O31  1  0.971058  0.117336  0.111917  1
  O  O32  1  0.463952  0.865284  0.112320  1
  O  O33  1  0.692938  0.712346  0.191812  1
  O  O34  1  0.440754  0.645624  0.256683  1
  O  O35  1  0.812919  0.999918  0.174333  1
  O  O36  1  0.067253  0.734474  0.250009  1
  O  O37  1  0.718762  0.604897  0.421711  1
  O  O38  1  0.896122  0.522080  0.170221  1
  O  O39  1  0.286965  0.929405  0.243128  1
  O  O40  1  0.713035  0.429405  0.256872  1
  O  O41  1  0.103878  0.022080  0.329779  1
  O  O42  1  0.932747  0.234474  0.249991  1
  O  O43  1  0.281238  0.104897  0.078289  1
  O  O44  1  0.187081  0.499918  0.325667  1
  O  O45  1  0.559246  0.145624  0.243317  1
  O  O46  1  0.307062  0.212346  0.308188  1
  O  O47  1  0.536048  0.365284  0.387680  1
  O  O48  1  0.028942  0.617336  0.388083  1
  O  O49  1  0.618967  0.843285  0.389646  1
  O  O50  1  0.410129  0.856173  0.507195  1
  O  O51  1  0.544900  0.670714  0.480481  1
  O  O52  1  0.455100  0.329286  0.519519  1
  O  O53  1  0.589871  0.143827  0.492805  1
  O  O54  1  0.971058  0.382664  0.611917  1
  O  O55  1  0.381033  0.156715  0.610354  1
  O  O56  1  0.463952  0.634716  0.612320  1
  O  O57  1  0.692938  0.787654  0.691812  1
  O  O58  1  0.440754  0.854376  0.756683  1
  O  O59  1  0.812919  0.500082  0.674333  1
  O  O60  1  0.718762  0.895103  0.921711  1
  O  O61  1  0.067253  0.765526  0.750009  1
  O  O62  1  0.896122  0.977920  0.670221  1
  O  O63  1  0.286965  0.570595  0.743128  1
  O  O64  1  0.713035  0.070595  0.756872  1
  O  O65  1  0.103878  0.477920  0.829779  1
  O  O66  1  0.281238  0.395103  0.578289  1
  O  O67  1  0.932747  0.265526  0.749991  1
  O  O68  1  0.559246  0.354376  0.743317  1
  O  O69  1  0.187081  0.000082  0.825667  1
  O  O70  1  0.307062  0.287654  0.808188  1
  O  O71  1  0.536048  0.134716  0.887680  1
  O  O72  1  0.028942  0.882664  0.888083  1
  O  O73  1  0.618967  0.656715  0.889646  1
  O  O74  1  0.544900  0.829286  0.980481  1
  O  O75  1  0.410129  0.643827  0.007195  1
