# generated using pymatgen
data_Fe4O3F5
_symmetry_space_group_name_H-M   'P 1'
_cell_length_a   4.76258503
_cell_length_b   4.77035096
_cell_length_c   12.55993115
_cell_angle_alpha   91.25491253
_cell_angle_beta   90.40888858
_cell_angle_gamma   91.42141933
_symmetry_Int_Tables_number   1
_chemical_formula_structural   Fe4O3F5
_chemical_formula_sum   'Fe8 O6 F10'
_cell_volume   285.18696839
_cell_formula_units_Z   2
loop_
 _symmetry_equiv_pos_site_id
 _symmetry_equiv_pos_as_xyz
  1  'x, y, z'
loop_
 _atom_site_type_symbol
 _atom_site_label
 _atom_site_symmetry_multiplicity
 _atom_site_fract_x
 _atom_site_fract_y
 _atom_site_fract_z
 _atom_site_occupancy
  Fe  Fe0  1  0.000000  0.000000  0.000000  1
  Fe  Fe1  1  0.983077  0.965067  0.759327  1
  Fe  Fe2  1  0.000000  0.000000  0.500000  1
  Fe  Fe3  1  0.016923  0.034933  0.240673  1
  Fe  Fe4  1  0.480697  0.539392  0.865679  1
  Fe  Fe5  1  0.481627  0.488631  0.388648  1
  Fe  Fe6  1  0.519303  0.460608  0.134321  1
  Fe  Fe7  1  0.518373  0.511369  0.611352  1
  O  O8  1  0.814157  0.194641  0.125416  1
  O  O9  1  0.287532  0.287278  0.504781  1
  O  O10  1  0.316970  0.307788  0.252458  1
  O  O11  1  0.683030  0.692212  0.747542  1
  O  O12  1  0.712468  0.712722  0.495219  1
  O  O13  1  0.185843  0.805359  0.874584  1
  F  F14  1  0.782123  0.210421  0.868631  1
  F  F15  1  0.809013  0.187239  0.630244  1
  F  F16  1  0.811445  0.193989  0.371325  1
  F  F17  1  0.319202  0.320004  0.998972  1
  F  F18  1  0.283210  0.293256  0.752611  1
  F  F19  1  0.680798  0.679996  0.001028  1
  F  F20  1  0.716790  0.706744  0.247389  1
  F  F21  1  0.188555  0.806011  0.628675  1
  F  F22  1  0.190987  0.812761  0.369756  1
  F  F23  1  0.217877  0.789579  0.131369  1
