# generated using pymatgen
data_Li3Fe8(BO3)8
_symmetry_space_group_name_H-M   'P 1'
_cell_length_a   5.30114146
_cell_length_b   9.07402340
_cell_length_c   10.11159407
_cell_angle_alpha   89.49802078
_cell_angle_beta   89.33458252
_cell_angle_gamma   89.57847281
_symmetry_Int_Tables_number   1
_chemical_formula_structural   Li3Fe8(BO3)8
_chemical_formula_sum   'Li3 Fe8 B8 O24'
_cell_volume   486.33052002
_cell_formula_units_Z   1
loop_
 _symmetry_equiv_pos_site_id
 _symmetry_equiv_pos_as_xyz
  1  'x, y, z'
loop_
 _atom_site_type_symbol
 _atom_site_label
 _atom_site_symmetry_multiplicity
 _atom_site_fract_x
 _atom_site_fract_y
 _atom_site_fract_z
 _atom_site_occupancy
  Li  Li0  1  0.655739  0.987240  0.841139  1
  Li  Li1  1  0.342256  0.000221  0.122712  1
  Li  Li2  1  0.155054  0.493312  0.840885  1
  Fe  Fe3  1  0.838590  0.828450  0.124217  1
  Fe  Fe4  1  0.156173  0.838270  0.374020  1
  Fe  Fe5  1  0.665279  0.654912  0.872747  1
  Fe  Fe6  1  0.349107  0.670759  0.618943  1
  Fe  Fe7  1  0.663769  0.334651  0.369076  1
  Fe  Fe8  1  0.847253  0.168764  0.618942  1
  Fe  Fe9  1  0.335861  0.340526  0.121517  1
  Fe  Fe10  1  0.155942  0.156651  0.871533  1
  B  B11  1  0.841005  0.831550  0.628684  1
  B  B12  1  0.664865  0.663752  0.369849  1
  B  B13  1  0.167281  0.830789  0.877252  1
  B  B14  1  0.337252  0.671344  0.117645  1
  B  B15  1  0.662721  0.328681  0.872597  1
  B  B16  1  0.339353  0.330506  0.625117  1
  B  B17  1  0.831734  0.164237  0.122136  1
  B  B18  1  0.174137  0.173274  0.362114  1
  O  O19  1  0.747299  0.971322  0.647178  1
  O  O20  1  0.912337  0.831117  0.916054  1
  O  O21  1  0.308129  0.956658  0.891188  1
  O  O22  1  0.791103  0.785944  0.316349  1
  O  O23  1  0.695212  0.711651  0.666677  1
  O  O24  1  0.202072  0.799056  0.152262  1
  O  O25  1  0.081806  0.810710  0.578895  1
  O  O26  1  0.585663  0.689087  0.076205  1
  O  O27  1  0.772905  0.527483  0.365351  1
  O  O28  1  0.428165  0.685320  0.427405  1
  O  O29  1  0.275445  0.701114  0.827906  1
  O  O30  1  0.803433  0.452517  0.870548  1
  O  O31  1  0.227757  0.536960  0.117856  1
  O  O32  1  0.695689  0.287795  0.163794  1
  O  O33  1  0.573405  0.302544  0.565091  1
  O  O34  1  0.260486  0.470136  0.651132  1
  O  O35  1  0.410457  0.327946  0.920305  1
  O  O36  1  0.934737  0.194894  0.422290  1
  O  O37  1  0.765964  0.195155  0.825641  1
  O  O38  1  0.303281  0.302430  0.321643  1
  O  O39  1  0.192706  0.211379  0.666021  1
  O  O40  1  0.715080  0.030280  0.112243  1
  O  O41  1  0.087224  0.179300  0.086546  1
  O  O42  1  0.271678  0.039380  0.338891  1
