# generated using pymatgen
data_Na2VBPO7
_symmetry_space_group_name_H-M   'P 1'
_cell_length_a   5.43455992
_cell_length_b   6.51227803
_cell_length_c   9.16356626
_cell_angle_alpha   90.00000000
_cell_angle_beta   92.79721487
_cell_angle_gamma   90.00000000
_symmetry_Int_Tables_number   1
_chemical_formula_structural   Na2VBPO7
_chemical_formula_sum   'Na4 V2 B2 P2 O14'
_cell_volume   323.92470636
_cell_formula_units_Z   2
loop_
 _symmetry_equiv_pos_site_id
 _symmetry_equiv_pos_as_xyz
  1  'x, y, z'
loop_
 _atom_site_type_symbol
 _atom_site_label
 _atom_site_symmetry_multiplicity
 _atom_site_fract_x
 _atom_site_fract_y
 _atom_site_fract_z
 _atom_site_occupancy
  Na  Na0  1  0.767141  0.004049  0.209483  1
  Na  Na1  1  0.767141  0.495951  0.209483  1
  Na  Na2  1  0.232859  0.504049  0.790517  1
  Na  Na3  1  0.232859  0.995951  0.790517  1
  V  V4  1  0.223165  0.250000  0.341802  1
  V  V5  1  0.776835  0.750000  0.658198  1
  B  B6  1  0.265512  0.250000  0.078637  1
  B  B7  1  0.734488  0.750000  0.921363  1
  P  P8  1  0.264113  0.750000  0.438579  1
  P  P9  1  0.735887  0.250000  0.561421  1
  O  O10  1  0.685225  0.750000  0.059185  1
  O  O11  1  0.043177  0.250000  0.147915  1
  O  O12  1  0.453918  0.250000  0.201484  1
  O  O13  1  0.193996  0.941491  0.345828  1
  O  O14  1  0.193996  0.558509  0.345828  1
  O  O15  1  0.884523  0.250000  0.420453  1
  O  O16  1  0.544053  0.750000  0.482874  1
  O  O17  1  0.455947  0.250000  0.517126  1
  O  O18  1  0.115477  0.750000  0.579547  1
  O  O19  1  0.806004  0.441491  0.654172  1
  O  O20  1  0.806004  0.058509  0.654172  1
  O  O21  1  0.546082  0.750000  0.798516  1
  O  O22  1  0.956823  0.750000  0.852085  1
  O  O23  1  0.314775  0.250000  0.940815  1
