# generated using pymatgen
data_Ti7(Fe3O8)3
_symmetry_space_group_name_H-M   'P 1'
_cell_length_a   5.59324554
_cell_length_b   9.10855978
_cell_length_c   9.12768262
_cell_angle_alpha   68.62816513
_cell_angle_beta   84.82361976
_cell_angle_gamma   85.00529169
_symmetry_Int_Tables_number   1
_chemical_formula_structural   Ti7(Fe3O8)3
_chemical_formula_sum   'Ti7 Fe9 O24'
_cell_volume   430.54262117
_cell_formula_units_Z   1
loop_
 _symmetry_equiv_pos_site_id
 _symmetry_equiv_pos_as_xyz
  1  'x, y, z'
loop_
 _atom_site_type_symbol
 _atom_site_label
 _atom_site_symmetry_multiplicity
 _atom_site_fract_x
 _atom_site_fract_y
 _atom_site_fract_z
 _atom_site_occupancy
  Ti  Ti0  1  0.203483  0.927725  0.432741  1
  Ti  Ti1  1  0.215791  0.425896  0.926738  1
  Ti  Ti2  1  0.293564  0.576041  0.567958  1
  Ti  Ti3  1  0.711693  0.428231  0.425521  1
  Ti  Ti4  1  0.799787  0.573302  0.067257  1
  Ti  Ti5  1  0.781364  0.074467  0.579648  1
  Ti  Ti6  1  0.293875  0.068482  0.075902  1
  Fe  Fe7  1  0.307959  0.825432  0.828705  1
  Fe  Fe8  1  0.716514  0.925545  0.928251  1
  Fe  Fe9  1  0.787134  0.824857  0.320183  1
  Fe  Fe10  1  0.710883  0.677077  0.675613  1
  Fe  Fe11  1  0.209884  0.678943  0.172925  1
  Fe  Fe12  1  0.205554  0.176676  0.679836  1
  Fe  Fe13  1  0.290247  0.321330  0.322813  1
  Fe  Fe14  1  0.793469  0.320828  0.821523  1
  Fe  Fe15  1  0.715545  0.179721  0.176546  1
  O  O16  1  0.151202  0.960505  0.626372  1
  O  O17  1  0.630648  0.886835  0.719602  1
  O  O18  1  0.155671  0.888857  0.218532  1
  O  O19  1  0.015619  0.716015  0.523223  1
  O  O20  1  0.644036  0.982277  0.116637  1
  O  O21  1  0.000582  0.777935  0.961817  1
  O  O22  1  0.470327  0.781989  0.473561  1
  O  O23  1  0.342067  0.624060  0.784255  1
  O  O24  1  0.164256  0.395262  0.718451  1
  O  O25  1  0.516006  0.717542  0.018246  1
  O  O26  1  0.848373  0.518376  0.890243  1
  O  O27  1  0.350595  0.520699  0.388573  1
  O  O28  1  0.147183  0.474718  0.110330  1
  O  O29  1  0.647272  0.478480  0.607677  1
  O  O30  1  0.477744  0.282906  0.973330  1
  O  O31  1  0.843343  0.613241  0.278386  1
  O  O32  1  0.663060  0.390035  0.215395  1
  O  O33  1  0.520423  0.217559  0.524580  1
  O  O34  1  0.032306  0.218397  0.024828  1
  O  O35  1  0.334687  0.015465  0.887371  1
  O  O36  1  0.976581  0.280818  0.478554  1
  O  O37  1  0.337917  0.111215  0.286534  1
  O  O38  1  0.838576  0.118057  0.774899  1
  O  O39  1  0.854780  0.024201  0.396443  1
