# generated using pymatgen
data_BeH2
_symmetry_space_group_name_H-M   'P 1'
_cell_length_a   6.17478636
_cell_length_b   6.17478636
_cell_length_c   6.17478636
_cell_angle_alpha   141.75195959
_cell_angle_beta   104.16889993
_cell_angle_gamma   88.27403362
_symmetry_Int_Tables_number   1
_chemical_formula_structural   BeH2
_chemical_formula_sum   'Be6 H12'
_cell_volume   136.06250152
_cell_formula_units_Z   6
loop_
 _symmetry_equiv_pos_site_id
 _symmetry_equiv_pos_as_xyz
  1  'x, y, z'
loop_
 _atom_site_type_symbol
 _atom_site_label
 _atom_site_symmetry_multiplicity
 _atom_site_fract_x
 _atom_site_fract_y
 _atom_site_fract_z
 _atom_site_occupancy
  Be  Be0  1  0.250000  0.000000  0.250000  1
  Be  Be1  1  0.750000  0.000000  0.750000  1
  Be  Be2  1  0.167834  0.288603  0.120769  1
  Be  Be3  1  0.667834  0.047065  0.379231  1
  Be  Be4  1  0.332166  0.952935  0.620769  1
  Be  Be5  1  0.832166  0.711397  0.879231  1
  H  H6  1  0.564262  0.144738  0.886731  1
  H  H7  1  0.258006  0.144738  0.580476  1
  H  H8  1  0.758006  0.677531  0.613269  1
  H  H9  1  0.935738  0.322469  0.080476  1
  H  H10  1  0.684252  0.414736  0.730484  1
  H  H11  1  0.184252  0.953769  0.769517  1
  H  H12  1  0.315748  0.585264  0.269516  1
  H  H13  1  0.815748  0.046231  0.230483  1
  H  H14  1  0.064262  0.677531  0.919524  1
  H  H15  1  0.241994  0.322469  0.386731  1
  H  H16  1  0.741994  0.855262  0.419524  1
  H  H17  1  0.435738  0.855262  0.113269  1
