# generated using pymatgen
data_Na2MnO2
_symmetry_space_group_name_H-M   'P 1'
_cell_length_a   6.03053178
_cell_length_b   6.03053178
_cell_length_c   6.03053178
_cell_angle_alpha   122.41996885
_cell_angle_beta   122.00021788
_cell_angle_gamma   86.21322889
_symmetry_Int_Tables_number   1
_chemical_formula_structural   Na2MnO2
_chemical_formula_sum   'Na4 Mn2 O4'
_cell_volume   149.53965576
_cell_formula_units_Z   2
loop_
 _symmetry_equiv_pos_site_id
 _symmetry_equiv_pos_as_xyz
  1  'x, y, z'
loop_
 _atom_site_type_symbol
 _atom_site_label
 _atom_site_symmetry_multiplicity
 _atom_site_fract_x
 _atom_site_fract_y
 _atom_site_fract_z
 _atom_site_occupancy
  Na  Na0  1  0.154192  0.756180  0.601988  1
  Na  Na1  1  0.654192  0.552204  0.898012  1
  Na  Na2  1  0.345808  0.447796  0.101988  1
  Na  Na3  1  0.845808  0.243820  0.398012  1
  Mn  Mn4  1  0.750000  0.000000  0.750000  1
  Mn  Mn5  1  0.250000  0.000000  0.250000  1
  O  O6  1  0.596015  0.880833  0.284818  1
  O  O7  1  0.903985  0.688802  0.784818  1
  O  O8  1  0.096015  0.311198  0.215182  1
  O  O9  1  0.403985  0.119167  0.715182  1
