# generated using pymatgen
data_SrNb3NO7
_symmetry_space_group_name_H-M   'P 1'
_cell_length_a   10.60096605
_cell_length_b   10.60096605
_cell_length_c   9.00618497
_cell_angle_alpha   89.58845129
_cell_angle_beta   90.41154871
_cell_angle_gamma   159.16305934
_symmetry_Int_Tables_number   1
_chemical_formula_structural   SrNb3NO7
_chemical_formula_sum   'Sr2 Nb6 N2 O14'
_cell_volume   360.01099045
_cell_formula_units_Z   2
loop_
 _symmetry_equiv_pos_site_id
 _symmetry_equiv_pos_as_xyz
  1  'x, y, z'
loop_
 _atom_site_type_symbol
 _atom_site_label
 _atom_site_symmetry_multiplicity
 _atom_site_fract_x
 _atom_site_fract_y
 _atom_site_fract_z
 _atom_site_occupancy
  Sr  Sr0  1  0.979560  0.020441  0.249138  1
  Sr  Sr1  1  0.016081  0.983919  0.750004  1
  Nb  Nb2  1  0.625296  0.374704  0.061559  1
  Nb  Nb3  1  0.240891  0.759109  0.249342  1
  Nb  Nb4  1  0.632961  0.367039  0.455786  1
  Nb  Nb5  1  0.374984  0.625016  0.562300  1
  Nb  Nb6  1  0.764861  0.235139  0.768659  1
  Nb  Nb7  1  0.374822  0.625178  0.935529  1
  N  N8  1  0.426031  0.573969  0.746262  1
  N  N9  1  0.843208  0.156792  0.906182  1
  O  O10  1  0.438584  0.561416  0.079856  1
  O  O11  1  0.149477  0.850523  0.087414  1
  O  O12  1  0.296823  0.703177  0.096368  1
  O  O13  1  0.708094  0.291906  0.250395  1
  O  O14  1  0.573635  0.426365  0.243790  1
  O  O15  1  0.294636  0.705364  0.407555  1
  O  O16  1  0.146713  0.853287  0.402517  1
  O  O17  1  0.436868  0.563132  0.415585  1
  O  O18  1  0.563382  0.436618  0.579323  1
  O  O19  1  0.847551  0.152449  0.585308  1
  O  O20  1  0.701365  0.298635  0.592646  1
  O  O21  1  0.285576  0.714424  0.734538  1
  O  O22  1  0.700291  0.299709  0.908022  1
  O  O23  1  0.561692  0.438308  0.921186  1
