# generated using pymatgen
data_Fe5O3F7
_symmetry_space_group_name_H-M   'P 1'
_cell_length_a   4.78410754
_cell_length_b   4.78880085
_cell_length_c   15.74672741
_cell_angle_alpha   89.99077664
_cell_angle_beta   89.96201751
_cell_angle_gamma   89.84945158
_symmetry_Int_Tables_number   1
_chemical_formula_structural   Fe5O3F7
_chemical_formula_sum   'Fe10 O6 F14'
_cell_volume   360.75837299
_cell_formula_units_Z   2
loop_
 _symmetry_equiv_pos_site_id
 _symmetry_equiv_pos_as_xyz
  1  'x, y, z'
loop_
 _atom_site_type_symbol
 _atom_site_label
 _atom_site_symmetry_multiplicity
 _atom_site_fract_x
 _atom_site_fract_y
 _atom_site_fract_z
 _atom_site_occupancy
  Fe  Fe0  1  0.974739  0.047099  0.006659  1
  Fe  Fe1  1  0.027999  0.973197  0.801210  1
  Fe  Fe2  1  0.027756  0.988336  0.594469  1
  Fe  Fe3  1  0.024431  0.029785  0.399602  1
  Fe  Fe4  1  0.026661  0.028411  0.200130  1
  Fe  Fe5  1  0.500965  0.506054  0.900293  1
  Fe  Fe6  1  0.471050  0.489323  0.507079  1
  Fe  Fe7  1  0.483501  0.527044  0.702370  1
  Fe  Fe8  1  0.486971  0.486137  0.299874  1
  Fe  Fe9  1  0.488598  0.480185  0.093400  1
  O  O10  1  0.203789  0.201282  0.492784  1
  O  O11  1  0.185843  0.187028  0.299344  1
  O  O12  1  0.172372  0.185635  0.100362  1
  O  O13  1  0.327743  0.681057  0.803735  1
  O  O14  1  0.318825  0.684103  0.602411  1
  O  O15  1  0.684866  0.313949  0.990791  1
  F  F16  1  0.195935  0.202698  0.904847  1
  F  F17  1  0.220427  0.197255  0.701273  1
  F  F18  1  0.279676  0.712214  0.991712  1
  F  F19  1  0.297349  0.698667  0.404765  1
  F  F20  1  0.291238  0.698992  0.196683  1
  F  F21  1  0.711358  0.297586  0.799422  1
  F  F22  1  0.702614  0.299561  0.603322  1
  F  F23  1  0.697012  0.299437  0.406347  1
  F  F24  1  0.699121  0.287181  0.199272  1
  F  F25  1  0.801739  0.808639  0.907247  1
  F  F26  1  0.793474  0.787818  0.489646  1
  F  F27  1  0.809517  0.789739  0.698838  1
  F  F28  1  0.794785  0.810247  0.101706  1
  F  F29  1  0.799644  0.801346  0.300409  1
