# generated using pymatgen
data_Li8(FeO2)5
_symmetry_space_group_name_H-M   'P 1'
_cell_length_a   5.43978891
_cell_length_b   6.77223568
_cell_length_c   8.02902213
_cell_angle_alpha   90.43749942
_cell_angle_beta   102.80415805
_cell_angle_gamma   113.38418660
_symmetry_Int_Tables_number   1
_chemical_formula_structural   Li8(FeO2)5
_chemical_formula_sum   'Li8 Fe5 O10'
_cell_volume   263.22543148
_cell_formula_units_Z   1
loop_
 _symmetry_equiv_pos_site_id
 _symmetry_equiv_pos_as_xyz
  1  'x, y, z'
loop_
 _atom_site_type_symbol
 _atom_site_label
 _atom_site_symmetry_multiplicity
 _atom_site_fract_x
 _atom_site_fract_y
 _atom_site_fract_z
 _atom_site_occupancy
  Li  Li0  1  0.702178  0.141833  0.968822  1
  Li  Li1  1  0.506808  0.952827  0.343059  1
  Li  Li2  1  0.297822  0.858167  0.031178  1
  Li  Li3  1  0.493192  0.047173  0.656941  1
  Li  Li4  1  0.074152  0.513174  0.165582  1
  Li  Li5  1  0.113921  0.675679  0.451078  1
  Li  Li6  1  0.886079  0.324321  0.548922  1
  Li  Li7  1  0.925848  0.486826  0.834418  1
  Fe  Fe8  1  0.703365  0.700018  0.098149  1
  Fe  Fe9  1  0.296635  0.299982  0.901851  1
  Fe  Fe10  1  0.500000  0.500000  0.500000  1
  Fe  Fe11  1  0.091112  0.098876  0.303824  1
  Fe  Fe12  1  0.908888  0.901124  0.696176  1
  O  O13  1  0.698832  0.973438  0.163698  1
  O  O14  1  0.699785  0.432754  0.004003  1
  O  O15  1  0.480714  0.215832  0.456992  1
  O  O16  1  0.096307  0.811875  0.224923  1
  O  O17  1  0.300215  0.567246  0.995997  1
  O  O18  1  0.301168  0.026562  0.836302  1
  O  O19  1  0.519286  0.784168  0.543008  1
  O  O20  1  0.123808  0.393372  0.386289  1
  O  O21  1  0.903693  0.188125  0.775077  1
  O  O22  1  0.876192  0.606628  0.613711  1
