# generated using pymatgen
data_Na3CoO3
_symmetry_space_group_name_H-M   'P 1'
_cell_length_a   4.51600582
_cell_length_b   9.06203095
_cell_length_c   9.23015847
_cell_angle_alpha   90.00000000
_cell_angle_beta   90.00000000
_cell_angle_gamma   90.00000000
_symmetry_Int_Tables_number   1
_chemical_formula_structural   Na3CoO3
_chemical_formula_sum   'Na12 Co4 O12'
_cell_volume   377.73670818
_cell_formula_units_Z   4
loop_
 _symmetry_equiv_pos_site_id
 _symmetry_equiv_pos_as_xyz
  1  'x, y, z'
loop_
 _atom_site_type_symbol
 _atom_site_label
 _atom_site_symmetry_multiplicity
 _atom_site_fract_x
 _atom_site_fract_y
 _atom_site_fract_z
 _atom_site_occupancy
  Na  Na0  1  0.000000  0.129716  0.626620  1
  Na  Na1  1  0.500000  0.126158  0.370016  1
  Na  Na2  1  0.500000  0.144491  0.854875  1
  Na  Na3  1  0.000000  0.355509  0.354875  1
  Na  Na4  1  0.000000  0.373842  0.870016  1
  Na  Na5  1  0.500000  0.370284  0.126620  1
  Na  Na6  1  0.500000  0.629716  0.873380  1
  Na  Na7  1  0.000000  0.626158  0.129984  1
  Na  Na8  1  0.000000  0.644491  0.645125  1
  Na  Na9  1  0.500000  0.855509  0.145125  1
  Na  Na10  1  0.500000  0.873842  0.629984  1
  Na  Na11  1  0.000000  0.870284  0.373380  1
  Co  Co12  1  0.000000  0.113529  0.113984  1
  Co  Co13  1  0.500000  0.386471  0.613984  1
  Co  Co14  1  0.500000  0.613529  0.386016  1
  Co  Co15  1  0.000000  0.886471  0.886016  1
  O  O16  1  0.000000  0.091874  0.902785  1
  O  O17  1  0.000000  0.105686  0.311566  1
  O  O18  1  0.500000  0.190871  0.605572  1
  O  O19  1  0.000000  0.309129  0.105572  1
  O  O20  1  0.500000  0.394314  0.811566  1
  O  O21  1  0.500000  0.408126  0.402785  1
  O  O22  1  0.500000  0.591874  0.597215  1
  O  O23  1  0.500000  0.605686  0.188434  1
  O  O24  1  0.000000  0.690871  0.894428  1
  O  O25  1  0.500000  0.809129  0.394428  1
  O  O26  1  0.000000  0.894314  0.688434  1
  O  O27  1  0.000000  0.908126  0.097215  1
