# generated using pymatgen
data_Na2Sb4O11
_symmetry_space_group_name_H-M   'P 1'
_cell_length_a   10.58891127
_cell_length_b   10.58891127
_cell_length_c   7.26848639
_cell_angle_alpha   85.04279408
_cell_angle_beta   94.95720592
_cell_angle_gamma   137.67792618
_symmetry_Int_Tables_number   1
_chemical_formula_structural   Na2Sb4O11
_chemical_formula_sum   'Na4 Sb8 O22'
_cell_volume   546.36278182
_cell_formula_units_Z   2
loop_
 _symmetry_equiv_pos_site_id
 _symmetry_equiv_pos_as_xyz
  1  'x, y, z'
loop_
 _atom_site_type_symbol
 _atom_site_label
 _atom_site_symmetry_multiplicity
 _atom_site_fract_x
 _atom_site_fract_y
 _atom_site_fract_z
 _atom_site_occupancy
  Na  Na0  1  0.041941  0.990700  0.780641  1
  Na  Na1  1  0.738059  0.266400  0.563392  1
  Na  Na2  1  0.266400  0.738059  0.436608  1
  Na  Na3  1  0.990700  0.041941  0.219359  1
  Sb  Sb4  1  0.575806  0.427322  0.113743  1
  Sb  Sb5  1  0.570471  0.431452  0.592942  1
  Sb  Sb6  1  0.932360  0.587765  0.931454  1
  Sb  Sb7  1  0.415442  0.070393  0.932086  1
  Sb  Sb8  1  0.070393  0.415441  0.067914  1
  Sb  Sb9  1  0.587765  0.932360  0.068546  1
  Sb  Sb10  1  0.431452  0.570471  0.407058  1
  Sb  Sb11  1  0.427322  0.575806  0.886257  1
  O  O12  1  0.522954  0.479736  0.840337  1
  O  O13  1  0.843355  0.672757  0.062118  1
  O  O14  1  0.329432  0.159569  0.061634  1
  O  O15  1  0.617941  0.381876  0.364842  1
  O  O16  1  0.824369  0.562815  0.680627  1
  O  O17  1  0.435321  0.176801  0.682090  1
  O  O18  1  0.666947  0.335481  0.009267  1
  O  O19  1  0.154208  0.848572  0.848354  1
  O  O20  1  0.441518  0.972318  0.164053  1
  O  O21  1  0.029371  0.560439  0.164055  1
  O  O22  1  0.560439  0.029371  0.835945  1
  O  O23  1  0.972318  0.441518  0.835947  1
  O  O24  1  0.848572  0.154208  0.151646  1
  O  O25  1  0.335481  0.666947  0.990733  1
  O  O26  1  0.176801  0.435321  0.317910  1
  O  O27  1  0.562815  0.824369  0.319373  1
  O  O28  1  0.381876  0.617941  0.635158  1
  O  O29  1  0.672757  0.843355  0.937882  1
  O  O30  1  0.159569  0.329432  0.938366  1
  O  O31  1  0.479736  0.522954  0.159663  1
  O  O32  1  0.675178  0.675178  0.500000  1
  O  O33  1  0.326093  0.326093  0.500000  1
