# generated using pymatgen
data_Mn3O5F
_symmetry_space_group_name_H-M   'P 1'
_cell_length_a   4.55515567
_cell_length_b   4.55673028
_cell_length_c   9.02897288
_cell_angle_alpha   90.00000000
_cell_angle_beta   90.00000000
_cell_angle_gamma   90.00000000
_symmetry_Int_Tables_number   1
_chemical_formula_structural   Mn3O5F
_chemical_formula_sum   'Mn6 O10 F2'
_cell_volume   187.41092088
_cell_formula_units_Z   2
loop_
 _symmetry_equiv_pos_site_id
 _symmetry_equiv_pos_as_xyz
  1  'x, y, z'
loop_
 _atom_site_type_symbol
 _atom_site_label
 _atom_site_symmetry_multiplicity
 _atom_site_fract_x
 _atom_site_fract_y
 _atom_site_fract_z
 _atom_site_occupancy
  Mn  Mn0  1  0.989919  0.754119  0.674109  1
  Mn  Mn1  1  0.019775  0.769611  0.000000  1
  Mn  Mn2  1  0.989919  0.754119  0.325891  1
  Mn  Mn3  1  0.519775  0.230389  0.500000  1
  Mn  Mn4  1  0.489919  0.245881  0.825891  1
  Mn  Mn5  1  0.489919  0.245881  0.174109  1
  O  O6  1  0.803583  0.946270  0.836101  1
  O  O7  1  0.803583  0.946270  0.163899  1
  O  O8  1  0.810524  0.938188  0.500000  1
  O  O9  1  0.303583  0.053730  0.663899  1
  O  O10  1  0.310524  0.061812  0.000000  1
  O  O11  1  0.303583  0.053730  0.336101  1
  O  O12  1  0.692046  0.440889  0.665262  1
  O  O13  1  0.692046  0.440889  0.334738  1
  O  O14  1  0.192046  0.559111  0.834738  1
  O  O15  1  0.192046  0.559111  0.165262  1
  F  F16  1  0.698598  0.450386  0.000000  1
  F  F17  1  0.198598  0.549614  0.500000  1
