# generated using pymatgen
data_Li5V5O12
_symmetry_space_group_name_H-M   'P 1'
_cell_length_a   5.05749938
_cell_length_b   9.20175659
_cell_length_c   9.46256671
_cell_angle_alpha   84.51200746
_cell_angle_beta   86.25763077
_cell_angle_gamma   84.95902537
_symmetry_Int_Tables_number   1
_chemical_formula_structural   Li5V5O12
_chemical_formula_sum   'Li10 V10 O24'
_cell_volume   435.93507727
_cell_formula_units_Z   2
loop_
 _symmetry_equiv_pos_site_id
 _symmetry_equiv_pos_as_xyz
  1  'x, y, z'
loop_
 _atom_site_type_symbol
 _atom_site_label
 _atom_site_symmetry_multiplicity
 _atom_site_fract_x
 _atom_site_fract_y
 _atom_site_fract_z
 _atom_site_occupancy
  Li  Li0  1  0.253612  0.072698  0.005459  1
  Li  Li1  1  0.224443  0.427895  0.000385  1
  Li  Li2  1  0.394914  0.533700  0.246945  1
  Li  Li3  1  0.329745  0.864863  0.268793  1
  Li  Li4  1  0.477271  0.678295  0.501440  1
  Li  Li5  1  0.531326  0.340116  0.487592  1
  Li  Li6  1  0.734641  0.922104  0.008591  1
  Li  Li7  1  0.890511  0.041398  0.248554  1
  Li  Li8  1  0.883705  0.398673  0.228796  1
  Li  Li9  1  0.985137  0.169221  0.491875  1
  V  V10  1  0.003379  0.512650  0.495691  1
  V  V11  1  0.151827  0.284359  0.745664  1
  V  V12  1  0.101271  0.964402  0.742958  1
  V  V13  1  0.268783  0.741298  0.017765  1
  V  V14  1  0.355848  0.214386  0.254535  1
  V  V15  1  0.529354  0.993050  0.487607  1
  V  V16  1  0.617044  0.460033  0.751305  1
  V  V17  1  0.747361  0.245597  0.008048  1
  V  V18  1  0.641911  0.777179  0.761514  1
  V  V19  1  0.862930  0.707787  0.249787  1
  O  O20  1  0.055064  0.227923  0.125549  1
  O  O21  1  0.080246  0.586369  0.117173  1
  O  O22  1  0.040418  0.872451  0.135257  1
  O  O23  1  0.197394  0.357837  0.364098  1
  O  O24  1  0.162664  0.659898  0.395284  1
  O  O25  1  0.227000  0.044875  0.362948  1
  O  O26  1  0.282125  0.127737  0.635806  1
  O  O27  1  0.303303  0.447847  0.631869  1
  O  O28  1  0.366287  0.842821  0.627351  1
  O  O29  1  0.572232  0.091499  0.113276  1
  O  O30  1  0.446401  0.290048  0.867109  1
  O  O31  1  0.552620  0.369173  0.130123  1
  O  O32  1  0.459758  0.624508  0.866011  1
  O  O33  1  0.395876  0.908994  0.881207  1
  O  O34  1  0.539866  0.738074  0.127703  1
  O  O35  1  0.654444  0.167519  0.388198  1
  O  O36  1  0.668038  0.856502  0.377655  1
  O  O37  1  0.711836  0.537250  0.368774  1
  O  O38  1  0.775982  0.625916  0.634054  1
  O  O39  1  0.853107  0.339277  0.608682  1
  O  O40  1  0.820596  0.967795  0.631933  1
  O  O41  1  0.969497  0.114210  0.869994  1
  O  O42  1  0.921756  0.395198  0.875217  1
  O  O43  1  0.933645  0.798181  0.861424  1
