# generated using pymatgen
data_Li4Cr5SbO12
_symmetry_space_group_name_H-M   'P 1'
_cell_length_a   5.24282712
_cell_length_b   5.24282712
_cell_length_c   10.33278571
_cell_angle_alpha   87.75825168
_cell_angle_beta   92.24174832
_cell_angle_gamma   59.80996992
_symmetry_Int_Tables_number   1
_chemical_formula_structural   Li4Cr5SbO12
_chemical_formula_sum   'Li4 Cr5 Sb1 O12'
_cell_volume   244.73919818
_cell_formula_units_Z   1
loop_
 _symmetry_equiv_pos_site_id
 _symmetry_equiv_pos_as_xyz
  1  'x, y, z'
loop_
 _atom_site_type_symbol
 _atom_site_label
 _atom_site_symmetry_multiplicity
 _atom_site_fract_x
 _atom_site_fract_y
 _atom_site_fract_z
 _atom_site_occupancy
  Li  Li0  1  0.471050  0.865167  0.290663  1
  Li  Li1  1  0.865167  0.471050  0.709337  1
  Li  Li2  1  0.134833  0.528950  0.290663  1
  Li  Li3  1  0.528950  0.134833  0.709337  1
  Cr  Cr4  1  0.836660  0.836660  0.500000  1
  Cr  Cr5  1  0.665503  0.665503  0.000000  1
  Cr  Cr6  1  0.500000  0.500000  0.500000  1
  Cr  Cr7  1  0.334497  0.334497  0.000000  1
  Cr  Cr8  1  0.163340  0.163340  0.500000  1
  Sb  Sb9  1  0.000000  0.000000  0.000000  1
  O  O10  1  0.652511  0.015114  0.899330  1
  O  O11  1  0.015114  0.652511  0.100670  1
  O  O12  1  0.526980  0.817880  0.603764  1
  O  O13  1  0.817880  0.526980  0.396236  1
  O  O14  1  0.162233  0.837767  0.395316  1
  O  O15  1  0.316824  0.683176  0.903059  1
  O  O16  1  0.683176  0.316824  0.096941  1
  O  O17  1  0.837767  0.162233  0.604684  1
  O  O18  1  0.182120  0.473020  0.603764  1
  O  O19  1  0.473020  0.182120  0.396236  1
  O  O20  1  0.984886  0.347489  0.899330  1
  O  O21  1  0.347489  0.984886  0.100670  1
