# generated using pymatgen
data_Li2FeF5
_symmetry_space_group_name_H-M   'P 1'
_cell_length_a   5.32759982
_cell_length_b   5.32759982
_cell_length_c   10.08718004
_cell_angle_alpha   90.00000000
_cell_angle_beta   90.00000000
_cell_angle_gamma   137.25673157
_symmetry_Int_Tables_number   1
_chemical_formula_structural   Li2FeF5
_chemical_formula_sum   'Li4 Fe2 F10'
_cell_volume   194.32114925
_cell_formula_units_Z   2
loop_
 _symmetry_equiv_pos_site_id
 _symmetry_equiv_pos_as_xyz
  1  'x, y, z'
loop_
 _atom_site_type_symbol
 _atom_site_label
 _atom_site_symmetry_multiplicity
 _atom_site_fract_x
 _atom_site_fract_y
 _atom_site_fract_z
 _atom_site_occupancy
  Li  Li0  1  0.133597  0.866403  0.943205  1
  Li  Li1  1  0.133597  0.866403  0.556795  1
  Li  Li2  1  0.866403  0.133597  0.056795  1
  Li  Li3  1  0.866403  0.133597  0.443205  1
  Fe  Fe4  1  0.191554  0.808446  0.250000  1
  Fe  Fe5  1  0.808446  0.191554  0.750000  1
  F  F6  1  0.050973  0.949027  0.120211  1
  F  F7  1  0.050973  0.949027  0.379789  1
  F  F8  1  0.688442  0.311558  0.907520  1
  F  F9  1  0.688442  0.311558  0.592480  1
  F  F10  1  0.263829  0.736171  0.750000  1
  F  F11  1  0.736171  0.263829  0.250000  1
  F  F12  1  0.311558  0.688442  0.407520  1
  F  F13  1  0.311558  0.688442  0.092480  1
  F  F14  1  0.949027  0.050973  0.620211  1
  F  F15  1  0.949027  0.050973  0.879789  1
