# generated using pymatgen
data_Li2Mn3NbO8
_symmetry_space_group_name_H-M   'P 1'
_cell_length_a   8.63445156
_cell_length_b   8.63445156
_cell_length_c   8.63445156
_cell_angle_alpha   90.00000000
_cell_angle_beta   90.00000000
_cell_angle_gamma   90.00000000
_symmetry_Int_Tables_number   1
_chemical_formula_structural   Li2Mn3NbO8
_chemical_formula_sum   'Li8 Mn12 Nb4 O32'
_cell_volume   643.73077616
_cell_formula_units_Z   4
loop_
 _symmetry_equiv_pos_site_id
 _symmetry_equiv_pos_as_xyz
  1  'x, y, z'
loop_
 _atom_site_type_symbol
 _atom_site_label
 _atom_site_symmetry_multiplicity
 _atom_site_fract_x
 _atom_site_fract_y
 _atom_site_fract_z
 _atom_site_occupancy
  Li  Li0  1  0.507176  0.507176  0.507176  1
  Li  Li1  1  0.742824  0.742824  0.742824  1
  Li  Li2  1  0.757176  0.257176  0.242824  1
  Li  Li3  1  0.992824  0.492824  0.007176  1
  Li  Li4  1  0.007176  0.992824  0.492824  1
  Li  Li5  1  0.242824  0.757176  0.257176  1
  Li  Li6  1  0.257176  0.242824  0.757176  1
  Li  Li7  1  0.492824  0.007176  0.992824  1
  Mn  Mn8  1  0.623131  0.626869  0.125000  1
  Mn  Mn9  1  0.625000  0.876869  0.373131  1
  Mn  Mn10  1  0.626869  0.125000  0.623131  1
  Mn  Mn11  1  0.873131  0.875000  0.123131  1
  Mn  Mn12  1  0.875000  0.123131  0.873131  1
  Mn  Mn13  1  0.876869  0.373131  0.625000  1
  Mn  Mn14  1  0.123131  0.873131  0.875000  1
  Mn  Mn15  1  0.125000  0.623131  0.626869  1
  Mn  Mn16  1  0.126869  0.375000  0.376869  1
  Mn  Mn17  1  0.373131  0.625000  0.876869  1
  Mn  Mn18  1  0.375000  0.376869  0.126869  1
  Mn  Mn19  1  0.376869  0.126869  0.375000  1
  Nb  Nb20  1  0.625000  0.375000  0.875000  1
  Nb  Nb21  1  0.875000  0.625000  0.375000  1
  Nb  Nb22  1  0.125000  0.125000  0.125000  1
  Nb  Nb23  1  0.375000  0.875000  0.625000  1
  O  O24  1  0.603427  0.608426  0.872111  1
  O  O25  1  0.627889  0.396573  0.108426  1
  O  O26  1  0.609114  0.109114  0.390886  1
  O  O27  1  0.641574  0.646573  0.377889  1
  O  O28  1  0.608426  0.872111  0.603427  1
  O  O29  1  0.640886  0.859114  0.140886  1
  O  O30  1  0.622111  0.141574  0.853427  1
  O  O31  1  0.646573  0.377889  0.641574  1
  O  O32  1  0.853427  0.622111  0.141574  1
  O  O33  1  0.877889  0.858426  0.353427  1
  O  O34  1  0.859114  0.140886  0.640886  1
  O  O35  1  0.891574  0.127889  0.103427  1
  O  O36  1  0.858426  0.353427  0.877889  1
  O  O37  1  0.890886  0.890886  0.890886  1
  O  O38  1  0.872111  0.603427  0.608426  1
  O  O39  1  0.896573  0.391574  0.372111  1
  O  O40  1  0.103427  0.891574  0.127889  1
  O  O41  1  0.127889  0.103427  0.891574  1
  O  O42  1  0.109114  0.390886  0.609114  1
  O  O43  1  0.141574  0.853427  0.622111  1
  O  O44  1  0.108426  0.627889  0.396573  1
  O  O45  1  0.140886  0.640886  0.859114  1
  O  O46  1  0.122111  0.358426  0.146573  1
  O  O47  1  0.146573  0.122111  0.358426  1
  O  O48  1  0.353427  0.877889  0.858426  1
  O  O49  1  0.377889  0.641574  0.646573  1
  O  O50  1  0.359114  0.359114  0.359114  1
  O  O51  1  0.391574  0.372111  0.896573  1
  O  O52  1  0.358426  0.146573  0.122111  1
  O  O53  1  0.390886  0.609114  0.109114  1
  O  O54  1  0.372111  0.896573  0.391574  1
  O  O55  1  0.396573  0.108426  0.627889  1
