# generated using pymatgen
data_Li2P2WO8
_symmetry_space_group_name_H-M   'P 1'
_cell_length_a   10.46845504
_cell_length_b   4.86432491
_cell_length_c   12.05892343
_cell_angle_alpha   90.00000000
_cell_angle_beta   150.27870947
_cell_angle_gamma   90.00000000
_symmetry_Int_Tables_number   1
_chemical_formula_structural   Li2P2WO8
_chemical_formula_sum   'Li4 P4 W2 O16'
_cell_volume   304.44156297
_cell_formula_units_Z   2
loop_
 _symmetry_equiv_pos_site_id
 _symmetry_equiv_pos_as_xyz
  1  'x, y, z'
loop_
 _atom_site_type_symbol
 _atom_site_label
 _atom_site_symmetry_multiplicity
 _atom_site_fract_x
 _atom_site_fract_y
 _atom_site_fract_z
 _atom_site_occupancy
  Li  Li0  1  0.942520  0.739101  0.434361  1
  Li  Li1  1  0.442520  0.260899  0.434361  1
  Li  Li2  1  0.967969  0.272720  0.248527  1
  Li  Li3  1  0.467969  0.727280  0.248527  1
  P  P4  1  0.350780  0.340850  0.754431  1
  P  P5  1  0.850780  0.659150  0.754431  1
  P  P6  1  0.163503  0.805851  0.257446  1
  P  P7  1  0.663503  0.194149  0.257446  1
  W  W8  1  0.533692  0.773112  0.756735  1
  W  W9  1  0.033692  0.226888  0.756735  1
  O  O10  1  0.624897  0.471536  0.948574  1
  O  O11  1  0.124897  0.528464  0.948574  1
  O  O12  1  0.715146  0.571939  0.759662  1
  O  O13  1  0.215146  0.428061  0.759662  1
  O  O14  1  0.352198  0.027261  0.742054  1
  O  O15  1  0.852198  0.972739  0.742054  1
  O  O16  1  0.212749  0.502986  0.552252  1
  O  O17  1  0.712749  0.497014  0.552252  1
  O  O18  1  0.295993  0.951896  0.464246  1
  O  O19  1  0.795993  0.048104  0.464246  1
  O  O20  1  0.160362  0.497210  0.270123  1
  O  O21  1  0.660362  0.502790  0.270123  1
  O  O22  1  0.800243  0.080054  0.258988  1
  O  O23  1  0.300243  0.919946  0.258988  1
  O  O24  1  0.879945  0.933814  0.052600  1
  O  O25  1  0.379945  0.066186  0.052600  1
