# generated using pymatgen
data_Li3V2(O2F)2
_symmetry_space_group_name_H-M   'P 1'
_cell_length_a   5.96284031
_cell_length_b   5.99791514
_cell_length_c   15.17853180
_cell_angle_alpha   84.25262162
_cell_angle_beta   78.84448875
_cell_angle_gamma   60.33342803
_symmetry_Int_Tables_number   1
_chemical_formula_structural   Li3V2(O2F)2
_chemical_formula_sum   'Li12 V8 O16 F8'
_cell_volume   462.77865403
_cell_formula_units_Z   4
loop_
 _symmetry_equiv_pos_site_id
 _symmetry_equiv_pos_as_xyz
  1  'x, y, z'
loop_
 _atom_site_type_symbol
 _atom_site_label
 _atom_site_symmetry_multiplicity
 _atom_site_fract_x
 _atom_site_fract_y
 _atom_site_fract_z
 _atom_site_occupancy
  Li  Li0  1  0.623457  0.141196  0.164562  1
  Li  Li1  1  0.053971  0.716159  0.165241  1
  Li  Li2  1  0.183117  0.330275  0.291215  1
  Li  Li3  1  0.843007  0.158914  0.664878  1
  Li  Li4  1  0.976978  0.471680  0.048052  1
  Li  Li5  1  0.583324  0.679020  0.174642  1
  Li  Li6  1  0.460877  0.997618  0.040952  1
  Li  Li7  1  0.707307  0.333108  0.296277  1
  Li  Li8  1  0.330421  0.152731  0.665013  1
  Li  Li9  1  0.483532  0.504309  0.026652  1
  Li  Li10  1  0.182249  0.857587  0.296088  1
  Li  Li11  1  0.831783  0.660671  0.668991  1
  V  V12  1  0.748894  0.501987  0.499516  1
  V  V13  1  0.255603  0.995239  0.498864  1
  V  V14  1  0.418441  0.335972  0.824374  1
  V  V15  1  0.247663  0.499156  0.507930  1
  V  V16  1  0.922688  0.829723  0.836188  1
  V  V17  1  0.753721  0.998454  0.493759  1
  V  V18  1  0.917354  0.329828  0.838779  1
  V  V19  1  0.417975  0.835433  0.829718  1
  O  O20  1  0.040924  0.324364  0.579859  1
  O  O21  1  0.713238  0.163467  0.896732  1
  O  O22  1  0.956553  0.172969  0.429493  1
  O  O23  1  0.641171  0.492706  0.760781  1
  O  O24  1  0.550313  0.832299  0.572600  1
  O  O25  1  0.451467  0.668419  0.435974  1
  O  O26  1  0.204656  0.671488  0.895714  1
  O  O27  1  0.105444  0.014811  0.760836  1
  O  O28  1  0.565655  0.325436  0.571770  1
  O  O29  1  0.207701  0.176913  0.896813  1
  O  O30  1  0.428499  0.169461  0.437208  1
  O  O31  1  0.101932  0.504256  0.759693  1
  O  O32  1  0.044950  0.847679  0.570843  1
  O  O33  1  0.950659  0.646616  0.437210  1
  O  O34  1  0.716738  0.667559  0.901473  1
  O  O35  1  0.634628  0.991454  0.754387  1
  F  F36  1  0.303801  0.334736  0.075391  1
  F  F37  1  0.879285  0.509659  0.244634  1
  F  F38  1  0.778489  0.819459  0.089621  1
  F  F39  1  0.385792  0.003400  0.246859  1
  F  F40  1  0.755739  0.349058  0.088317  1
  F  F41  1  0.376870  0.509155  0.254648  1
  F  F42  1  0.306937  0.804940  0.088960  1
  F  F43  1  0.872866  0.003969  0.251823  1
