# generated using pymatgen
data_Na5P5(H9O7)2
_symmetry_space_group_name_H-M   'P 1'
_cell_length_a   11.21269798
_cell_length_b   13.71575563
_cell_length_c   15.00156347
_cell_angle_alpha   90.00000000
_cell_angle_beta   122.47930494
_cell_angle_gamma   90.00000000
_symmetry_Int_Tables_number   1
_chemical_formula_structural   Na5P5(H9O7)2
_chemical_formula_sum   'Na20 P20 H72 O56'
_cell_volume   1946.23587555
_cell_formula_units_Z   4
loop_
 _symmetry_equiv_pos_site_id
 _symmetry_equiv_pos_as_xyz
  1  'x, y, z'
loop_
 _atom_site_type_symbol
 _atom_site_label
 _atom_site_symmetry_multiplicity
 _atom_site_fract_x
 _atom_site_fract_y
 _atom_site_fract_z
 _atom_site_occupancy
  Na  Na0  1  0.737454  0.239858  0.502682  1
  Na  Na1  1  0.737454  0.260142  0.002682  1
  Na  Na2  1  0.262546  0.760142  0.497318  1
  Na  Na3  1  0.262546  0.739858  0.997318  1
  Na  Na4  1  0.764336  0.430784  0.644508  1
  Na  Na5  1  0.764336  0.069216  0.144508  1
  Na  Na6  1  0.235664  0.569216  0.355492  1
  Na  Na7  1  0.235664  0.930784  0.855492  1
  Na  Na8  1  0.271460  0.936712  0.642765  1
  Na  Na9  1  0.271460  0.563288  0.142765  1
  Na  Na10  1  0.728540  0.063288  0.357235  1
  Na  Na11  1  0.728540  0.436712  0.857235  1
  Na  Na12  1  0.019401  0.174469  0.457229  1
  Na  Na13  1  0.019401  0.325531  0.957229  1
  Na  Na14  1  0.980599  0.825531  0.542771  1
  Na  Na15  1  0.980599  0.674469  0.042771  1
  Na  Na16  1  0.531441  0.676994  0.458585  1
  Na  Na17  1  0.531441  0.823006  0.958585  1
  Na  Na18  1  0.468559  0.323006  0.541415  1
  Na  Na19  1  0.468559  0.176994  0.041415  1
  P  P20  1  0.743056  0.297056  0.252878  1
  P  P21  1  0.743056  0.202944  0.752878  1
  P  P22  1  0.256944  0.702944  0.747122  1
  P  P23  1  0.256944  0.797056  0.247122  1
  P  P24  1  0.015037  0.390859  0.580405  1
  P  P25  1  0.015037  0.109141  0.080405  1
  P  P26  1  0.984963  0.609141  0.419595  1
  P  P27  1  0.984963  0.890859  0.919595  1
  P  P28  1  0.579354  0.898877  0.618689  1
  P  P29  1  0.579354  0.601123  0.118689  1
  P  P30  1  0.420646  0.101123  0.381311  1
  P  P31  1  0.420646  0.398877  0.881311  1
  P  P32  1  0.529050  0.444595  0.361356  1
  P  P33  1  0.529050  0.055405  0.861356  1
  P  P34  1  0.470950  0.555405  0.638644  1
  P  P35  1  0.470950  0.944595  0.138644  1
  P  P36  1  0.027128  0.950821  0.357842  1
  P  P37  1  0.027128  0.549179  0.857842  1
  P  P38  1  0.972872  0.049179  0.642158  1
  P  P39  1  0.972872  0.450821  0.142158  1
  H  H40  1  0.857089  0.362168  0.281178  1
  H  H41  1  0.857089  0.137832  0.781178  1
  H  H42  1  0.142911  0.637832  0.718822  1
  H  H43  1  0.142911  0.862168  0.218822  1
  H  H44  1  0.369502  0.863146  0.274231  1
  H  H45  1  0.369502  0.636854  0.774231  1
  H  H46  1  0.630498  0.136854  0.725769  1
  H  H47  1  0.630498  0.363146  0.225769  1
  H  H48  1  0.091849  0.472098  0.645301  1
  H  H49  1  0.091849  0.027902  0.145301  1
  H  H50  1  0.908151  0.527902  0.354699  1
  H  H51  1  0.908151  0.972098  0.854699  1
  H  H52  1  0.697726  0.911756  0.723642  1
  H  H53  1  0.697726  0.588244  0.223642  1
  H  H54  1  0.302274  0.088244  0.276358  1
  H  H55  1  0.302274  0.411756  0.776358  1
  H  H56  1  0.907631  0.435664  0.485110  1
  H  H57  1  0.907631  0.064336  0.985110  1
  H  H58  1  0.092369  0.564336  0.514890  1
  H  H59  1  0.092369  0.935664  0.014890  1
  H  H60  1  0.553084  0.996109  0.580028  1
  H  H61  1  0.553084  0.503891  0.080028  1
  H  H62  1  0.446916  0.003891  0.419972  1
  H  H63  1  0.446916  0.496109  0.919972  1
  H  H64  1  0.462034  0.376977  0.276097  1
  H  H65  1  0.462034  0.123023  0.776097  1
  H  H66  1  0.537966  0.623023  0.723903  1
  H  H67  1  0.537966  0.876977  0.223903  1
  H  H68  1  0.966674  0.881952  0.273878  1
  H  H69  1  0.966674  0.618048  0.773878  1
  H  H70  1  0.033326  0.118048  0.726122  1
  H  H71  1  0.033326  0.381952  0.226122  1
  H  H72  1  0.644307  0.480660  0.355604  1
  H  H73  1  0.644307  0.019340  0.855604  1
  H  H74  1  0.355693  0.519340  0.644396  1
  H  H75  1  0.355693  0.980660  0.144396  1
  H  H76  1  0.137063  0.995701  0.350623  1
  H  H77  1  0.137063  0.504299  0.850623  1
  H  H78  1  0.862937  0.004299  0.649377  1
  H  H79  1  0.862937  0.495701  0.149377  1
  H  H80  1  0.815220  0.601378  0.520040  1
  H  H81  1  0.815220  0.898622  0.020040  1
  H  H82  1  0.184780  0.398622  0.479960  1
  H  H83  1  0.184780  0.101378  0.979960  1
  H  H84  1  0.302868  0.103215  0.520102  1
  H  H85  1  0.302868  0.396785  0.020102  1
  H  H86  1  0.697132  0.896785  0.479898  1
  H  H87  1  0.697132  0.603215  0.979898  1
  H  H88  1  0.829016  0.646828  0.617700  1
  H  H89  1  0.829016  0.853172  0.117700  1
  H  H90  1  0.170984  0.353172  0.382300  1
  H  H91  1  0.170984  0.146828  0.882300  1
  H  H92  1  0.318925  0.147805  0.619348  1
  H  H93  1  0.318925  0.352195  0.119348  1
  H  H94  1  0.681075  0.852195  0.380652  1
  H  H95  1  0.681075  0.647805  0.880652  1
  H  H96  1  0.038924  0.205547  0.264700  1
  H  H97  1  0.038924  0.294453  0.764700  1
  H  H98  1  0.961076  0.794453  0.735300  1
  H  H99  1  0.961076  0.705547  0.235300  1
  H  H100  1  0.545904  0.691233  0.268820  1
  H  H101  1  0.545904  0.808767  0.768820  1
  H  H102  1  0.454096  0.308767  0.731180  1
  H  H103  1  0.454096  0.191233  0.231180  1
  H  H104  1  0.190854  0.196270  0.369012  1
  H  H105  1  0.190854  0.303730  0.869012  1
  H  H106  1  0.809146  0.803730  0.630988  1
  H  H107  1  0.809146  0.696270  0.130988  1
  H  H108  1  0.703973  0.692502  0.366884  1
  H  H109  1  0.703973  0.807498  0.866884  1
  H  H110  1  0.296027  0.307498  0.633116  1
  H  H111  1  0.296027  0.192502  0.133116  1
  O  O112  1  0.778144  0.239940  0.351106  1
  O  O113  1  0.778144  0.260060  0.851106  1
  O  O114  1  0.221856  0.760060  0.648894  1
  O  O115  1  0.221856  0.739940  0.148894  1
  O  O116  1  0.293210  0.741754  0.346519  1
  O  O117  1  0.293210  0.758246  0.846519  1
  O  O118  1  0.706790  0.258246  0.653481  1
  O  O119  1  0.706790  0.241754  0.153481  1
  O  O120  1  0.942611  0.339057  0.628411  1
  O  O121  1  0.942611  0.160943  0.128411  1
  O  O122  1  0.057389  0.660943  0.371589  1
  O  O123  1  0.057389  0.839057  0.871589  1
  O  O124  1  0.454679  0.863860  0.624239  1
  O  O125  1  0.454679  0.636140  0.124239  1
  O  O126  1  0.545321  0.136140  0.375761  1
  O  O127  1  0.545321  0.363860  0.875761  1
  O  O128  1  0.112138  0.333934  0.556848  1
  O  O129  1  0.112138  0.166066  0.056848  1
  O  O130  1  0.887862  0.666066  0.443152  1
  O  O131  1  0.887862  0.833934  0.943152  1
  O  O132  1  0.627383  0.838977  0.557795  1
  O  O133  1  0.627383  0.661023  0.057795  1
  O  O134  1  0.372617  0.161023  0.442205  1
  O  O135  1  0.372617  0.338977  0.942205  1
  O  O136  1  0.589938  0.386217  0.462998  1
  O  O137  1  0.589938  0.113783  0.962998  1
  O  O138  1  0.410062  0.613783  0.537002  1
  O  O139  1  0.410062  0.886217  0.037002  1
  O  O140  1  0.095842  0.893667  0.460554  1
  O  O141  1  0.095842  0.606333  0.960554  1
  O  O142  1  0.904158  0.106333  0.539446  1
  O  O143  1  0.904158  0.393667  0.039446  1
  O  O144  1  0.428668  0.529055  0.337955  1
  O  O145  1  0.428668  0.970945  0.837955  1
  O  O146  1  0.571332  0.470945  0.662045  1
  O  O147  1  0.571332  0.029055  0.162045  1
  O  O148  1  0.917161  0.028660  0.333701  1
  O  O149  1  0.917161  0.471340  0.833701  1
  O  O150  1  0.082839  0.971340  0.666299  1
  O  O151  1  0.082839  0.528660  0.166299  1
  O  O152  1  0.780589  0.592204  0.567733  1
  O  O153  1  0.780589  0.907796  0.067733  1
  O  O154  1  0.219411  0.407796  0.432267  1
  O  O155  1  0.219411  0.092204  0.932267  1
  O  O156  1  0.266569  0.095863  0.566821  1
  O  O157  1  0.266569  0.404137  0.066821  1
  O  O158  1  0.733431  0.904137  0.433179  1
  O  O159  1  0.733431  0.595863  0.933179  1
  O  O160  1  0.096380  0.226257  0.339860  1
  O  O161  1  0.096380  0.273743  0.839860  1
  O  O162  1  0.903620  0.773743  0.660140  1
  O  O163  1  0.903620  0.726257  0.160140  1
  O  O164  1  0.608133  0.718472  0.340533  1
  O  O165  1  0.608133  0.781528  0.840533  1
  O  O166  1  0.391867  0.281528  0.659467  1
  O  O167  1  0.391867  0.218472  0.159467  1
