# generated using pymatgen
data_Ti3Mn2Fe(PO4)6
_symmetry_space_group_name_H-M   'P 1'
_cell_length_a   8.65999376
_cell_length_b   8.65999376
_cell_length_c   8.65999376
_cell_angle_alpha   60.19751211
_cell_angle_beta   60.19751211
_cell_angle_gamma   60.19751211
_symmetry_Int_Tables_number   1
_chemical_formula_structural   Ti3Mn2Fe(PO4)6
_chemical_formula_sum   'Ti3 Mn2 Fe1 P6 O24'
_cell_volume   461.29185195
_cell_formula_units_Z   1
loop_
 _symmetry_equiv_pos_site_id
 _symmetry_equiv_pos_as_xyz
  1  'x, y, z'
loop_
 _atom_site_type_symbol
 _atom_site_label
 _atom_site_symmetry_multiplicity
 _atom_site_fract_x
 _atom_site_fract_y
 _atom_site_fract_z
 _atom_site_occupancy
  Ti  Ti0  1  0.855889  0.855889  0.855889  1
  Ti  Ti1  1  0.646029  0.646029  0.646029  1
  Ti  Ti2  1  0.352647  0.352647  0.352647  1
  Mn  Mn3  1  0.004010  0.004010  0.004010  1
  Mn  Mn4  1  0.500504  0.500504  0.500504  1
  Fe  Fe5  1  0.145201  0.145201  0.145201  1
  P  P6  1  0.747096  0.458176  0.044107  1
  P  P7  1  0.458176  0.044107  0.747096  1
  P  P8  1  0.044107  0.747096  0.458176  1
  P  P9  1  0.953155  0.248070  0.544985  1
  P  P10  1  0.544985  0.953155  0.248070  1
  P  P11  1  0.248070  0.544985  0.953155  1
  O  O12  1  0.885077  0.676003  0.513015  1
  O  O13  1  0.676003  0.513015  0.885077  1
  O  O14  1  0.939312  0.087635  0.741323  1
  O  O15  1  0.513015  0.885077  0.676003  1
  O  O16  1  0.982849  0.190111  0.393220  1
  O  O17  1  0.761429  0.414467  0.569476  1
  O  O18  1  0.741323  0.939312  0.087635  1
  O  O19  1  0.569476  0.761429  0.414467  1
  O  O20  1  0.809722  0.621059  0.998160  1
  O  O21  1  0.414467  0.569476  0.761429  1
  O  O22  1  0.904473  0.268238  0.052789  1
  O  O23  1  0.621059  0.998160  0.809722  1
  O  O24  1  0.393220  0.982849  0.190111  1
  O  O25  1  0.087635  0.741323  0.939312  1
  O  O26  1  0.581570  0.447617  0.236075  1
  O  O27  1  0.190111  0.393220  0.982849  1
  O  O28  1  0.447617  0.236075  0.581570  1
  O  O29  1  0.268238  0.052789  0.904473  1
  O  O30  1  0.236075  0.581570  0.447617  1
  O  O31  1  0.998160  0.809722  0.621059  1
  O  O32  1  0.497994  0.119341  0.309178  1
  O  O33  1  0.052789  0.904473  0.268238  1
  O  O34  1  0.309178  0.497994  0.119341  1
  O  O35  1  0.119341  0.309178  0.497994  1
