# generated using pymatgen
data_SmErO3
_symmetry_space_group_name_H-M   'P 1'
_cell_length_a   5.74318124
_cell_length_b   6.00022688
_cell_length_c   8.42913867
_cell_angle_alpha   90.00000000
_cell_angle_beta   90.00000000
_cell_angle_gamma   90.00000000
_symmetry_Int_Tables_number   1
_chemical_formula_structural   SmErO3
_chemical_formula_sum   'Sm4 Er4 O12'
_cell_volume   290.47140975
_cell_formula_units_Z   4
loop_
 _symmetry_equiv_pos_site_id
 _symmetry_equiv_pos_as_xyz
  1  'x, y, z'
loop_
 _atom_site_type_symbol
 _atom_site_label
 _atom_site_symmetry_multiplicity
 _atom_site_fract_x
 _atom_site_fract_y
 _atom_site_fract_z
 _atom_site_occupancy
  Sm  Sm0  1  0.982371  0.552187  0.250000  1
  Sm  Sm1  1  0.482371  0.947813  0.750000  1
  Sm  Sm2  1  0.517629  0.052187  0.250000  1
  Sm  Sm3  1  0.017629  0.447813  0.750000  1
  Er  Er4  1  0.500000  0.500000  0.000000  1
  Er  Er5  1  0.500000  0.500000  0.500000  1
  Er  Er6  1  0.000000  0.000000  0.000000  1
  Er  Er7  1  0.000000  0.000000  0.500000  1
  O  O8  1  0.639822  0.571810  0.750000  1
  O  O9  1  0.187316  0.690348  0.573817  1
  O  O10  1  0.187316  0.690348  0.926183  1
  O  O11  1  0.687316  0.809652  0.426183  1
  O  O12  1  0.687316  0.809652  0.073817  1
  O  O13  1  0.139822  0.928190  0.250000  1
  O  O14  1  0.860178  0.071810  0.750000  1
  O  O15  1  0.312684  0.190348  0.926183  1
  O  O16  1  0.312684  0.190348  0.573817  1
  O  O17  1  0.812684  0.309652  0.073817  1
  O  O18  1  0.812684  0.309652  0.426183  1
  O  O19  1  0.360178  0.428190  0.250000  1
