# generated using pymatgen
data_Li4V(PO4)2
_symmetry_space_group_name_H-M   'P 1'
_cell_length_a   4.92436697
_cell_length_b   5.25179977
_cell_length_c   6.24830948
_cell_angle_alpha   95.77410334
_cell_angle_beta   93.73140518
_cell_angle_gamma   99.10651296
_symmetry_Int_Tables_number   1
_chemical_formula_structural   Li4V(PO4)2
_chemical_formula_sum   'Li4 V1 P2 O8'
_cell_volume   158.20562253
_cell_formula_units_Z   1
loop_
 _symmetry_equiv_pos_site_id
 _symmetry_equiv_pos_as_xyz
  1  'x, y, z'
loop_
 _atom_site_type_symbol
 _atom_site_label
 _atom_site_symmetry_multiplicity
 _atom_site_fract_x
 _atom_site_fract_y
 _atom_site_fract_z
 _atom_site_occupancy
  Li  Li0  1  0.159096  0.298570  0.532787  1
  Li  Li1  1  0.326436  0.597742  0.191348  1
  Li  Li2  1  0.673564  0.402258  0.808652  1
  Li  Li3  1  0.840904  0.701430  0.467213  1
  V  V4  1  0.000000  0.000000  0.000000  1
  P  P5  1  0.366596  0.821404  0.725123  1
  P  P6  1  0.633404  0.178596  0.274877  1
  O  O7  1  0.215427  0.679163  0.902853  1
  O  O8  1  0.244761  0.683903  0.499666  1
  O  O9  1  0.319767  0.193097  0.250195  1
  O  O10  1  0.301759  0.104639  0.758609  1
  O  O11  1  0.698241  0.895361  0.241391  1
  O  O12  1  0.680233  0.806903  0.749805  1
  O  O13  1  0.755239  0.316097  0.500334  1
  O  O14  1  0.784573  0.320837  0.097147  1
