# generated using pymatgen
data_Li3Fe4(BO3)4
_symmetry_space_group_name_H-M   'P 1'
_cell_length_a   5.21902486
_cell_length_b   9.07260467
_cell_length_c   11.34770079
_cell_angle_alpha   112.29212526
_cell_angle_beta   102.67724760
_cell_angle_gamma   90.07511699
_symmetry_Int_Tables_number   1
_chemical_formula_structural   Li3Fe4(BO3)4
_chemical_formula_sum   'Li6 Fe8 B8 O24'
_cell_volume   482.90491225
_cell_formula_units_Z   2
loop_
 _symmetry_equiv_pos_site_id
 _symmetry_equiv_pos_as_xyz
  1  'x, y, z'
loop_
 _atom_site_type_symbol
 _atom_site_label
 _atom_site_symmetry_multiplicity
 _atom_site_fract_x
 _atom_site_fract_y
 _atom_site_fract_z
 _atom_site_occupancy
  Li  Li0  1  0.026617  0.036955  0.404211  1
  Li  Li1  1  0.299856  0.281117  0.918568  1
  Li  Li2  1  0.488121  0.506372  0.664557  1
  Li  Li3  1  0.526947  0.537611  0.409334  1
  Li  Li4  1  0.985052  0.004183  0.662174  1
  Li  Li5  1  0.760998  0.747179  0.159174  1
  Fe  Fe6  1  0.034632  0.353618  0.375861  1
  Fe  Fe7  1  0.269686  0.923381  0.880863  1
  Fe  Fe8  1  0.476703  0.159180  0.629462  1
  Fe  Fe9  1  0.243381  0.556203  0.134209  1
  Fe  Fe10  1  0.771392  0.450363  0.884699  1
  Fe  Fe11  1  0.523790  0.851708  0.382198  1
  Fe  Fe12  1  0.969066  0.650216  0.631684  1
  Fe  Fe13  1  0.737119  0.076540  0.130969  1
  B  B14  1  0.018353  0.685711  0.377488  1
  B  B15  1  0.269492  0.598552  0.874561  1
  B  B16  1  0.480416  0.816717  0.630867  1
  B  B17  1  0.236297  0.895548  0.129979  1
  B  B18  1  0.519219  0.187896  0.375668  1
  B  B19  1  0.766628  0.105731  0.879128  1
  B  B20  1  0.976695  0.314514  0.624116  1
  B  B21  1  0.725022  0.396934  0.126150  1
  O  O22  1  0.023161  0.083258  0.862444  1
  O  O23  1  0.113290  0.713720  0.845847  1
  O  O24  1  0.167868  0.490250  0.916083  1
  O  O25  1  0.084298  0.170414  0.611214  1
  O  O26  1  0.101486  0.425488  0.592632  1
  O  O27  1  0.250603  0.849564  0.680147  1
  O  O28  1  0.265624  0.661286  0.350289  1
  O  O29  1  0.518594  0.597332  0.856967  1
  O  O30  1  0.623548  0.216649  0.845296  1
  O  O31  1  0.407711  0.079101  0.413495  1
  O  O32  1  0.413006  0.326769  0.382927  1
  O  O33  1  0.647245  0.011809  0.929705  1
  O  O34  1  0.359021  0.988072  0.078508  1
  O  O35  1  0.583386  0.672888  0.613684  1
  O  O36  1  0.597629  0.928757  0.598338  1
  O  O37  1  0.381929  0.787476  0.167264  1
  O  O38  1  0.459508  0.376828  0.110491  1
  O  O39  1  0.741883  0.344701  0.663060  1
  O  O40  1  0.754401  0.152867  0.329724  1
  O  O41  1  0.900534  0.580535  0.416800  1
  O  O42  1  0.894742  0.816660  0.366105  1
  O  O43  1  0.839703  0.518702  0.102116  1
  O  O44  1  0.882417  0.288367  0.162892  1
  O  O45  1  0.979193  0.916103  0.141094  1
