# generated using pymatgen
data_Li5TaO5
_symmetry_space_group_name_H-M   'P 1'
_cell_length_a   5.33430444
_cell_length_b   5.33430444
_cell_length_c   5.88051408
_cell_angle_alpha   72.63352875
_cell_angle_beta   107.36647125
_cell_angle_gamma   135.59829087
_symmetry_Int_Tables_number   1
_chemical_formula_structural   Li5TaO5
_chemical_formula_sum   'Li5 Ta1 O5'
_cell_volume   110.82663494
_cell_formula_units_Z   1
loop_
 _symmetry_equiv_pos_site_id
 _symmetry_equiv_pos_as_xyz
  1  'x, y, z'
loop_
 _atom_site_type_symbol
 _atom_site_label
 _atom_site_symmetry_multiplicity
 _atom_site_fract_x
 _atom_site_fract_y
 _atom_site_fract_z
 _atom_site_occupancy
  Li  Li0  1  0.713919  0.286081  0.344612  1
  Li  Li1  1  0.692317  0.307683  0.858919  1
  Li  Li2  1  0.000000  0.000000  0.500000  1
  Li  Li3  1  0.307683  0.692317  0.141081  1
  Li  Li4  1  0.286081  0.713919  0.655388  1
  Ta  Ta5  1  0.000000  0.000000  0.000000  1
  O  O6  1  0.855808  0.144192  0.174053  1
  O  O7  1  0.843092  0.156908  0.683573  1
  O  O8  1  0.500000  0.500000  0.000000  1
  O  O9  1  0.156908  0.843092  0.316427  1
  O  O10  1  0.144192  0.855808  0.825947  1
