# generated using pymatgen
data_Li3V(BO3)2
_symmetry_space_group_name_H-M   'P 1'
_cell_length_a   5.20277747
_cell_length_b   8.88594701
_cell_length_c   11.17189489
_cell_angle_alpha   90.00000000
_cell_angle_beta   116.80558314
_cell_angle_gamma   90.00000000
_symmetry_Int_Tables_number   1
_chemical_formula_structural   Li3V(BO3)2
_chemical_formula_sum   'Li12 V4 B8 O24'
_cell_volume   460.99308770
_cell_formula_units_Z   4
loop_
 _symmetry_equiv_pos_site_id
 _symmetry_equiv_pos_as_xyz
  1  'x, y, z'
loop_
 _atom_site_type_symbol
 _atom_site_label
 _atom_site_symmetry_multiplicity
 _atom_site_fract_x
 _atom_site_fract_y
 _atom_site_fract_z
 _atom_site_occupancy
  Li  Li0  1  0.514816  0.973920  0.669614  1
  Li  Li1  1  0.452206  0.658532  0.620911  1
  Li  Li2  1  0.924523  0.985083  0.101597  1
  Li  Li3  1  0.547794  0.158532  0.879089  1
  Li  Li4  1  0.075477  0.485083  0.398403  1
  Li  Li5  1  0.485184  0.473920  0.830386  1
  Li  Li6  1  0.514816  0.526080  0.169614  1
  Li  Li7  1  0.924523  0.514917  0.601597  1
  Li  Li8  1  0.452206  0.841468  0.120911  1
  Li  Li9  1  0.075477  0.014917  0.898403  1
  Li  Li10  1  0.547794  0.341468  0.379089  1
  Li  Li11  1  0.485184  0.026080  0.330386  1
  V  V12  1  0.974637  0.325078  0.121069  1
  V  V13  1  0.025363  0.825078  0.378931  1
  V  V14  1  0.974637  0.174922  0.621069  1
  V  V15  1  0.025363  0.674922  0.878931  1
  B  B16  1  0.454953  0.322595  0.621309  1
  B  B17  1  0.966585  0.664695  0.130963  1
  B  B18  1  0.545047  0.822595  0.878691  1
  B  B19  1  0.033415  0.164695  0.369037  1
  B  B20  1  0.966585  0.835305  0.630963  1
  B  B21  1  0.454953  0.177405  0.121309  1
  B  B22  1  0.033415  0.335305  0.869037  1
  B  B23  1  0.545047  0.677405  0.378691  1
  O  O24  1  0.823025  0.329141  0.913867  1
  O  O25  1  0.310299  0.667042  0.406372  1
  O  O26  1  0.702340  0.948010  0.881962  1
  O  O27  1  0.144622  0.025429  0.358181  1
  O  O28  1  0.132800  0.292526  0.332408  1
  O  O29  1  0.620574  0.682367  0.847023  1
  O  O30  1  0.379426  0.182367  0.652977  1
  O  O31  1  0.867200  0.792526  0.167592  1
  O  O32  1  0.855378  0.525429  0.141819  1
  O  O33  1  0.297660  0.448010  0.618038  1
  O  O34  1  0.176975  0.829141  0.586133  1
  O  O35  1  0.689701  0.167042  0.093628  1
  O  O36  1  0.310299  0.832958  0.906372  1
  O  O37  1  0.823025  0.170859  0.413867  1
  O  O38  1  0.702340  0.551990  0.381962  1
  O  O39  1  0.144622  0.474571  0.858181  1
  O  O40  1  0.132800  0.207474  0.832408  1
  O  O41  1  0.620574  0.817633  0.347023  1
  O  O42  1  0.379426  0.317633  0.152977  1
  O  O43  1  0.867200  0.707474  0.667592  1
  O  O44  1  0.855378  0.974571  0.641819  1
  O  O45  1  0.297660  0.051990  0.118038  1
  O  O46  1  0.689701  0.332958  0.593628  1
  O  O47  1  0.176975  0.670859  0.086133  1
