# generated using pymatgen
data_FeOF
_symmetry_space_group_name_H-M   'P 1'
_cell_length_a   14.19786417
_cell_length_b   3.10015974
_cell_length_c   14.23495637
_cell_angle_alpha   90.00000000
_cell_angle_beta   90.20909631
_cell_angle_gamma   90.00000000
_symmetry_Int_Tables_number   1
_chemical_formula_structural   FeOF
_chemical_formula_sum   'Fe18 O18 F18'
_cell_volume   626.55664059
_cell_formula_units_Z   18
loop_
 _symmetry_equiv_pos_site_id
 _symmetry_equiv_pos_as_xyz
  1  'x, y, z'
loop_
 _atom_site_type_symbol
 _atom_site_label
 _atom_site_symmetry_multiplicity
 _atom_site_fract_x
 _atom_site_fract_y
 _atom_site_fract_z
 _atom_site_occupancy
  Fe  Fe0  1  0.986139  0.000000  0.000544  1
  Fe  Fe1  1  0.997212  0.000000  0.660493  1
  Fe  Fe2  1  0.991889  0.000000  0.340818  1
  Fe  Fe3  1  0.854815  0.500000  0.827181  1
  Fe  Fe4  1  0.846535  0.500000  0.504296  1
  Fe  Fe5  1  0.827418  0.500000  0.149378  1
  Fe  Fe6  1  0.666478  0.000000  0.997501  1
  Fe  Fe7  1  0.654891  0.000000  0.669425  1
  Fe  Fe8  1  0.654199  0.000000  0.336093  1
  Fe  Fe9  1  0.512519  0.500000  0.503116  1
  Fe  Fe10  1  0.514027  0.500000  0.836982  1
  Fe  Fe11  1  0.499889  0.500000  0.183015  1
  Fe  Fe12  1  0.319827  0.000000  0.001872  1
  Fe  Fe13  1  0.319784  0.000000  0.668393  1
  Fe  Fe14  1  0.332369  0.000000  0.323462  1
  Fe  Fe15  1  0.179257  0.500000  0.834666  1
  Fe  Fe16  1  0.166945  0.500000  0.519210  1
  Fe  Fe17  1  0.180116  0.500000  0.168353  1
  O  O18  1  0.937890  0.500000  0.727685  1
  O  O19  1  0.934226  0.500000  0.394000  1
  O  O20  1  0.935374  0.500000  0.067623  1
  O  O21  1  0.899412  0.000000  0.897162  1
  O  O22  1  0.895230  0.000000  0.562365  1
  O  O23  1  0.761005  0.000000  0.096575  1
  O  O24  1  0.601948  0.500000  0.733335  1
  O  O25  1  0.600399  0.500000  0.396698  1
  O  O26  1  0.568202  0.000000  0.903494  1
  O  O27  1  0.565529  0.000000  0.564636  1
  O  O28  1  0.568247  0.000000  0.227732  1
  O  O29  1  0.396448  0.500000  0.269919  1
  O  O30  1  0.269758  0.500000  0.731910  1
  O  O31  1  0.270159  0.500000  0.066252  1
  O  O32  1  0.231947  0.000000  0.898601  1
  O  O33  1  0.235058  0.000000  0.563210  1
  O  O34  1  0.226404  0.000000  0.235428  1
  O  O35  1  0.064410  0.500000  0.601059  1
  F  F36  1  0.895064  0.000000  0.229138  1
  F  F37  1  0.768349  0.000000  0.764916  1
  F  F38  1  0.766424  0.000000  0.433013  1
  F  F39  1  0.731355  0.500000  0.931643  1
  F  F40  1  0.736387  0.500000  0.268951  1
  F  F41  1  0.730787  0.500000  0.601153  1
  F  F42  1  0.598652  0.500000  0.063069  1
  F  F43  1  0.436906  0.000000  0.770729  1
  F  F44  1  0.430997  0.000000  0.437681  1
  F  F45  1  0.437241  0.000000  0.098607  1
  F  F46  1  0.400562  0.500000  0.933934  1
  F  F47  1  0.400924  0.500000  0.602268  1
  F  F48  1  0.267439  0.500000  0.399111  1
  F  F49  1  0.102854  0.000000  0.772297  1
  F  F50  1  0.102696  0.000000  0.429743  1
  F  F51  1  0.101302  0.000000  0.100351  1
  F  F52  1  0.065662  0.500000  0.936005  1
  F  F53  1  0.060444  0.500000  0.264907  1
