# generated using pymatgen
data_V4(OF3)3
_symmetry_space_group_name_H-M   'P 1'
_cell_length_a   5.24173353
_cell_length_b   5.38621633
_cell_length_c   17.53427142
_cell_angle_alpha   89.89353502
_cell_angle_beta   97.83176918
_cell_angle_gamma   118.60648769
_symmetry_Int_Tables_number   1
_chemical_formula_structural   V4(OF3)3
_chemical_formula_sum   'V8 O6 F18'
_cell_volume   429.41721663
_cell_formula_units_Z   2
loop_
 _symmetry_equiv_pos_site_id
 _symmetry_equiv_pos_as_xyz
  1  'x, y, z'
loop_
 _atom_site_type_symbol
 _atom_site_label
 _atom_site_symmetry_multiplicity
 _atom_site_fract_x
 _atom_site_fract_y
 _atom_site_fract_z
 _atom_site_occupancy
  V  V0  1  0.743157  0.371705  0.125302  1
  V  V1  1  0.754166  0.890040  0.630256  1
  V  V2  1  0.507880  0.726587  0.249265  1
  V  V3  1  0.517340  0.250128  0.750514  1
  V  V4  1  0.247576  0.100508  0.381905  1
  V  V5  1  0.216220  0.610029  0.872608  1
  V  V6  1  0.975856  0.013288  0.001455  1
  V  V7  1  0.022246  0.494420  0.495955  1
  O  O8  1  0.841341  0.197735  0.041623  1
  O  O9  1  0.165991  0.312218  0.456862  1
  O  O10  1  0.859848  0.424142  0.832858  1
  O  O11  1  0.648657  0.550127  0.208093  1
  O  O12  1  0.672794  0.040666  0.701955  1
  O  O13  1  0.206693  0.831128  0.438136  1
  F  F14  1  0.324177  0.152180  0.083902  1
  F  F15  1  0.774327  0.676359  0.059374  1
  F  F16  1  0.789042  0.186362  0.559747  1
  F  F17  1  0.708627  0.067609  0.191022  1
  F  F18  1  0.331419  0.952168  0.291656  1
  F  F19  1  0.333006  0.664213  0.585096  1
  F  F20  1  0.350779  0.473219  0.789680  1
  F  F21  1  0.161648  0.593104  0.166847  1
  F  F22  1  0.175245  0.089253  0.663620  1
  F  F23  1  0.281223  0.422984  0.314196  1
  F  F24  1  0.728040  0.567972  0.686870  1
  F  F25  1  0.825528  0.915281  0.337206  1
  F  F26  1  0.834875  0.703617  0.543789  1
  F  F27  1  0.163672  0.792307  0.960811  1
  F  F28  1  0.672062  0.343749  0.414196  1
  F  F29  1  0.290082  0.947727  0.815059  1
  F  F30  1  0.218565  0.310088  0.936732  1
  F  F31  1  0.657913  0.829084  0.913416  1
