# generated using pymatgen
data_LiAlCrO4
_symmetry_space_group_name_H-M   'P 1'
_cell_length_a   2.88177895
_cell_length_b   9.29938275
_cell_length_c   10.21475611
_cell_angle_alpha   90.00000000
_cell_angle_beta   90.00000000
_cell_angle_gamma   90.00000000
_symmetry_Int_Tables_number   1
_chemical_formula_structural   LiAlCrO4
_chemical_formula_sum   'Li4 Al4 Cr4 O16'
_cell_volume   273.74285319
_cell_formula_units_Z   4
loop_
 _symmetry_equiv_pos_site_id
 _symmetry_equiv_pos_as_xyz
  1  'x, y, z'
loop_
 _atom_site_type_symbol
 _atom_site_label
 _atom_site_symmetry_multiplicity
 _atom_site_fract_x
 _atom_site_fract_y
 _atom_site_fract_z
 _atom_site_occupancy
  Li  Li0  1  0.750000  0.899799  0.618594  1
  Li  Li1  1  0.250000  0.600201  0.118594  1
  Li  Li2  1  0.750000  0.399799  0.881406  1
  Li  Li3  1  0.250000  0.100201  0.381406  1
  Al  Al4  1  0.750000  0.991814  0.123899  1
  Al  Al5  1  0.250000  0.508186  0.623899  1
  Al  Al6  1  0.750000  0.491814  0.376101  1
  Al  Al7  1  0.250000  0.008186  0.876101  1
  Cr  Cr8  1  0.250000  0.769834  0.342331  1
  Cr  Cr9  1  0.750000  0.730166  0.842331  1
  Cr  Cr10  1  0.250000  0.269834  0.157669  1
  Cr  Cr11  1  0.750000  0.230166  0.657669  1
  O  O12  1  0.750000  0.898706  0.957961  1
  O  O13  1  0.750000  0.862354  0.429432  1
  O  O14  1  0.250000  0.893806  0.199215  1
  O  O15  1  0.250000  0.852863  0.753624  1
  O  O16  1  0.750000  0.647137  0.253624  1
  O  O17  1  0.750000  0.606194  0.699215  1
  O  O18  1  0.250000  0.637646  0.929432  1
  O  O19  1  0.250000  0.601294  0.457961  1
  O  O20  1  0.750000  0.398706  0.542039  1
  O  O21  1  0.750000  0.362354  0.070568  1
  O  O22  1  0.250000  0.393806  0.300785  1
  O  O23  1  0.250000  0.352863  0.746376  1
  O  O24  1  0.750000  0.147137  0.246376  1
  O  O25  1  0.750000  0.106194  0.800785  1
  O  O26  1  0.250000  0.137646  0.570568  1
  O  O27  1  0.250000  0.101294  0.042039  1
