# generated using pymatgen
data_Sr4Ta2O9
_symmetry_space_group_name_H-M   'P 1'
_cell_length_a   5.94943242
_cell_length_b   5.95442215
_cell_length_c   15.84131307
_cell_angle_alpha   89.94577868
_cell_angle_beta   89.96529254
_cell_angle_gamma   60.04079975
_symmetry_Int_Tables_number   1
_chemical_formula_structural   Sr4Ta2O9
_chemical_formula_sum   'Sr8 Ta4 O18'
_cell_volume   486.20023955
_cell_formula_units_Z   2
loop_
 _symmetry_equiv_pos_site_id
 _symmetry_equiv_pos_as_xyz
  1  'x, y, z'
loop_
 _atom_site_type_symbol
 _atom_site_label
 _atom_site_symmetry_multiplicity
 _atom_site_fract_x
 _atom_site_fract_y
 _atom_site_fract_z
 _atom_site_occupancy
  Sr  Sr0  1  0.999238  0.002070  0.255625  1
  Sr  Sr1  1  0.000000  0.000000  0.500000  1
  Sr  Sr2  1  0.000000  0.000000  0.000000  1
  Sr  Sr3  1  0.666255  0.669095  0.356110  1
  Sr  Sr4  1  0.667372  0.663569  0.132021  1
  Sr  Sr5  1  0.332628  0.336431  0.867979  1
  Sr  Sr6  1  0.333745  0.330905  0.643890  1
  Sr  Sr7  1  0.000762  0.997930  0.744375  1
  Ta  Ta8  1  0.664818  0.669525  0.849859  1
  Ta  Ta9  1  0.667271  0.664905  0.659662  1
  Ta  Ta10  1  0.332729  0.335095  0.340338  1
  Ta  Ta11  1  0.335182  0.330475  0.150141  1
  O  O12  1  0.594888  0.959201  0.752860  1
  O  O13  1  0.919067  0.730423  0.606877  1
  O  O14  1  0.921428  0.726564  0.901037  1
  O  O15  1  0.348732  0.916084  0.607233  1
  O  O16  1  0.354851  0.926925  0.902290  1
  O  O17  1  0.957749  0.444801  0.753921  1
  O  O18  1  0.445977  0.594541  0.754302  1
  O  O19  1  0.283152  0.635436  0.094260  1
  O  O20  1  0.267208  0.652881  0.392631  1
  O  O21  1  0.732792  0.347119  0.607369  1
  O  O22  1  0.716848  0.364564  0.905740  1
  O  O23  1  0.554023  0.405459  0.245698  1
  O  O24  1  0.042251  0.555199  0.246079  1
  O  O25  1  0.645149  0.073075  0.097710  1
  O  O26  1  0.651268  0.083916  0.392767  1
  O  O27  1  0.078572  0.273436  0.098963  1
  O  O28  1  0.080933  0.269577  0.393123  1
  O  O29  1  0.405112  0.040799  0.247140  1
