# generated using pymatgen
data_Li4Mn2OF7
_symmetry_space_group_name_H-M   'P 1'
_cell_length_a   5.97378407
_cell_length_b   5.99329912
_cell_length_c   6.05363400
_cell_angle_alpha   89.60864059
_cell_angle_beta   119.45681922
_cell_angle_gamma   118.60007702
_symmetry_Int_Tables_number   1
_chemical_formula_structural   Li4Mn2OF7
_chemical_formula_sum   'Li4 Mn2 O1 F7'
_cell_volume   158.11159990
_cell_formula_units_Z   1
loop_
 _symmetry_equiv_pos_site_id
 _symmetry_equiv_pos_as_xyz
  1  'x, y, z'
loop_
 _atom_site_type_symbol
 _atom_site_label
 _atom_site_symmetry_multiplicity
 _atom_site_fract_x
 _atom_site_fract_y
 _atom_site_fract_z
 _atom_site_occupancy
  Li  Li0  1  0.501364  0.497845  0.505370  1
  Li  Li1  1  0.992756  0.487993  0.506566  1
  Li  Li2  1  0.756065  0.111912  0.862565  1
  Li  Li3  1  0.249856  0.895956  0.125337  1
  Mn  Mn4  1  0.998849  0.008940  0.509160  1
  Mn  Mn5  1  0.479506  0.492672  0.992474  1
  O  O6  1  0.019715  0.234326  0.728626  1
  F  F7  1  0.527190  0.279484  0.271491  1
  F  F8  1  0.987158  0.750551  0.723303  1
  F  F9  1  0.983133  0.762236  0.267016  1
  F  F10  1  0.506450  0.751343  0.261159  1
  F  F11  1  0.498156  0.251972  0.738353  1
  F  F12  1  0.013977  0.245608  0.273508  1
  F  F13  1  0.485825  0.729160  0.735073  1
