# generated using pymatgen
data_V4O7
_symmetry_space_group_name_H-M   'P 1'
_cell_length_a   5.65944625
_cell_length_b   6.79766037
_cell_length_c   7.70512266
_cell_angle_alpha   64.67487653
_cell_angle_beta   84.69216824
_cell_angle_gamma   85.91345025
_symmetry_Int_Tables_number   1
_chemical_formula_structural   V4O7
_chemical_formula_sum   'V8 O14'
_cell_volume   266.62158893
_cell_formula_units_Z   2
loop_
 _symmetry_equiv_pos_site_id
 _symmetry_equiv_pos_as_xyz
  1  'x, y, z'
loop_
 _atom_site_type_symbol
 _atom_site_label
 _atom_site_symmetry_multiplicity
 _atom_site_fract_x
 _atom_site_fract_y
 _atom_site_fract_z
 _atom_site_occupancy
  V  V0  1  0.601618  0.302871  0.082786  1
  V  V1  1  0.398382  0.697129  0.917214  1
  V  V2  1  0.406826  0.212352  0.779989  1
  V  V3  1  0.593174  0.787648  0.220011  1
  V  V4  1  0.759641  0.036331  0.544698  1
  V  V5  1  0.240359  0.963669  0.455302  1
  V  V6  1  0.142774  0.517569  0.311655  1
  V  V7  1  0.857226  0.482431  0.688345  1
  O  O8  1  0.953553  0.791891  0.629173  1
  O  O9  1  0.046447  0.208109  0.370827  1
  O  O10  1  0.707809  0.252151  0.642899  1
  O  O11  1  0.292191  0.747849  0.357101  1
  O  O12  1  0.109040  0.683797  0.043306  1
  O  O13  1  0.890960  0.316203  0.956694  1
  O  O14  1  0.495618  0.491677  0.199814  1
  O  O15  1  0.504382  0.508323  0.800186  1
  O  O16  1  0.182833  0.357262  0.624092  1
  O  O17  1  0.817167  0.642738  0.375908  1
  O  O18  1  0.599024  0.032110  0.334709  1
  O  O19  1  0.400976  0.967890  0.665291  1
  O  O20  1  0.615028  0.873593  0.953997  1
  O  O21  1  0.384972  0.126407  0.046003  1
