# generated using pymatgen
data_Ti2N2O
_symmetry_space_group_name_H-M   'P 1'
_cell_length_a   5.17154317
_cell_length_b   5.17154317
_cell_length_c   15.72120973
_cell_angle_alpha   76.62115889
_cell_angle_beta   103.37884111
_cell_angle_gamma   146.38799571
_symmetry_Int_Tables_number   1
_chemical_formula_structural   Ti2N2O
_chemical_formula_sum   'Ti8 N8 O4'
_cell_volume   225.85161609
_cell_formula_units_Z   4
loop_
 _symmetry_equiv_pos_site_id
 _symmetry_equiv_pos_as_xyz
  1  'x, y, z'
loop_
 _atom_site_type_symbol
 _atom_site_label
 _atom_site_symmetry_multiplicity
 _atom_site_fract_x
 _atom_site_fract_y
 _atom_site_fract_z
 _atom_site_occupancy
  Ti  Ti0  1  0.762581  0.237419  0.086193  1
  Ti  Ti1  1  0.000649  0.999351  0.331685  1
  Ti  Ti2  1  0.230143  0.769857  0.575856  1
  Ti  Ti3  1  0.999351  0.000649  0.668315  1
  Ti  Ti4  1  0.237419  0.762581  0.913807  1
  Ti  Ti5  1  0.232795  0.767205  0.242359  1
  Ti  Ti6  1  0.769857  0.230143  0.424143  1
  Ti  Ti7  1  0.767205  0.232795  0.757641  1
  N  N8  1  0.852363  0.147637  0.214945  1
  N  N9  1  0.147637  0.852363  0.785055  1
  N  N10  1  0.148185  0.851815  0.448937  1
  N  N11  1  0.378677  0.621323  0.705790  1
  N  N12  1  0.619033  0.380967  0.629007  1
  N  N13  1  0.380967  0.619033  0.370993  1
  N  N14  1  0.851815  0.148185  0.551063  1
  N  N15  1  0.621323  0.378677  0.294210  1
  O  O16  1  0.647475  0.352525  0.956020  1
  O  O17  1  0.352525  0.647475  0.043980  1
  O  O18  1  0.147913  0.852087  0.120537  1
  O  O19  1  0.852087  0.147913  0.879463  1
