# generated using pymatgen
data_Li4V3NiO8
_symmetry_space_group_name_H-M   'P 1'
_cell_length_a   5.95973512
_cell_length_b   5.95973512
_cell_length_c   5.96472075
_cell_angle_alpha   60.08561303
_cell_angle_beta   119.91438697
_cell_angle_gamma   120.23515415
_symmetry_Int_Tables_number   1
_chemical_formula_structural   Li4V3NiO8
_chemical_formula_sum   'Li4 V3 Ni1 O8'
_cell_volume   149.73042988
_cell_formula_units_Z   1
loop_
 _symmetry_equiv_pos_site_id
 _symmetry_equiv_pos_as_xyz
  1  'x, y, z'
loop_
 _atom_site_type_symbol
 _atom_site_label
 _atom_site_symmetry_multiplicity
 _atom_site_fract_x
 _atom_site_fract_y
 _atom_site_fract_z
 _atom_site_occupancy
  Li  Li0  1  0.500000  0.500000  0.500000  1
  Li  Li1  1  0.500000  0.000000  0.500000  1
  Li  Li2  1  0.000000  0.500000  0.500000  1
  Li  Li3  1  0.000000  0.000000  0.500000  1
  V  V4  1  1.000000  0.500000  0.000000  1
  V  V5  1  0.500000  0.000000  0.000000  1
  V  V6  1  0.500000  0.500000  0.000000  1
  Ni  Ni7  1  0.000000  0.000000  0.000000  1
  O  O8  1  0.740213  0.259787  0.234941  1
  O  O9  1  0.728324  0.736534  0.227351  1
  O  O10  1  0.263466  0.271676  0.227351  1
  O  O11  1  0.259787  0.740213  0.765059  1
  O  O12  1  0.246374  0.753626  0.226062  1
  O  O13  1  0.271676  0.263466  0.772649  1
  O  O14  1  0.736533  0.728324  0.772649  1
  O  O15  1  0.753626  0.246374  0.773938  1
