# generated using pymatgen
data_Ho2TeO6
_symmetry_space_group_name_H-M   'P 1'
_cell_length_a   5.29975550
_cell_length_b   9.09928224
_cell_length_c   9.98791187
_cell_angle_alpha   90.00000000
_cell_angle_beta   90.00000000
_cell_angle_gamma   90.00000000
_symmetry_Int_Tables_number   1
_chemical_formula_structural   Ho2TeO6
_chemical_formula_sum   'Ho8 Te4 O24'
_cell_volume   481.65677334
_cell_formula_units_Z   4
loop_
 _symmetry_equiv_pos_site_id
 _symmetry_equiv_pos_as_xyz
  1  'x, y, z'
loop_
 _atom_site_type_symbol
 _atom_site_label
 _atom_site_symmetry_multiplicity
 _atom_site_fract_x
 _atom_site_fract_y
 _atom_site_fract_z
 _atom_site_occupancy
  Ho  Ho0  1  0.525385  0.396880  0.039309  1
  Ho  Ho1  1  0.535392  0.282086  0.634886  1
  Ho  Ho2  1  0.964608  0.717914  0.134886  1
  Ho  Ho3  1  0.974615  0.603120  0.539309  1
  Ho  Ho4  1  0.025385  0.103120  0.960691  1
  Ho  Ho5  1  0.035392  0.217914  0.365114  1
  Ho  Ho6  1  0.464608  0.782086  0.865114  1
  Ho  Ho7  1  0.474615  0.896880  0.460691  1
  Te  Te8  1  0.540945  0.005424  0.146741  1
  Te  Te9  1  0.959055  0.994576  0.646741  1
  Te  Te10  1  0.040945  0.494576  0.853259  1
  Te  Te11  1  0.459055  0.505424  0.353259  1
  O  O12  1  0.580851  0.655562  0.475205  1
  O  O13  1  0.676186  0.549270  0.203965  1
  O  O14  1  0.687095  0.858511  0.262867  1
  O  O15  1  0.680771  0.857343  0.678932  1
  O  O16  1  0.727320  0.384493  0.436097  1
  O  O17  1  0.747766  0.086751  0.505833  1
  O  O18  1  0.752234  0.913249  0.005833  1
  O  O19  1  0.772680  0.615507  0.936097  1
  O  O20  1  0.819229  0.142657  0.178932  1
  O  O21  1  0.812905  0.141489  0.762867  1
  O  O22  1  0.823814  0.450730  0.703965  1
  O  O23  1  0.919149  0.344438  0.975205  1
  O  O24  1  0.080851  0.844438  0.524795  1
  O  O25  1  0.176186  0.950730  0.796035  1
  O  O26  1  0.187095  0.641489  0.737133  1
  O  O27  1  0.180771  0.642657  0.321068  1
  O  O28  1  0.227320  0.115507  0.563903  1
  O  O29  1  0.247766  0.413249  0.494167  1
  O  O30  1  0.252234  0.586751  0.994167  1
  O  O31  1  0.272680  0.884493  0.063903  1
  O  O32  1  0.319229  0.357343  0.821068  1
  O  O33  1  0.312905  0.358511  0.237133  1
  O  O34  1  0.323814  0.049270  0.296035  1
  O  O35  1  0.419149  0.155562  0.024795  1
