# generated using pymatgen
data_Sm2Zr2O7
_symmetry_space_group_name_H-M   'P 1'
_cell_length_a   7.52438033
_cell_length_b   7.08599433
_cell_length_c   12.26165225
_cell_angle_alpha   90.00000000
_cell_angle_beta   98.93413796
_cell_angle_gamma   90.00000000
_symmetry_Int_Tables_number   1
_chemical_formula_structural   Sm2Zr2O7
_chemical_formula_sum   'Sm8 Zr8 O28'
_cell_volume   645.83152058
_cell_formula_units_Z   4
loop_
 _symmetry_equiv_pos_site_id
 _symmetry_equiv_pos_as_xyz
  1  'x, y, z'
loop_
 _atom_site_type_symbol
 _atom_site_label
 _atom_site_symmetry_multiplicity
 _atom_site_fract_x
 _atom_site_fract_y
 _atom_site_fract_z
 _atom_site_occupancy
  Sm  Sm0  1  0.522513  0.886284  0.362138  1
  Sm  Sm1  1  0.477487  0.386284  0.137862  1
  Sm  Sm2  1  0.749659  0.674284  0.614615  1
  Sm  Sm3  1  0.250341  0.174284  0.885385  1
  Sm  Sm4  1  0.749659  0.825716  0.114615  1
  Sm  Sm5  1  0.250341  0.325716  0.385385  1
  Sm  Sm6  1  0.522513  0.613716  0.862138  1
  Sm  Sm7  1  0.477487  0.113716  0.637862  1
  Zr  Zr8  1  0.251584  0.857758  0.102400  1
  Zr  Zr9  1  0.748416  0.357758  0.397600  1
  Zr  Zr10  1  0.944469  0.108393  0.612416  1
  Zr  Zr11  1  0.055531  0.608393  0.887584  1
  Zr  Zr12  1  0.944469  0.391607  0.112416  1
  Zr  Zr13  1  0.055531  0.891607  0.387584  1
  Zr  Zr14  1  0.251584  0.642242  0.602400  1
  Zr  Zr15  1  0.748416  0.142242  0.897600  1
  O  O16  1  0.010384  0.681033  0.063022  1
  O  O17  1  0.522283  0.228695  0.325386  1
  O  O18  1  0.374937  0.100075  0.069389  1
  O  O19  1  0.817605  0.063234  0.749580  1
  O  O20  1  0.804636  0.607305  0.800254  1
  O  O21  1  0.625063  0.600075  0.430611  1
  O  O22  1  0.688340  0.986632  0.531426  1
  O  O23  1  0.477717  0.728695  0.174614  1
  O  O24  1  0.823152  0.368101  0.576058  1
  O  O25  1  0.817605  0.436766  0.249580  1
  O  O26  1  0.989616  0.181033  0.436978  1
  O  O27  1  0.804636  0.892695  0.300254  1
  O  O28  1  0.176848  0.868101  0.923942  1
  O  O29  1  0.688340  0.513368  0.031426  1
  O  O30  1  0.311660  0.486632  0.968574  1
  O  O31  1  0.823152  0.131899  0.076058  1
  O  O32  1  0.195364  0.107305  0.699746  1
  O  O33  1  0.010384  0.818967  0.563022  1
  O  O34  1  0.182395  0.563234  0.750420  1
  O  O35  1  0.176848  0.631899  0.423942  1
  O  O36  1  0.522283  0.271305  0.825386  1
  O  O37  1  0.311660  0.013368  0.468574  1
  O  O38  1  0.374937  0.399925  0.569389  1
  O  O39  1  0.195364  0.392695  0.199746  1
  O  O40  1  0.182395  0.936766  0.250420  1
  O  O41  1  0.625063  0.899925  0.930611  1
  O  O42  1  0.477717  0.771305  0.674614  1
  O  O43  1  0.989616  0.318967  0.936978  1
