# generated using pymatgen
data_NaV5O8
_symmetry_space_group_name_H-M   'P 1'
_cell_length_a   8.64831903
_cell_length_b   8.64831903
_cell_length_c   8.64831903
_cell_angle_alpha   90.00000000
_cell_angle_beta   90.00000000
_cell_angle_gamma   90.00000000
_symmetry_Int_Tables_number   1
_chemical_formula_structural   NaV5O8
_chemical_formula_sum   'Na4 V20 O32'
_cell_volume   646.83737519
_cell_formula_units_Z   4
loop_
 _symmetry_equiv_pos_site_id
 _symmetry_equiv_pos_as_xyz
  1  'x, y, z'
loop_
 _atom_site_type_symbol
 _atom_site_label
 _atom_site_symmetry_multiplicity
 _atom_site_fract_x
 _atom_site_fract_y
 _atom_site_fract_z
 _atom_site_occupancy
  Na  Na0  1  0.625000  0.375000  0.875000  1
  Na  Na1  1  0.875000  0.625000  0.375000  1
  Na  Na2  1  0.125000  0.125000  0.125000  1
  Na  Na3  1  0.375000  0.875000  0.625000  1
  V  V4  1  0.499789  0.499789  0.499789  1
  V  V5  1  0.500211  0.999789  0.000211  1
  V  V6  1  0.625662  0.624338  0.125000  1
  V  V7  1  0.624338  0.125000  0.625662  1
  V  V8  1  0.625000  0.874338  0.375662  1
  V  V9  1  0.750211  0.750211  0.750211  1
  V  V10  1  0.749789  0.249789  0.250211  1
  V  V11  1  0.875662  0.875000  0.125662  1
  V  V12  1  0.875000  0.125662  0.875662  1
  V  V13  1  0.874338  0.375662  0.625000  1
  V  V14  1  0.000211  0.500211  0.999789  1
  V  V15  1  0.999789  0.000211  0.500211  1
  V  V16  1  0.125000  0.625662  0.624338  1
  V  V17  1  0.125662  0.875662  0.875000  1
  V  V18  1  0.124338  0.375000  0.374338  1
  V  V19  1  0.250211  0.749789  0.249789  1
  V  V20  1  0.249789  0.250211  0.749789  1
  V  V21  1  0.375662  0.625000  0.874338  1
  V  V22  1  0.374338  0.124338  0.375000  1
  V  V23  1  0.375000  0.374338  0.124338  1
  O  O24  1  0.641199  0.885606  0.608030  1
  O  O25  1  0.641970  0.364394  0.608801  1
  O  O26  1  0.634733  0.865267  0.134733  1
  O  O27  1  0.608030  0.641199  0.885606  1
  O  O28  1  0.614394  0.391970  0.141199  1
  O  O29  1  0.608801  0.641970  0.364394  1
  O  O30  1  0.635606  0.108801  0.858030  1
  O  O31  1  0.615267  0.115267  0.384733  1
  O  O32  1  0.885606  0.608030  0.641199  1
  O  O33  1  0.884733  0.884733  0.884733  1
  O  O34  1  0.858030  0.635606  0.108801  1
  O  O35  1  0.864394  0.891199  0.358030  1
  O  O36  1  0.865267  0.134733  0.634733  1
  O  O37  1  0.891199  0.358030  0.864394  1
  O  O38  1  0.858801  0.114394  0.108030  1
  O  O39  1  0.891970  0.358801  0.385606  1
  O  O40  1  0.134733  0.634733  0.865267  1
  O  O41  1  0.108801  0.858030  0.635606  1
  O  O42  1  0.108030  0.858801  0.114394  1
  O  O43  1  0.114394  0.108030  0.858801  1
  O  O44  1  0.141199  0.614394  0.391970  1
  O  O45  1  0.141970  0.135606  0.391199  1
  O  O46  1  0.115267  0.384733  0.615267  1
  O  O47  1  0.135606  0.391199  0.141970  1
  O  O48  1  0.364394  0.608801  0.641970  1
  O  O49  1  0.384733  0.615267  0.115267  1
  O  O50  1  0.358030  0.864394  0.891199  1
  O  O51  1  0.391970  0.141199  0.614394  1
  O  O52  1  0.391199  0.141970  0.135606  1
  O  O53  1  0.385606  0.891970  0.358801  1
  O  O54  1  0.358801  0.385606  0.891970  1
  O  O55  1  0.365267  0.365267  0.365267  1
