# generated using pymatgen
data_K3Na3TeP6(HO4)6
_symmetry_space_group_name_H-M   'P 1'
_cell_length_a   10.75057592
_cell_length_b   10.75057592
_cell_length_c   12.45331393
_cell_angle_alpha   65.80116760
_cell_angle_beta   114.19883240
_cell_angle_gamma   116.75143969
_symmetry_Int_Tables_number   1
_chemical_formula_structural   K3Na3TeP6(HO4)6
_chemical_formula_sum   'K6 Na6 Te2 P12 H12 O48'
_cell_volume   1126.52212940
_cell_formula_units_Z   2
loop_
 _symmetry_equiv_pos_site_id
 _symmetry_equiv_pos_as_xyz
  1  'x, y, z'
loop_
 _atom_site_type_symbol
 _atom_site_label
 _atom_site_symmetry_multiplicity
 _atom_site_fract_x
 _atom_site_fract_y
 _atom_site_fract_z
 _atom_site_occupancy
  K  K0  1  0.265079  0.848764  0.746928  1
  K  K1  1  0.151236  0.734921  0.246928  1
  K  K2  1  0.628527  0.628527  0.750000  1
  K  K3  1  0.371473  0.371473  0.250000  1
  K  K4  1  0.848764  0.265079  0.753072  1
  K  K5  1  0.734921  0.151236  0.253072  1
  Na  Na6  1  0.246891  0.461429  0.742947  1
  Na  Na7  1  0.080316  0.080316  0.750000  1
  Na  Na8  1  0.538571  0.753109  0.242947  1
  Na  Na9  1  0.461429  0.246891  0.757053  1
  Na  Na10  1  0.919684  0.919684  0.250000  1
  Na  Na11  1  0.753109  0.538571  0.257053  1
  Te  Te12  1  0.500000  1.000000  0.500000  1
  Te  Te13  1  0.000000  0.500000  0.000000  1
  P  P14  1  0.989736  0.663553  0.521018  1
  P  P15  1  0.512438  0.688700  0.980814  1
  P  P16  1  0.336447  0.010264  0.021018  1
  P  P17  1  0.818498  0.824849  0.984490  1
  P  P18  1  0.311300  0.487562  0.480814  1
  P  P19  1  0.175151  0.181502  0.484490  1
  P  P20  1  0.824849  0.818498  0.515510  1
  P  P21  1  0.688700  0.512438  0.519186  1
  P  P22  1  0.181502  0.175151  0.015510  1
  P  P23  1  0.663553  0.989736  0.978982  1
  P  P24  1  0.487562  0.311300  0.019186  1
  P  P25  1  0.010264  0.336447  0.478982  1
  H  H26  1  0.175065  0.514463  0.911359  1
  H  H27  1  0.233773  0.826895  0.503061  1
  H  H28  1  0.778083  0.004025  0.569491  1
  H  H29  1  0.485537  0.824935  0.411359  1
  H  H30  1  0.173105  0.766227  0.003061  1
  H  H31  1  0.004025  0.778083  0.930509  1
  H  H32  1  0.995975  0.221917  0.069491  1
  H  H33  1  0.826895  0.233773  0.996939  1
  H  H34  1  0.514463  0.175065  0.588641  1
  H  H35  1  0.221917  0.995975  0.430509  1
  H  H36  1  0.766227  0.173105  0.496939  1
  H  H37  1  0.824935  0.485537  0.088641  1
  O  O38  1  0.079939  0.734405  0.940259  1
  O  O39  1  0.069690  0.495234  0.875286  1
  O  O40  1  0.520446  0.859710  0.934600  1
  O  O41  1  0.265595  0.920061  0.440259  1
  O  O42  1  0.134825  0.650175  0.601060  1
  O  O43  1  0.381157  0.616396  0.893457  1
  O  O44  1  0.783772  0.973919  0.939965  1
  O  O45  1  0.489646  0.822547  0.611901  1
  O  O46  1  0.655516  0.710722  0.947519  1
  O  O47  1  0.115854  0.216425  0.879395  1
  O  O48  1  0.039036  0.294821  0.615253  1
  O  O49  1  0.504766  0.930310  0.375286  1
  O  O50  1  0.140290  0.479554  0.434600  1
  O  O51  1  0.349825  0.865175  0.101060  1
  O  O52  1  0.896390  0.843598  0.899353  1
  O  O53  1  0.383604  0.618843  0.393457  1
  O  O54  1  0.366600  0.463137  0.616821  1
  O  O55  1  0.026081  0.216228  0.439965  1
  O  O56  1  0.463137  0.366600  0.883179  1
  O  O57  1  0.843598  0.896390  0.600647  1
  O  O58  1  0.177453  0.510354  0.111901  1
  O  O59  1  0.289278  0.344484  0.447519  1
  O  O60  1  0.783575  0.884146  0.379395  1
  O  O61  1  0.705179  0.960964  0.115253  1
  O  O62  1  0.294821  0.039036  0.884747  1
  O  O63  1  0.216425  0.115854  0.620605  1
  O  O64  1  0.710722  0.655516  0.552481  1
  O  O65  1  0.822547  0.489646  0.888099  1
  O  O66  1  0.156402  0.103610  0.399353  1
  O  O67  1  0.536863  0.633400  0.116821  1
  O  O68  1  0.973919  0.783772  0.560035  1
  O  O69  1  0.633400  0.536863  0.383179  1
  O  O70  1  0.616396  0.381157  0.606543  1
  O  O71  1  0.103610  0.156402  0.100647  1
  O  O72  1  0.650175  0.134825  0.898940  1
  O  O73  1  0.859710  0.520446  0.565400  1
  O  O74  1  0.495234  0.069690  0.624714  1
  O  O75  1  0.960964  0.705179  0.384747  1
  O  O76  1  0.884146  0.783575  0.120605  1
  O  O77  1  0.344484  0.289278  0.052481  1
  O  O78  1  0.510354  0.177453  0.388099  1
  O  O79  1  0.216228  0.026081  0.060035  1
  O  O80  1  0.618843  0.383604  0.106543  1
  O  O81  1  0.865175  0.349825  0.398940  1
  O  O82  1  0.734405  0.079939  0.559741  1
  O  O83  1  0.479554  0.140290  0.065400  1
  O  O84  1  0.930310  0.504766  0.124714  1
  O  O85  1  0.920061  0.265595  0.059741  1
