# generated using pymatgen
data_CeNiO3
_symmetry_space_group_name_H-M   'P 1'
_cell_length_a   5.31928408
_cell_length_b   5.71972727
_cell_length_c   7.67099980
_cell_angle_alpha   90.00000000
_cell_angle_beta   90.00000000
_cell_angle_gamma   90.00000000
_symmetry_Int_Tables_number   1
_chemical_formula_structural   CeNiO3
_chemical_formula_sum   'Ce4 Ni4 O12'
_cell_volume   233.38905042
_cell_formula_units_Z   4
loop_
 _symmetry_equiv_pos_site_id
 _symmetry_equiv_pos_as_xyz
  1  'x, y, z'
loop_
 _atom_site_type_symbol
 _atom_site_label
 _atom_site_symmetry_multiplicity
 _atom_site_fract_x
 _atom_site_fract_y
 _atom_site_fract_z
 _atom_site_occupancy
  Ce  Ce0  1  0.024067  0.423373  0.250000  1
  Ce  Ce1  1  0.475933  0.923373  0.250000  1
  Ce  Ce2  1  0.524067  0.076627  0.750000  1
  Ce  Ce3  1  0.975933  0.576627  0.750000  1
  Ni  Ni4  1  0.000000  0.000000  0.500000  1
  Ni  Ni5  1  0.000000  0.000000  0.000000  1
  Ni  Ni6  1  0.500000  0.500000  0.500000  1
  Ni  Ni7  1  0.500000  0.500000  0.000000  1
  O  O8  1  0.127245  0.952522  0.750000  1
  O  O9  1  0.182097  0.687857  0.064333  1
  O  O10  1  0.182097  0.687857  0.435667  1
  O  O11  1  0.317903  0.187857  0.064333  1
  O  O12  1  0.317903  0.187857  0.435667  1
  O  O13  1  0.372755  0.452522  0.750000  1
  O  O14  1  0.627245  0.547478  0.250000  1
  O  O15  1  0.682097  0.812143  0.564333  1
  O  O16  1  0.682097  0.812143  0.935667  1
  O  O17  1  0.817903  0.312143  0.564333  1
  O  O18  1  0.817903  0.312143  0.935667  1
  O  O19  1  0.872755  0.047478  0.250000  1
