# generated using pymatgen
data_Li5Ti2Cu5O12
_symmetry_space_group_name_H-M   'P 1'
_cell_length_a   5.06865416
_cell_length_b   5.06865416
_cell_length_c   9.71972101
_cell_angle_alpha   89.51186498
_cell_angle_beta   90.48813502
_cell_angle_gamma   66.43552810
_symmetry_Int_Tables_number   1
_chemical_formula_structural   Li5Ti2Cu5O12
_chemical_formula_sum   'Li5 Ti2 Cu5 O12'
_cell_volume   228.86088198
_cell_formula_units_Z   1
loop_
 _symmetry_equiv_pos_site_id
 _symmetry_equiv_pos_as_xyz
  1  'x, y, z'
loop_
 _atom_site_type_symbol
 _atom_site_label
 _atom_site_symmetry_multiplicity
 _atom_site_fract_x
 _atom_site_fract_y
 _atom_site_fract_z
 _atom_site_occupancy
  Li  Li0  1  0.841035  0.322090  0.746585  1
  Li  Li1  1  0.680559  0.148774  0.258058  1
  Li  Li2  1  0.322090  0.841035  0.253415  1
  Li  Li3  1  0.148774  0.680559  0.741942  1
  Li  Li4  1  0.087323  0.087323  0.500000  1
  Ti  Ti5  1  0.755412  0.755412  0.500000  1
  Ti  Ti6  1  0.254389  0.254389  0.000000  1
  Cu  Cu7  1  0.921563  0.921563  0.000000  1
  Cu  Cu8  1  0.001129  0.487915  0.252098  1
  Cu  Cu9  1  0.487915  0.001129  0.747902  1
  Cu  Cu10  1  0.583308  0.583308  0.000000  1
  Cu  Cu11  1  0.415080  0.415080  0.500000  1
  O  O12  1  0.010953  0.795089  0.365591  1
  O  O13  1  0.795089  0.010953  0.634409  1
  O  O14  1  0.920918  0.582602  0.902027  1
  O  O15  1  0.582602  0.920918  0.097973  1
  O  O16  1  0.691242  0.472368  0.378749  1
  O  O17  1  0.472368  0.691242  0.621251  1
  O  O18  1  0.522218  0.308425  0.873243  1
  O  O19  1  0.308425  0.522218  0.126757  1
  O  O20  1  0.427383  0.085619  0.401262  1
  O  O21  1  0.085619  0.427383  0.598738  1
  O  O22  1  0.190567  0.994040  0.868916  1
  O  O23  1  0.994040  0.190567  0.131084  1
