# generated using pymatgen
data_LiSiPCO7
_symmetry_space_group_name_H-M   'P 1'
_cell_length_a   4.96868057
_cell_length_b   6.03012945
_cell_length_c   8.43761972
_cell_angle_alpha   90.00000000
_cell_angle_beta   94.72022524
_cell_angle_gamma   90.00000000
_symmetry_Int_Tables_number   1
_chemical_formula_structural   LiSiPCO7
_chemical_formula_sum   'Li2 Si2 P2 C2 O14'
_cell_volume   251.94874768
_cell_formula_units_Z   2
loop_
 _symmetry_equiv_pos_site_id
 _symmetry_equiv_pos_as_xyz
  1  'x, y, z'
loop_
 _atom_site_type_symbol
 _atom_site_label
 _atom_site_symmetry_multiplicity
 _atom_site_fract_x
 _atom_site_fract_y
 _atom_site_fract_z
 _atom_site_occupancy
  Li  Li0  1  0.768098  0.478234  0.194536  1
  Li  Li1  1  0.231902  0.978234  0.805464  1
  Si  Si2  1  0.211335  0.248102  0.333921  1
  Si  Si3  1  0.788665  0.748102  0.666079  1
  P  P4  1  0.263950  0.754262  0.432861  1
  P  P5  1  0.736050  0.254262  0.567139  1
  C  C6  1  0.273373  0.251544  0.068943  1
  C  C7  1  0.726627  0.751544  0.931057  1
  O  O8  1  0.686731  0.734665  0.072777  1
  O  O9  1  0.036324  0.253141  0.133133  1
  O  O10  1  0.465163  0.263510  0.191027  1
  O  O11  1  0.202903  0.956779  0.327210  1
  O  O12  1  0.192142  0.551918  0.327178  1
  O  O13  1  0.900404  0.258380  0.419232  1
  O  O14  1  0.568902  0.751613  0.492886  1
  O  O15  1  0.431098  0.251613  0.507114  1
  O  O16  1  0.099596  0.758380  0.580768  1
  O  O17  1  0.807858  0.051918  0.672822  1
  O  O18  1  0.797097  0.456779  0.672790  1
  O  O19  1  0.534837  0.763510  0.808973  1
  O  O20  1  0.963676  0.753141  0.866867  1
  O  O21  1  0.313269  0.234665  0.927223  1
