# generated using pymatgen
data_Na2LiCuP2O7
_symmetry_space_group_name_H-M   'P 1'
_cell_length_a   5.37924663
_cell_length_b   13.59251641
_cell_length_c   10.40339374
_cell_angle_alpha   90.00000000
_cell_angle_beta   120.34269072
_cell_angle_gamma   90.00000000
_symmetry_Int_Tables_number   1
_chemical_formula_structural   Na2LiCuP2O7
_chemical_formula_sum   'Na8 Li4 Cu4 P8 O28'
_cell_volume   656.47306488
_cell_formula_units_Z   4
loop_
 _symmetry_equiv_pos_site_id
 _symmetry_equiv_pos_as_xyz
  1  'x, y, z'
loop_
 _atom_site_type_symbol
 _atom_site_label
 _atom_site_symmetry_multiplicity
 _atom_site_fract_x
 _atom_site_fract_y
 _atom_site_fract_z
 _atom_site_occupancy
  Na  Na0  1  0.423709  0.112609  0.651835  1
  Na  Na1  1  0.903839  0.707734  0.647573  1
  Na  Na2  1  0.096161  0.207734  0.852427  1
  Na  Na3  1  0.576291  0.612609  0.848165  1
  Na  Na4  1  0.423709  0.387391  0.151835  1
  Na  Na5  1  0.903839  0.792266  0.147573  1
  Na  Na6  1  0.096161  0.292266  0.352427  1
  Na  Na7  1  0.576291  0.887391  0.348165  1
  Li  Li8  1  0.741287  0.120378  0.499432  1
  Li  Li9  1  0.258713  0.620378  0.000568  1
  Li  Li10  1  0.741287  0.379622  0.999432  1
  Li  Li11  1  0.258713  0.879622  0.500568  1
  Cu  Cu12  1  0.432874  0.336304  0.722479  1
  Cu  Cu13  1  0.567126  0.836304  0.777521  1
  Cu  Cu14  1  0.432874  0.163696  0.222479  1
  Cu  Cu15  1  0.567126  0.663696  0.277521  1
  P  P16  1  0.767896  0.319046  0.543673  1
  P  P17  1  0.000382  0.956239  0.708056  1
  P  P18  1  0.999618  0.456239  0.791944  1
  P  P19  1  0.232104  0.819046  0.956327  1
  P  P20  1  0.767896  0.180954  0.043673  1
  P  P21  1  0.000382  0.543761  0.208056  1
  P  P22  1  0.999618  0.043761  0.291944  1
  P  P23  1  0.232104  0.680954  0.456327  1
  O  O24  1  0.850720  0.429694  0.614995  1
  O  O25  1  0.046774  0.269275  0.566764  1
  O  O26  1  0.656642  0.261048  0.631791  1
  O  O27  1  0.455280  0.668419  0.620245  1
  O  O28  1  0.745746  0.884606  0.620842  1
  O  O29  1  0.237203  0.943851  0.664972  1
  O  O30  1  0.904241  0.063114  0.694978  1
  O  O31  1  0.095759  0.563114  0.805022  1
  O  O32  1  0.762797  0.443851  0.835028  1
  O  O33  1  0.254254  0.384606  0.879158  1
  O  O34  1  0.343358  0.761048  0.868209  1
  O  O35  1  0.544720  0.168419  0.879755  1
  O  O36  1  0.953226  0.769275  0.933236  1
  O  O37  1  0.149280  0.929694  0.885005  1
  O  O38  1  0.850720  0.070306  0.114995  1
  O  O39  1  0.046774  0.230725  0.066764  1
  O  O40  1  0.455280  0.831581  0.120245  1
  O  O41  1  0.656642  0.238952  0.131791  1
  O  O42  1  0.745746  0.615394  0.120842  1
  O  O43  1  0.237203  0.556149  0.164972  1
  O  O44  1  0.904241  0.436886  0.194978  1
  O  O45  1  0.095759  0.936886  0.305022  1
  O  O46  1  0.762797  0.056149  0.335028  1
  O  O47  1  0.254254  0.115394  0.379158  1
  O  O48  1  0.544720  0.331581  0.379755  1
  O  O49  1  0.343358  0.738952  0.368209  1
  O  O50  1  0.953226  0.730725  0.433236  1
  O  O51  1  0.149280  0.570306  0.385005  1
