# generated using pymatgen
data_CuSiH12(OF)6
_symmetry_space_group_name_H-M   'P 1'
_cell_length_a   11.05998218
_cell_length_b   11.05998218
_cell_length_c   11.05998218
_cell_angle_alpha   111.41839607
_cell_angle_beta   111.41839607
_cell_angle_gamma   111.41839607
_symmetry_Int_Tables_number   1
_chemical_formula_structural   CuSiH12(OF)6
_chemical_formula_sum   'Cu4 Si4 H48 O24 F24'
_cell_volume   959.07134284
_cell_formula_units_Z   4
loop_
 _symmetry_equiv_pos_site_id
 _symmetry_equiv_pos_as_xyz
  1  'x, y, z'
loop_
 _atom_site_type_symbol
 _atom_site_label
 _atom_site_symmetry_multiplicity
 _atom_site_fract_x
 _atom_site_fract_y
 _atom_site_fract_z
 _atom_site_occupancy
  Cu  Cu0  1  0.000000  0.000000  0.000000  1
  Cu  Cu1  1  0.500000  0.500000  0.000000  1
  Cu  Cu2  1  0.000000  0.500000  0.500000  1
  Cu  Cu3  1  0.500000  0.000000  0.500000  1
  Si  Si4  1  0.500000  0.500000  0.500000  1
  Si  Si5  1  1.000000  0.000000  0.500000  1
  Si  Si6  1  0.500000  0.000000  1.000000  1
  Si  Si7  1  1.000000  0.500000  0.000000  1
  H  H8  1  0.792236  0.690965  0.865843  1
  H  H9  1  0.865843  0.792236  0.690965  1
  H  H10  1  0.690965  0.865843  0.792236  1
  H  H11  1  0.207764  0.309035  0.134157  1
  H  H12  1  0.134157  0.207764  0.309035  1
  H  H13  1  0.309035  0.134157  0.207764  1
  H  H14  1  0.958970  0.751468  0.004936  1
  H  H15  1  0.004936  0.958970  0.751468  1
  H  H16  1  0.751468  0.004936  0.958970  1
  H  H17  1  0.041030  0.248532  0.995064  1
  H  H18  1  0.995064  0.041030  0.248532  1
  H  H19  1  0.248532  0.995064  0.041030  1
  H  H20  1  0.271914  0.227787  0.884070  1
  H  H21  1  0.884070  0.271914  0.227787  1
  H  H22  1  0.227787  0.884070  0.271914  1
  H  H23  1  0.728086  0.772213  0.115930  1
  H  H24  1  0.115930  0.728086  0.772213  1
  H  H25  1  0.772213  0.115930  0.728086  1
  H  H26  1  0.430512  0.243527  0.982806  1
  H  H27  1  0.982806  0.430512  0.243527  1
  H  H28  1  0.243527  0.982806  0.430512  1
  H  H29  1  0.569488  0.756473  0.017194  1
  H  H30  1  0.017194  0.569488  0.756473  1
  H  H31  1  0.756473  0.017194  0.569488  1
  H  H32  1  0.255724  0.506810  0.952387  1
  H  H33  1  0.952387  0.255724  0.506810  1
  H  H34  1  0.506810  0.952387  0.255724  1
  H  H35  1  0.744276  0.493190  0.047613  1
  H  H36  1  0.047613  0.744276  0.493190  1
  H  H37  1  0.493190  0.047613  0.744276  1
  H  H38  1  0.277147  0.510447  0.817368  1
  H  H39  1  0.817368  0.277147  0.510447  1
  H  H40  1  0.510447  0.817368  0.277147  1
  H  H41  1  0.722853  0.489553  0.182632  1
  H  H42  1  0.182632  0.722853  0.489553  1
  H  H43  1  0.489553  0.182632  0.722853  1
  H  H44  1  0.334838  0.279471  0.673885  1
  H  H45  1  0.673885  0.334838  0.279471  1
  H  H46  1  0.279471  0.673885  0.334838  1
  H  H47  1  0.665162  0.720529  0.326115  1
  H  H48  1  0.326115  0.665162  0.720529  1
  H  H49  1  0.720529  0.326115  0.665162  1
  H  H50  1  0.502117  0.399298  0.720733  1
  H  H51  1  0.720733  0.502117  0.399298  1
  H  H52  1  0.399298  0.720733  0.502117  1
  H  H53  1  0.497883  0.600702  0.279267  1
  H  H54  1  0.279267  0.497883  0.600702  1
  H  H55  1  0.600702  0.279267  0.497883  1
  O  O56  1  0.888010  0.784012  0.971185  1
  O  O57  1  0.971185  0.888010  0.784012  1
  O  O58  1  0.784012  0.971185  0.888010  1
  O  O59  1  0.111990  0.215988  0.028815  1
  O  O60  1  0.028815  0.111990  0.215988  1
  O  O61  1  0.215988  0.028815  0.111990  1
  O  O62  1  0.380551  0.302328  0.982384  1
  O  O63  1  0.982384  0.380551  0.302328  1
  O  O64  1  0.302328  0.982384  0.380551  1
  O  O65  1  0.619449  0.697672  0.017616  1
  O  O66  1  0.017616  0.619449  0.697672  1
  O  O67  1  0.697672  0.017616  0.619449  1
  O  O68  1  0.291616  0.471220  0.886281  1
  O  O69  1  0.886281  0.291616  0.471220  1
  O  O70  1  0.471220  0.886281  0.291616  1
  O  O71  1  0.708384  0.528780  0.113719  1
  O  O72  1  0.113719  0.708384  0.528780  1
  O  O73  1  0.528780  0.113719  0.708384  1
  O  O74  1  0.448412  0.327036  0.743862  1
  O  O75  1  0.743862  0.448412  0.327036  1
  O  O76  1  0.327036  0.743862  0.448412  1
  O  O77  1  0.551588  0.672964  0.256138  1
  O  O78  1  0.256138  0.551588  0.672964  1
  O  O79  1  0.672964  0.256138  0.551588  1
  F  F80  1  0.607851  0.518926  0.672107  1
  F  F81  1  0.672107  0.607851  0.518926  1
  F  F82  1  0.518926  0.672107  0.607851  1
  F  F83  1  0.392149  0.481074  0.327893  1
  F  F84  1  0.327893  0.392149  0.481074  1
  F  F85  1  0.481074  0.327893  0.392149  1
  F  F86  1  0.918467  0.300724  0.920696  1
  F  F87  1  0.920696  0.918467  0.300724  1
  F  F88  1  0.300724  0.920696  0.918467  1
  F  F89  1  0.081533  0.699276  0.079304  1
  F  F90  1  0.079304  0.081533  0.699276  1
  F  F91  1  0.699276  0.079304  0.081533  1
  F  F92  1  0.814492  0.457320  0.898836  1
  F  F93  1  0.898836  0.814492  0.457320  1
  F  F94  1  0.457320  0.898836  0.814492  1
  F  F95  1  0.185508  0.542680  0.101164  1
  F  F96  1  0.101164  0.185508  0.542680  1
  F  F97  1  0.542680  0.101164  0.185508  1
  F  F98  1  0.010067  0.474954  0.842140  1
  F  F99  1  0.842140  0.010067  0.474954  1
  F  F100  1  0.474954  0.842140  0.010067  1
  F  F101  1  0.989933  0.525046  0.157860  1
  F  F102  1  0.157860  0.989933  0.525046  1
  F  F103  1  0.525046  0.157860  0.989933  1
