# generated using pymatgen
data_NbVO5
_symmetry_space_group_name_H-M   'P 1'
_cell_length_a   6.87996454
_cell_length_b   6.87996454
_cell_length_c   4.29901442
_cell_angle_alpha   90.00000000
_cell_angle_beta   90.00000000
_cell_angle_gamma   90.00000000
_symmetry_Int_Tables_number   1
_chemical_formula_structural   NbVO5
_chemical_formula_sum   'Nb2 V2 O10'
_cell_volume   203.48917055
_cell_formula_units_Z   2
loop_
 _symmetry_equiv_pos_site_id
 _symmetry_equiv_pos_as_xyz
  1  'x, y, z'
loop_
 _atom_site_type_symbol
 _atom_site_label
 _atom_site_symmetry_multiplicity
 _atom_site_fract_x
 _atom_site_fract_y
 _atom_site_fract_z
 _atom_site_occupancy
  Nb  Nb0  1  0.000000  0.500000  0.797943  1
  Nb  Nb1  1  0.500000  0.000000  0.202057  1
  V  V2  1  0.500000  0.500000  0.500000  1
  V  V3  1  0.000000  0.000000  0.500000  1
  O  O4  1  0.492307  0.289905  0.276026  1
  O  O5  1  0.710095  0.492307  0.723974  1
  O  O6  1  0.000000  0.500000  0.211719  1
  O  O7  1  0.289905  0.507693  0.723974  1
  O  O8  1  0.507693  0.710095  0.276026  1
  O  O9  1  0.992307  0.789905  0.723974  1
  O  O10  1  0.210095  0.992307  0.276026  1
  O  O11  1  0.500000  0.000000  0.788281  1
  O  O12  1  0.789905  0.007693  0.276026  1
  O  O13  1  0.007693  0.210095  0.723974  1
