# generated using pymatgen
data_Li4Mn(WO4)3
_symmetry_space_group_name_H-M   'P 1'
_cell_length_a   5.20994715
_cell_length_b   5.54069913
_cell_length_c   7.65790258
_cell_angle_alpha   94.51872871
_cell_angle_beta   90.28173294
_cell_angle_gamma   90.11743414
_symmetry_Int_Tables_number   1
_chemical_formula_structural   Li4Mn(WO4)3
_chemical_formula_sum   'Li4 Mn1 W3 O12'
_cell_volume   220.36830236
_cell_formula_units_Z   1
loop_
 _symmetry_equiv_pos_site_id
 _symmetry_equiv_pos_as_xyz
  1  'x, y, z'
loop_
 _atom_site_type_symbol
 _atom_site_label
 _atom_site_symmetry_multiplicity
 _atom_site_fract_x
 _atom_site_fract_y
 _atom_site_fract_z
 _atom_site_occupancy
  Li  Li0  1  0.996960  0.437193  0.317182  1
  Li  Li1  1  0.504884  0.905528  0.764234  1
  Li  Li2  1  0.004776  0.517183  0.727911  1
  Li  Li3  1  0.489725  0.905780  0.315759  1
  Mn  Mn4  1  0.499580  0.488962  0.497366  1
  W  W5  1  0.999646  0.985919  0.011924  1
  W  W6  1  0.009159  0.005173  0.514518  1
  W  W7  1  0.496920  0.476144  0.998419  1
  O  O8  1  0.289196  0.179953  0.423754  1
  O  O9  1  0.123247  0.003189  0.758232  1
  O  O10  1  0.296512  0.810263  0.059672  1
  O  O11  1  0.179204  0.713557  0.433041  1
  O  O12  1  0.803330  0.708099  0.929387  1
  O  O13  1  0.381599  0.532425  0.771355  1
  O  O14  1  0.630123  0.529619  0.222642  1
  O  O15  1  0.193954  0.302785  0.056955  1
  O  O16  1  0.838667  0.311511  0.548306  1
  O  O17  1  0.692945  0.194646  0.933203  1
  O  O18  1  0.871621  0.012894  0.237619  1
  O  O19  1  0.697952  0.836774  0.549719  1
