# generated using pymatgen
data_Zr2N2O
_symmetry_space_group_name_H-M   'P 1'
_cell_length_a   8.85655440
_cell_length_b   8.87849084
_cell_length_c   8.88022006
_cell_angle_alpha   109.47510430
_cell_angle_beta   109.45790931
_cell_angle_gamma   109.33023835
_symmetry_Int_Tables_number   1
_chemical_formula_structural   Zr2N2O
_chemical_formula_sum   'Zr16 N16 O8'
_cell_volume   538.52852711
_cell_formula_units_Z   8
loop_
 _symmetry_equiv_pos_site_id
 _symmetry_equiv_pos_as_xyz
  1  'x, y, z'
loop_
 _atom_site_type_symbol
 _atom_site_label
 _atom_site_symmetry_multiplicity
 _atom_site_fract_x
 _atom_site_fract_y
 _atom_site_fract_z
 _atom_site_occupancy
  Zr  Zr0  1  0.010451  0.008547  0.516296  1
  Zr  Zr1  1  0.241026  0.027563  0.280855  1
  Zr  Zr2  1  0.036785  0.286557  0.250490  1
  Zr  Zr3  1  0.460704  0.217711  0.755954  1
  Zr  Zr4  1  0.781649  0.739391  0.030031  1
  Zr  Zr5  1  0.288816  0.747701  0.531374  1
  Zr  Zr6  1  0.488412  0.496861  0.486754  1
  Zr  Zr7  1  0.509867  0.005847  0.007895  1
  Zr  Zr8  1  0.739703  0.452954  0.210485  1
  Zr  Zr9  1  0.000487  0.497365  0.989661  1
  Zr  Zr10  1  0.255162  0.534782  0.789994  1
  Zr  Zr11  1  0.726948  0.261558  0.471368  1
  Zr  Zr12  1  0.211935  0.252075  0.968889  1
  Zr  Zr13  1  0.962848  0.713973  0.748414  1
  Zr  Zr14  1  0.537459  0.786215  0.249106  1
  Zr  Zr15  1  0.758956  0.971095  0.710141  1
  N  N16  1  0.045552  0.776310  0.034112  1
  N  N17  1  0.227887  0.953500  0.487101  1
  N  N18  1  0.465569  0.233503  0.009867  1
  N  N19  1  0.723874  0.467568  0.953490  1
  N  N20  1  0.259367  0.491002  0.532431  1
  N  N21  1  0.737286  0.515119  0.464750  1
  N  N22  1  0.239449  0.273094  0.726406  1
  N  N23  1  0.772055  0.224929  0.237595  1
  N  N24  1  0.273907  0.536629  0.050711  1
  N  N25  1  0.008095  0.962740  0.735285  1
  N  N26  1  0.537748  0.766456  0.991774  1
  N  N27  1  0.969146  0.457592  0.727666  1
  N  N28  1  0.271777  0.257224  0.230018  1
  N  N29  1  0.771940  0.044323  0.508441  1
  N  N30  1  0.489070  0.728935  0.457597  1
  N  N31  1  0.947085  0.226607  0.964754  1
  O  O32  1  0.515252  0.270753  0.544759  1
  O  O33  1  0.725805  0.733941  0.772343  1
  O  O34  1  0.033957  0.545296  0.273525  1
  O  O35  1  0.986709  0.033247  0.262357  1
  O  O36  1  0.229575  0.777104  0.764662  1
  O  O37  1  0.763640  0.729603  0.271295  1
  O  O38  1  0.540317  0.003757  0.774345  1
  O  O39  1  0.453731  0.990576  0.227012  1
