# generated using pymatgen
data_Mn5OF11
_symmetry_space_group_name_H-M   'P 1'
_cell_length_a   5.26325410
_cell_length_b   5.70992589
_cell_length_c   9.23451615
_cell_angle_alpha   106.75884254
_cell_angle_beta   88.62812944
_cell_angle_gamma   116.04404477
_symmetry_Int_Tables_number   1
_chemical_formula_structural   Mn5OF11
_chemical_formula_sum   'Mn5 O1 F11'
_cell_volume   237.04607758
_cell_formula_units_Z   1
loop_
 _symmetry_equiv_pos_site_id
 _symmetry_equiv_pos_as_xyz
  1  'x, y, z'
loop_
 _atom_site_type_symbol
 _atom_site_label
 _atom_site_symmetry_multiplicity
 _atom_site_fract_x
 _atom_site_fract_y
 _atom_site_fract_z
 _atom_site_occupancy
  Mn  Mn0  1  0.239333  0.025017  0.415702  1
  Mn  Mn1  1  0.464216  0.738134  0.172158  1
  Mn  Mn2  1  0.671005  0.512566  0.891433  1
  Mn  Mn3  1  0.970071  0.301630  0.635709  1
  Mn  Mn4  1  0.980838  0.986945  0.001517  1
  O  O5  1  0.597123  0.750198  0.990000  1
  F  F6  1  0.972713  0.932296  0.796893  1
  F  F7  1  0.047406  0.199952  0.468073  1
  F  F8  1  0.567391  0.113349  0.590830  1
  F  F9  1  0.460544  0.370617  0.288589  1
  F  F10  1  0.371759  0.464999  0.711409  1
  F  F11  1  0.393298  0.150188  0.029618  1
  F  F12  1  0.385293  0.832217  0.338017  1
  F  F13  1  0.046111  0.619284  0.077516  1
  F  F14  1  0.911124  0.988383  0.201361  1
  F  F15  1  0.987045  0.677701  0.524496  1
  F  F16  1  0.898411  0.325432  0.853688  1
