# generated using pymatgen
data_Rb2MgO2
_symmetry_space_group_name_H-M   'P 1'
_cell_length_a   5.63648052
_cell_length_b   6.52831284
_cell_length_c   10.93176622
_cell_angle_alpha   90.00000000
_cell_angle_beta   90.00000000
_cell_angle_gamma   90.00000000
_symmetry_Int_Tables_number   1
_chemical_formula_structural   Rb2MgO2
_chemical_formula_sum   'Rb8 Mg4 O8'
_cell_volume   402.25301117
_cell_formula_units_Z   4
loop_
 _symmetry_equiv_pos_site_id
 _symmetry_equiv_pos_as_xyz
  1  'x, y, z'
loop_
 _atom_site_type_symbol
 _atom_site_label
 _atom_site_symmetry_multiplicity
 _atom_site_fract_x
 _atom_site_fract_y
 _atom_site_fract_z
 _atom_site_occupancy
  Rb  Rb0  1  0.438286  0.637735  0.155567  1
  Rb  Rb1  1  0.938286  0.362265  0.155567  1
  Rb  Rb2  1  0.938286  0.862265  0.344433  1
  Rb  Rb3  1  0.438286  0.137735  0.344433  1
  Rb  Rb4  1  0.561714  0.862265  0.655567  1
  Rb  Rb5  1  0.061714  0.137735  0.655567  1
  Rb  Rb6  1  0.061714  0.637735  0.844433  1
  Rb  Rb7  1  0.561714  0.362265  0.844433  1
  Mg  Mg8  1  0.750000  0.987243  0.000000  1
  Mg  Mg9  1  0.250000  0.012757  0.000000  1
  Mg  Mg10  1  0.250000  0.512757  0.500000  1
  Mg  Mg11  1  0.750000  0.487243  0.500000  1
  O  O12  1  0.005745  0.834454  0.090670  1
  O  O13  1  0.505745  0.165546  0.090670  1
  O  O14  1  0.505745  0.665546  0.409330  1
  O  O15  1  0.005745  0.334454  0.409330  1
  O  O16  1  0.994255  0.665546  0.590670  1
  O  O17  1  0.494255  0.334454  0.590670  1
  O  O18  1  0.494255  0.834454  0.909330  1
  O  O19  1  0.994255  0.165546  0.909330  1
