# generated using pymatgen
data_BeAlSiHO5
_symmetry_space_group_name_H-M   'P 1'
_cell_length_a   4.67872376
_cell_length_b   14.49403696
_cell_length_c   4.82858346
_cell_angle_alpha   90.00000000
_cell_angle_beta   100.31384202
_cell_angle_gamma   90.00000000
_symmetry_Int_Tables_number   1
_chemical_formula_structural   BeAlSiHO5
_chemical_formula_sum   'Be4 Al4 Si4 H4 O20'
_cell_volume   322.15270849
_cell_formula_units_Z   4
loop_
 _symmetry_equiv_pos_site_id
 _symmetry_equiv_pos_as_xyz
  1  'x, y, z'
loop_
 _atom_site_type_symbol
 _atom_site_label
 _atom_site_symmetry_multiplicity
 _atom_site_fract_x
 _atom_site_fract_y
 _atom_site_fract_z
 _atom_site_occupancy
  Be  Be0  1  0.542725  0.300899  0.824945  1
  Be  Be1  1  0.457275  0.800899  0.675055  1
  Be  Be2  1  0.542725  0.199101  0.324945  1
  Be  Be3  1  0.457275  0.699101  0.175055  1
  Al  Al4  1  0.041831  0.444746  0.750591  1
  Al  Al5  1  0.958169  0.944746  0.749409  1
  Al  Al6  1  0.041831  0.055254  0.250591  1
  Al  Al7  1  0.958169  0.555254  0.249409  1
  Si  Si8  1  0.462500  0.100458  0.822783  1
  Si  Si9  1  0.537500  0.600458  0.677217  1
  Si  Si10  1  0.462500  0.399542  0.322783  1
  Si  Si11  1  0.537500  0.899542  0.177217  1
  H  H12  1  0.014050  0.294886  0.967378  1
  H  H13  1  0.985950  0.794886  0.532622  1
  H  H14  1  0.014050  0.205114  0.467378  1
  H  H15  1  0.985950  0.705114  0.032622  1
  O  O16  1  0.653805  0.876019  0.880164  1
  O  O17  1  0.786641  0.052341  0.899733  1
  O  O18  1  0.526089  0.700124  0.844770  1
  O  O19  1  0.765281  0.533029  0.882471  1
  O  O20  1  0.876263  0.332155  0.838109  1
  O  O21  1  0.123737  0.832155  0.661891  1
  O  O22  1  0.234719  0.033029  0.617529  1
  O  O23  1  0.473911  0.200124  0.655230  1
  O  O24  1  0.213359  0.552341  0.600267  1
  O  O25  1  0.346195  0.376019  0.619836  1
  O  O26  1  0.653805  0.623981  0.380164  1
  O  O27  1  0.786641  0.447659  0.399733  1
  O  O28  1  0.526089  0.799876  0.344770  1
  O  O29  1  0.765281  0.966971  0.382471  1
  O  O30  1  0.876263  0.167845  0.338109  1
  O  O31  1  0.123737  0.667845  0.161891  1
  O  O32  1  0.234719  0.466971  0.117529  1
  O  O33  1  0.473911  0.299876  0.155230  1
  O  O34  1  0.213359  0.947659  0.100267  1
  O  O35  1  0.346195  0.123981  0.119836  1
