# generated using pymatgen
data_CsTi(NbCl3)6
_symmetry_space_group_name_H-M   'P 1'
_cell_length_a   9.20418683
_cell_length_b   9.20418683
_cell_length_c   17.19844899
_cell_angle_alpha   90.00000000
_cell_angle_beta   90.00000000
_cell_angle_gamma   120.00000000
_symmetry_Int_Tables_number   1
_chemical_formula_structural   CsTi(NbCl3)6
_chemical_formula_sum   'Cs2 Ti2 Nb12 Cl36'
_cell_volume   1261.80070316
_cell_formula_units_Z   2
loop_
 _symmetry_equiv_pos_site_id
 _symmetry_equiv_pos_as_xyz
  1  'x, y, z'
loop_
 _atom_site_type_symbol
 _atom_site_label
 _atom_site_symmetry_multiplicity
 _atom_site_fract_x
 _atom_site_fract_y
 _atom_site_fract_z
 _atom_site_occupancy
  Cs  Cs0  1  0.666667  0.333333  0.250000  1
  Cs  Cs1  1  0.333333  0.666667  0.750000  1
  Ti  Ti2  1  0.666667  0.333333  0.750000  1
  Ti  Ti3  1  0.333333  0.666667  0.250000  1
  Nb  Nb4  1  0.953868  0.797808  0.569440  1
  Nb  Nb5  1  0.843940  0.797808  0.930560  1
  Nb  Nb6  1  0.953868  0.156060  0.930560  1
  Nb  Nb7  1  0.843940  0.046132  0.569440  1
  Nb  Nb8  1  0.797808  0.953868  0.069440  1
  Nb  Nb9  1  0.797808  0.843940  0.430560  1
  Nb  Nb10  1  0.202192  0.156060  0.569440  1
  Nb  Nb11  1  0.202192  0.046132  0.930560  1
  Nb  Nb12  1  0.156060  0.953868  0.430560  1
  Nb  Nb13  1  0.046132  0.843940  0.069440  1
  Nb  Nb14  1  0.156060  0.202192  0.069440  1
  Nb  Nb15  1  0.046132  0.202192  0.430560  1
  Cl  Cl16  1  0.946210  0.759009  0.337844  1
  Cl  Cl17  1  0.812798  0.759009  0.162156  1
  Cl  Cl18  1  0.863979  0.576930  0.002044  1
  Cl  Cl19  1  0.897083  0.538997  0.666234  1
  Cl  Cl20  1  0.712951  0.576930  0.497956  1
  Cl  Cl21  1  0.897083  0.358087  0.833766  1
  Cl  Cl22  1  0.641913  0.538997  0.833766  1
  Cl  Cl23  1  0.863979  0.287049  0.497956  1
  Cl  Cl24  1  0.946210  0.187202  0.162156  1
  Cl  Cl25  1  0.812798  0.053790  0.337844  1
  Cl  Cl26  1  0.712951  0.136021  0.002044  1
  Cl  Cl27  1  0.461003  0.358087  0.666234  1
  Cl  Cl28  1  0.641913  0.102917  0.666234  1
  Cl  Cl29  1  0.423070  0.287049  0.002044  1
  Cl  Cl30  1  0.759009  0.946210  0.837844  1
  Cl  Cl31  1  0.759009  0.812798  0.662156  1
  Cl  Cl32  1  0.461003  0.102917  0.833766  1
  Cl  Cl33  1  0.423070  0.136021  0.497956  1
  Cl  Cl34  1  0.576930  0.863979  0.502044  1
  Cl  Cl35  1  0.538997  0.897083  0.166234  1
  Cl  Cl36  1  0.240991  0.187202  0.337844  1
  Cl  Cl37  1  0.240991  0.053790  0.162156  1
  Cl  Cl38  1  0.576930  0.712951  0.997956  1
  Cl  Cl39  1  0.358087  0.897083  0.333766  1
  Cl  Cl40  1  0.538997  0.641913  0.333766  1
  Cl  Cl41  1  0.287049  0.863979  0.997956  1
  Cl  Cl42  1  0.187202  0.946210  0.662156  1
  Cl  Cl43  1  0.053790  0.812798  0.837844  1
  Cl  Cl44  1  0.136021  0.712951  0.502044  1
  Cl  Cl45  1  0.358087  0.461003  0.166234  1
  Cl  Cl46  1  0.102917  0.641913  0.166234  1
  Cl  Cl47  1  0.287049  0.423070  0.502044  1
  Cl  Cl48  1  0.102917  0.461003  0.333766  1
  Cl  Cl49  1  0.136021  0.423070  0.997956  1
  Cl  Cl50  1  0.187202  0.240991  0.837844  1
  Cl  Cl51  1  0.053790  0.240991  0.662156  1
