# generated using pymatgen
data_BH4NF4
_symmetry_space_group_name_H-M   'P 1'
_cell_length_a   5.78110748
_cell_length_b   7.23209897
_cell_length_c   8.95012047
_cell_angle_alpha   90.00000000
_cell_angle_beta   90.00000000
_cell_angle_gamma   90.00000000
_symmetry_Int_Tables_number   1
_chemical_formula_structural   BH4NF4
_chemical_formula_sum   'B4 H16 N4 F16'
_cell_volume   374.20043279
_cell_formula_units_Z   4
loop_
 _symmetry_equiv_pos_site_id
 _symmetry_equiv_pos_as_xyz
  1  'x, y, z'
loop_
 _atom_site_type_symbol
 _atom_site_label
 _atom_site_symmetry_multiplicity
 _atom_site_fract_x
 _atom_site_fract_y
 _atom_site_fract_z
 _atom_site_occupancy
  B  B0  1  0.250000  0.809087  0.573189  1
  B  B1  1  0.250000  0.690913  0.073189  1
  B  B2  1  0.750000  0.190913  0.426811  1
  B  B3  1  0.750000  0.309087  0.926811  1
  H  H4  1  0.250000  0.379032  0.804356  1
  H  H5  1  0.250000  0.120968  0.304356  1
  H  H6  1  0.750000  0.620968  0.195644  1
  H  H7  1  0.750000  0.879032  0.695644  1
  H  H8  1  0.250000  0.202123  0.681556  1
  H  H9  1  0.250000  0.297877  0.181556  1
  H  H10  1  0.750000  0.797877  0.318444  1
  H  H11  1  0.750000  0.702123  0.818444  1
  H  H12  1  0.105354  0.399035  0.642824  1
  H  H13  1  0.394646  0.100965  0.142824  1
  H  H14  1  0.605354  0.600965  0.357176  1
  H  H15  1  0.894646  0.899035  0.857176  1
  H  H16  1  0.894646  0.600965  0.357176  1
  H  H17  1  0.605354  0.899035  0.857176  1
  H  H18  1  0.394646  0.399035  0.642824  1
  H  H19  1  0.105354  0.100965  0.142824  1
  N  N20  1  0.250000  0.343936  0.692557  1
  N  N21  1  0.250000  0.156064  0.192557  1
  N  N22  1  0.750000  0.656064  0.307443  1
  N  N23  1  0.750000  0.843936  0.807443  1
  F  F24  1  0.250000  0.916816  0.441952  1
  F  F25  1  0.250000  0.583184  0.941952  1
  F  F26  1  0.750000  0.083184  0.558048  1
  F  F27  1  0.750000  0.416816  0.058048  1
  F  F28  1  0.250000  0.926575  0.700931  1
  F  F29  1  0.250000  0.573425  0.200931  1
  F  F30  1  0.750000  0.073425  0.299069  1
  F  F31  1  0.750000  0.426575  0.799069  1
  F  F32  1  0.049886  0.694966  0.576002  1
  F  F33  1  0.450114  0.805034  0.076002  1
  F  F34  1  0.549886  0.305034  0.423998  1
  F  F35  1  0.950114  0.194966  0.923998  1
  F  F36  1  0.950114  0.305034  0.423998  1
  F  F37  1  0.549886  0.194966  0.923998  1
  F  F38  1  0.450114  0.694966  0.576002  1
  F  F39  1  0.049886  0.805034  0.076002  1
