# generated using pymatgen
data_Ca3Hf2Fe2SiO12
_symmetry_space_group_name_H-M   'P 1'
_cell_length_a   10.99890259
_cell_length_b   10.99890259
_cell_length_c   10.99890259
_cell_angle_alpha   109.03564305
_cell_angle_beta   109.03564305
_cell_angle_gamma   110.34593274
_symmetry_Int_Tables_number   1
_chemical_formula_structural   Ca3Hf2Fe2SiO12
_chemical_formula_sum   'Ca12 Hf8 Fe8 Si4 O48'
_cell_volume   1024.11828573
_cell_formula_units_Z   4
loop_
 _symmetry_equiv_pos_site_id
 _symmetry_equiv_pos_as_xyz
  1  'x, y, z'
loop_
 _atom_site_type_symbol
 _atom_site_label
 _atom_site_symmetry_multiplicity
 _atom_site_fract_x
 _atom_site_fract_y
 _atom_site_fract_z
 _atom_site_occupancy
  Ca  Ca0  1  0.250657  0.625000  0.125657  1
  Ca  Ca1  1  1.000000  0.500000  0.500000  1
  Ca  Ca2  1  0.875000  0.249343  0.874343  1
  Ca  Ca3  1  0.375000  0.000657  0.125657  1
  Ca  Ca4  1  0.750657  0.625000  0.625657  1
  Ca  Ca5  1  0.500000  1.000000  0.500000  1
  Ca  Ca6  1  0.750000  0.750000  0.000000  1
  Ca  Ca7  1  0.499343  0.125000  0.874343  1
  Ca  Ca8  1  0.875000  0.749343  0.374343  1
  Ca  Ca9  1  0.375000  0.500657  0.625657  1
  Ca  Ca10  1  0.250000  0.250000  0.000000  1
  Ca  Ca11  1  0.999343  0.125000  0.374343  1
  Hf  Hf12  1  0.125000  0.375000  0.750000  1
  Hf  Hf13  1  0.625000  0.875000  0.250000  1
  Hf  Hf14  1  0.125000  0.375000  0.250000  1
  Hf  Hf15  1  0.625000  0.875000  0.750000  1
  Hf  Hf16  1  0.625000  0.375000  0.750000  1
  Hf  Hf17  1  0.125000  0.875000  0.250000  1
  Hf  Hf18  1  0.625000  0.375000  0.250000  1
  Hf  Hf19  1  0.125000  0.875000  0.750000  1
  Fe  Fe20  1  0.375000  0.750681  0.875681  1
  Fe  Fe21  1  0.749319  0.125000  0.124319  1
  Fe  Fe22  1  0.000681  0.625000  0.875681  1
  Fe  Fe23  1  0.875000  0.499319  0.124319  1
  Fe  Fe24  1  0.375000  0.250681  0.375681  1
  Fe  Fe25  1  0.249319  0.125000  0.624319  1
  Fe  Fe26  1  0.500681  0.625000  0.375681  1
  Fe  Fe27  1  0.875000  0.999319  0.624319  1
  Si  Si28  1  0.750000  0.250000  0.500000  1
  Si  Si29  1  0.250000  0.750000  0.500000  1
  Si  Si30  1  1.000000  1.000000  0.000000  1
  Si  Si31  1  0.500000  0.500000  0.000000  1
  O  O32  1  0.212023  0.575712  0.448263  1
  O  O33  1  0.422294  0.797776  0.073602  1
  O  O34  1  0.501248  0.781446  0.335703  1
  O  O35  1  0.218554  0.554257  0.719802  1
  O  O36  1  0.945743  0.281446  0.280198  1
  O  O37  1  0.924288  0.287977  0.551737  1
  O  O38  1  0.047776  0.474173  0.875482  1
  O  O39  1  0.001248  0.665545  0.719802  1
  O  O40  1  0.151309  0.775827  0.073602  1
  O  O41  1  0.236240  0.787977  0.363689  1
  O  O42  1  0.598691  0.172294  0.124518  1
  O  O43  1  0.718554  0.998752  0.664297  1
  O  O44  1  0.025827  0.452224  0.124518  1
  O  O45  1  0.627449  0.075712  0.363690  1
  O  O46  1  0.736240  0.372551  0.448263  1
  O  O47  1  0.327706  0.901309  0.875482  1
  O  O48  1  0.712023  0.263760  0.636310  1
  O  O49  1  0.702224  0.077706  0.926398  1
  O  O50  1  0.127449  0.763760  0.551737  1
  O  O51  1  0.804257  0.584455  0.835703  1
  O  O52  1  0.915545  0.695743  0.164297  1
  O  O53  1  0.724173  0.348691  0.926398  1
  O  O54  1  0.415545  0.251248  0.219802  1
  O  O55  1  0.424288  0.872551  0.636310  1
  O  O56  1  0.834455  0.498752  0.280198  1
  O  O57  1  0.825712  0.877449  0.863690  1
  O  O58  1  0.525827  0.401309  0.573602  1
  O  O59  1  0.334455  0.054257  0.335703  1
  O  O60  1  0.445743  0.165545  0.664297  1
  O  O61  1  0.122551  0.986240  0.948263  1
  O  O62  1  0.547776  0.672294  0.573602  1
  O  O63  1  0.537977  0.486240  0.863690  1
  O  O64  1  0.922294  0.848691  0.624518  1
  O  O65  1  0.513760  0.377449  0.051737  1
  O  O66  1  0.622551  0.674288  0.136310  1
  O  O67  1  0.224173  0.297776  0.375482  1
  O  O68  1  0.531446  0.751248  0.835703  1
  O  O69  1  0.651309  0.577706  0.375482  1
  O  O70  1  0.013760  0.962023  0.136310  1
  O  O71  1  0.098691  0.974173  0.426398  1
  O  O72  1  0.248752  0.084455  0.780198  1
  O  O73  1  0.202224  0.275827  0.624518  1
  O  O74  1  0.325712  0.462023  0.948263  1
  O  O75  1  0.304257  0.468554  0.219802  1
  O  O76  1  0.031446  0.195743  0.780198  1
  O  O77  1  0.748752  0.968554  0.164297  1
  O  O78  1  0.827706  0.952224  0.426398  1
  O  O79  1  0.037977  0.174288  0.051737  1
