# generated using pymatgen
data_Li2Sn2(SO4)3
_symmetry_space_group_name_H-M   'P 1'
_cell_length_a   9.10033169
_cell_length_b   9.67083387
_cell_length_c   13.62643436
_cell_angle_alpha   90.00000000
_cell_angle_beta   90.00000000
_cell_angle_gamma   90.00000000
_symmetry_Int_Tables_number   1
_chemical_formula_structural   Li2Sn2(SO4)3
_chemical_formula_sum   'Li8 Sn8 S12 O48'
_cell_volume   1199.23245449
_cell_formula_units_Z   4
loop_
 _symmetry_equiv_pos_site_id
 _symmetry_equiv_pos_as_xyz
  1  'x, y, z'
loop_
 _atom_site_type_symbol
 _atom_site_label
 _atom_site_symmetry_multiplicity
 _atom_site_fract_x
 _atom_site_fract_y
 _atom_site_fract_z
 _atom_site_occupancy
  Li  Li0  1  0.212507  0.276609  0.181630  1
  Li  Li1  1  0.787493  0.776609  0.181630  1
  Li  Li2  1  0.287493  0.776609  0.318370  1
  Li  Li3  1  0.712507  0.276609  0.318370  1
  Li  Li4  1  0.287493  0.723391  0.681630  1
  Li  Li5  1  0.712507  0.223391  0.681630  1
  Li  Li6  1  0.212507  0.223391  0.818370  1
  Li  Li7  1  0.787493  0.723391  0.818370  1
  Sn  Sn8  1  0.249931  0.950048  0.099882  1
  Sn  Sn9  1  0.750069  0.450048  0.099882  1
  Sn  Sn10  1  0.749931  0.950048  0.400118  1
  Sn  Sn11  1  0.250069  0.450048  0.400118  1
  Sn  Sn12  1  0.250069  0.049952  0.599882  1
  Sn  Sn13  1  0.749931  0.549952  0.599882  1
  Sn  Sn14  1  0.249931  0.549952  0.900118  1
  Sn  Sn15  1  0.750069  0.049952  0.900118  1
  S  S16  1  0.438286  0.250000  0.000000  1
  S  S17  1  0.561714  0.750000  0.000000  1
  S  S18  1  0.102569  0.603746  0.150860  1
  S  S19  1  0.897431  0.103746  0.150860  1
  S  S20  1  0.397431  0.103746  0.349140  1
  S  S21  1  0.602569  0.603746  0.349140  1
  S  S22  1  0.061714  0.750000  0.500000  1
  S  S23  1  0.938286  0.250000  0.500000  1
  S  S24  1  0.397431  0.396254  0.650860  1
  S  S25  1  0.602569  0.896254  0.650860  1
  S  S26  1  0.102569  0.896254  0.849140  1
  S  S27  1  0.897431  0.396254  0.849140  1
  O  O28  1  0.129199  0.597011  0.042391  1
  O  O29  1  0.870801  0.097011  0.042391  1
  O  O30  1  0.529487  0.363336  0.040635  1
  O  O31  1  0.470513  0.863336  0.040635  1
  O  O32  1  0.342652  0.193205  0.079755  1
  O  O33  1  0.657348  0.693205  0.079755  1
  O  O34  1  0.057014  0.130193  0.166632  1
  O  O35  1  0.942986  0.630193  0.166632  1
  O  O36  1  0.189342  0.721024  0.192862  1
  O  O37  1  0.810658  0.221024  0.192862  1
  O  O38  1  0.853471  0.971283  0.197582  1
  O  O39  1  0.146529  0.471283  0.197582  1
  O  O40  1  0.353471  0.971283  0.302418  1
  O  O41  1  0.646529  0.471283  0.302418  1
  O  O42  1  0.689342  0.721024  0.307138  1
  O  O43  1  0.310658  0.221024  0.307138  1
  O  O44  1  0.442986  0.630193  0.333368  1
  O  O45  1  0.557014  0.130193  0.333368  1
  O  O46  1  0.157348  0.693205  0.420245  1
  O  O47  1  0.842652  0.193205  0.420245  1
  O  O48  1  0.029487  0.363336  0.459365  1
  O  O49  1  0.970513  0.863336  0.459365  1
  O  O50  1  0.629199  0.597011  0.457609  1
  O  O51  1  0.370801  0.097011  0.457609  1
  O  O52  1  0.370801  0.402989  0.542391  1
  O  O53  1  0.629199  0.902989  0.542391  1
  O  O54  1  0.029487  0.136664  0.540635  1
  O  O55  1  0.970513  0.636664  0.540635  1
  O  O56  1  0.157348  0.806795  0.579755  1
  O  O57  1  0.842652  0.306795  0.579755  1
  O  O58  1  0.442986  0.869807  0.666632  1
  O  O59  1  0.557014  0.369807  0.666632  1
  O  O60  1  0.310658  0.278976  0.692862  1
  O  O61  1  0.689342  0.778976  0.692862  1
  O  O62  1  0.353471  0.528717  0.697582  1
  O  O63  1  0.646529  0.028717  0.697582  1
  O  O64  1  0.146529  0.028717  0.802418  1
  O  O65  1  0.853471  0.528717  0.802418  1
  O  O66  1  0.189342  0.778976  0.807138  1
  O  O67  1  0.810658  0.278976  0.807138  1
  O  O68  1  0.057014  0.369807  0.833368  1
  O  O69  1  0.942986  0.869807  0.833368  1
  O  O70  1  0.342652  0.306795  0.920245  1
  O  O71  1  0.657348  0.806795  0.920245  1
  O  O72  1  0.470513  0.636664  0.959365  1
  O  O73  1  0.529487  0.136664  0.959365  1
  O  O74  1  0.129199  0.902989  0.957609  1
  O  O75  1  0.870801  0.402989  0.957609  1
