# generated using pymatgen
data_Li7Ti2P7O24
_symmetry_space_group_name_H-M   'P 1'
_cell_length_a   11.75608318
_cell_length_b   5.17231363
_cell_length_c   15.28489600
_cell_angle_alpha   90.00000000
_cell_angle_beta   97.37278960
_cell_angle_gamma   90.00000000
_symmetry_Int_Tables_number   1
_chemical_formula_structural   Li7Ti2P7O24
_chemical_formula_sum   'Li14 Ti4 P14 O48'
_cell_volume   921.73146110
_cell_formula_units_Z   2
loop_
 _symmetry_equiv_pos_site_id
 _symmetry_equiv_pos_as_xyz
  1  'x, y, z'
loop_
 _atom_site_type_symbol
 _atom_site_label
 _atom_site_symmetry_multiplicity
 _atom_site_fract_x
 _atom_site_fract_y
 _atom_site_fract_z
 _atom_site_occupancy
  Li  Li0  1  0.482071  0.275688  0.942101  1
  Li  Li1  1  0.111387  0.181870  0.862062  1
  Li  Li2  1  0.982071  0.724312  0.942101  1
  Li  Li3  1  0.611387  0.818130  0.862062  1
  Li  Li4  1  0.448531  0.848777  0.589147  1
  Li  Li5  1  0.948531  0.151223  0.589147  1
  Li  Li6  1  0.250000  0.291297  0.500000  1
  Li  Li7  1  0.750000  0.708703  0.500000  1
  Li  Li8  1  0.051469  0.848777  0.410853  1
  Li  Li9  1  0.551469  0.151223  0.410853  1
  Li  Li10  1  0.388613  0.181870  0.137938  1
  Li  Li11  1  0.017929  0.275688  0.057899  1
  Li  Li12  1  0.888613  0.818130  0.137938  1
  Li  Li13  1  0.517929  0.724312  0.057899  1
  Ti  Ti14  1  0.312430  0.354291  0.722235  1
  Ti  Ti15  1  0.812430  0.645709  0.722235  1
  Ti  Ti16  1  0.187570  0.354291  0.277765  1
  Ti  Ti17  1  0.687570  0.645709  0.277765  1
  P  P18  1  0.250000  0.572756  0.000000  1
  P  P19  1  0.750000  0.427244  0.000000  1
  P  P20  1  0.344699  0.873652  0.862220  1
  P  P21  1  0.844699  0.126348  0.862220  1
  P  P22  1  0.050385  0.616364  0.724333  1
  P  P23  1  0.550385  0.383636  0.724333  1
  P  P24  1  0.197587  0.844249  0.607380  1
  P  P25  1  0.697587  0.155751  0.607380  1
  P  P26  1  0.302413  0.844249  0.392620  1
  P  P27  1  0.802413  0.155751  0.392620  1
  P  P28  1  0.449615  0.616364  0.275667  1
  P  P29  1  0.949615  0.383636  0.275667  1
  P  P30  1  0.155301  0.873652  0.137780  1
  P  P31  1  0.655301  0.126348  0.137780  1
  O  O32  1  0.137542  0.428870  0.985937  1
  O  O33  1  0.637542  0.571130  0.985937  1
  O  O34  1  0.244246  0.772527  0.919176  1
  O  O35  1  0.456359  0.898447  0.922900  1
  O  O36  1  0.744246  0.227473  0.919176  1
  O  O37  1  0.956359  0.101553  0.922900  1
  O  O38  1  0.288179  0.131983  0.829689  1
  O  O39  1  0.994415  0.738049  0.799067  1
  O  O40  1  0.350660  0.679600  0.789739  1
  O  O41  1  0.788179  0.868017  0.829689  1
  O  O42  1  0.494415  0.261951  0.799067  1
  O  O43  1  0.136959  0.403443  0.752239  1
  O  O44  1  0.850660  0.320400  0.789739  1
  O  O45  1  0.636959  0.596557  0.752239  1
  O  O46  1  0.114632  0.859264  0.684952  1
  O  O47  1  0.614632  0.140736  0.684952  1
  O  O48  1  0.299531  0.025261  0.638022  1
  O  O49  1  0.453295  0.472986  0.652493  1
  O  O50  1  0.232964  0.557879  0.602956  1
  O  O51  1  0.799531  0.974739  0.638022  1
  O  O52  1  0.953295  0.527014  0.652493  1
  O  O53  1  0.732964  0.442121  0.602956  1
  O  O54  1  0.124657  0.950090  0.525791  1
  O  O55  1  0.624657  0.049910  0.525791  1
  O  O56  1  0.375343  0.950090  0.474209  1
  O  O57  1  0.875343  0.049910  0.474209  1
  O  O58  1  0.267036  0.557879  0.397044  1
  O  O59  1  0.046705  0.472986  0.347507  1
  O  O60  1  0.200469  0.025261  0.361978  1
  O  O61  1  0.767036  0.442121  0.397044  1
  O  O62  1  0.546705  0.527014  0.347507  1
  O  O63  1  0.700469  0.974739  0.361978  1
  O  O64  1  0.385368  0.859264  0.315048  1
  O  O65  1  0.885368  0.140736  0.315048  1
  O  O66  1  0.363041  0.403443  0.247761  1
  O  O67  1  0.149340  0.679600  0.210261  1
  O  O68  1  0.863041  0.596557  0.247761  1
  O  O69  1  0.505585  0.738049  0.200933  1
  O  O70  1  0.211821  0.131983  0.170311  1
  O  O71  1  0.649340  0.320400  0.210261  1
  O  O72  1  0.005585  0.261951  0.200933  1
  O  O73  1  0.711821  0.868017  0.170311  1
  O  O74  1  0.043641  0.898447  0.077100  1
  O  O75  1  0.255754  0.772527  0.080824  1
  O  O76  1  0.543641  0.101553  0.077100  1
  O  O77  1  0.755754  0.227473  0.080824  1
  O  O78  1  0.362458  0.428870  0.014063  1
  O  O79  1  0.862458  0.571130  0.014063  1
