# generated using pymatgen
data_Li2V3WO8
_symmetry_space_group_name_H-M   'P 1'
_cell_length_a   6.09553985
_cell_length_b   6.09553985
_cell_length_c   6.09553985
_cell_angle_alpha   59.57507334
_cell_angle_beta   59.57507334
_cell_angle_gamma   59.57507334
_symmetry_Int_Tables_number   1
_chemical_formula_structural   Li2V3WO8
_chemical_formula_sum   'Li2 V3 W1 O8'
_cell_volume   158.60104362
_cell_formula_units_Z   1
loop_
 _symmetry_equiv_pos_site_id
 _symmetry_equiv_pos_as_xyz
  1  'x, y, z'
loop_
 _atom_site_type_symbol
 _atom_site_label
 _atom_site_symmetry_multiplicity
 _atom_site_fract_x
 _atom_site_fract_y
 _atom_site_fract_z
 _atom_site_occupancy
  Li  Li0  1  0.871126  0.871126  0.871126  1
  Li  Li1  1  0.128874  0.128874  0.128874  1
  V  V2  1  0.500000  0.500000  0.000000  1
  V  V3  1  1.000000  0.500000  0.500000  1
  V  V4  1  0.500000  0.000000  0.500000  1
  W  W5  1  0.500000  0.500000  0.500000  1
  O  O6  1  0.735024  0.735024  0.735024  1
  O  O7  1  0.734342  0.282188  0.734342  1
  O  O8  1  0.282188  0.734342  0.734342  1
  O  O9  1  0.734342  0.734342  0.282188  1
  O  O10  1  0.265658  0.265658  0.717812  1
  O  O11  1  0.717812  0.265658  0.265658  1
  O  O12  1  0.265658  0.717812  0.265658  1
  O  O13  1  0.264976  0.264976  0.264976  1
