# generated using pymatgen
data_LiFeF4
_symmetry_space_group_name_H-M   'P 1'
_cell_length_a   7.95013813
_cell_length_b   7.95013813
_cell_length_c   12.54811658
_cell_angle_alpha   60.12777231
_cell_angle_beta   119.87222769
_cell_angle_gamma   151.39284456
_symmetry_Int_Tables_number   1
_chemical_formula_structural   LiFeF4
_chemical_formula_sum   'Li4 Fe4 F16'
_cell_volume   325.73472290
_cell_formula_units_Z   4
loop_
 _symmetry_equiv_pos_site_id
 _symmetry_equiv_pos_as_xyz
  1  'x, y, z'
loop_
 _atom_site_type_symbol
 _atom_site_label
 _atom_site_symmetry_multiplicity
 _atom_site_fract_x
 _atom_site_fract_y
 _atom_site_fract_z
 _atom_site_occupancy
  Li  Li0  1  0.193924  0.806076  0.162518  1
  Li  Li1  1  0.343943  0.656057  0.677507  1
  Li  Li2  1  0.656057  0.343943  0.322493  1
  Li  Li3  1  0.806076  0.193924  0.837482  1
  Fe  Fe4  1  0.964829  0.035171  0.133255  1
  Fe  Fe5  1  0.862102  0.137898  0.360946  1
  Fe  Fe6  1  0.137898  0.862102  0.639054  1
  Fe  Fe7  1  0.035171  0.964829  0.866745  1
  F  F8  1  0.486998  0.513002  0.155907  1
  F  F9  1  0.927182  0.072818  0.259248  1
  F  F10  1  0.831877  0.168123  0.001297  1
  F  F11  1  0.353837  0.646163  0.344436  1
  F  F12  1  0.725030  0.274970  0.214045  1
  F  F13  1  0.798997  0.201003  0.455919  1
  F  F14  1  0.885295  0.114705  0.744055  1
  F  F15  1  0.114705  0.885295  0.255945  1
  F  F16  1  0.201003  0.798997  0.544081  1
  F  F17  1  0.274970  0.725030  0.785955  1
  F  F18  1  0.646163  0.353837  0.655564  1
  F  F19  1  0.168123  0.831877  0.998703  1
  F  F20  1  0.000000  0.000000  0.500000  1
  F  F21  1  0.072818  0.927182  0.740752  1
  F  F22  1  0.513002  0.486998  0.844093  1
  F  F23  1  0.000000  0.000000  0.000000  1
