# generated using pymatgen
data_LiPrPCO7
_symmetry_space_group_name_H-M   'P 1'
_cell_length_a   4.94248266
_cell_length_b   7.08894719
_cell_length_c   9.49011183
_cell_angle_alpha   90.00000000
_cell_angle_beta   94.82218368
_cell_angle_gamma   90.00000000
_symmetry_Int_Tables_number   1
_chemical_formula_structural   LiPrPCO7
_chemical_formula_sum   'Li2 Pr2 P2 C2 O14'
_cell_volume   331.32809550
_cell_formula_units_Z   2
loop_
 _symmetry_equiv_pos_site_id
 _symmetry_equiv_pos_as_xyz
  1  'x, y, z'
loop_
 _atom_site_type_symbol
 _atom_site_label
 _atom_site_symmetry_multiplicity
 _atom_site_fract_x
 _atom_site_fract_y
 _atom_site_fract_z
 _atom_site_occupancy
  Li  Li0  1  0.749767  0.554748  0.225285  1
  Li  Li1  1  0.250233  0.054748  0.774715  1
  Pr  Pr2  1  0.237564  0.222619  0.372079  1
  Pr  Pr3  1  0.762436  0.722619  0.627921  1
  P  P4  1  0.272374  0.721179  0.396416  1
  P  P5  1  0.727626  0.221179  0.603584  1
  C  C6  1  0.279152  0.282730  0.059665  1
  C  C7  1  0.720848  0.782730  0.940335  1
  O  O8  1  0.687043  0.729792  0.064266  1
  O  O9  1  0.039914  0.295819  0.102801  1
  O  O10  1  0.477476  0.319628  0.153574  1
  O  O11  1  0.185977  0.906741  0.322548  1
  O  O12  1  0.105549  0.550718  0.337216  1
  O  O13  1  0.758507  0.236781  0.439311  1
  O  O14  1  0.580981  0.681396  0.388395  1
  O  O15  1  0.419019  0.181396  0.611605  1
  O  O16  1  0.241493  0.736781  0.560689  1
  O  O17  1  0.894451  0.050718  0.662784  1
  O  O18  1  0.814023  0.406741  0.677452  1
  O  O19  1  0.522524  0.819628  0.846426  1
  O  O20  1  0.960086  0.795819  0.897199  1
  O  O21  1  0.312957  0.229792  0.935734  1
