# generated using pymatgen
data_RbH2SNO3
_symmetry_space_group_name_H-M   'P 1'
_cell_length_a   7.54896435
_cell_length_b   7.95446821
_cell_length_c   14.81702285
_cell_angle_alpha   90.00000000
_cell_angle_beta   90.00000000
_cell_angle_gamma   90.00000000
_symmetry_Int_Tables_number   1
_chemical_formula_structural   RbH2SNO3
_chemical_formula_sum   'Rb8 H16 S8 N8 O24'
_cell_volume   889.73254276
_cell_formula_units_Z   8
loop_
 _symmetry_equiv_pos_site_id
 _symmetry_equiv_pos_as_xyz
  1  'x, y, z'
loop_
 _atom_site_type_symbol
 _atom_site_label
 _atom_site_symmetry_multiplicity
 _atom_site_fract_x
 _atom_site_fract_y
 _atom_site_fract_z
 _atom_site_occupancy
  Rb  Rb0  1  0.130592  0.857944  0.582728  1
  Rb  Rb1  1  0.130592  0.642056  0.082728  1
  Rb  Rb2  1  0.369408  0.357944  0.582728  1
  Rb  Rb3  1  0.369408  0.142056  0.082728  1
  Rb  Rb4  1  0.630592  0.857944  0.917272  1
  Rb  Rb5  1  0.630592  0.642056  0.417272  1
  Rb  Rb6  1  0.869408  0.357944  0.917272  1
  Rb  Rb7  1  0.869408  0.142056  0.417272  1
  H  H8  1  0.074080  0.473360  0.724745  1
  H  H9  1  0.074080  0.026640  0.224745  1
  H  H10  1  0.090502  0.102007  0.808602  1
  H  H11  1  0.090502  0.397993  0.308602  1
  H  H12  1  0.409498  0.602007  0.808602  1
  H  H13  1  0.409498  0.897993  0.308602  1
  H  H14  1  0.425920  0.526640  0.224745  1
  H  H15  1  0.425920  0.973360  0.724745  1
  H  H16  1  0.574080  0.473360  0.775255  1
  H  H17  1  0.574080  0.026640  0.275255  1
  H  H18  1  0.590502  0.102007  0.691398  1
  H  H19  1  0.590502  0.397993  0.191398  1
  H  H20  1  0.909498  0.602007  0.691398  1
  H  H21  1  0.909498  0.897993  0.191398  1
  H  H22  1  0.925920  0.526640  0.275255  1
  H  H23  1  0.925920  0.973360  0.775255  1
  S  S24  1  0.123482  0.843506  0.863018  1
  S  S25  1  0.123482  0.656494  0.363018  1
  S  S26  1  0.376518  0.343506  0.863018  1
  S  S27  1  0.376518  0.156494  0.363018  1
  S  S28  1  0.623482  0.843506  0.636982  1
  S  S29  1  0.623482  0.656494  0.136982  1
  S  S30  1  0.876518  0.343506  0.636982  1
  S  S31  1  0.876518  0.156494  0.136982  1
  N  N32  1  0.003494  0.009264  0.829158  1
  N  N33  1  0.003494  0.490736  0.329158  1
  N  N34  1  0.496506  0.509264  0.829158  1
  N  N35  1  0.496506  0.990736  0.329158  1
  N  N36  1  0.503494  0.009264  0.670842  1
  N  N37  1  0.503494  0.490736  0.170842  1
  N  N38  1  0.996506  0.509264  0.670842  1
  N  N39  1  0.996506  0.990736  0.170842  1
  O  O40  1  0.007466  0.214223  0.613347  1
  O  O41  1  0.007466  0.285777  0.113347  1
  O  O42  1  0.226187  0.903978  0.940732  1
  O  O43  1  0.226187  0.596022  0.440732  1
  O  O44  1  0.239461  0.792137  0.786939  1
  O  O45  1  0.239461  0.707863  0.286939  1
  O  O46  1  0.260539  0.207863  0.286939  1
  O  O47  1  0.260539  0.292137  0.786939  1
  O  O48  1  0.273813  0.403978  0.940732  1
  O  O49  1  0.273813  0.096022  0.440732  1
  O  O50  1  0.492534  0.714223  0.613347  1
  O  O51  1  0.492534  0.785777  0.113347  1
  O  O52  1  0.507466  0.214223  0.886653  1
  O  O53  1  0.507466  0.285777  0.386653  1
  O  O54  1  0.726187  0.903978  0.559268  1
  O  O55  1  0.726187  0.596022  0.059268  1
  O  O56  1  0.739461  0.792137  0.713061  1
  O  O57  1  0.739461  0.707863  0.213061  1
  O  O58  1  0.760539  0.292137  0.713061  1
  O  O59  1  0.760539  0.207863  0.213061  1
  O  O60  1  0.773813  0.403978  0.559268  1
  O  O61  1  0.773813  0.096022  0.059268  1
  O  O62  1  0.992534  0.714223  0.886653  1
  O  O63  1  0.992534  0.785777  0.386653  1
