# generated using pymatgen
data_Li4MnF7
_symmetry_space_group_name_H-M   'P 1'
_cell_length_a   7.69026903
_cell_length_b   7.69026903
_cell_length_c   5.41395377
_cell_angle_alpha   78.97977754
_cell_angle_beta   101.02022246
_cell_angle_gamma   108.70911291
_symmetry_Int_Tables_number   1
_chemical_formula_structural   Li4MnF7
_chemical_formula_sum   'Li8 Mn2 F14'
_cell_volume   294.75431450
_cell_formula_units_Z   2
loop_
 _symmetry_equiv_pos_site_id
 _symmetry_equiv_pos_as_xyz
  1  'x, y, z'
loop_
 _atom_site_type_symbol
 _atom_site_label
 _atom_site_symmetry_multiplicity
 _atom_site_fract_x
 _atom_site_fract_y
 _atom_site_fract_z
 _atom_site_occupancy
  Li  Li0  1  0.057691  0.761138  0.830386  1
  Li  Li1  1  0.238862  0.942309  0.330386  1
  Li  Li2  1  0.420507  0.693969  0.758140  1
  Li  Li3  1  0.306031  0.579493  0.258140  1
  Li  Li4  1  0.693969  0.420507  0.741860  1
  Li  Li5  1  0.579493  0.306031  0.241860  1
  Li  Li6  1  0.761138  0.057691  0.669614  1
  Li  Li7  1  0.942309  0.238862  0.169614  1
  Mn  Mn8  1  0.239646  0.239646  0.750000  1
  Mn  Mn9  1  0.760354  0.760354  0.250000  1
  F  F10  1  0.186667  0.994486  0.642393  1
  F  F11  1  0.005514  0.813333  0.142393  1
  F  F12  1  0.214416  0.616597  0.921017  1
  F  F13  1  0.383403  0.785584  0.421017  1
  F  F14  1  0.663407  0.840804  0.918760  1
  F  F15  1  0.159196  0.336593  0.418760  1
  F  F16  1  0.451390  0.451390  0.750000  1
  F  F17  1  0.548610  0.548610  0.250000  1
  F  F18  1  0.840804  0.663407  0.581240  1
  F  F19  1  0.336593  0.159196  0.081240  1
  F  F20  1  0.616597  0.214416  0.578983  1
  F  F21  1  0.785584  0.383403  0.078983  1
  F  F22  1  0.994486  0.186667  0.857607  1
  F  F23  1  0.813333  0.005514  0.357607  1
