# generated using pymatgen
data_LiFeBO3
_symmetry_space_group_name_H-M   'P 1'
_cell_length_a   10.34733211
_cell_length_b   9.02972336
_cell_length_c   10.48650572
_cell_angle_alpha   90.00000000
_cell_angle_beta   91.35794491
_cell_angle_gamma   90.00000000
_symmetry_Int_Tables_number   1
_chemical_formula_structural   LiFeBO3
_chemical_formula_sum   'Li16 Fe16 B16 O48'
_cell_volume   979.51624816
_cell_formula_units_Z   16
loop_
 _symmetry_equiv_pos_site_id
 _symmetry_equiv_pos_as_xyz
  1  'x, y, z'
loop_
 _atom_site_type_symbol
 _atom_site_label
 _atom_site_symmetry_multiplicity
 _atom_site_fract_x
 _atom_site_fract_y
 _atom_site_fract_z
 _atom_site_occupancy
  Li  Li0  1  0.160847  0.759799  0.457774  1
  Li  Li1  1  0.660847  0.740201  0.457774  1
  Li  Li2  1  0.339153  0.259799  0.542226  1
  Li  Li3  1  0.839153  0.240201  0.542226  1
  Li  Li4  1  0.091208  0.244061  0.705235  1
  Li  Li5  1  0.591208  0.255939  0.705235  1
  Li  Li6  1  0.338671  0.758444  0.793507  1
  Li  Li7  1  0.838671  0.741556  0.793507  1
  Li  Li8  1  0.089655  0.743243  0.954984  1
  Li  Li9  1  0.589655  0.756757  0.954984  1
  Li  Li10  1  0.410345  0.243243  0.045016  1
  Li  Li11  1  0.910345  0.256757  0.045016  1
  Li  Li12  1  0.161329  0.258444  0.206493  1
  Li  Li13  1  0.661329  0.241556  0.206493  1
  Li  Li14  1  0.408792  0.744061  0.294765  1
  Li  Li15  1  0.908792  0.755939  0.294765  1
  Fe  Fe16  1  0.120247  0.086326  0.449324  1
  Fe  Fe17  1  0.620247  0.413674  0.449324  1
  Fe  Fe18  1  0.379753  0.586326  0.550676  1
  Fe  Fe19  1  0.879753  0.913674  0.550676  1
  Fe  Fe20  1  0.121982  0.584365  0.700847  1
  Fe  Fe21  1  0.621982  0.915635  0.700847  1
  Fe  Fe22  1  0.375268  0.089363  0.794325  1
  Fe  Fe23  1  0.875268  0.410637  0.794325  1
  Fe  Fe24  1  0.130152  0.084086  0.955448  1
  Fe  Fe25  1  0.630152  0.415914  0.955448  1
  Fe  Fe26  1  0.369848  0.584086  0.044552  1
  Fe  Fe27  1  0.869848  0.915914  0.044552  1
  Fe  Fe28  1  0.124732  0.589363  0.205675  1
  Fe  Fe29  1  0.624732  0.910637  0.205675  1
  Fe  Fe30  1  0.378018  0.084365  0.299153  1
  Fe  Fe31  1  0.878018  0.415635  0.299153  1
  B  B32  1  0.128967  0.416229  0.456805  1
  B  B33  1  0.628967  0.083771  0.456805  1
  B  B34  1  0.371033  0.916229  0.543195  1
  B  B35  1  0.871033  0.583771  0.543195  1
  B  B36  1  0.129908  0.917006  0.708091  1
  B  B37  1  0.629908  0.582994  0.708091  1
  B  B38  1  0.379258  0.416491  0.792970  1
  B  B39  1  0.879258  0.083509  0.792970  1
  B  B40  1  0.121088  0.416072  0.958294  1
  B  B41  1  0.621088  0.083928  0.958294  1
  B  B42  1  0.378912  0.916072  0.041706  1
  B  B43  1  0.878912  0.583928  0.041706  1
  B  B44  1  0.120742  0.916491  0.207030  1
  B  B45  1  0.620742  0.583509  0.207030  1
  B  B46  1  0.370092  0.417006  0.291909  1
  B  B47  1  0.870092  0.082994  0.291909  1
  O  O48  1  0.408843  0.412744  0.420262  1
  O  O49  1  0.908843  0.087256  0.420262  1
  O  O50  1  0.358416  0.788145  0.470498  1
  O  O51  1  0.858416  0.711855  0.470498  1
  O  O52  1  0.342756  0.052689  0.486344  1
  O  O53  1  0.842756  0.447311  0.486344  1
  O  O54  1  0.157244  0.552689  0.513656  1
  O  O55  1  0.657244  0.947311  0.513656  1
  O  O56  1  0.141584  0.288145  0.529502  1
  O  O57  1  0.641584  0.211855  0.529502  1
  O  O58  1  0.091157  0.912744  0.579738  1
  O  O59  1  0.591157  0.587256  0.579738  1
  O  O60  1  0.408127  0.909165  0.671938  1
  O  O61  1  0.908127  0.590835  0.671938  1
  O  O62  1  0.391954  0.291112  0.716671  1
  O  O63  1  0.891954  0.208888  0.716671  1
  O  O64  1  0.341588  0.550252  0.736612  1
  O  O65  1  0.841588  0.949748  0.736612  1
  O  O66  1  0.159999  0.053340  0.765839  1
  O  O67  1  0.659999  0.446660  0.765839  1
  O  O68  1  0.141771  0.788435  0.779590  1
  O  O69  1  0.641771  0.711565  0.779590  1
  O  O70  1  0.089952  0.411785  0.828264  1
  O  O71  1  0.589952  0.088215  0.828264  1
  O  O72  1  0.409242  0.409369  0.922540  1
  O  O73  1  0.909242  0.090631  0.922540  1
  O  O74  1  0.390756  0.789916  0.967380  1
  O  O75  1  0.890756  0.710084  0.967380  1
  O  O76  1  0.341210  0.050363  0.984680  1
  O  O77  1  0.841210  0.449637  0.984680  1
  O  O78  1  0.158790  0.550363  0.015320  1
  O  O79  1  0.658790  0.949637  0.015320  1
  O  O80  1  0.109244  0.289916  0.032620  1
  O  O81  1  0.609244  0.210084  0.032620  1
  O  O82  1  0.090758  0.909369  0.077460  1
  O  O83  1  0.590758  0.590631  0.077460  1
  O  O84  1  0.410048  0.911785  0.171736  1
  O  O85  1  0.910048  0.588215  0.171736  1
  O  O86  1  0.358229  0.288435  0.220410  1
  O  O87  1  0.858229  0.211565  0.220410  1
  O  O88  1  0.340001  0.553340  0.234161  1
  O  O89  1  0.840001  0.946660  0.234161  1
  O  O90  1  0.158412  0.050252  0.263388  1
  O  O91  1  0.658412  0.449748  0.263388  1
  O  O92  1  0.108046  0.791112  0.283329  1
  O  O93  1  0.608046  0.708888  0.283329  1
  O  O94  1  0.091873  0.409165  0.328062  1
  O  O95  1  0.591873  0.090835  0.328062  1
