# generated using pymatgen
data_Sn2(SO4)3
_symmetry_space_group_name_H-M   'P 1'
_cell_length_a   9.06119792
_cell_length_b   9.22225385
_cell_length_c   12.57573605
_cell_angle_alpha   90.00000000
_cell_angle_beta   90.00000000
_cell_angle_gamma   90.00000000
_symmetry_Int_Tables_number   1
_chemical_formula_structural   Sn2(SO4)3
_chemical_formula_sum   'Sn8 S12 O48'
_cell_volume   1050.88720037
_cell_formula_units_Z   4
loop_
 _symmetry_equiv_pos_site_id
 _symmetry_equiv_pos_as_xyz
  1  'x, y, z'
loop_
 _atom_site_type_symbol
 _atom_site_label
 _atom_site_symmetry_multiplicity
 _atom_site_fract_x
 _atom_site_fract_y
 _atom_site_fract_z
 _atom_site_occupancy
  Sn  Sn0  1  0.031610  0.748369  0.122714  1
  Sn  Sn1  1  0.531610  0.251631  0.122714  1
  Sn  Sn2  1  0.031610  0.248369  0.377286  1
  Sn  Sn3  1  0.531610  0.751631  0.377286  1
  Sn  Sn4  1  0.968390  0.751631  0.622714  1
  Sn  Sn5  1  0.468390  0.248369  0.622714  1
  Sn  Sn6  1  0.468390  0.748369  0.877286  1
  Sn  Sn7  1  0.968390  0.251631  0.877286  1
  S  S8  1  0.750000  0.541830  0.000000  1
  S  S9  1  0.250000  0.458170  0.000000  1
  S  S10  1  0.393757  0.900298  0.144809  1
  S  S11  1  0.893757  0.099702  0.144809  1
  S  S12  1  0.893757  0.599702  0.355191  1
  S  S13  1  0.393757  0.400298  0.355191  1
  S  S14  1  0.250000  0.958170  0.500000  1
  S  S15  1  0.750000  0.041830  0.500000  1
  S  S16  1  0.606243  0.599702  0.644809  1
  S  S17  1  0.106243  0.400298  0.644809  1
  S  S18  1  0.106243  0.900298  0.855191  1
  S  S19  1  0.606243  0.099702  0.855191  1
  O  O20  1  0.422899  0.869096  0.031213  1
  O  O21  1  0.922899  0.130904  0.031213  1
  O  O22  1  0.638380  0.452388  0.056339  1
  O  O23  1  0.138380  0.547612  0.056339  1
  O  O24  1  0.820831  0.635058  0.082789  1
  O  O25  1  0.320831  0.364942  0.082789  1
  O  O26  1  0.885540  0.938809  0.162352  1
  O  O27  1  0.385540  0.061191  0.162352  1
  O  O28  1  0.250346  0.838016  0.180504  1
  O  O29  1  0.750346  0.161984  0.180504  1
  O  O30  1  0.017513  0.162697  0.209202  1
  O  O31  1  0.517513  0.837303  0.209202  1
  O  O32  1  0.017513  0.662697  0.290798  1
  O  O33  1  0.517513  0.337303  0.290798  1
  O  O34  1  0.250346  0.338016  0.319496  1
  O  O35  1  0.750346  0.661984  0.319496  1
  O  O36  1  0.385540  0.561191  0.337648  1
  O  O37  1  0.885540  0.438809  0.337648  1
  O  O38  1  0.320831  0.864942  0.417211  1
  O  O39  1  0.820831  0.135058  0.417211  1
  O  O40  1  0.638380  0.952388  0.443661  1
  O  O41  1  0.138380  0.047612  0.443661  1
  O  O42  1  0.422899  0.369096  0.468787  1
  O  O43  1  0.922899  0.630904  0.468787  1
  O  O44  1  0.577101  0.630904  0.531213  1
  O  O45  1  0.077101  0.369096  0.531213  1
  O  O46  1  0.861620  0.952388  0.556339  1
  O  O47  1  0.361620  0.047612  0.556339  1
  O  O48  1  0.179169  0.864942  0.582789  1
  O  O49  1  0.679169  0.135058  0.582789  1
  O  O50  1  0.114460  0.561191  0.662352  1
  O  O51  1  0.614460  0.438809  0.662352  1
  O  O52  1  0.749654  0.661984  0.680504  1
  O  O53  1  0.249654  0.338016  0.680504  1
  O  O54  1  0.482487  0.662697  0.709202  1
  O  O55  1  0.982487  0.337303  0.709202  1
  O  O56  1  0.982487  0.837303  0.790798  1
  O  O57  1  0.482487  0.162697  0.790798  1
  O  O58  1  0.249654  0.838016  0.819496  1
  O  O59  1  0.749654  0.161984  0.819496  1
  O  O60  1  0.614460  0.938809  0.837648  1
  O  O61  1  0.114460  0.061191  0.837648  1
  O  O62  1  0.679169  0.635058  0.917211  1
  O  O63  1  0.179169  0.364942  0.917211  1
  O  O64  1  0.361620  0.547612  0.943661  1
  O  O65  1  0.861620  0.452388  0.943661  1
  O  O66  1  0.077101  0.869096  0.968787  1
  O  O67  1  0.577101  0.130904  0.968787  1
