# generated using pymatgen
data_Li5Mn2V3O10
_symmetry_space_group_name_H-M   'P 1'
_cell_length_a   5.15301862
_cell_length_b   5.29826170
_cell_length_c   7.87807398
_cell_angle_alpha   105.66861050
_cell_angle_beta   103.13421616
_cell_angle_gamma   101.95384944
_symmetry_Int_Tables_number   1
_chemical_formula_structural   Li5Mn2V3O10
_chemical_formula_sum   'Li5 Mn2 V3 O10'
_cell_volume   193.23231492
_cell_formula_units_Z   1
loop_
 _symmetry_equiv_pos_site_id
 _symmetry_equiv_pos_as_xyz
  1  'x, y, z'
loop_
 _atom_site_type_symbol
 _atom_site_label
 _atom_site_symmetry_multiplicity
 _atom_site_fract_x
 _atom_site_fract_y
 _atom_site_fract_z
 _atom_site_occupancy
  Li  Li0  1  0.207354  0.930245  0.419556  1
  Li  Li1  1  0.383514  0.274936  0.764254  1
  Li  Li2  1  0.500000  0.500000  0.500000  1
  Li  Li3  1  0.616486  0.725064  0.235746  1
  Li  Li4  1  0.792646  0.069755  0.580444  1
  Mn  Mn5  1  0.095997  0.694325  0.687229  1
  Mn  Mn6  1  0.904003  0.305675  0.312771  1
  V  V7  1  0.695837  0.894208  0.893112  1
  V  V8  1  0.304163  0.105792  0.106888  1
  V  V9  1  0.000000  0.500000  0.000000  1
  O  O10  1  0.053544  0.129328  0.868997  1
  O  O11  1  0.325994  0.726821  0.944671  1
  O  O12  1  0.134640  0.301016  0.537940  1
  O  O13  1  0.236406  0.459649  0.234998  1
  O  O14  1  0.445664  0.904727  0.666812  1
  O  O15  1  0.554336  0.095273  0.333188  1
  O  O16  1  0.763594  0.540351  0.765002  1
  O  O17  1  0.865360  0.698984  0.462060  1
  O  O18  1  0.674006  0.273179  0.055329  1
  O  O19  1  0.946456  0.870672  0.131003  1
