# generated using pymatgen
data_LiP4WO12
_symmetry_space_group_name_H-M   'P 1'
_cell_length_a   10.51922911
_cell_length_b   10.51922911
_cell_length_c   5.42936352
_cell_angle_alpha   81.47276071
_cell_angle_beta   98.52723929
_cell_angle_gamma   109.77920733
_symmetry_Int_Tables_number   1
_chemical_formula_structural   LiP4WO12
_chemical_formula_sum   'Li2 P8 W2 O24'
_cell_volume   555.97304324
_cell_formula_units_Z   2
loop_
 _symmetry_equiv_pos_site_id
 _symmetry_equiv_pos_as_xyz
  1  'x, y, z'
loop_
 _atom_site_type_symbol
 _atom_site_label
 _atom_site_symmetry_multiplicity
 _atom_site_fract_x
 _atom_site_fract_y
 _atom_site_fract_z
 _atom_site_occupancy
  Li  Li0  1  0.433027  0.566973  0.394079  1
  Li  Li1  1  0.566973  0.433027  0.605921  1
  P  P2  1  0.372460  0.224876  0.180450  1
  P  P3  1  0.775124  0.627540  0.180450  1
  P  P4  1  0.944050  0.297639  0.538858  1
  P  P5  1  0.702361  0.055950  0.538858  1
  P  P6  1  0.055950  0.702361  0.461142  1
  P  P7  1  0.297639  0.944050  0.461142  1
  P  P8  1  0.224876  0.372460  0.819550  1
  P  P9  1  0.627540  0.775124  0.819550  1
  W  W10  1  0.000000  0.500000  0.000000  1
  W  W11  1  0.500000  0.000000  0.000000  1
  O  O12  1  0.759382  0.759382  0.000000  1
  O  O13  1  0.240618  0.240618  0.000000  1
  O  O14  1  0.678101  0.071125  0.258750  1
  O  O15  1  0.928875  0.321899  0.258750  1
  O  O16  1  0.185437  0.459372  0.973586  1
  O  O17  1  0.540628  0.814563  0.973586  1
  O  O18  1  0.437571  0.343803  0.324266  1
  O  O19  1  0.656197  0.562429  0.324266  1
  O  O20  1  0.294452  0.094125  0.365335  1
  O  O21  1  0.905875  0.705548  0.365335  1
  O  O22  1  0.858435  0.141565  0.615605  1
  O  O23  1  0.096394  0.611109  0.320019  1
  O  O24  1  0.388891  0.903606  0.320019  1
  O  O25  1  0.611109  0.096394  0.679981  1
  O  O26  1  0.903606  0.388891  0.679981  1
  O  O27  1  0.141565  0.858435  0.384395  1
  O  O28  1  0.094125  0.294452  0.634665  1
  O  O29  1  0.705548  0.905875  0.634665  1
  O  O30  1  0.562429  0.656197  0.675734  1
  O  O31  1  0.343803  0.437571  0.675734  1
  O  O32  1  0.459372  0.185437  0.026414  1
  O  O33  1  0.814563  0.540628  0.026414  1
  O  O34  1  0.071125  0.678101  0.741250  1
  O  O35  1  0.321899  0.928875  0.741250  1
