# generated using pymatgen
data_LiCu2(CO3)2
_symmetry_space_group_name_H-M   'P 1'
_cell_length_a   5.67406741
_cell_length_b   6.39007982
_cell_length_c   7.64669958
_cell_angle_alpha   92.53064739
_cell_angle_beta   96.88060794
_cell_angle_gamma   91.04076677
_symmetry_Int_Tables_number   1
_chemical_formula_structural   LiCu2(CO3)2
_chemical_formula_sum   'Li2 Cu4 C4 O12'
_cell_volume   274.90995252
_cell_formula_units_Z   2
loop_
 _symmetry_equiv_pos_site_id
 _symmetry_equiv_pos_as_xyz
  1  'x, y, z'
loop_
 _atom_site_type_symbol
 _atom_site_label
 _atom_site_symmetry_multiplicity
 _atom_site_fract_x
 _atom_site_fract_y
 _atom_site_fract_z
 _atom_site_occupancy
  Li  Li0  1  0.054911  0.751815  0.200309  1
  Li  Li1  1  0.945089  0.248185  0.799691  1
  Cu  Cu2  1  0.307656  0.055415  0.020209  1
  Cu  Cu3  1  0.217683  0.541862  0.501557  1
  Cu  Cu4  1  0.782317  0.458138  0.498443  1
  Cu  Cu5  1  0.692344  0.944585  0.979791  1
  C  C6  1  0.023938  0.666087  0.802556  1
  C  C7  1  0.458798  0.177851  0.703993  1
  C  C8  1  0.541202  0.822149  0.296007  1
  C  C9  1  0.976062  0.333913  0.197444  1
  O  O10  1  0.006784  0.786230  0.941232  1
  O  O11  1  0.274731  0.167513  0.790113  1
  O  O12  1  0.215759  0.671669  0.729089  1
  O  O13  1  0.155679  0.460561  0.255462  1
  O  O14  1  0.456017  0.282548  0.565474  1
  O  O15  1  0.347466  0.919400  0.238105  1
  O  O16  1  0.652534  0.080600  0.761895  1
  O  O17  1  0.543983  0.717452  0.434526  1
  O  O18  1  0.844321  0.539439  0.744538  1
  O  O19  1  0.784241  0.328331  0.270911  1
  O  O20  1  0.725269  0.832487  0.209887  1
  O  O21  1  0.993216  0.213770  0.058768  1
