# generated using pymatgen
data_LiVOF3
_symmetry_space_group_name_H-M   'P 1'
_cell_length_a   4.98888859
_cell_length_b   5.16725274
_cell_length_c   11.53947799
_cell_angle_alpha   90.00000000
_cell_angle_beta   90.00000000
_cell_angle_gamma   90.00000000
_symmetry_Int_Tables_number   1
_chemical_formula_structural   LiVOF3
_chemical_formula_sum   'Li4 V4 O4 F12'
_cell_volume   297.47445236
_cell_formula_units_Z   4
loop_
 _symmetry_equiv_pos_site_id
 _symmetry_equiv_pos_as_xyz
  1  'x, y, z'
loop_
 _atom_site_type_symbol
 _atom_site_label
 _atom_site_symmetry_multiplicity
 _atom_site_fract_x
 _atom_site_fract_y
 _atom_site_fract_z
 _atom_site_occupancy
  Li  Li0  1  0.500000  0.500000  0.241729  1
  Li  Li1  1  0.500000  0.500000  0.649382  1
  Li  Li2  1  0.500000  0.000000  0.741729  1
  Li  Li3  1  0.500000  0.000000  0.149382  1
  V  V4  1  0.000000  0.500000  0.071980  1
  V  V5  1  0.500000  0.500000  0.936624  1
  V  V6  1  0.000000  0.000000  0.571980  1
  V  V7  1  0.500000  0.000000  0.436624  1
  O  O8  1  0.305992  0.697324  0.045170  1
  O  O9  1  0.305992  0.802676  0.545170  1
  O  O10  1  0.694008  0.197324  0.545170  1
  O  O11  1  0.694008  0.302676  0.045170  1
  F  F12  1  0.362747  0.706088  0.811202  1
  F  F13  1  0.811729  0.708980  0.179489  1
  F  F14  1  0.814728  0.718905  0.947097  1
  F  F15  1  0.814728  0.781095  0.447097  1
  F  F16  1  0.811729  0.791020  0.679489  1
  F  F17  1  0.362747  0.793912  0.311202  1
  F  F18  1  0.637253  0.206088  0.311202  1
  F  F19  1  0.188271  0.208980  0.679489  1
  F  F20  1  0.185272  0.218905  0.447097  1
  F  F21  1  0.185272  0.281095  0.947097  1
  F  F22  1  0.188271  0.291020  0.179489  1
  F  F23  1  0.637253  0.293912  0.811202  1
