# generated using pymatgen
data_AlTeO4
_symmetry_space_group_name_H-M   'P 1'
_cell_length_a   4.57751617
_cell_length_b   4.93029085
_cell_length_c   11.57586740
_cell_angle_alpha   90.00000000
_cell_angle_beta   90.00000000
_cell_angle_gamma   90.00000000
_symmetry_Int_Tables_number   1
_chemical_formula_structural   AlTeO4
_chemical_formula_sum   'Al4 Te4 O16'
_cell_volume   261.24980238
_cell_formula_units_Z   4
loop_
 _symmetry_equiv_pos_site_id
 _symmetry_equiv_pos_as_xyz
  1  'x, y, z'
loop_
 _atom_site_type_symbol
 _atom_site_label
 _atom_site_symmetry_multiplicity
 _atom_site_fract_x
 _atom_site_fract_y
 _atom_site_fract_z
 _atom_site_occupancy
  Al  Al0  1  0.000000  0.750000  0.436332  1
  Al  Al1  1  0.000000  0.250000  0.563668  1
  Al  Al2  1  0.500000  0.250000  0.063668  1
  Al  Al3  1  0.500000  0.750000  0.936332  1
  Te  Te4  1  0.000000  0.750000  0.166676  1
  Te  Te5  1  0.000000  0.250000  0.833324  1
  Te  Te6  1  0.500000  0.750000  0.666676  1
  Te  Te7  1  0.500000  0.250000  0.333324  1
  O  O8  1  0.776664  0.910733  0.313135  1
  O  O9  1  0.776664  0.410733  0.686865  1
  O  O10  1  0.772304  0.429115  0.448562  1
  O  O11  1  0.772304  0.929115  0.551438  1
  O  O12  1  0.727696  0.929115  0.051438  1
  O  O13  1  0.727696  0.429115  0.948562  1
  O  O14  1  0.723336  0.410733  0.186865  1
  O  O15  1  0.723336  0.910733  0.813135  1
  O  O16  1  0.276664  0.089267  0.186865  1
  O  O17  1  0.276664  0.589267  0.813135  1
  O  O18  1  0.272304  0.570885  0.051438  1
  O  O19  1  0.272304  0.070885  0.948562  1
  O  O20  1  0.227696  0.070885  0.448562  1
  O  O21  1  0.227696  0.570885  0.551438  1
  O  O22  1  0.223336  0.589267  0.313135  1
  O  O23  1  0.223336  0.089267  0.686865  1
