# generated using pymatgen
data_Hf3Tl10Mo12PbO48
_symmetry_space_group_name_H-M   'P 1'
_cell_length_a   14.60862174
_cell_length_b   14.60862174
_cell_length_c   14.60862174
_cell_angle_alpha   43.94760974
_cell_angle_beta   43.94760974
_cell_angle_gamma   43.94760974
_symmetry_Int_Tables_number   1
_chemical_formula_structural   Hf3Tl10Mo12PbO48
_chemical_formula_sum   'Hf3 Tl10 Mo12 Pb1 O48'
_cell_volume   1363.68931170
_cell_formula_units_Z   1
loop_
 _symmetry_equiv_pos_site_id
 _symmetry_equiv_pos_as_xyz
  1  'x, y, z'
loop_
 _atom_site_type_symbol
 _atom_site_label
 _atom_site_symmetry_multiplicity
 _atom_site_fract_x
 _atom_site_fract_y
 _atom_site_fract_z
 _atom_site_occupancy
  Hf  Hf0  1  0.000000  0.000000  0.000000  1
  Hf  Hf1  1  0.749187  0.749187  0.749187  1
  Hf  Hf2  1  0.250813  0.250813  0.250813  1
  Tl  Tl3  1  0.853244  0.853244  0.853244  1
  Tl  Tl4  1  0.626418  0.626418  0.626418  1
  Tl  Tl5  1  0.639483  0.242095  0.856238  1
  Tl  Tl6  1  0.242095  0.856238  0.639483  1
  Tl  Tl7  1  0.856238  0.639483  0.242095  1
  Tl  Tl8  1  0.143762  0.360517  0.757905  1
  Tl  Tl9  1  0.757905  0.143762  0.360517  1
  Tl  Tl10  1  0.360517  0.757905  0.143762  1
  Tl  Tl11  1  0.373582  0.373582  0.373582  1
  Tl  Tl12  1  0.146756  0.146756  0.146756  1
  Mo  Mo13  1  0.750029  0.385825  0.958658  1
  Mo  Mo14  1  0.385825  0.958658  0.750029  1
  Mo  Mo15  1  0.958658  0.750029  0.385825  1
  Mo  Mo16  1  0.232590  0.482735  0.891628  1
  Mo  Mo17  1  0.891628  0.232590  0.482735  1
  Mo  Mo18  1  0.482735  0.891628  0.232590  1
  Mo  Mo19  1  0.517265  0.108372  0.767410  1
  Mo  Mo20  1  0.108372  0.767410  0.517265  1
  Mo  Mo21  1  0.767410  0.517265  0.108372  1
  Mo  Mo22  1  0.041342  0.249971  0.614175  1
  Mo  Mo23  1  0.614175  0.041342  0.249971  1
  Mo  Mo24  1  0.249971  0.614175  0.041342  1
  Pb  Pb25  1  0.500000  0.500000  0.500000  1
  O  O26  1  0.709252  0.673189  0.956089  1
  O  O27  1  0.673189  0.956089  0.709252  1
  O  O28  1  0.956089  0.709252  0.673189  1
  O  O29  1  0.903804  0.204217  0.983543  1
  O  O30  1  0.807224  0.537006  0.812970  1
  O  O31  1  0.537006  0.812970  0.807224  1
  O  O32  1  0.204217  0.983543  0.903804  1
  O  O33  1  0.812970  0.807224  0.537006  1
  O  O34  1  0.659678  0.395518  0.913146  1
  O  O35  1  0.395518  0.913146  0.659678  1
  O  O36  1  0.370772  0.595046  0.877323  1
  O  O37  1  0.983543  0.903804  0.204217  1
  O  O38  1  0.913146  0.659678  0.395518  1
  O  O39  1  0.877323  0.370772  0.595046  1
  O  O40  1  0.099668  0.647066  0.916489  1
  O  O41  1  0.595046  0.877323  0.370772  1
  O  O42  1  0.916489  0.099668  0.647066  1
  O  O43  1  0.386959  0.514590  0.724552  1
  O  O44  1  0.564147  0.124487  0.836989  1
  O  O45  1  0.724552  0.386959  0.514590  1
  O  O46  1  0.163011  0.435853  0.875513  1
  O  O47  1  0.514590  0.724552  0.386959  1
  O  O48  1  0.124487  0.836989  0.564147  1
  O  O49  1  0.647066  0.916489  0.099668  1
  O  O50  1  0.352934  0.083511  0.900332  1
  O  O51  1  0.875513  0.163011  0.435853  1
  O  O52  1  0.485410  0.275448  0.613041  1
  O  O53  1  0.836989  0.564147  0.124487  1
  O  O54  1  0.275448  0.613041  0.485410  1
  O  O55  1  0.435853  0.875513  0.163011  1
  O  O56  1  0.613041  0.485410  0.275448  1
  O  O57  1  0.083511  0.900332  0.352934  1
  O  O58  1  0.404954  0.122677  0.629228  1
  O  O59  1  0.900332  0.352934  0.083511  1
  O  O60  1  0.122677  0.629228  0.404954  1
  O  O61  1  0.086854  0.340322  0.604482  1
  O  O62  1  0.016457  0.096196  0.795783  1
  O  O63  1  0.629228  0.404954  0.122677  1
  O  O64  1  0.604482  0.086854  0.340322  1
  O  O65  1  0.340322  0.604482  0.086854  1
  O  O66  1  0.187030  0.192776  0.462994  1
  O  O67  1  0.795783  0.016457  0.096196  1
  O  O68  1  0.462994  0.187030  0.192776  1
  O  O69  1  0.192776  0.462994  0.187030  1
  O  O70  1  0.096196  0.795783  0.016457  1
  O  O71  1  0.043911  0.290748  0.326811  1
  O  O72  1  0.326811  0.043911  0.290748  1
  O  O73  1  0.290748  0.326811  0.043911  1
