# generated using pymatgen
data_Li2Sn3(P2O7)2
_symmetry_space_group_name_H-M   'P 1'
_cell_length_a   6.00348655
_cell_length_b   7.29777869
_cell_length_c   16.32414150
_cell_angle_alpha   82.83037738
_cell_angle_beta   84.66598028
_cell_angle_gamma   68.56868953
_symmetry_Int_Tables_number   1
_chemical_formula_structural   Li2Sn3(P2O7)2
_chemical_formula_sum   'Li4 Sn6 P8 O28'
_cell_volume   659.66950156
_cell_formula_units_Z   2
loop_
 _symmetry_equiv_pos_site_id
 _symmetry_equiv_pos_as_xyz
  1  'x, y, z'
loop_
 _atom_site_type_symbol
 _atom_site_label
 _atom_site_symmetry_multiplicity
 _atom_site_fract_x
 _atom_site_fract_y
 _atom_site_fract_z
 _atom_site_occupancy
  Li  Li0  1  0.120024  0.157457  0.993258  1
  Li  Li1  1  0.301853  0.675265  0.100391  1
  Li  Li2  1  0.698147  0.324735  0.899609  1
  Li  Li3  1  0.879976  0.842543  0.006742  1
  Sn  Sn4  1  0.140214  0.279610  0.581193  1
  Sn  Sn5  1  0.096900  0.612126  0.822671  1
  Sn  Sn6  1  0.270401  0.972711  0.326285  1
  Sn  Sn7  1  0.729599  0.027289  0.673715  1
  Sn  Sn8  1  0.903100  0.387874  0.177329  1
  Sn  Sn9  1  0.859786  0.720390  0.418807  1
  P  P10  1  0.168843  0.081370  0.809694  1
  P  P11  1  0.385964  0.447333  0.323764  1
  P  P12  1  0.545909  0.233214  0.067369  1
  P  P13  1  0.263850  0.800856  0.543091  1
  P  P14  1  0.736150  0.199144  0.456909  1
  P  P15  1  0.454091  0.766786  0.932631  1
  P  P16  1  0.614036  0.552667  0.676236  1
  P  P17  1  0.831157  0.918630  0.190306  1
  O  O18  1  0.988121  0.043907  0.198229  1
  O  O19  1  0.284552  0.288760  0.048920  1
  O  O20  1  0.247720  0.329191  0.296381  1
  O  O21  1  0.043573  0.239678  0.870025  1
  O  O22  1  0.214511  0.655884  0.346200  1
  O  O23  1  0.113212  0.677118  0.531965  1
  O  O24  1  0.258670  0.160841  0.727721  1
  O  O25  1  0.586484  0.068472  0.147717  1
  O  O26  1  0.125797  0.966056  0.600862  1
  O  O27  1  0.729154  0.135610  0.998651  1
  O  O28  1  0.493595  0.338005  0.412252  1
  O  O29  1  0.401201  0.589260  0.906553  1
  O  O30  1  0.639642  0.113671  0.536693  1
  O  O31  1  0.586177  0.473297  0.265175  1
  O  O32  1  0.413823  0.526703  0.734825  1
  O  O33  1  0.360358  0.886329  0.463307  1
  O  O34  1  0.598799  0.410740  0.093447  1
  O  O35  1  0.506405  0.661995  0.587748  1
  O  O36  1  0.270846  0.864390  0.001349  1
  O  O37  1  0.874203  0.033944  0.399138  1
  O  O38  1  0.413516  0.931528  0.852283  1
  O  O39  1  0.741330  0.839159  0.272279  1
  O  O40  1  0.886788  0.322882  0.468035  1
  O  O41  1  0.785489  0.344116  0.653800  1
  O  O42  1  0.956427  0.760322  0.129975  1
  O  O43  1  0.752280  0.670809  0.703619  1
  O  O44  1  0.715448  0.711240  0.951080  1
  O  O45  1  0.011879  0.956093  0.801771  1
