# generated using pymatgen
data_Li2Ni3OF6
_symmetry_space_group_name_H-M   'P 1'
_cell_length_a   6.05904201
_cell_length_b   6.50667301
_cell_length_c   7.88299146
_cell_angle_alpha   66.51597864
_cell_angle_beta   68.89280855
_cell_angle_gamma   78.79192475
_symmetry_Int_Tables_number   1
_chemical_formula_structural   Li2Ni3OF6
_chemical_formula_sum   'Li4 Ni6 O2 F12'
_cell_volume   265.44498349
_cell_formula_units_Z   2
loop_
 _symmetry_equiv_pos_site_id
 _symmetry_equiv_pos_as_xyz
  1  'x, y, z'
loop_
 _atom_site_type_symbol
 _atom_site_label
 _atom_site_symmetry_multiplicity
 _atom_site_fract_x
 _atom_site_fract_y
 _atom_site_fract_z
 _atom_site_occupancy
  Li  Li0  1  0.319420  0.845033  0.471461  1
  Li  Li1  1  0.119966  0.310139  0.062596  1
  Li  Li2  1  0.880034  0.689861  0.937404  1
  Li  Li3  1  0.680580  0.154967  0.528539  1
  Ni  Ni4  1  0.782340  0.571600  0.655718  1
  Ni  Ni5  1  0.925581  0.837859  0.220530  1
  Ni  Ni6  1  0.353784  0.726298  0.930607  1
  Ni  Ni7  1  0.646216  0.273702  0.069393  1
  Ni  Ni8  1  0.074419  0.162141  0.779470  1
  Ni  Ni9  1  0.217660  0.428400  0.344282  1
  O  O10  1  0.929015  0.416994  0.864747  1
  O  O11  1  0.070985  0.583006  0.135253  1
  F  F12  1  0.090954  0.706958  0.434151  1
  F  F13  1  0.468514  0.436371  0.865652  1
  F  F14  1  0.633344  0.711877  0.442923  1
  F  F15  1  0.777846  0.986283  0.001239  1
  F  F16  1  0.177257  0.867864  0.728183  1
  F  F17  1  0.335721  0.150191  0.270084  1
  F  F18  1  0.664279  0.849809  0.729916  1
  F  F19  1  0.822743  0.132136  0.271817  1
  F  F20  1  0.222154  0.013717  0.998761  1
  F  F21  1  0.366656  0.288123  0.557077  1
  F  F22  1  0.531486  0.563629  0.134348  1
  F  F23  1  0.909046  0.293042  0.565849  1
