# generated using pymatgen
data_CrSn3(PO4)6
_symmetry_space_group_name_H-M   'P 1'
_cell_length_a   8.95871214
_cell_length_b   8.95871214
_cell_length_c   8.95871214
_cell_angle_alpha   58.12721452
_cell_angle_beta   58.12721452
_cell_angle_gamma   58.12721452
_symmetry_Int_Tables_number   1
_chemical_formula_structural   CrSn3(PO4)6
_chemical_formula_sum   'Cr1 Sn3 P6 O24'
_cell_volume   486.59256411
_cell_formula_units_Z   1
loop_
 _symmetry_equiv_pos_site_id
 _symmetry_equiv_pos_as_xyz
  1  'x, y, z'
loop_
 _atom_site_type_symbol
 _atom_site_label
 _atom_site_symmetry_multiplicity
 _atom_site_fract_x
 _atom_site_fract_y
 _atom_site_fract_z
 _atom_site_occupancy
  Cr  Cr0  1  0.143378  0.143378  0.143378  1
  Sn  Sn1  1  0.856840  0.856840  0.856840  1
  Sn  Sn2  1  0.641836  0.641836  0.641836  1
  Sn  Sn3  1  0.356914  0.356914  0.356914  1
  P  P4  1  0.250151  0.531980  0.964472  1
  P  P5  1  0.964472  0.250151  0.531980  1
  P  P6  1  0.531980  0.964472  0.250151  1
  P  P7  1  0.457286  0.039275  0.755789  1
  P  P8  1  0.039275  0.755789  0.457286  1
  P  P9  1  0.755789  0.457286  0.039275  1
  O  O10  1  0.736885  0.475654  0.868964  1
  O  O11  1  0.475654  0.868964  0.736885  1
  O  O12  1  0.079945  0.709184  0.940153  1
  O  O13  1  0.868964  0.736885  0.475654  1
  O  O14  1  0.422663  0.545370  0.785594  1
  O  O15  1  0.213139  0.356741  0.006480  1
  O  O16  1  0.940153  0.079945  0.709184  1
  O  O17  1  0.785594  0.422663  0.545370  1
  O  O18  1  0.545370  0.785594  0.422663  1
  O  O19  1  0.624547  0.013116  0.783198  1
  O  O20  1  0.278645  0.071199  0.935613  1
  O  O21  1  0.013116  0.783198  0.624547  1
  O  O22  1  0.006480  0.213139  0.356741  1
  O  O23  1  0.709184  0.940153  0.079945  1
  O  O24  1  0.356741  0.006480  0.213139  1
  O  O25  1  0.425244  0.220608  0.590917  1
  O  O26  1  0.220608  0.590917  0.425244  1
  O  O27  1  0.071199  0.935613  0.278645  1
  O  O28  1  0.783198  0.624547  0.013116  1
  O  O29  1  0.590917  0.425244  0.220608  1
  O  O30  1  0.129197  0.279049  0.509974  1
  O  O31  1  0.935613  0.278645  0.071199  1
  O  O32  1  0.509974  0.129197  0.279049  1
  O  O33  1  0.279049  0.509974  0.129197  1
