# generated using pymatgen
data_Li6Mn5Fe(BO3)6
_symmetry_space_group_name_H-M   'P 1'
_cell_length_a   8.27309775
_cell_length_b   8.27603271
_cell_length_c   12.72996876
_cell_angle_alpha   89.93297374
_cell_angle_beta   90.16870279
_cell_angle_gamma   119.95158906
_symmetry_Int_Tables_number   1
_chemical_formula_structural   Li6Mn5Fe(BO3)6
_chemical_formula_sum   'Li12 Mn10 Fe2 B12 O36'
_cell_volume   755.19319272
_cell_formula_units_Z   2
loop_
 _symmetry_equiv_pos_site_id
 _symmetry_equiv_pos_as_xyz
  1  'x, y, z'
loop_
 _atom_site_type_symbol
 _atom_site_label
 _atom_site_symmetry_multiplicity
 _atom_site_fract_x
 _atom_site_fract_y
 _atom_site_fract_z
 _atom_site_occupancy
  Li  Li0  1  0.716093  0.698596  0.874974  1
  Li  Li1  1  0.715922  0.698320  0.124892  1
  Li  Li2  1  0.716090  0.698385  0.375240  1
  Li  Li3  1  0.716229  0.698553  0.624805  1
  Li  Li4  1  0.982840  0.284063  0.875000  1
  Li  Li5  1  0.983342  0.284695  0.624829  1
  Li  Li6  1  0.983171  0.284794  0.374898  1
  Li  Li7  1  0.982806  0.283655  0.125161  1
  Li  Li8  1  0.301670  0.017591  0.625179  1
  Li  Li9  1  0.301874  0.017145  0.374881  1
  Li  Li10  1  0.301212  0.017331  0.875032  1
  Li  Li11  1  0.301384  0.016798  0.125177  1
  Mn  Mn12  1  0.628901  0.988184  0.999980  1
  Mn  Mn13  1  0.627846  0.987968  0.500089  1
  Mn  Mn14  1  0.628802  0.988109  0.750037  1
  Mn  Mn15  1  0.627826  0.988038  0.250181  1
  Mn  Mn16  1  0.359549  0.371114  0.000042  1
  Mn  Mn17  1  0.359193  0.371078  0.748664  1
  Mn  Mn18  1  0.359853  0.371882  0.251341  1
  Mn  Mn19  1  0.012049  0.639585  0.498804  1
  Mn  Mn20  1  0.012145  0.641030  0.001220  1
  Mn  Mn21  1  0.011707  0.640469  0.750047  1
  Fe  Fe22  1  0.359424  0.366530  0.499798  1
  Fe  Fe23  1  0.008031  0.640063  0.248994  1
  B  B24  1  0.999953  0.000102  0.000125  1
  B  B25  1  0.999880  0.999822  0.749966  1
  B  B26  1  0.000096  0.002512  0.499929  1
  B  B27  1  0.001816  0.999493  0.250084  1
  B  B28  1  0.667615  0.334337  0.126269  1
  B  B29  1  0.666733  0.333454  0.875036  1
  B  B30  1  0.665931  0.333268  0.623825  1
  B  B31  1  0.666580  0.334313  0.375070  1
  B  B32  1  0.333187  0.666547  0.875014  1
  B  B33  1  0.333491  0.665554  0.624153  1
  B  B34  1  0.331933  0.665335  0.374810  1
  B  B35  1  0.332060  0.666220  0.125806  1
  O  O36  1  0.884711  0.806386  0.749990  1
  O  O37  1  0.884732  0.806688  0.000227  1
  O  O38  1  0.888541  0.809140  0.499966  1
  O  O39  1  0.888365  0.805384  0.250858  1
  O  O40  1  0.861497  0.442212  0.127869  1
  O  O41  1  0.860189  0.440804  0.875485  1
  O  O42  1  0.859333  0.441013  0.624451  1
  O  O43  1  0.859759  0.442365  0.372650  1
  O  O44  1  0.921616  0.115353  0.000095  1
  O  O45  1  0.920078  0.115824  0.499919  1
  O  O46  1  0.920479  0.111792  0.250099  1
  O  O47  1  0.921609  0.115114  0.749924  1
  O  O48  1  0.559933  0.419959  0.125556  1
  O  O49  1  0.558357  0.419587  0.377655  1
  O  O50  1  0.559228  0.419454  0.874657  1
  O  O51  1  0.557999  0.418927  0.622566  1
  O  O52  1  0.582127  0.141131  0.124961  1
  O  O53  1  0.580690  0.140068  0.874995  1
  O  O54  1  0.581414  0.141013  0.374778  1
  O  O55  1  0.580353  0.139994  0.624992  1
  O  O56  1  0.526812  0.777887  0.874984  1
  O  O57  1  0.525756  0.777927  0.375200  1
  O  O58  1  0.527089  0.777871  0.624686  1
  O  O59  1  0.525798  0.777990  0.125107  1
  O  O60  1  0.193433  0.078292  0.000058  1
  O  O61  1  0.193365  0.078073  0.749843  1
  O  O62  1  0.194633  0.084035  0.499872  1
  O  O63  1  0.195216  0.079332  0.250018  1
  O  O64  1  0.221846  0.748923  0.875231  1
  O  O65  1  0.221812  0.747845  0.624813  1
  O  O66  1  0.219623  0.746960  0.373269  1
  O  O67  1  0.219809  0.747445  0.126466  1
  O  O68  1  0.252426  0.472313  0.623308  1
  O  O69  1  0.251136  0.473051  0.874802  1
  O  O70  1  0.252022  0.472159  0.375953  1
  O  O71  1  0.250975  0.472760  0.125341  1
