# generated using pymatgen
data_LiCoS2
_symmetry_space_group_name_H-M   'P 1'
_cell_length_a   6.51510559
_cell_length_b   6.51510559
_cell_length_c   6.51510559
_cell_angle_alpha   30.41569082
_cell_angle_beta   30.41569082
_cell_angle_gamma   30.41569082
_symmetry_Int_Tables_number   1
_chemical_formula_structural   LiCoS2
_chemical_formula_sum   'Li1 Co1 S2'
_cell_volume   62.82389666
_cell_formula_units_Z   1
loop_
 _symmetry_equiv_pos_site_id
 _symmetry_equiv_pos_as_xyz
  1  'x, y, z'
loop_
 _atom_site_type_symbol
 _atom_site_label
 _atom_site_symmetry_multiplicity
 _atom_site_fract_x
 _atom_site_fract_y
 _atom_site_fract_z
 _atom_site_occupancy
  Li  Li0  1  0.144965  0.144965  0.144965  1
  Co  Co1  1  0.001336  0.001336  0.001336  1
  S  S2  1  0.274449  0.274449  0.274449  1
  S  S3  1  0.732254  0.732254  0.732254  1
