# generated using pymatgen
data_Li2Mn3SnO8
_symmetry_space_group_name_H-M   'P 1'
_cell_length_a   6.17442676
_cell_length_b   6.17442676
_cell_length_c   6.17442676
_cell_angle_alpha   58.03310187
_cell_angle_beta   58.03310187
_cell_angle_gamma   58.03310187
_symmetry_Int_Tables_number   1
_chemical_formula_structural   Li2Mn3SnO8
_chemical_formula_sum   'Li2 Mn3 Sn1 O8'
_cell_volume   158.93813982
_cell_formula_units_Z   1
loop_
 _symmetry_equiv_pos_site_id
 _symmetry_equiv_pos_as_xyz
  1  'x, y, z'
loop_
 _atom_site_type_symbol
 _atom_site_label
 _atom_site_symmetry_multiplicity
 _atom_site_fract_x
 _atom_site_fract_y
 _atom_site_fract_z
 _atom_site_occupancy
  Li  Li0  1  0.878243  0.878243  0.878243  1
  Li  Li1  1  0.121757  0.121757  0.121757  1
  Mn  Mn2  1  0.500000  0.500000  0.000000  1
  Mn  Mn3  1  0.000000  0.500000  0.500000  1
  Mn  Mn4  1  0.500000  1.000000  0.500000  1
  Sn  Sn5  1  0.500000  0.500000  0.500000  1
  O  O6  1  0.727789  0.727789  0.727789  1
  O  O7  1  0.742026  0.278575  0.742026  1
  O  O8  1  0.278575  0.742026  0.742026  1
  O  O9  1  0.742026  0.742026  0.278575  1
  O  O10  1  0.257974  0.257974  0.721425  1
  O  O11  1  0.721425  0.257974  0.257974  1
  O  O12  1  0.257974  0.721425  0.257974  1
  O  O13  1  0.272211  0.272211  0.272211  1
