# generated using pymatgen
data_LiVP4(H2O7)2
_symmetry_space_group_name_H-M   'P 1'
_cell_length_a   5.15723266
_cell_length_b   7.13161759
_cell_length_c   7.98799392
_cell_angle_alpha   82.09681243
_cell_angle_beta   81.46507890
_cell_angle_gamma   70.62183065
_symmetry_Int_Tables_number   1
_chemical_formula_structural   LiVP4(H2O7)2
_chemical_formula_sum   'Li1 V1 P4 H4 O14'
_cell_volume   272.85152017
_cell_formula_units_Z   1
loop_
 _symmetry_equiv_pos_site_id
 _symmetry_equiv_pos_as_xyz
  1  'x, y, z'
loop_
 _atom_site_type_symbol
 _atom_site_label
 _atom_site_symmetry_multiplicity
 _atom_site_fract_x
 _atom_site_fract_y
 _atom_site_fract_z
 _atom_site_occupancy
  Li  Li0  1  0.000000  0.000000  0.000000  1
  V  V1  1  0.000000  0.500000  0.000000  1
  P  P2  1  0.324193  0.218691  0.307396  1
  P  P3  1  0.385389  0.626742  0.228643  1
  P  P4  1  0.614611  0.373258  0.771357  1
  P  P5  1  0.675807  0.781309  0.692604  1
  H  H6  1  0.096452  0.797991  0.432100  1
  H  H7  1  0.697331  0.984222  0.377950  1
  H  H8  1  0.302669  0.015778  0.622050  1
  H  H9  1  0.903548  0.202009  0.567900  1
  O  O10  1  0.174656  0.248151  0.149973  1
  O  O11  1  0.184202  0.151385  0.473864  1
  O  O12  1  0.206475  0.681490  0.080841  1
  O  O13  1  0.308916  0.403426  0.819579  1
  O  O14  1  0.343660  0.431451  0.339257  1
  O  O15  1  0.282475  0.785655  0.358505  1
  O  O16  1  0.628800  0.077519  0.270654  1
  O  O17  1  0.371200  0.922481  0.729346  1
  O  O18  1  0.717525  0.214345  0.641495  1
  O  O19  1  0.656340  0.568549  0.660743  1
  O  O20  1  0.691084  0.596574  0.180421  1
  O  O21  1  0.793525  0.318510  0.919159  1
  O  O22  1  0.815798  0.848615  0.526136  1
  O  O23  1  0.825344  0.751849  0.850027  1
