# generated using pymatgen
data_Ca2CrO4
_symmetry_space_group_name_H-M   'P 1'
_cell_length_a   5.64440421
_cell_length_b   9.66316447
_cell_length_c   13.59428253
_cell_angle_alpha   90.00000000
_cell_angle_beta   90.00000000
_cell_angle_gamma   90.00000000
_symmetry_Int_Tables_number   1
_chemical_formula_structural   Ca2CrO4
_chemical_formula_sum   'Ca16 Cr8 O32'
_cell_volume   741.47031768
_cell_formula_units_Z   8
loop_
 _symmetry_equiv_pos_site_id
 _symmetry_equiv_pos_as_xyz
  1  'x, y, z'
loop_
 _atom_site_type_symbol
 _atom_site_label
 _atom_site_symmetry_multiplicity
 _atom_site_fract_x
 _atom_site_fract_y
 _atom_site_fract_z
 _atom_site_occupancy
  Ca  Ca0  1  0.719907  0.772121  0.048910  1
  Ca  Ca1  1  0.685372  0.417791  0.120701  1
  Ca  Ca2  1  0.226691  0.995523  0.128272  1
  Ca  Ca3  1  0.181289  0.645098  0.202338  1
  Ca  Ca4  1  0.681289  0.145098  0.297662  1
  Ca  Ca5  1  0.726691  0.495523  0.371728  1
  Ca  Ca6  1  0.185372  0.917791  0.379299  1
  Ca  Ca7  1  0.219907  0.272121  0.451090  1
  Ca  Ca8  1  0.780093  0.772121  0.548910  1
  Ca  Ca9  1  0.814628  0.417791  0.620701  1
  Ca  Ca10  1  0.273309  0.995523  0.628272  1
  Ca  Ca11  1  0.318711  0.645098  0.702338  1
  Ca  Ca12  1  0.818711  0.145098  0.797662  1
  Ca  Ca13  1  0.773309  0.495523  0.871728  1
  Ca  Ca14  1  0.314628  0.917791  0.879299  1
  Ca  Ca15  1  0.280093  0.272121  0.951090  1
  Cr  Cr16  1  0.776363  0.127515  0.029661  1
  Cr  Cr17  1  0.176582  0.283872  0.226402  1
  Cr  Cr18  1  0.676582  0.783872  0.273598  1
  Cr  Cr19  1  0.276363  0.627515  0.470339  1
  Cr  Cr20  1  0.723637  0.127515  0.529661  1
  Cr  Cr21  1  0.323418  0.283872  0.726402  1
  Cr  Cr22  1  0.823418  0.783872  0.773598  1
  Cr  Cr23  1  0.223637  0.627515  0.970339  1
  O  O24  1  0.557844  0.997585  0.016978  1
  O  O25  1  0.956467  0.559439  0.026892  1
  O  O26  1  0.285725  0.772644  0.048347  1
  O  O27  1  0.352892  0.245223  0.119669  1
  O  O28  1  0.869971  0.194705  0.148102  1
  O  O29  1  0.613684  0.639712  0.191264  1
  O  O30  1  0.942401  0.845102  0.198314  1
  O  O31  1  0.493119  0.936508  0.257977  1
  O  O32  1  0.993119  0.436508  0.242023  1
  O  O33  1  0.442401  0.345102  0.301686  1
  O  O34  1  0.113684  0.139712  0.308736  1
  O  O35  1  0.369971  0.694705  0.351898  1
  O  O36  1  0.852892  0.745223  0.380331  1
  O  O37  1  0.785725  0.272644  0.451653  1
  O  O38  1  0.456467  0.059439  0.473108  1
  O  O39  1  0.057844  0.497585  0.483022  1
  O  O40  1  0.942156  0.997585  0.516978  1
  O  O41  1  0.543533  0.559439  0.526892  1
  O  O42  1  0.214275  0.772644  0.548347  1
  O  O43  1  0.147108  0.245223  0.619669  1
  O  O44  1  0.630029  0.194705  0.648102  1
  O  O45  1  0.886316  0.639712  0.691264  1
  O  O46  1  0.557599  0.845102  0.698314  1
  O  O47  1  0.006881  0.936508  0.757977  1
  O  O48  1  0.506881  0.436508  0.742023  1
  O  O49  1  0.057599  0.345102  0.801686  1
  O  O50  1  0.386316  0.139712  0.808736  1
  O  O51  1  0.130029  0.694705  0.851898  1
  O  O52  1  0.647108  0.745223  0.880331  1
  O  O53  1  0.714275  0.272644  0.951653  1
  O  O54  1  0.043533  0.059439  0.973108  1
  O  O55  1  0.442156  0.497585  0.983022  1
