# generated using pymatgen
data_Li5Fe8(BO3)8
_symmetry_space_group_name_H-M   'P 1'
_cell_length_a   5.21850947
_cell_length_b   9.11761349
_cell_length_c   11.33062943
_cell_angle_alpha   112.35037586
_cell_angle_beta   102.55130263
_cell_angle_gamma   90.02449499
_symmetry_Int_Tables_number   1
_chemical_formula_structural   Li5Fe8(BO3)8
_chemical_formula_sum   'Li5 Fe8 B8 O24'
_cell_volume   484.63411699
_cell_formula_units_Z   1
loop_
 _symmetry_equiv_pos_site_id
 _symmetry_equiv_pos_as_xyz
  1  'x, y, z'
loop_
 _atom_site_type_symbol
 _atom_site_label
 _atom_site_symmetry_multiplicity
 _atom_site_fract_x
 _atom_site_fract_y
 _atom_site_fract_z
 _atom_site_occupancy
  Li  Li0  1  0.028696  0.033738  0.397166  1
  Li  Li1  1  0.300391  0.277658  0.915905  1
  Li  Li2  1  0.487108  0.507756  0.660619  1
  Li  Li3  1  0.978810  0.003327  0.660852  1
  Li  Li4  1  0.762801  0.749259  0.158783  1
  Fe  Fe5  1  0.021000  0.359846  0.375417  1
  Fe  Fe6  1  0.266682  0.922776  0.881172  1
  Fe  Fe7  1  0.485019  0.156864  0.629431  1
  Fe  Fe8  1  0.239721  0.565368  0.136147  1
  Fe  Fe9  1  0.772706  0.446894  0.878621  1
  Fe  Fe10  1  0.529102  0.844985  0.388703  1
  Fe  Fe11  1  0.963807  0.651273  0.628846  1
  Fe  Fe12  1  0.748110  0.069458  0.127022  1
  B  B13  1  0.027639  0.684681  0.375491  1
  B  B14  1  0.267156  0.599672  0.875981  1
  B  B15  1  0.479228  0.820446  0.637647  1
  B  B16  1  0.235882  0.887755  0.127391  1
  B  B17  1  0.514602  0.185984  0.376952  1
  B  B18  1  0.763016  0.104642  0.875868  1
  B  B19  1  0.971838  0.310636  0.618553  1
  B  B20  1  0.733135  0.407058  0.132455  1
  O  O21  1  0.023507  0.086761  0.863401  1
  O  O22  1  0.112303  0.708433  0.840863  1
  O  O23  1  0.167688  0.500320  0.928870  1
  O  O24  1  0.083073  0.170916  0.611121  1
  O  O25  1  0.090507  0.420215  0.582155  1
  O  O26  1  0.241072  0.852964  0.679794  1
  O  O27  1  0.255757  0.654913  0.327750  1
  O  O28  1  0.513164  0.588045  0.854550  1
  O  O29  1  0.622808  0.220114  0.844746  1
  O  O30  1  0.420209  0.069532  0.412820  1
  O  O31  1  0.368128  0.307341  0.371293  1
  O  O32  1  0.638052  0.008430  0.919850  1
  O  O33  1  0.350211  0.977763  0.074042  1
  O  O34  1  0.594523  0.686304  0.633182  1
  O  O35  1  0.588881  0.929226  0.597998  1
  O  O36  1  0.391340  0.775205  0.160844  1
  O  O37  1  0.462941  0.397827  0.111935  1
  O  O38  1  0.738641  0.344131  0.661622  1
  O  O39  1  0.767673  0.176547  0.348212  1
  O  O40  1  0.938987  0.581558  0.423908  1
  O  O41  1  0.897865  0.815214  0.371386  1
  O  O42  1  0.855729  0.520135  0.099887  1
  O  O43  1  0.880086  0.307168  0.179063  1
  O  O44  1  0.987441  0.904202  0.147647  1
