# generated using pymatgen
data_Yb4Sb2O
_symmetry_space_group_name_H-M   'P 1'
_cell_length_a   8.73644337
_cell_length_b   8.73644337
_cell_length_c   8.73644337
_cell_angle_alpha   149.14576336
_cell_angle_beta   149.14576336
_cell_angle_gamma   44.19679399
_symmetry_Int_Tables_number   1
_chemical_formula_structural   Yb4Sb2O
_chemical_formula_sum   'Yb4 Sb2 O1'
_cell_volume   174.87652855
_cell_formula_units_Z   1
loop_
 _symmetry_equiv_pos_site_id
 _symmetry_equiv_pos_as_xyz
  1  'x, y, z'
loop_
 _atom_site_type_symbol
 _atom_site_label
 _atom_site_symmetry_multiplicity
 _atom_site_fract_x
 _atom_site_fract_y
 _atom_site_fract_z
 _atom_site_occupancy
  Yb  Yb0  1  0.000000  0.500000  0.500000  1
  Yb  Yb1  1  0.663119  0.663119  0.000000  1
  Yb  Yb2  1  0.336881  0.336881  0.000000  1
  Yb  Yb3  1  0.500000  1.000000  0.500000  1
  Sb  Sb4  1  0.139332  0.139332  0.000000  1
  Sb  Sb5  1  0.860668  0.860668  0.000000  1
  O  O6  1  0.500000  0.500000  0.000000  1
