# generated using pymatgen
data_Gd3Y13O24
_symmetry_space_group_name_H-M   'P 1'
_cell_length_a   9.28532297
_cell_length_b   9.29629879
_cell_length_c   9.29608432
_cell_angle_alpha   109.49508881
_cell_angle_beta   109.44542900
_cell_angle_gamma   109.44963856
_symmetry_Int_Tables_number   1
_chemical_formula_structural   Gd3Y13O24
_chemical_formula_sum   'Gd3 Y13 O24'
_cell_volume   617.88990061
_cell_formula_units_Z   1
loop_
 _symmetry_equiv_pos_site_id
 _symmetry_equiv_pos_as_xyz
  1  'x, y, z'
loop_
 _atom_site_type_symbol
 _atom_site_label
 _atom_site_symmetry_multiplicity
 _atom_site_fract_x
 _atom_site_fract_y
 _atom_site_fract_z
 _atom_site_occupancy
  Gd  Gd0  1  0.281700  0.031869  0.749759  1
  Gd  Gd1  1  0.532937  0.750449  0.717246  1
  Gd  Gd2  1  0.249331  0.281693  0.968671  1
  Y  Y3  1  0.500675  0.500671  0.498676  1
  Y  Y4  1  0.749426  0.716701  0.033433  1
  Y  Y5  1  0.031866  0.748429  0.218441  1
  Y  Y6  1  0.467852  0.250236  0.282319  1
  Y  Y7  1  0.716875  0.967063  0.249562  1
  Y  Y8  1  0.216591  0.466908  0.251569  1
  Y  Y9  1  0.998108  0.498800  0.001359  1
  Y  Y10  1  0.000264  0.000099  0.499865  1
  Y  Y11  1  0.249779  0.782523  0.466319  1
  Y  Y12  1  0.500510  0.000002  0.000581  1
  Y  Y13  1  0.750869  0.218194  0.532609  1
  Y  Y14  1  0.783953  0.533158  0.749631  1
  Y  Y15  1  0.966429  0.250374  0.782782  1
  O  O16  1  0.468660  0.511026  0.260558  1
  O  O17  1  0.271842  0.728990  0.239294  1
  O  O18  1  0.229390  0.262941  0.726120  1
  O  O19  1  0.728616  0.457262  0.031458  1
  O  O20  1  0.010221  0.238752  0.532234  1
  O  O21  1  0.510874  0.042473  0.228090  1
  O  O22  1  0.228533  0.988714  0.540088  1
  O  O23  1  0.028968  0.767792  0.960171  1
  O  O24  1  0.457694  0.728170  0.508458  1
  O  O25  1  0.957465  0.468166  0.271344  1
  O  O26  1  0.239070  0.228627  0.231857  1
  O  O27  1  0.739188  0.968131  0.989169  1
  O  O28  1  0.763842  0.772218  0.770251  1
  O  O29  1  0.042740  0.532135  0.729311  1
  O  O30  1  0.259687  0.028414  0.013747  1
  O  O31  1  0.544382  0.273476  0.486617  1
  O  O32  1  0.773536  0.013203  0.455285  1
  O  O33  1  0.965817  0.229439  0.042143  1
  O  O34  1  0.988939  0.760701  0.468292  1
  O  O35  1  0.492030  0.960531  0.771657  1
  O  O36  1  0.770806  0.739456  0.271513  1
  O  O37  1  0.268429  0.542123  0.971208  1
  O  O38  1  0.728615  0.271019  0.761203  1
  O  O39  1  0.533490  0.489072  0.737111  1
