# generated using pymatgen
data_LiVBO4
_symmetry_space_group_name_H-M   'P 1'
_cell_length_a   8.33552484
_cell_length_b   8.33552484
_cell_length_c   5.22500395
_cell_angle_alpha   90.00000000
_cell_angle_beta   90.00000000
_cell_angle_gamma   112.23969584
_symmetry_Int_Tables_number   1
_chemical_formula_structural   LiVBO4
_chemical_formula_sum   'Li4 V4 B4 O16'
_cell_volume   336.03142842
_cell_formula_units_Z   4
loop_
 _symmetry_equiv_pos_site_id
 _symmetry_equiv_pos_as_xyz
  1  'x, y, z'
loop_
 _atom_site_type_symbol
 _atom_site_label
 _atom_site_symmetry_multiplicity
 _atom_site_fract_x
 _atom_site_fract_y
 _atom_site_fract_z
 _atom_site_occupancy
  Li  Li0  1  0.250144  0.700717  0.241750  1
  Li  Li1  1  0.299283  0.749856  0.741750  1
  Li  Li2  1  0.700717  0.250144  0.741750  1
  Li  Li3  1  0.749856  0.299283  0.241750  1
  V  V4  1  0.102091  0.297761  0.530882  1
  V  V5  1  0.297761  0.102091  0.030882  1
  V  V6  1  0.702239  0.897909  0.030882  1
  V  V7  1  0.897909  0.702239  0.530882  1
  B  B8  1  0.177289  0.389733  0.976443  1
  B  B9  1  0.610267  0.822711  0.476443  1
  B  B10  1  0.389733  0.177289  0.476443  1
  B  B11  1  0.822711  0.610267  0.976443  1
  O  O12  1  0.147170  0.218960  0.892565  1
  O  O13  1  0.185524  0.445152  0.222149  1
  O  O14  1  0.195737  0.496202  0.765256  1
  O  O15  1  0.113068  0.762814  0.504464  1
  O  O16  1  0.237186  0.886932  0.004464  1
  O  O17  1  0.218960  0.147170  0.392565  1
  O  O18  1  0.503798  0.804263  0.265256  1
  O  O19  1  0.554848  0.814476  0.722149  1
  O  O20  1  0.445152  0.185524  0.722149  1
  O  O21  1  0.496202  0.195737  0.265256  1
  O  O22  1  0.781040  0.852830  0.392565  1
  O  O23  1  0.762814  0.113068  0.004464  1
  O  O24  1  0.886932  0.237186  0.504464  1
  O  O25  1  0.804263  0.503798  0.765256  1
  O  O26  1  0.814476  0.554848  0.222149  1
  O  O27  1  0.852830  0.781040  0.892565  1
