# generated using pymatgen
data_Fe4O3F5
_symmetry_space_group_name_H-M   'P 1'
_cell_length_a   4.78850050
_cell_length_b   4.78850050
_cell_length_c   12.37619764
_cell_angle_alpha   90.00000000
_cell_angle_beta   90.00000000
_cell_angle_gamma   94.17688731
_symmetry_Int_Tables_number   1
_chemical_formula_structural   Fe4O3F5
_chemical_formula_sum   'Fe8 O6 F10'
_cell_volume   283.02921313
_cell_formula_units_Z   2
loop_
 _symmetry_equiv_pos_site_id
 _symmetry_equiv_pos_as_xyz
  1  'x, y, z'
loop_
 _atom_site_type_symbol
 _atom_site_label
 _atom_site_symmetry_multiplicity
 _atom_site_fract_x
 _atom_site_fract_y
 _atom_site_fract_z
 _atom_site_occupancy
  Fe  Fe0  1  0.000000  0.000000  0.000000  1
  Fe  Fe1  1  0.973648  0.973648  0.250000  1
  Fe  Fe2  1  0.000000  0.000000  0.500000  1
  Fe  Fe3  1  0.026352  0.026352  0.750000  1
  Fe  Fe4  1  0.509523  0.509523  0.119028  1
  Fe  Fe5  1  0.490477  0.490477  0.619028  1
  Fe  Fe6  1  0.490477  0.490477  0.880972  1
  Fe  Fe7  1  0.509523  0.509523  0.380972  1
  O  O8  1  0.298189  0.298189  0.002584  1
  O  O9  1  0.298189  0.298189  0.497416  1
  O  O10  1  0.328734  0.328734  0.750000  1
  O  O11  1  0.701811  0.701811  0.997416  1
  O  O12  1  0.671266  0.671266  0.250000  1
  O  O13  1  0.701811  0.701811  0.502584  1
  F  F14  1  0.795814  0.197136  0.119621  1
  F  F15  1  0.802864  0.204186  0.880379  1
  F  F16  1  0.795814  0.197136  0.380379  1
  F  F17  1  0.802864  0.204186  0.619621  1
  F  F18  1  0.287552  0.287551  0.250000  1
  F  F19  1  0.712449  0.712449  0.750000  1
  F  F20  1  0.197136  0.795814  0.380379  1
  F  F21  1  0.204186  0.802864  0.619621  1
  F  F22  1  0.197136  0.795814  0.119621  1
  F  F23  1  0.204186  0.802864  0.880379  1
