# generated using pymatgen
data_KAlP2H4O9
_symmetry_space_group_name_H-M   'P 1'
_cell_length_a   10.11100235
_cell_length_b   9.20816271
_cell_length_c   16.38954743
_cell_angle_alpha   90.00000000
_cell_angle_beta   100.06128285
_cell_angle_gamma   90.00000000
_symmetry_Int_Tables_number   1
_chemical_formula_structural   KAlP2H4O9
_chemical_formula_sum   'K8 Al8 P16 H32 O72'
_cell_volume   1502.46185096
_cell_formula_units_Z   8
loop_
 _symmetry_equiv_pos_site_id
 _symmetry_equiv_pos_as_xyz
  1  'x, y, z'
loop_
 _atom_site_type_symbol
 _atom_site_label
 _atom_site_symmetry_multiplicity
 _atom_site_fract_x
 _atom_site_fract_y
 _atom_site_fract_z
 _atom_site_occupancy
  K  K0  1  0.109175  0.946957  0.888979  1
  K  K1  1  0.890825  0.446957  0.611021  1
  K  K2  1  0.890825  0.053043  0.111021  1
  K  K3  1  0.109175  0.553043  0.388979  1
  K  K4  1  0.771723  0.155540  0.770728  1
  K  K5  1  0.228277  0.655540  0.729272  1
  K  K6  1  0.228277  0.844460  0.229272  1
  K  K7  1  0.771723  0.344460  0.270728  1
  Al  Al8  1  0.410113  0.312110  0.804327  1
  Al  Al9  1  0.589887  0.812110  0.695673  1
  Al  Al10  1  0.589887  0.687890  0.195673  1
  Al  Al11  1  0.410113  0.187890  0.304327  1
  Al  Al12  1  0.927120  0.582751  0.850940  1
  Al  Al13  1  0.072880  0.082751  0.649060  1
  Al  Al14  1  0.072880  0.417249  0.149060  1
  Al  Al15  1  0.927120  0.917249  0.350940  1
  P  P16  1  0.713677  0.830094  0.890962  1
  P  P17  1  0.286323  0.330094  0.609038  1
  P  P18  1  0.286323  0.169906  0.109038  1
  P  P19  1  0.713677  0.669906  0.390962  1
  P  P20  1  0.357940  0.984002  0.761111  1
  P  P21  1  0.642060  0.484002  0.738889  1
  P  P22  1  0.642060  0.015998  0.238889  1
  P  P23  1  0.357940  0.515998  0.261111  1
  P  P24  1  0.097332  0.305917  0.803281  1
  P  P25  1  0.902668  0.805917  0.696719  1
  P  P26  1  0.902668  0.694083  0.196719  1
  P  P27  1  0.097332  0.194083  0.303281  1
  P  P28  1  0.168653  0.637963  0.008323  1
  P  P29  1  0.831347  0.137963  0.491677  1
  P  P30  1  0.831347  0.362037  0.991677  1
  P  P31  1  0.168653  0.862037  0.508323  1
  H  H32  1  0.475785  0.574229  0.862359  1
  H  H33  1  0.524215  0.074229  0.637641  1
  H  H34  1  0.524215  0.425771  0.137641  1
  H  H35  1  0.475785  0.925771  0.362359  1
  H  H36  1  0.359994  0.513797  0.908881  1
  H  H37  1  0.640006  0.013797  0.591119  1
  H  H38  1  0.640006  0.486203  0.091119  1
  H  H39  1  0.359994  0.986203  0.408881  1
  H  H40  1  0.445249  0.222717  0.962427  1
  H  H41  1  0.554751  0.722717  0.537573  1
  H  H42  1  0.554751  0.777283  0.037573  1
  H  H43  1  0.445249  0.277283  0.462427  1
  H  H44  1  0.409962  0.759728  0.066649  1
  H  H45  1  0.590038  0.259728  0.433351  1
  H  H46  1  0.590038  0.240272  0.933351  1
  H  H47  1  0.409962  0.740272  0.566649  1
  H  H48  1  0.789541  0.048186  0.941551  1
  H  H49  1  0.210459  0.548186  0.558449  1
  H  H50  1  0.210459  0.951814  0.058449  1
  H  H51  1  0.789541  0.451814  0.441551  1
  H  H52  1  0.458999  0.891213  0.883726  1
  H  H53  1  0.541001  0.391213  0.616274  1
  H  H54  1  0.541001  0.108787  0.116274  1
  H  H55  1  0.458999  0.608787  0.383726  1
  H  H56  1  0.020566  0.703303  0.100716  1
  H  H57  1  0.979434  0.203303  0.399284  1
  H  H58  1  0.979434  0.296697  0.899284  1
  H  H59  1  0.020566  0.796697  0.600716  1
  H  H60  1  0.264839  0.428528  0.029669  1
  H  H61  1  0.735161  0.928528  0.470331  1
  H  H62  1  0.735161  0.571472  0.970331  1
  H  H63  1  0.264839  0.071472  0.529669  1
  O  O64  1  0.593289  0.821650  0.935686  1
  O  O65  1  0.406711  0.321650  0.564314  1
  O  O66  1  0.406711  0.178350  0.064314  1
  O  O67  1  0.593289  0.678350  0.435686  1
  O  O68  1  0.823392  0.946959  0.934617  1
  O  O69  1  0.176608  0.446959  0.565383  1
  O  O70  1  0.176608  0.053041  0.065383  1
  O  O71  1  0.823392  0.553041  0.434617  1
  O  O72  1  0.674347  0.883720  0.800744  1
  O  O73  1  0.325653  0.383720  0.699256  1
  O  O74  1  0.325653  0.116280  0.199256  1
  O  O75  1  0.674347  0.616280  0.300744  1
  O  O76  1  0.791360  0.684391  0.899167  1
  O  O77  1  0.208640  0.184391  0.600833  1
  O  O78  1  0.208640  0.315609  0.100833  1
  O  O79  1  0.791360  0.815609  0.399167  1
  O  O80  1  0.433391  0.128395  0.761134  1
  O  O81  1  0.566609  0.628395  0.738866  1
  O  O82  1  0.566609  0.871605  0.238866  1
  O  O83  1  0.433391  0.371605  0.261134  1
  O  O84  1  0.419880  0.871392  0.709244  1
  O  O85  1  0.580120  0.371392  0.790756  1
  O  O86  1  0.580120  0.128608  0.290756  1
  O  O87  1  0.419880  0.628608  0.209244  1
  O  O88  1  0.206093  0.993757  0.731227  1
  O  O89  1  0.793907  0.493757  0.768773  1
  O  O90  1  0.793907  0.006243  0.268773  1
  O  O91  1  0.206093  0.506243  0.231227  1
  O  O92  1  0.366354  0.921442  0.852607  1
  O  O93  1  0.633646  0.421442  0.647393  1
  O  O94  1  0.633646  0.078558  0.147393  1
  O  O95  1  0.366354  0.578558  0.352607  1
  O  O96  1  0.020817  0.219652  0.866184  1
  O  O97  1  0.979183  0.719652  0.633816  1
  O  O98  1  0.979183  0.780348  0.133816  1
  O  O99  1  0.020817  0.280348  0.366184  1
  O  O100  1  0.246491  0.279077  0.835308  1
  O  O101  1  0.753509  0.779077  0.664692  1
  O  O102  1  0.753509  0.720923  0.164692  1
  O  O103  1  0.246491  0.220923  0.335308  1
  O  O104  1  0.057637  0.466495  0.805046  1
  O  O105  1  0.942363  0.966495  0.694954  1
  O  O106  1  0.942363  0.533505  0.194954  1
  O  O107  1  0.057637  0.033505  0.305046  1
  O  O108  1  0.046276  0.239823  0.717586  1
  O  O109  1  0.953724  0.739823  0.782414  1
  O  O110  1  0.953724  0.760177  0.282414  1
  O  O111  1  0.046276  0.260177  0.217586  1
  O  O112  1  0.278102  0.516782  0.995420  1
  O  O113  1  0.721898  0.016782  0.504580  1
  O  O114  1  0.721898  0.483218  0.004580  1
  O  O115  1  0.278102  0.983218  0.495420  1
  O  O116  1  0.243520  0.777899  0.038270  1
  O  O117  1  0.756480  0.277899  0.461730  1
  O  O118  1  0.756480  0.222101  0.961730  1
  O  O119  1  0.243520  0.722101  0.538270  1
  O  O120  1  0.091622  0.573512  0.073744  1
  O  O121  1  0.908378  0.073512  0.426256  1
  O  O122  1  0.908378  0.426488  0.926256  1
  O  O123  1  0.091622  0.926488  0.573744  1
  O  O124  1  0.073602  0.665621  0.926698  1
  O  O125  1  0.926398  0.165621  0.573302  1
  O  O126  1  0.926398  0.334379  0.073302  1
  O  O127  1  0.073602  0.834379  0.426698  1
  O  O128  1  0.393600  0.516514  0.855288  1
  O  O129  1  0.606400  0.016514  0.644712  1
  O  O130  1  0.606400  0.483486  0.144712  1
  O  O131  1  0.393600  0.983486  0.355288  1
  O  O132  1  0.490492  0.250024  0.915640  1
  O  O133  1  0.509508  0.750024  0.584360  1
  O  O134  1  0.509508  0.749976  0.084360  1
  O  O135  1  0.490492  0.249976  0.415640  1
