# generated using pymatgen
data_Dy2(BiO2)7
_symmetry_space_group_name_H-M   'P 1'
_cell_length_a   10.58603676
_cell_length_b   10.58603676
_cell_length_c   10.50346411
_cell_angle_alpha   65.61132593
_cell_angle_beta   114.38867407
_cell_angle_gamma   158.66538544
_symmetry_Int_Tables_number   1
_chemical_formula_structural   Dy2(BiO2)7
_chemical_formula_sum   'Dy2 Bi7 O14'
_cell_volume   388.59374319
_cell_formula_units_Z   1
loop_
 _symmetry_equiv_pos_site_id
 _symmetry_equiv_pos_as_xyz
  1  'x, y, z'
loop_
 _atom_site_type_symbol
 _atom_site_label
 _atom_site_symmetry_multiplicity
 _atom_site_fract_x
 _atom_site_fract_y
 _atom_site_fract_z
 _atom_site_occupancy
  Dy  Dy0  1  0.004714  0.995286  0.000839  1
  Dy  Dy1  1  0.668416  0.331584  0.020226  1
  Bi  Bi2  1  0.510808  0.489192  0.307497  1
  Bi  Bi3  1  0.155052  0.844948  0.671369  1
  Bi  Bi4  1  0.180012  0.819988  0.318370  1
  Bi  Bi5  1  0.820845  0.179155  0.687212  1
  Bi  Bi6  1  0.329810  0.670190  0.988623  1
  Bi  Bi7  1  0.842790  0.157210  0.326991  1
  Bi  Bi8  1  0.487453  0.512547  0.684750  1
  O  O9  1  0.542288  0.457712  0.906286  1
  O  O10  1  0.050125  0.949875  0.672389  1
  O  O11  1  0.065525  0.934475  0.262239  1
  O  O12  1  0.200578  0.799422  0.899916  1
  O  O13  1  0.666897  0.333103  0.586889  1
  O  O14  1  0.710692  0.289308  0.259061  1
  O  O15  1  0.132586  0.867414  0.088555  1
  O  O16  1  0.866687  0.133313  0.914805  1
  O  O17  1  0.289251  0.710749  0.748340  1
  O  O18  1  0.789222  0.210778  0.101798  1
  O  O19  1  0.936226  0.063774  0.747093  1
  O  O20  1  0.336823  0.663177  0.418102  1
  O  O21  1  0.942561  0.057439  0.303594  1
  O  O22  1  0.470651  0.529349  0.085055  1
