# generated using pymatgen
data_Li3VSiBO7
_symmetry_space_group_name_H-M   'P 1'
_cell_length_a   5.05099706
_cell_length_b   6.44619677
_cell_length_c   8.38068723
_cell_angle_alpha   90.00000000
_cell_angle_beta   93.56283541
_cell_angle_gamma   90.00000000
_symmetry_Int_Tables_number   1
_chemical_formula_structural   Li3VSiBO7
_chemical_formula_sum   'Li6 V2 Si2 B2 O14'
_cell_volume   272.34544181
_cell_formula_units_Z   2
loop_
 _symmetry_equiv_pos_site_id
 _symmetry_equiv_pos_as_xyz
  1  'x, y, z'
loop_
 _atom_site_type_symbol
 _atom_site_label
 _atom_site_symmetry_multiplicity
 _atom_site_fract_x
 _atom_site_fract_y
 _atom_site_fract_z
 _atom_site_occupancy
  Li  Li0  1  0.255280  0.750000  0.101063  1
  Li  Li1  1  0.768247  0.000420  0.236840  1
  Li  Li2  1  0.768247  0.499580  0.236840  1
  Li  Li3  1  0.231753  0.500420  0.763160  1
  Li  Li4  1  0.231753  0.999580  0.763160  1
  Li  Li5  1  0.744720  0.250000  0.898937  1
  V  V6  1  0.203429  0.250000  0.327644  1
  V  V7  1  0.796571  0.750000  0.672356  1
  Si  Si8  1  0.280624  0.750000  0.424915  1
  Si  Si9  1  0.719376  0.250000  0.575085  1
  B  B10  1  0.263780  0.250000  0.038426  1
  B  B11  1  0.736220  0.750000  0.961574  1
  O  O12  1  0.657822  0.750000  0.111895  1
  O  O13  1  0.007063  0.250000  0.089803  1
  O  O14  1  0.456978  0.250000  0.171108  1
  O  O15  1  0.185354  0.945220  0.310347  1
  O  O16  1  0.185354  0.554780  0.310347  1
  O  O17  1  0.601777  0.750000  0.469220  1
  O  O18  1  0.857016  0.250000  0.401557  1
  O  O19  1  0.142984  0.750000  0.598443  1
  O  O20  1  0.398223  0.250000  0.530780  1
  O  O21  1  0.814646  0.445220  0.689653  1
  O  O22  1  0.814646  0.054780  0.689653  1
  O  O23  1  0.543022  0.750000  0.828892  1
  O  O24  1  0.992937  0.750000  0.910197  1
  O  O25  1  0.342178  0.250000  0.888105  1
