# generated using pymatgen
data_Sr3Li4La5O12
_symmetry_space_group_name_H-M   'P 1'
_cell_length_a   6.98671407
_cell_length_b   3.59119434
_cell_length_c   13.61394349
_cell_angle_alpha   90.00000000
_cell_angle_beta   90.05723849
_cell_angle_gamma   90.00000000
_symmetry_Int_Tables_number   1
_chemical_formula_structural   Sr3Li4La5O12
_chemical_formula_sum   'Sr3 Li4 La5 O12'
_cell_volume   341.58249368
_cell_formula_units_Z   1
loop_
 _symmetry_equiv_pos_site_id
 _symmetry_equiv_pos_as_xyz
  1  'x, y, z'
loop_
 _atom_site_type_symbol
 _atom_site_label
 _atom_site_symmetry_multiplicity
 _atom_site_fract_x
 _atom_site_fract_y
 _atom_site_fract_z
 _atom_site_occupancy
  Sr  Sr0  1  0.913025  0.500000  0.217508  1
  Sr  Sr1  1  0.411683  0.500000  0.279075  1
  Sr  Sr2  1  0.589165  0.000000  0.720424  1
  Li  Li3  1  0.623430  0.000000  0.134374  1
  Li  Li4  1  0.123704  0.000000  0.364682  1
  Li  Li5  1  0.875262  0.500000  0.631451  1
  Li  Li6  1  0.382816  0.500000  0.868631  1
  La  La7  1  0.241601  0.000000  0.042878  1
  La  La8  1  0.742637  0.000000  0.455768  1
  La  La9  1  0.257473  0.500000  0.541564  1
  La  La10  1  0.085928  0.000000  0.783008  1
  La  La11  1  0.760220  0.500000  0.957393  1
  O  O12  1  0.868444  0.000000  0.068491  1
  O  O13  1  0.486578  0.500000  0.096440  1
  O  O14  1  0.180871  0.000000  0.222729  1
  O  O15  1  0.680273  0.000000  0.280786  1
  O  O16  1  0.989857  0.500000  0.406606  1
  O  O17  1  0.366341  0.000000  0.436913  1
  O  O18  1  0.629926  0.500000  0.563657  1
  O  O19  1  0.010479  0.000000  0.602996  1
  O  O20  1  0.312906  0.500000  0.723445  1
  O  O21  1  0.831637  0.500000  0.772282  1
  O  O22  1  0.501920  0.000000  0.899814  1
  O  O23  1  0.133824  0.500000  0.929087  1
