# generated using pymatgen
data_Li2Ti2VO6
_symmetry_space_group_name_H-M   'P 1'
_cell_length_a   6.71013083
_cell_length_b   6.76629014
_cell_length_c   8.52215380
_cell_angle_alpha   71.06125613
_cell_angle_beta   70.75770413
_cell_angle_gamma   83.06608432
_symmetry_Int_Tables_number   1
_chemical_formula_structural   Li2Ti2VO6
_chemical_formula_sum   'Li6 Ti6 V3 O18'
_cell_volume   345.49549904
_cell_formula_units_Z   3
loop_
 _symmetry_equiv_pos_site_id
 _symmetry_equiv_pos_as_xyz
  1  'x, y, z'
loop_
 _atom_site_type_symbol
 _atom_site_label
 _atom_site_symmetry_multiplicity
 _atom_site_fract_x
 _atom_site_fract_y
 _atom_site_fract_z
 _atom_site_occupancy
  Li  Li0  1  0.671830  0.998250  0.829586  1
  Li  Li1  1  0.672794  0.328129  0.496377  1
  Li  Li2  1  0.996886  0.336108  0.165636  1
  Li  Li3  1  0.003114  0.663892  0.834364  1
  Li  Li4  1  0.328170  0.001750  0.170414  1
  Li  Li5  1  0.327206  0.671871  0.503623  1
  Ti  Ti6  1  0.680863  0.994926  0.327221  1
  Ti  Ti7  1  0.675686  0.332367  0.995537  1
  Ti  Ti8  1  0.324314  0.667633  0.004463  1
  Ti  Ti9  1  0.319137  0.005074  0.672779  1
  Ti  Ti10  1  0.682702  0.664149  0.660792  1
  Ti  Ti11  1  0.317298  0.335851  0.339208  1
  V  V12  1  0.000000  0.000000  0.000000  1
  V  V13  1  0.006810  0.327709  0.665873  1
  V  V14  1  0.993190  0.672291  0.334127  1
  O  O15  1  0.017844  0.999305  0.752719  1
  O  O16  1  0.345324  0.694270  0.752994  1
  O  O17  1  0.982001  0.654560  0.590228  1
  O  O18  1  0.982156  0.000695  0.247281  1
  O  O19  1  0.971134  0.332867  0.924334  1
  O  O20  1  0.336748  0.974652  0.911162  1
  O  O21  1  0.017999  0.345440  0.409772  1
  O  O22  1  0.028866  0.667133  0.075666  1
  O  O23  1  0.352496  0.019842  0.420672  1
  O  O24  1  0.348227  0.351567  0.095448  1
  O  O25  1  0.660251  0.682528  0.432825  1
  O  O26  1  0.663252  0.025348  0.088838  1
  O  O27  1  0.676434  0.349690  0.756610  1
  O  O28  1  0.339749  0.317472  0.567175  1
  O  O29  1  0.323566  0.650310  0.243390  1
  O  O30  1  0.647504  0.980158  0.579328  1
  O  O31  1  0.654676  0.305730  0.247006  1
  O  O32  1  0.651773  0.648433  0.904552  1
