# generated using pymatgen
data_Li7Ti12NbO30
_symmetry_space_group_name_H-M   'P 1'
_cell_length_a   23.75377665
_cell_length_b   23.75377665
_cell_length_c   23.75377665
_cell_angle_alpha   12.42433624
_cell_angle_beta   12.42433624
_cell_angle_gamma   12.42433624
_symmetry_Int_Tables_number   1
_chemical_formula_structural   Li7Ti12NbO30
_chemical_formula_sum   'Li7 Ti12 Nb1 O30'
_cell_volume   539.39922772
_cell_formula_units_Z   1
loop_
 _symmetry_equiv_pos_site_id
 _symmetry_equiv_pos_as_xyz
  1  'x, y, z'
loop_
 _atom_site_type_symbol
 _atom_site_label
 _atom_site_symmetry_multiplicity
 _atom_site_fract_x
 _atom_site_fract_y
 _atom_site_fract_z
 _atom_site_occupancy
  Li  Li0  1  0.025955  0.025955  0.025955  1
  Li  Li1  1  0.245815  0.245815  0.245815  1
  Li  Li2  1  0.608526  0.608526  0.608526  1
  Li  Li3  1  0.391012  0.391012  0.391012  1
  Li  Li4  1  0.526368  0.526368  0.526368  1
  Li  Li5  1  0.973952  0.973952  0.973952  1
  Li  Li6  1  0.890225  0.890225  0.890225  1
  Ti  Ti7  1  0.105041  0.105041  0.105041  1
  Ti  Ti8  1  0.162167  0.162167  0.162167  1
  Ti  Ti9  1  0.203951  0.203951  0.203951  1
  Ti  Ti10  1  0.065165  0.065165  0.065165  1
  Ti  Ti11  1  0.296127  0.296127  0.296127  1
  Ti  Ti12  1  0.662278  0.662278  0.662278  1
  Ti  Ti13  1  0.338316  0.338316  0.338316  1
  Ti  Ti14  1  0.432562  0.432562  0.432562  1
  Ti  Ti15  1  0.566332  0.566332  0.566332  1
  Ti  Ti16  1  0.704505  0.704505  0.704505  1
  Ti  Ti17  1  0.797837  0.797837  0.797837  1
  Ti  Ti18  1  0.838168  0.838168  0.838168  1
  Nb  Nb19  1  0.932207  0.932207  0.932207  1
  O  O20  1  0.006081  0.350951  0.595901  1
  O  O21  1  0.015860  0.374891  0.759676  1
  O  O22  1  0.595901  0.006081  0.350951  1
  O  O23  1  0.149038  0.495490  0.904841  1
  O  O24  1  0.350951  0.595901  0.006081  1
  O  O25  1  0.254825  0.625229  0.869929  1
  O  O26  1  0.112057  0.457496  0.779475  1
  O  O27  1  0.067934  0.876220  0.506517  1
  O  O28  1  0.244222  0.985281  0.621871  1
  O  O29  1  0.327623  0.164013  0.763067  1
  O  O30  1  0.507859  0.263664  0.879868  1
  O  O31  1  0.621871  0.244222  0.985281  1
  O  O32  1  0.506517  0.067934  0.876220  1
  O  O33  1  0.263664  0.879868  0.507859  1
  O  O34  1  0.164013  0.763067  0.327623  1
  O  O35  1  0.869929  0.254825  0.625229  1
  O  O36  1  0.779475  0.112057  0.457496  1
  O  O37  1  0.495490  0.904841  0.149038  1
  O  O38  1  0.374891  0.759676  0.015860  1
  O  O39  1  0.457496  0.779475  0.112057  1
  O  O40  1  0.625229  0.869929  0.254825  1
  O  O41  1  0.759676  0.015860  0.374891  1
  O  O42  1  0.904841  0.149038  0.495490  1
  O  O43  1  0.879868  0.507859  0.263664  1
  O  O44  1  0.763067  0.327623  0.164013  1
  O  O45  1  0.648228  0.406818  0.994870  1
  O  O46  1  0.876220  0.506517  0.067934  1
  O  O47  1  0.406818  0.994870  0.648228  1
  O  O48  1  0.985281  0.621871  0.244222  1
  O  O49  1  0.994870  0.648228  0.406818  1
