# generated using pymatgen
data_Nd3SbO7
_symmetry_space_group_name_H-M   'P 1'
_cell_length_a   6.69528145
_cell_length_b   6.69528145
_cell_length_c   7.77022254
_cell_angle_alpha   90.00000000
_cell_angle_beta   90.00000000
_cell_angle_gamma   109.61080997
_symmetry_Int_Tables_number   1
_chemical_formula_structural   Nd3SbO7
_chemical_formula_sum   'Nd6 Sb2 O14'
_cell_volume   328.10990259
_cell_formula_units_Z   2
loop_
 _symmetry_equiv_pos_site_id
 _symmetry_equiv_pos_as_xyz
  1  'x, y, z'
loop_
 _atom_site_type_symbol
 _atom_site_label
 _atom_site_symmetry_multiplicity
 _atom_site_fract_x
 _atom_site_fract_y
 _atom_site_fract_z
 _atom_site_occupancy
  Nd  Nd0  1  0.500000  0.500000  0.500000  1
  Nd  Nd1  1  0.500000  0.500000  0.000000  1
  Nd  Nd2  1  0.532576  0.999287  0.750000  1
  Nd  Nd3  1  0.999287  0.532576  0.250000  1
  Nd  Nd4  1  0.467424  0.000713  0.250000  1
  Nd  Nd5  1  0.000713  0.467424  0.750000  1
  Sb  Sb6  1  0.000000  0.000000  0.500000  1
  Sb  Sb7  1  0.000000  0.000000  0.000000  1
  O  O8  1  0.685805  0.931372  0.473121  1
  O  O9  1  0.931372  0.685805  0.526879  1
  O  O10  1  0.685805  0.931372  0.026879  1
  O  O11  1  0.931372  0.685805  0.973121  1
  O  O12  1  0.314195  0.068628  0.526879  1
  O  O13  1  0.068628  0.314195  0.473121  1
  O  O14  1  0.314195  0.068628  0.973121  1
  O  O15  1  0.068628  0.314195  0.026879  1
  O  O16  1  0.938369  0.061631  0.750000  1
  O  O17  1  0.061631  0.938369  0.250000  1
  O  O18  1  0.370241  0.629759  0.750000  1
  O  O19  1  0.629759  0.370241  0.250000  1
  O  O20  1  0.634806  0.365194  0.750000  1
  O  O21  1  0.365194  0.634806  0.250000  1
