# generated using pymatgen
data_Li2MnPO4F
_symmetry_space_group_name_H-M   'P 1'
_cell_length_a   6.55837678
_cell_length_b   10.75810108
_cell_length_c   11.21600936
_cell_angle_alpha   90.00000000
_cell_angle_beta   90.00000000
_cell_angle_gamma   90.00000000
_symmetry_Int_Tables_number   1
_chemical_formula_structural   Li2MnPO4F
_chemical_formula_sum   'Li16 Mn8 P8 O32 F8'
_cell_volume   791.35317087
_cell_formula_units_Z   8
loop_
 _symmetry_equiv_pos_site_id
 _symmetry_equiv_pos_as_xyz
  1  'x, y, z'
loop_
 _atom_site_type_symbol
 _atom_site_label
 _atom_site_symmetry_multiplicity
 _atom_site_fract_x
 _atom_site_fract_y
 _atom_site_fract_z
 _atom_site_occupancy
  Li  Li0  1  0.250000  0.973465  0.771127  1
  Li  Li1  1  0.750000  0.768579  0.584157  1
  Li  Li2  1  0.490392  0.759756  0.831836  1
  Li  Li3  1  0.009608  0.759756  0.831836  1
  Li  Li4  1  0.990392  0.740244  0.331836  1
  Li  Li5  1  0.509608  0.740244  0.331836  1
  Li  Li6  1  0.250000  0.731421  0.084157  1
  Li  Li7  1  0.750000  0.526535  0.271127  1
  Li  Li8  1  0.250000  0.473465  0.728873  1
  Li  Li9  1  0.750000  0.268579  0.915843  1
  Li  Li10  1  0.490392  0.259756  0.668164  1
  Li  Li11  1  0.009608  0.259756  0.668164  1
  Li  Li12  1  0.990392  0.240244  0.168164  1
  Li  Li13  1  0.509608  0.240244  0.168164  1
  Li  Li14  1  0.250000  0.231421  0.415843  1
  Li  Li15  1  0.750000  0.026535  0.228873  1
  Mn  Mn16  1  0.000000  0.000000  0.500000  1
  Mn  Mn17  1  0.500000  0.000000  0.500000  1
  Mn  Mn18  1  0.000000  0.000000  0.000000  1
  Mn  Mn19  1  0.500000  0.000000  0.000000  1
  Mn  Mn20  1  0.000000  0.500000  0.000000  1
  Mn  Mn21  1  0.500000  0.500000  0.000000  1
  Mn  Mn22  1  0.000000  0.500000  0.500000  1
  Mn  Mn23  1  0.500000  0.500000  0.500000  1
  P  P24  1  0.250000  0.979497  0.245562  1
  P  P25  1  0.250000  0.754499  0.580594  1
  P  P26  1  0.750000  0.745501  0.080594  1
  P  P27  1  0.750000  0.520503  0.745562  1
  P  P28  1  0.250000  0.479497  0.254438  1
  P  P29  1  0.250000  0.254499  0.919406  1
  P  P30  1  0.750000  0.245501  0.419406  1
  P  P31  1  0.750000  0.020503  0.754438  1
  O  O32  1  0.750000  0.971178  0.623251  1
  O  O33  1  0.942722  0.965200  0.815857  1
  O  O34  1  0.557278  0.965200  0.815857  1
  O  O35  1  0.750000  0.889270  0.062542  1
  O  O36  1  0.250000  0.834707  0.244287  1
  O  O37  1  0.444987  0.804963  0.517331  1
  O  O38  1  0.055013  0.804963  0.517331  1
  O  O39  1  0.250000  0.785080  0.715538  1
  O  O40  1  0.750000  0.714920  0.215538  1
  O  O41  1  0.944987  0.695037  0.017331  1
  O  O42  1  0.555013  0.695037  0.017331  1
  O  O43  1  0.750000  0.665293  0.744287  1
  O  O44  1  0.250000  0.610730  0.562542  1
  O  O45  1  0.442722  0.534800  0.315857  1
  O  O46  1  0.057278  0.534800  0.315857  1
  O  O47  1  0.250000  0.528822  0.123251  1
  O  O48  1  0.750000  0.471178  0.876749  1
  O  O49  1  0.942722  0.465200  0.684143  1
  O  O50  1  0.557278  0.465200  0.684143  1
  O  O51  1  0.750000  0.389270  0.437458  1
  O  O52  1  0.250000  0.334707  0.255713  1
  O  O53  1  0.444987  0.304963  0.982669  1
  O  O54  1  0.055013  0.304963  0.982669  1
  O  O55  1  0.250000  0.285080  0.784462  1
  O  O56  1  0.750000  0.214920  0.284462  1
  O  O57  1  0.944987  0.195037  0.482669  1
  O  O58  1  0.555013  0.195037  0.482669  1
  O  O59  1  0.750000  0.165293  0.755713  1
  O  O60  1  0.250000  0.110730  0.937458  1
  O  O61  1  0.442722  0.034800  0.184143  1
  O  O62  1  0.057278  0.034800  0.184143  1
  O  O63  1  0.250000  0.028822  0.376749  1
  F  F64  1  0.750000  0.944984  0.378244  1
  F  F65  1  0.250000  0.864477  0.966700  1
  F  F66  1  0.750000  0.635523  0.466700  1
  F  F67  1  0.250000  0.555016  0.878244  1
  F  F68  1  0.750000  0.444984  0.121756  1
  F  F69  1  0.250000  0.364477  0.533300  1
  F  F70  1  0.750000  0.135523  0.033300  1
  F  F71  1  0.250000  0.055016  0.621756  1
