# generated using pymatgen
data_Li5La3Nb14O42
_symmetry_space_group_name_H-M   'P 1'
_cell_length_a   8.94935438
_cell_length_b   8.94935438
_cell_length_c   18.69117299
_cell_angle_alpha   84.26949594
_cell_angle_beta   95.73050406
_cell_angle_gamma   143.32618734
_symmetry_Int_Tables_number   1
_chemical_formula_structural   Li5La3Nb14O42
_chemical_formula_sum   'Li5 La3 Nb14 O42'
_cell_volume   889.13202664
_cell_formula_units_Z   1
loop_
 _symmetry_equiv_pos_site_id
 _symmetry_equiv_pos_as_xyz
  1  'x, y, z'
loop_
 _atom_site_type_symbol
 _atom_site_label
 _atom_site_symmetry_multiplicity
 _atom_site_fract_x
 _atom_site_fract_y
 _atom_site_fract_z
 _atom_site_occupancy
  Li  Li0  1  0.571710  0.428290  0.142682  1
  Li  Li1  1  0.428290  0.571710  0.857318  1
  Li  Li2  1  0.500000  0.500000  0.500000  1
  Li  Li3  1  0.286663  0.713337  0.572222  1
  Li  Li4  1  0.713337  0.286663  0.427778  1
  La  La5  1  0.143089  0.856911  0.286419  1
  La  La6  1  0.000000  0.000000  0.000000  1
  La  La7  1  0.856911  0.143089  0.713581  1
  Nb  Nb8  1  0.610566  0.389434  0.963685  1
  Nb  Nb9  1  0.753994  0.246006  0.248929  1
  Nb  Nb10  1  0.389434  0.610566  0.036315  1
  Nb  Nb11  1  0.182029  0.817971  0.106464  1
  Nb  Nb12  1  0.961396  0.038604  0.179034  1
  Nb  Nb13  1  0.246006  0.753994  0.751071  1
  Nb  Nb14  1  0.038604  0.961396  0.820966  1
  Nb  Nb15  1  0.467210  0.532790  0.678329  1
  Nb  Nb16  1  0.817971  0.182029  0.893536  1
  Nb  Nb17  1  0.892289  0.107711  0.532998  1
  Nb  Nb18  1  0.107711  0.892289  0.467002  1
  Nb  Nb19  1  0.676798  0.323202  0.607280  1
  Nb  Nb20  1  0.532790  0.467210  0.321671  1
  Nb  Nb21  1  0.323202  0.676798  0.392720  1
  O  O22  1  0.642638  0.357362  0.285939  1
  O  O23  1  0.254065  0.233159  0.248218  1
  O  O24  1  0.376074  0.111570  0.037249  1
  O  O25  1  0.182014  0.306838  0.102048  1
  O  O26  1  0.766841  0.745935  0.248218  1
  O  O27  1  0.142963  0.857037  0.785897  1
  O  O28  1  0.071310  0.928690  0.142545  1
  O  O29  1  0.857037  0.142963  0.214103  1
  O  O30  1  0.500000  0.500000  0.000000  1
  O  O31  1  0.285756  0.714244  0.071501  1
  O  O32  1  0.693162  0.817986  0.102048  1
  O  O33  1  0.449366  0.039267  0.183546  1
  O  O34  1  0.306838  0.182014  0.897952  1
  O  O35  1  0.888430  0.623926  0.037249  1
  O  O36  1  0.623926  0.888430  0.962751  1
  O  O37  1  0.233159  0.254065  0.751782  1
  O  O38  1  0.960733  0.550634  0.183546  1
  O  O39  1  0.817986  0.693162  0.897952  1
  O  O40  1  0.745935  0.766841  0.751782  1
  O  O41  1  0.569269  0.430731  0.637222  1
  O  O42  1  0.357362  0.642638  0.714061  1
  O  O43  1  0.550634  0.960733  0.816454  1
  O  O44  1  0.169284  0.326405  0.610801  1
  O  O45  1  0.928690  0.071310  0.857455  1
  O  O46  1  0.714244  0.285756  0.928499  1
  O  O47  1  0.111570  0.376074  0.962751  1
  O  O48  1  0.326405  0.169284  0.389199  1
  O  O49  1  0.673595  0.830716  0.610801  1
  O  O50  1  0.039267  0.449366  0.816454  1
  O  O51  1  0.480407  0.030623  0.677517  1
  O  O52  1  0.969377  0.519593  0.677517  1
  O  O53  1  0.211933  0.788067  0.423980  1
  O  O54  1  0.596255  0.894127  0.467672  1
  O  O55  1  0.403745  0.105873  0.532328  1
  O  O56  1  0.000000  1.000000  0.500000  1
  O  O57  1  0.788067  0.211933  0.576020  1
  O  O58  1  0.430731  0.569269  0.362778  1
  O  O59  1  0.830716  0.673595  0.389199  1
  O  O60  1  0.105873  0.403745  0.467672  1
  O  O61  1  0.894127  0.596255  0.532328  1
  O  O62  1  0.519593  0.969377  0.322483  1
  O  O63  1  0.030623  0.480407  0.322483  1
