# generated using pymatgen
data_ZnGaP2H4NO8
_symmetry_space_group_name_H-M   'P 1'
_cell_length_a   9.16259799
_cell_length_b   9.47762092
_cell_length_c   9.48560583
_cell_angle_alpha   89.09767743
_cell_angle_beta   97.73723203
_cell_angle_gamma   96.92691286
_symmetry_Int_Tables_number   1
_chemical_formula_structural   ZnGaP2H4NO8
_chemical_formula_sum   'Zn4 Ga4 P8 H16 N4 O32'
_cell_volume   810.26933133
_cell_formula_units_Z   4
loop_
 _symmetry_equiv_pos_site_id
 _symmetry_equiv_pos_as_xyz
  1  'x, y, z'
loop_
 _atom_site_type_symbol
 _atom_site_label
 _atom_site_symmetry_multiplicity
 _atom_site_fract_x
 _atom_site_fract_y
 _atom_site_fract_z
 _atom_site_occupancy
  Zn  Zn0  1  0.072005  0.960416  0.204725  1
  Zn  Zn1  1  0.435908  0.800012  0.042782  1
  Zn  Zn2  1  0.562809  0.203510  0.958679  1
  Zn  Zn3  1  0.881059  0.572180  0.684755  1
  Ga  Ga4  1  0.114013  0.425676  0.313650  1
  Ga  Ga5  1  0.384811  0.686272  0.572525  1
  Ga  Ga6  1  0.615989  0.313980  0.433495  1
  Ga  Ga7  1  0.933540  0.041834  0.795879  1
  P  P8  1  0.080218  0.785726  0.916226  1
  P  P9  1  0.045224  0.712443  0.441418  1
  P  P10  1  0.453414  0.556181  0.289240  1
  P  P11  1  0.585246  0.913202  0.788277  1
  P  P12  1  0.419028  0.089012  0.216124  1
  P  P13  1  0.540538  0.444938  0.711901  1
  P  P14  1  0.955163  0.285671  0.561577  1
  P  P15  1  0.914891  0.212057  0.086834  1
  H  H16  1  0.130508  0.364243  0.892043  1
  H  H17  1  0.205433  0.531107  0.937115  1
  H  H18  1  0.230037  0.972542  0.608968  1
  H  H19  1  0.195694  0.138759  0.574849  1
  H  H20  1  0.307518  0.424122  0.862611  1
  H  H21  1  0.270644  0.389057  0.026922  1
  H  H22  1  0.293136  0.061572  0.467785  1
  H  H23  1  0.371096  0.103830  0.639148  1
  H  H24  1  0.630212  0.895939  0.358029  1
  H  H25  1  0.704957  0.937649  0.527503  1
  H  H26  1  0.729914  0.610902  0.970686  1
  H  H27  1  0.693745  0.577602  0.136202  1
  H  H28  1  0.806048  0.859050  0.424412  1
  H  H29  1  0.770706  0.026031  0.387920  1
  H  H30  1  0.793563  0.469826  0.060704  1
  H  H31  1  0.869794  0.639571  0.103640  1
  N  N32  1  0.227695  0.426843  0.929397  1
  N  N33  1  0.273871  0.069780  0.573491  1
  N  N34  1  0.727538  0.928785  0.424306  1
  N  N35  1  0.772716  0.574791  0.068952  1
  O  O36  1  0.071373  0.914504  0.807067  1
  O  O37  1  0.037071  0.861343  0.380604  1
  O  O38  1  0.020028  0.826646  0.052131  1
  O  O39  1  0.050304  0.602926  0.319260  1
  O  O40  1  0.025130  0.345578  0.143252  1
  O  O41  1  0.090651  0.317373  0.476064  1
  O  O42  1  0.186564  0.710276  0.554030  1
  O  O43  1  0.241249  0.750861  0.938618  1
  O  O44  1  0.265367  0.061335  0.267445  1
  O  O45  1  0.313705  0.445319  0.292281  1
  O  O46  1  0.394743  0.517272  0.667986  1
  O  O47  1  0.490989  0.851034  0.647446  1
  O  O48  1  0.453739  0.677997  0.397566  1
  O  O49  1  0.482183  0.951387  0.181667  1
  O  O50  1  0.586672  0.806560  0.910882  1
  O  O51  1  0.521663  0.380079  0.857525  1
  O  O52  1  0.468497  0.617711  0.142264  1
  O  O53  1  0.416808  0.195234  0.091551  1
  O  O54  1  0.521659  0.050692  0.818784  1
  O  O55  1  0.542809  0.320913  0.604579  1
  O  O56  1  0.524269  0.149153  0.352318  1
  O  O57  1  0.593346  0.476941  0.329880  1
  O  O58  1  0.673511  0.557958  0.709952  1
  O  O59  1  0.744955  0.948940  0.743476  1
  O  O60  1  0.762486  0.265101  0.054097  1
  O  O61  1  0.813942  0.284619  0.450508  1
  O  O62  1  0.904187  0.674260  0.511274  1
  O  O63  1  0.983276  0.650393  0.859344  1
  O  O64  1  0.960723  0.388552  0.684021  1
  O  O65  1  0.972947  0.170981  0.944856  1
  O  O66  1  0.969133  0.133273  0.623262  1
  O  O67  1  0.917334  0.089679  0.193242  1
