# generated using pymatgen
data_LiSn(PO3)3
_symmetry_space_group_name_H-M   'P 1'
_cell_length_a   7.76455228
_cell_length_b   10.54054174
_cell_length_c   12.24109780
_cell_angle_alpha   90.00000000
_cell_angle_beta   90.00000000
_cell_angle_gamma   90.00000000
_symmetry_Int_Tables_number   1
_chemical_formula_structural   LiSn(PO3)3
_chemical_formula_sum   'Li4 Sn4 P12 O36'
_cell_volume   1001.84311657
_cell_formula_units_Z   4
loop_
 _symmetry_equiv_pos_site_id
 _symmetry_equiv_pos_as_xyz
  1  'x, y, z'
loop_
 _atom_site_type_symbol
 _atom_site_label
 _atom_site_symmetry_multiplicity
 _atom_site_fract_x
 _atom_site_fract_y
 _atom_site_fract_z
 _atom_site_occupancy
  Li  Li0  1  0.948415  0.373545  0.013292  1
  Li  Li1  1  0.551585  0.626455  0.513292  1
  Li  Li2  1  0.448415  0.126455  0.986708  1
  Li  Li3  1  0.051585  0.873545  0.486708  1
  Sn  Sn4  1  0.196985  0.228035  0.648641  1
  Sn  Sn5  1  0.303015  0.771965  0.148641  1
  Sn  Sn6  1  0.696985  0.271965  0.351359  1
  Sn  Sn7  1  0.803015  0.728035  0.851359  1
  P  P8  1  0.181858  0.023612  0.295153  1
  P  P9  1  0.185613  0.467507  0.182008  1
  P  P10  1  0.243623  0.704486  0.873202  1
  P  P11  1  0.256377  0.295514  0.373202  1
  P  P12  1  0.314387  0.532493  0.682008  1
  P  P13  1  0.318142  0.976388  0.795153  1
  P  P14  1  0.681858  0.476388  0.704847  1
  P  P15  1  0.685613  0.032493  0.817992  1
  P  P16  1  0.743623  0.795514  0.126798  1
  P  P17  1  0.756377  0.204486  0.626798  1
  P  P18  1  0.814387  0.967507  0.317992  1
  P  P19  1  0.818142  0.523612  0.204847  1
  O  O20  1  0.021640  0.564103  0.200229  1
  O  O21  1  0.063091  0.651986  0.880452  1
  O  O22  1  0.147532  0.371086  0.284454  1
  O  O23  1  0.156319  0.454219  0.700977  1
  O  O24  1  0.224445  0.843793  0.824119  1
  O  O25  1  0.234485  0.995534  0.179327  1
  O  O26  1  0.214800  0.927303  0.382927  1
  O  O27  1  0.163916  0.392694  0.079031  1
  O  O28  1  0.148073  0.292551  0.475287  1
  O  O29  1  0.351927  0.707449  0.975287  1
  O  O30  1  0.336084  0.607306  0.579031  1
  O  O31  1  0.285200  0.072697  0.882927  1
  O  O32  1  0.265515  0.004466  0.679327  1
  O  O33  1  0.275555  0.156207  0.324119  1
  O  O34  1  0.343681  0.545781  0.200977  1
  O  O35  1  0.352468  0.628914  0.784454  1
  O  O36  1  0.436909  0.348014  0.380452  1
  O  O37  1  0.478360  0.435897  0.700229  1
  O  O38  1  0.521640  0.935897  0.799771  1
  O  O39  1  0.563091  0.848014  0.119548  1
  O  O40  1  0.647532  0.128914  0.715546  1
  O  O41  1  0.656319  0.045781  0.299023  1
  O  O42  1  0.724445  0.656207  0.175881  1
  O  O43  1  0.734485  0.504466  0.820673  1
  O  O44  1  0.714800  0.572697  0.617073  1
  O  O45  1  0.663916  0.107306  0.920969  1
  O  O46  1  0.648073  0.207449  0.524713  1
  O  O47  1  0.851927  0.792551  0.024713  1
  O  O48  1  0.836084  0.892694  0.420969  1
  O  O49  1  0.785200  0.427303  0.117073  1
  O  O50  1  0.765515  0.495534  0.320673  1
  O  O51  1  0.775555  0.343793  0.675881  1
  O  O52  1  0.843681  0.954219  0.799023  1
  O  O53  1  0.852468  0.871086  0.215546  1
  O  O54  1  0.936909  0.151986  0.619548  1
  O  O55  1  0.978360  0.064103  0.299771  1
