# generated using pymatgen
data_Na2NiPCO7
_symmetry_space_group_name_H-M   'P 1'
_cell_length_a   9.01195354
_cell_length_b   6.51687168
_cell_length_c   10.36609645
_cell_angle_alpha   90.00000000
_cell_angle_beta   91.45296446
_cell_angle_gamma   90.00000000
_symmetry_Int_Tables_number   1
_chemical_formula_structural   Na2NiPCO7
_chemical_formula_sum   'Na8 Ni4 P4 C4 O28'
_cell_volume   608.60245647
_cell_formula_units_Z   4
loop_
 _symmetry_equiv_pos_site_id
 _symmetry_equiv_pos_as_xyz
  1  'x, y, z'
loop_
 _atom_site_type_symbol
 _atom_site_label
 _atom_site_symmetry_multiplicity
 _atom_site_fract_x
 _atom_site_fract_y
 _atom_site_fract_z
 _atom_site_occupancy
  Na  Na0  1  0.738197  0.233947  0.123834  1
  Na  Na1  1  0.738661  0.768677  0.125841  1
  Na  Na2  1  0.738661  0.231323  0.625841  1
  Na  Na3  1  0.738197  0.766053  0.623834  1
  Na  Na4  1  0.267235  0.730242  0.372156  1
  Na  Na5  1  0.267235  0.269758  0.872156  1
  Na  Na6  1  0.090033  0.504316  0.105279  1
  Na  Na7  1  0.090033  0.495684  0.605279  1
  Ni  Ni8  1  0.651615  0.497356  0.389078  1
  Ni  Ni9  1  0.651615  0.502644  0.889078  1
  Ni  Ni10  1  0.342374  0.001779  0.110326  1
  Ni  Ni11  1  0.342374  0.998221  0.610326  1
  P  P12  1  0.573537  0.000690  0.359037  1
  P  P13  1  0.573537  0.999310  0.859037  1
  P  P14  1  0.422897  0.501644  0.143844  1
  P  P15  1  0.422897  0.498356  0.643844  1
  C  C16  1  0.926582  0.506268  0.355960  1
  C  C17  1  0.926582  0.493732  0.855960  1
  C  C18  1  0.071227  0.003780  0.142103  1
  C  C19  1  0.071227  0.996220  0.642103  1
  O  O20  1  0.932794  0.001794  0.160048  1
  O  O21  1  0.932794  0.998206  0.660048  1
  O  O22  1  0.865741  0.501005  0.469565  1
  O  O23  1  0.865741  0.498995  0.969565  1
  O  O24  1  0.832989  0.499731  0.257565  1
  O  O25  1  0.832989  0.500269  0.757565  1
  O  O26  1  0.671798  0.187898  0.396497  1
  O  O27  1  0.671583  0.811140  0.394436  1
  O  O28  1  0.671583  0.188860  0.894436  1
  O  O29  1  0.671798  0.812102  0.896497  1
  O  O30  1  0.570166  0.505624  0.071252  1
  O  O31  1  0.570166  0.494376  0.571252  1
  O  O32  1  0.540847  0.002878  0.209746  1
  O  O33  1  0.540847  0.997122  0.709746  1
  O  O34  1  0.461477  0.498633  0.291906  1
  O  O35  1  0.461477  0.501367  0.791906  1
  O  O36  1  0.427317  0.996195  0.432575  1
  O  O37  1  0.427317  0.003805  0.932575  1
  O  O38  1  0.321662  0.691114  0.119056  1
  O  O39  1  0.325170  0.314842  0.103042  1
  O  O40  1  0.325170  0.685158  0.603042  1
  O  O41  1  0.321662  0.308886  0.619056  1
  O  O42  1  0.170512  0.995879  0.236155  1
  O  O43  1  0.170512  0.004121  0.736155  1
  O  O44  1  0.130344  0.012406  0.029227  1
  O  O45  1  0.130344  0.987594  0.529227  1
  O  O46  1  0.065566  0.517093  0.343506  1
  O  O47  1  0.065566  0.482907  0.843506  1
