# generated using pymatgen
data_Li2MnP2O7
_symmetry_space_group_name_H-M   'P 1'
_cell_length_a   5.13015761
_cell_length_b   13.31548823
_cell_length_c   9.50364879
_cell_angle_alpha   90.00000000
_cell_angle_beta   120.59421085
_cell_angle_gamma   90.00000000
_symmetry_Int_Tables_number   1
_chemical_formula_structural   Li2MnP2O7
_chemical_formula_sum   'Li8 Mn4 P8 O28'
_cell_volume   558.82668704
_cell_formula_units_Z   4
loop_
 _symmetry_equiv_pos_site_id
 _symmetry_equiv_pos_as_xyz
  1  'x, y, z'
loop_
 _atom_site_type_symbol
 _atom_site_label
 _atom_site_symmetry_multiplicity
 _atom_site_fract_x
 _atom_site_fract_y
 _atom_site_fract_z
 _atom_site_occupancy
  Li  Li0  1  0.419432  0.820992  0.135948  1
  Li  Li1  1  0.023496  0.839763  0.720899  1
  Li  Li2  1  0.976504  0.339763  0.779101  1
  Li  Li3  1  0.580568  0.320992  0.364052  1
  Li  Li4  1  0.419432  0.679008  0.635948  1
  Li  Li5  1  0.023496  0.660237  0.220899  1
  Li  Li6  1  0.976504  0.160237  0.279101  1
  Li  Li7  1  0.580568  0.179008  0.864052  1
  Mn  Mn8  1  0.122621  0.635799  0.850689  1
  Mn  Mn9  1  0.877379  0.135799  0.649311  1
  Mn  Mn10  1  0.122621  0.864201  0.350689  1
  Mn  Mn11  1  0.877379  0.364201  0.149311  1
  P  P12  1  0.598249  0.020818  0.287983  1
  P  P13  1  0.721888  0.685460  0.430393  1
  P  P14  1  0.278112  0.185460  0.069607  1
  P  P15  1  0.401751  0.520818  0.212017  1
  P  P16  1  0.598249  0.479182  0.787983  1
  P  P17  1  0.721888  0.814540  0.930393  1
  P  P18  1  0.278112  0.314540  0.569607  1
  P  P19  1  0.401751  0.979182  0.712017  1
  O  O20  1  0.424249  0.790314  0.927058  1
  O  O21  1  0.769947  0.747546  0.307613  1
  O  O22  1  0.205323  0.020849  0.777029  1
  O  O23  1  0.520314  0.438971  0.148771  1
  O  O24  1  0.002588  0.693503  0.602129  1
  O  O25  1  0.762489  0.109331  0.404541  1
  O  O26  1  0.703357  0.570211  0.370673  1
  O  O27  1  0.296643  0.070211  0.129327  1
  O  O28  1  0.237511  0.609331  0.095459  1
  O  O29  1  0.997412  0.193503  0.897871  1
  O  O30  1  0.479686  0.938971  0.351229  1
  O  O31  1  0.794677  0.520849  0.722971  1
  O  O32  1  0.575751  0.290314  0.572942  1
  O  O33  1  0.230053  0.247546  0.192387  1
  O  O34  1  0.769947  0.752454  0.807613  1
  O  O35  1  0.424249  0.709686  0.427058  1
  O  O36  1  0.205323  0.479151  0.277029  1
  O  O37  1  0.520314  0.061029  0.648771  1
  O  O38  1  0.002588  0.806497  0.102129  1
  O  O39  1  0.762489  0.390669  0.904541  1
  O  O40  1  0.703357  0.929789  0.870673  1
  O  O41  1  0.296643  0.429789  0.629327  1
  O  O42  1  0.237511  0.890669  0.595459  1
  O  O43  1  0.997412  0.306497  0.397871  1
  O  O44  1  0.479686  0.561029  0.851229  1
  O  O45  1  0.794677  0.979151  0.222971  1
  O  O46  1  0.230053  0.252454  0.692387  1
  O  O47  1  0.575751  0.209686  0.072942  1
