# generated using pymatgen
data_Bi6P2O15
_symmetry_space_group_name_H-M   'P 1'
_cell_length_a   11.57751597
_cell_length_b   11.57751597
_cell_length_c   5.87098375
_cell_angle_alpha   90.00000000
_cell_angle_beta   90.00000000
_cell_angle_gamma   116.31968958
_symmetry_Int_Tables_number   1
_chemical_formula_structural   Bi6P2O15
_chemical_formula_sum   'Bi12 P4 O30'
_cell_volume   705.36122591
_cell_formula_units_Z   2
loop_
 _symmetry_equiv_pos_site_id
 _symmetry_equiv_pos_as_xyz
  1  'x, y, z'
loop_
 _atom_site_type_symbol
 _atom_site_label
 _atom_site_symmetry_multiplicity
 _atom_site_fract_x
 _atom_site_fract_y
 _atom_site_fract_z
 _atom_site_occupancy
  Bi  Bi0  1  0.178273  0.047767  0.732739  1
  Bi  Bi1  1  0.047767  0.178273  0.232739  1
  Bi  Bi2  1  0.406694  0.257959  0.329676  1
  Bi  Bi3  1  0.257959  0.406694  0.829676  1
  Bi  Bi4  1  0.692979  0.106871  0.326790  1
  Bi  Bi5  1  0.106871  0.692979  0.826790  1
  Bi  Bi6  1  0.893129  0.307021  0.826790  1
  Bi  Bi7  1  0.307021  0.893129  0.326790  1
  Bi  Bi8  1  0.593306  0.742041  0.329676  1
  Bi  Bi9  1  0.742041  0.593306  0.829676  1
  Bi  Bi10  1  0.952233  0.821727  0.232739  1
  Bi  Bi11  1  0.821727  0.952233  0.732739  1
  P  P12  1  0.540328  0.218161  0.850462  1
  P  P13  1  0.218161  0.540328  0.350462  1
  P  P14  1  0.781839  0.459672  0.350462  1
  P  P15  1  0.459672  0.781839  0.850462  1
  O  O16  1  0.258420  0.062734  0.376320  1
  O  O17  1  0.062734  0.258420  0.876320  1
  O  O18  1  0.263844  0.272231  0.099886  1
  O  O19  1  0.272231  0.263844  0.599886  1
  O  O20  1  0.437628  0.132524  0.032387  1
  O  O21  1  0.132524  0.437628  0.532387  1
  O  O22  1  0.498559  0.154583  0.611850  1
  O  O23  1  0.154583  0.498559  0.111850  1
  O  O24  1  0.353330  0.542455  0.353958  1
  O  O25  1  0.542455  0.353330  0.853958  1
  O  O26  1  0.670465  0.221909  0.926830  1
  O  O27  1  0.221909  0.670465  0.426830  1
  O  O28  1  0.831559  0.144775  0.606077  1
  O  O29  1  0.144775  0.831559  0.106077  1
  O  O30  1  0.000000  0.000000  0.042279  1
  O  O31  1  0.000000  0.000000  0.542279  1
  O  O32  1  0.855225  0.168441  0.106077  1
  O  O33  1  0.168441  0.855225  0.606077  1
  O  O34  1  0.778091  0.329535  0.426830  1
  O  O35  1  0.329535  0.778091  0.926830  1
  O  O36  1  0.646670  0.457545  0.353958  1
  O  O37  1  0.457545  0.646670  0.853958  1
  O  O38  1  0.501441  0.845417  0.611850  1
  O  O39  1  0.845417  0.501441  0.111850  1
  O  O40  1  0.867476  0.562372  0.532387  1
  O  O41  1  0.562372  0.867476  0.032387  1
  O  O42  1  0.736156  0.727769  0.099886  1
  O  O43  1  0.727769  0.736156  0.599886  1
  O  O44  1  0.937266  0.741580  0.876320  1
  O  O45  1  0.741580  0.937266  0.376320  1
