# generated using pymatgen
data_Li2VSi2O7
_symmetry_space_group_name_H-M   'P 1'
_cell_length_a   5.21629351
_cell_length_b   6.05584669
_cell_length_c   8.73448571
_cell_angle_alpha   70.09440192
_cell_angle_beta   86.64211837
_cell_angle_gamma   84.86367647
_symmetry_Int_Tables_number   1
_chemical_formula_structural   Li2VSi2O7
_chemical_formula_sum   'Li4 V2 Si4 O14'
_cell_volume   258.27176043
_cell_formula_units_Z   2
loop_
 _symmetry_equiv_pos_site_id
 _symmetry_equiv_pos_as_xyz
  1  'x, y, z'
loop_
 _atom_site_type_symbol
 _atom_site_label
 _atom_site_symmetry_multiplicity
 _atom_site_fract_x
 _atom_site_fract_y
 _atom_site_fract_z
 _atom_site_occupancy
  Li  Li0  1  0.288325  0.934145  0.143693  1
  Li  Li1  1  0.242144  0.827614  0.519333  1
  Li  Li2  1  0.757856  0.172386  0.480667  1
  Li  Li3  1  0.711675  0.065855  0.856307  1
  V  V4  1  0.766594  0.581162  0.721888  1
  V  V5  1  0.233406  0.418838  0.278112  1
  Si  Si6  1  0.690145  0.723842  0.343194  1
  Si  Si7  1  0.209639  0.790074  0.871615  1
  Si  Si8  1  0.790361  0.209926  0.128385  1
  Si  Si9  1  0.309855  0.276158  0.656806  1
  O  O10  1  0.612179  0.335837  0.646843  1
  O  O11  1  0.095164  0.489769  0.657570  1
  O  O12  1  0.787891  0.330026  0.933085  1
  O  O13  1  0.708666  0.935544  0.159090  1
  O  O14  1  0.741862  0.825691  0.489957  1
  O  O15  1  0.438159  0.688048  0.771065  1
  O  O16  1  0.927907  0.819368  0.791828  1
  O  O17  1  0.072093  0.180632  0.208172  1
  O  O18  1  0.561841  0.311952  0.228935  1
  O  O19  1  0.258138  0.174309  0.510043  1
  O  O20  1  0.291334  0.064456  0.840910  1
  O  O21  1  0.212109  0.669974  0.066915  1
  O  O22  1  0.904836  0.510231  0.342430  1
  O  O23  1  0.387821  0.664163  0.353157  1
