# generated using pymatgen
data_Fe23O25
_symmetry_space_group_name_H-M   'P 1'
_cell_length_a   6.81749971
_cell_length_b   6.85195039
_cell_length_c   12.06887838
_cell_angle_alpha   87.11632886
_cell_angle_beta   106.31714848
_cell_angle_gamma   107.22456412
_symmetry_Int_Tables_number   1
_chemical_formula_structural   Fe23O25
_chemical_formula_sum   'Fe23 O25'
_cell_volume   516.46862796
_cell_formula_units_Z   1
loop_
 _symmetry_equiv_pos_site_id
 _symmetry_equiv_pos_as_xyz
  1  'x, y, z'
loop_
 _atom_site_type_symbol
 _atom_site_label
 _atom_site_symmetry_multiplicity
 _atom_site_fract_x
 _atom_site_fract_y
 _atom_site_fract_z
 _atom_site_occupancy
  Fe  Fe0  1  0.735376  0.312717  0.161435  1
  Fe  Fe1  1  0.479861  0.698956  0.438256  1
  Fe  Fe2  1  0.881021  0.683475  0.640142  1
  Fe  Fe3  1  0.229576  0.102647  0.722801  1
  Fe  Fe4  1  0.264624  0.687283  0.838565  1
  Fe  Fe5  1  0.618919  0.493547  0.798602  1
  Fe  Fe6  1  0.646746  0.099606  0.917142  1
  Fe  Fe7  1  0.691169  0.704243  0.045342  1
  Fe  Fe8  1  0.000000  0.500000  0.000000  1
  Fe  Fe9  1  0.038474  0.085926  0.125757  1
  Fe  Fe10  1  0.353254  0.900394  0.082858  1
  Fe  Fe11  1  0.381081  0.506453  0.201398  1
  Fe  Fe12  1  0.436659  0.087673  0.318681  1
  Fe  Fe13  1  0.770424  0.897353  0.277199  1
  Fe  Fe14  1  0.803544  0.504160  0.391780  1
  Fe  Fe15  1  0.118979  0.316525  0.359858  1
  Fe  Fe16  1  0.845219  0.105551  0.525147  1
  Fe  Fe17  1  0.154781  0.894449  0.474853  1
  Fe  Fe18  1  0.196456  0.495840  0.608220  1
  Fe  Fe19  1  0.520139  0.301044  0.561744  1
  Fe  Fe20  1  0.563341  0.912327  0.681319  1
  Fe  Fe21  1  0.961526  0.914074  0.874243  1
  Fe  Fe22  1  0.308831  0.295757  0.954658  1
  O  O23  1  0.310627  0.999137  0.901056  1
  O  O24  1  0.650090  0.404578  0.969395  1
  O  O25  1  0.689373  0.000863  0.098944  1
  O  O26  1  0.064846  0.394575  0.178644  1
  O  O27  1  0.119409  0.027772  0.303797  1
  O  O28  1  0.427393  0.804874  0.262195  1
  O  O29  1  0.456627  0.392469  0.369329  1
  O  O30  1  0.500000  0.000000  0.500000  1
  O  O31  1  0.812537  0.803987  0.460613  1
  O  O32  1  0.843319  0.403428  0.562587  1
  O  O33  1  0.187463  0.196013  0.539387  1
  O  O34  1  0.543373  0.607531  0.630671  1
  O  O35  1  0.880591  0.972228  0.696203  1
  O  O36  1  0.236674  0.813636  0.662145  1
  O  O37  1  0.294667  0.405562  0.778487  1
  O  O38  1  0.572607  0.195126  0.737805  1
  O  O39  1  0.607773  0.791127  0.846407  1
  O  O40  1  0.935154  0.605425  0.821356  1
  O  O41  1  0.987894  0.200601  0.957151  1
  O  O42  1  0.012106  0.799399  0.042849  1
  O  O43  1  0.349910  0.595422  0.030605  1
  O  O44  1  0.392227  0.208873  0.153593  1
  O  O45  1  0.705333  0.594438  0.221513  1
  O  O46  1  0.763326  0.186364  0.337855  1
  O  O47  1  0.156681  0.596572  0.437413  1
