# generated using pymatgen
data_Li3V2(O2F)2
_symmetry_space_group_name_H-M   'P 1'
_cell_length_a   5.14722377
_cell_length_b   5.94524818
_cell_length_c   7.36825501
_cell_angle_alpha   90.00000000
_cell_angle_beta   90.36153003
_cell_angle_gamma   90.00000000
_symmetry_Int_Tables_number   1
_chemical_formula_structural   Li3V2(O2F)2
_chemical_formula_sum   'Li6 V4 O8 F4'
_cell_volume   225.47533468
_cell_formula_units_Z   2
loop_
 _symmetry_equiv_pos_site_id
 _symmetry_equiv_pos_as_xyz
  1  'x, y, z'
loop_
 _atom_site_type_symbol
 _atom_site_label
 _atom_site_symmetry_multiplicity
 _atom_site_fract_x
 _atom_site_fract_y
 _atom_site_fract_z
 _atom_site_occupancy
  Li  Li0  1  0.321119  0.997917  0.369997  1
  Li  Li1  1  0.678881  0.002083  0.630003  1
  Li  Li2  1  0.861465  0.750000  0.367784  1
  Li  Li3  1  0.321119  0.502083  0.369997  1
  Li  Li4  1  0.678881  0.497917  0.630003  1
  Li  Li5  1  0.138535  0.250000  0.632216  1
  V  V6  1  0.000000  0.000000  0.000000  1
  V  V7  1  0.498852  0.750000  0.990863  1
  V  V8  1  0.000000  0.500000  0.000000  1
  V  V9  1  0.501148  0.250000  0.009137  1
  O  O10  1  0.340708  0.006141  0.860852  1
  O  O11  1  0.659292  0.993859  0.139148  1
  O  O12  1  0.809258  0.750000  0.854073  1
  O  O13  1  0.174876  0.750000  0.145692  1
  O  O14  1  0.340708  0.493859  0.860852  1
  O  O15  1  0.659292  0.506141  0.139148  1
  O  O16  1  0.825124  0.250000  0.854308  1
  O  O17  1  0.190742  0.250000  0.145927  1
  F  F18  1  0.000000  0.000000  0.500000  1
  F  F19  1  0.526323  0.750000  0.484835  1
  F  F20  1  0.000000  0.500000  0.500000  1
  F  F21  1  0.473677  0.250000  0.515165  1
