# generated using pymatgen
data_Li3MnFe3O8
_symmetry_space_group_name_H-M   'P 1'
_cell_length_a   5.88183932
_cell_length_b   5.88183932
_cell_length_c   9.57266196
_cell_angle_alpha   90.00000000
_cell_angle_beta   90.00000000
_cell_angle_gamma   120.00000000
_symmetry_Int_Tables_number   1
_chemical_formula_structural   Li3MnFe3O8
_chemical_formula_sum   'Li6 Mn2 Fe6 O16'
_cell_volume   286.80694737
_cell_formula_units_Z   2
loop_
 _symmetry_equiv_pos_site_id
 _symmetry_equiv_pos_as_xyz
  1  'x, y, z'
loop_
 _atom_site_type_symbol
 _atom_site_label
 _atom_site_symmetry_multiplicity
 _atom_site_fract_x
 _atom_site_fract_y
 _atom_site_fract_z
 _atom_site_occupancy
  Li  Li0  1  0.173182  0.826818  0.057021  1
  Li  Li1  1  0.653635  0.826818  0.057021  1
  Li  Li2  1  0.173182  0.346365  0.057021  1
  Li  Li3  1  0.826818  0.653635  0.557021  1
  Li  Li4  1  0.346365  0.173182  0.557021  1
  Li  Li5  1  0.826818  0.173182  0.557021  1
  Mn  Mn6  1  0.333333  0.666667  0.513918  1
  Mn  Mn7  1  0.666667  0.333333  0.013918  1
  Fe  Fe8  1  0.168159  0.831841  0.788743  1
  Fe  Fe9  1  0.663683  0.831841  0.788743  1
  Fe  Fe10  1  0.168159  0.336317  0.788743  1
  Fe  Fe11  1  0.831841  0.663683  0.288743  1
  Fe  Fe12  1  0.336317  0.168159  0.288743  1
  Fe  Fe13  1  0.831841  0.168159  0.288743  1
  O  O14  1  0.168664  0.831336  0.406856  1
  O  O15  1  0.479120  0.958239  0.648890  1
  O  O16  1  0.041761  0.520880  0.648890  1
  O  O17  1  0.333333  0.666667  0.904473  1
  O  O18  1  0.662673  0.831336  0.406856  1
  O  O19  1  0.479120  0.520880  0.648890  1
  O  O20  1  0.168664  0.337327  0.406856  1
  O  O21  1  0.831336  0.662673  0.906856  1
  O  O22  1  0.520880  0.479120  0.148890  1
  O  O23  1  0.958239  0.479120  0.148890  1
  O  O24  1  0.666667  0.333333  0.404473  1
  O  O25  1  0.000000  0.000000  0.178047  1
  O  O26  1  0.337327  0.168664  0.906856  1
  O  O27  1  0.000000  0.000000  0.678047  1
  O  O28  1  0.520880  0.041761  0.148890  1
  O  O29  1  0.831336  0.168664  0.906856  1
