# generated using pymatgen
data_V4(OF3)3
_symmetry_space_group_name_H-M   'P 1'
_cell_length_a   5.24546100
_cell_length_b   5.38658228
_cell_length_c   17.39311312
_cell_angle_alpha   83.23891818
_cell_angle_beta   81.47787006
_cell_angle_gamma   61.23931867
_symmetry_Int_Tables_number   1
_chemical_formula_structural   V4(OF3)3
_chemical_formula_sum   'V8 O6 F18'
_cell_volume   425.45011926
_cell_formula_units_Z   2
loop_
 _symmetry_equiv_pos_site_id
 _symmetry_equiv_pos_as_xyz
  1  'x, y, z'
loop_
 _atom_site_type_symbol
 _atom_site_label
 _atom_site_symmetry_multiplicity
 _atom_site_fract_x
 _atom_site_fract_y
 _atom_site_fract_z
 _atom_site_occupancy
  V  V0  1  0.622893  0.627717  0.125159  1
  V  V1  1  0.151857  0.102290  0.630537  1
  V  V2  1  0.252108  0.220212  0.246880  1
  V  V3  1  0.734961  0.752618  0.750841  1
  V  V4  1  0.896379  0.888808  0.372567  1
  V  V5  1  0.382349  0.402692  0.873301  1
  V  V6  1  0.993120  0.034009  0.004064  1
  V  V7  1  0.505680  0.521395  0.504485  1
  O  O8  1  0.899606  0.302026  0.060161  1
  O  O9  1  0.401645  0.798916  0.559688  1
  O  O10  1  0.348692  0.952713  0.189543  1
  O  O11  1  0.076432  0.070533  0.335286  1
  O  O12  1  0.560671  0.583237  0.834498  1
  O  O13  1  0.370375  0.959296  0.703179  1
  F  F14  1  0.844095  0.830638  0.084955  1
  F  F15  1  0.630454  0.039773  0.290633  1
  F  F16  1  0.337936  0.333838  0.585038  1
  F  F17  1  0.121463  0.534820  0.789254  1
  F  F18  1  0.386355  0.790731  0.036772  1
  F  F19  1  0.404264  0.423628  0.165349  1
  F  F20  1  0.916883  0.911849  0.663100  1
  F  F21  1  0.124293  0.695279  0.460774  1
  F  F22  1  0.150854  0.550815  0.312332  1
  F  F23  1  0.841584  0.431414  0.685884  1
  F  F24  1  0.893155  0.281050  0.540508  1
  F  F25  1  0.609301  0.210946  0.961612  1
  F  F26  1  0.673356  0.664964  0.413263  1
  F  F27  1  0.860213  0.463737  0.212778  1
  F  F28  1  0.655178  0.062659  0.814390  1
  F  F29  1  0.086572  0.698559  0.939854  1
  F  F30  1  0.601126  0.186532  0.441070  1
  F  F31  1  0.166148  0.172309  0.912245  1
