# generated using pymatgen
data_Hf2N2O
_symmetry_space_group_name_H-M   'P 1'
_cell_length_a   5.83132731
_cell_length_b   6.78214149
_cell_length_c   5.91886284
_cell_angle_alpha   90.00000000
_cell_angle_beta   90.26624543
_cell_angle_gamma   90.00000000
_symmetry_Int_Tables_number   1
_chemical_formula_structural   Hf2N2O
_chemical_formula_sum   'Hf8 N8 O4'
_cell_volume   234.08190983
_cell_formula_units_Z   4
loop_
 _symmetry_equiv_pos_site_id
 _symmetry_equiv_pos_as_xyz
  1  'x, y, z'
loop_
 _atom_site_type_symbol
 _atom_site_label
 _atom_site_symmetry_multiplicity
 _atom_site_fract_x
 _atom_site_fract_y
 _atom_site_fract_z
 _atom_site_occupancy
  Hf  Hf0  1  0.745706  0.118612  0.577778  1
  Hf  Hf1  1  0.230214  0.132790  0.907366  1
  Hf  Hf2  1  0.230214  0.367210  0.407366  1
  Hf  Hf3  1  0.745706  0.381388  0.077778  1
  Hf  Hf4  1  0.769786  0.632790  0.592634  1
  Hf  Hf5  1  0.254294  0.618612  0.922222  1
  Hf  Hf6  1  0.254294  0.881388  0.422222  1
  Hf  Hf7  1  0.769786  0.867210  0.092634  1
  N  N8  1  0.996314  0.126552  0.258739  1
  N  N9  1  0.368234  0.132659  0.587387  1
  N  N10  1  0.996314  0.373448  0.758739  1
  N  N11  1  0.368234  0.367341  0.087387  1
  N  N12  1  0.003686  0.626552  0.241261  1
  N  N13  1  0.631766  0.632659  0.912613  1
  N  N14  1  0.631766  0.867341  0.412613  1
  N  N15  1  0.003686  0.873448  0.741261  1
  O  O16  1  0.653193  0.117095  0.919408  1
  O  O17  1  0.653193  0.382905  0.419408  1
  O  O18  1  0.346807  0.617095  0.580592  1
  O  O19  1  0.346807  0.882905  0.080592  1
