# generated using pymatgen
data_VCrO5
_symmetry_space_group_name_H-M   'P 1'
_cell_length_a   6.68778734
_cell_length_b   7.45701530
_cell_length_c   7.82605680
_cell_angle_alpha   90.00000000
_cell_angle_beta   90.00000000
_cell_angle_gamma   90.00000000
_symmetry_Int_Tables_number   1
_chemical_formula_structural   VCrO5
_chemical_formula_sum   'V4 Cr4 O20'
_cell_volume   390.29275055
_cell_formula_units_Z   4
loop_
 _symmetry_equiv_pos_site_id
 _symmetry_equiv_pos_as_xyz
  1  'x, y, z'
loop_
 _atom_site_type_symbol
 _atom_site_label
 _atom_site_symmetry_multiplicity
 _atom_site_fract_x
 _atom_site_fract_y
 _atom_site_fract_z
 _atom_site_occupancy
  V  V0  1  0.750000  0.843630  0.738112  1
  V  V1  1  0.250000  0.656370  0.238112  1
  V  V2  1  0.750000  0.343630  0.761888  1
  V  V3  1  0.250000  0.156370  0.261888  1
  Cr  Cr4  1  0.250000  0.877674  0.624936  1
  Cr  Cr5  1  0.750000  0.622326  0.124936  1
  Cr  Cr6  1  0.250000  0.377674  0.875064  1
  Cr  Cr7  1  0.750000  0.122326  0.375064  1
  O  O8  1  0.750000  0.943230  0.501689  1
  O  O9  1  0.250000  0.876310  0.192929  1
  O  O10  1  0.453790  0.876913  0.749170  1
  O  O11  1  0.046210  0.876913  0.749170  1
  O  O12  1  0.750000  0.795547  0.993746  1
  O  O13  1  0.250000  0.704453  0.493746  1
  O  O14  1  0.953790  0.623087  0.249170  1
  O  O15  1  0.546210  0.623087  0.249170  1
  O  O16  1  0.750000  0.623690  0.692929  1
  O  O17  1  0.250000  0.556770  0.001689  1
  O  O18  1  0.750000  0.443230  0.998311  1
  O  O19  1  0.250000  0.376310  0.307071  1
  O  O20  1  0.453790  0.376913  0.750830  1
  O  O21  1  0.046210  0.376913  0.750830  1
  O  O22  1  0.750000  0.295547  0.506254  1
  O  O23  1  0.250000  0.204453  0.006254  1
  O  O24  1  0.953790  0.123087  0.250830  1
  O  O25  1  0.546210  0.123087  0.250830  1
  O  O26  1  0.750000  0.123690  0.807071  1
  O  O27  1  0.250000  0.056770  0.498311  1
