# generated using pymatgen
data_Li4CoOF4
_symmetry_space_group_name_H-M   'P 1'
_cell_length_a   10.69129609
_cell_length_b   10.69129609
_cell_length_c   10.69129609
_cell_angle_alpha   164.31712441
_cell_angle_beta   164.31712441
_cell_angle_gamma   22.24929553
_symmetry_Int_Tables_number   1
_chemical_formula_structural   Li4CoOF4
_chemical_formula_sum   'Li4 Co1 O1 F4'
_cell_volume   89.27829051
_cell_formula_units_Z   1
loop_
 _symmetry_equiv_pos_site_id
 _symmetry_equiv_pos_as_xyz
  1  'x, y, z'
loop_
 _atom_site_type_symbol
 _atom_site_label
 _atom_site_symmetry_multiplicity
 _atom_site_fract_x
 _atom_site_fract_y
 _atom_site_fract_z
 _atom_site_occupancy
  Li  Li0  1  0.896767  0.896767  0.000000  1
  Li  Li1  1  0.103233  0.103233  0.000000  1
  Li  Li2  1  0.702216  0.702216  0.000000  1
  Li  Li3  1  0.297784  0.297784  0.000000  1
  Co  Co4  1  0.500000  0.500000  0.000000  1
  O  O5  1  0.000000  0.000000  0.000000  1
  F  F6  1  0.393894  0.393894  0.000000  1
  F  F7  1  0.606106  0.606106  0.000000  1
  F  F8  1  0.201612  0.201612  0.000000  1
  F  F9  1  0.798388  0.798388  0.000000  1
