# generated using pymatgen
data_Li4V3Cr3(FeO8)2
_symmetry_space_group_name_H-M   'P 1'
_cell_length_a   5.86675976
_cell_length_b   5.86675976
_cell_length_c   9.58529294
_cell_angle_alpha   89.31453747
_cell_angle_beta   90.68546253
_cell_angle_gamma   119.27093974
_symmetry_Int_Tables_number   1
_chemical_formula_structural   Li4V3Cr3(FeO8)2
_chemical_formula_sum   'Li4 V3 Cr3 Fe2 O16'
_cell_volume   287.76288044
_cell_formula_units_Z   1
loop_
 _symmetry_equiv_pos_site_id
 _symmetry_equiv_pos_as_xyz
  1  'x, y, z'
loop_
 _atom_site_type_symbol
 _atom_site_label
 _atom_site_symmetry_multiplicity
 _atom_site_fract_x
 _atom_site_fract_y
 _atom_site_fract_z
 _atom_site_occupancy
  Li  Li0  1  0.332697  0.667303  0.890781  1
  Li  Li1  1  0.998428  0.001572  0.996237  1
  Li  Li2  1  0.003168  0.996832  0.496171  1
  Li  Li3  1  0.662926  0.337074  0.393638  1
  V  V4  1  0.828381  0.657611  0.715130  1
  V  V5  1  0.170516  0.829484  0.215969  1
  V  V6  1  0.342389  0.171619  0.715130  1
  Cr  Cr7  1  0.660798  0.832508  0.215227  1
  Cr  Cr8  1  0.167492  0.339202  0.215227  1
  Cr  Cr9  1  0.830374  0.169626  0.710326  1
  Fe  Fe10  1  0.337461  0.662539  0.490299  1
  Fe  Fe11  1  0.670862  0.329138  0.991237  1
  O  O12  1  0.679358  0.830301  0.600117  1
  O  O13  1  0.478639  0.521361  0.339401  1
  O  O14  1  0.322636  0.677364  0.104877  1
  O  O15  1  0.005696  0.994304  0.310934  1
  O  O16  1  0.002575  0.997425  0.810919  1
  O  O17  1  0.169699  0.320642  0.600117  1
  O  O18  1  0.467435  0.963961  0.336701  1
  O  O19  1  0.036039  0.532565  0.336701  1
  O  O20  1  0.837387  0.162613  0.098574  1
  O  O21  1  0.166463  0.833537  0.604071  1
  O  O22  1  0.960409  0.486413  0.834984  1
  O  O23  1  0.513587  0.039591  0.834984  1
  O  O24  1  0.661839  0.338161  0.600398  1
  O  O25  1  0.850936  0.675436  0.105972  1
  O  O26  1  0.518505  0.481495  0.838806  1
  O  O27  1  0.324564  0.149064  0.105972  1
