# generated using pymatgen
data_Ba5(Ga3O7)2
_symmetry_space_group_name_H-M   'P 1'
_cell_length_a   8.54774283
_cell_length_b   8.54774283
_cell_length_c   11.53987578
_cell_angle_alpha   90.00000000
_cell_angle_beta   90.00000000
_cell_angle_gamma   91.69369027
_symmetry_Int_Tables_number   1
_chemical_formula_structural   Ba5(Ga3O7)2
_chemical_formula_sum   'Ba10 Ga12 O28'
_cell_volume   842.78006247
_cell_formula_units_Z   2
loop_
 _symmetry_equiv_pos_site_id
 _symmetry_equiv_pos_as_xyz
  1  'x, y, z'
loop_
 _atom_site_type_symbol
 _atom_site_label
 _atom_site_symmetry_multiplicity
 _atom_site_fract_x
 _atom_site_fract_y
 _atom_site_fract_z
 _atom_site_occupancy
  Ba  Ba0  1  0.976154  0.283679  0.935080  1
  Ba  Ba1  1  0.716321  0.023846  0.435080  1
  Ba  Ba2  1  0.974959  0.687328  0.868167  1
  Ba  Ba3  1  0.312672  0.025041  0.368167  1
  Ba  Ba4  1  0.487585  0.487585  0.409718  1
  Ba  Ba5  1  0.512415  0.512415  0.909718  1
  Ba  Ba6  1  0.025041  0.312672  0.368167  1
  Ba  Ba7  1  0.687328  0.974959  0.868167  1
  Ba  Ba8  1  0.283679  0.976154  0.935080  1
  Ba  Ba9  1  0.023846  0.716321  0.435080  1
  Ga  Ga10  1  0.841504  0.355580  0.650751  1
  Ga  Ga11  1  0.644420  0.158496  0.150751  1
  Ga  Ga12  1  0.786422  0.511647  0.171444  1
  Ga  Ga13  1  0.488353  0.213578  0.671444  1
  Ga  Ga14  1  0.699439  0.699439  0.626784  1
  Ga  Ga15  1  0.300561  0.300561  0.126784  1
  Ga  Ga16  1  0.005904  0.005904  0.649333  1
  Ga  Ga17  1  0.994096  0.994096  0.149333  1
  Ga  Ga18  1  0.511647  0.786422  0.171444  1
  Ga  Ga19  1  0.213578  0.488353  0.671444  1
  Ga  Ga20  1  0.355580  0.841504  0.650751  1
  Ga  Ga21  1  0.158496  0.644420  0.150751  1
  O  O22  1  0.931680  0.185411  0.570474  1
  O  O23  1  0.814589  0.068320  0.070474  1
  O  O24  1  0.733230  0.313293  0.248483  1
  O  O25  1  0.686707  0.266770  0.748483  1
  O  O26  1  0.988691  0.559354  0.237524  1
  O  O27  1  0.440646  0.011309  0.737524  1
  O  O28  1  0.798973  0.495033  0.013858  1
  O  O29  1  0.504967  0.201027  0.513858  1
  O  O30  1  0.772476  0.516248  0.550236  1
  O  O31  1  0.483752  0.227524  0.050236  1
  O  O32  1  0.000507  0.000507  0.808647  1
  O  O33  1  0.145250  0.145250  0.089552  1
  O  O34  1  0.648669  0.648669  0.240246  1
  O  O35  1  0.999493  0.999493  0.308647  1
  O  O36  1  0.351331  0.351331  0.740246  1
  O  O37  1  0.694191  0.694191  0.783370  1
  O  O38  1  0.305809  0.305809  0.283370  1
  O  O39  1  0.854750  0.854750  0.589552  1
  O  O40  1  0.516248  0.772476  0.550236  1
  O  O41  1  0.227524  0.483752  0.050236  1
  O  O42  1  0.201027  0.504967  0.513858  1
  O  O43  1  0.495033  0.798973  0.013858  1
  O  O44  1  0.011309  0.440646  0.737524  1
  O  O45  1  0.559354  0.988691  0.237524  1
  O  O46  1  0.266770  0.686707  0.748483  1
  O  O47  1  0.313293  0.733230  0.248483  1
  O  O48  1  0.185411  0.931680  0.570474  1
  O  O49  1  0.068320  0.814589  0.070474  1
