# generated using pymatgen
data_Li3MnPCO7
_symmetry_space_group_name_H-M   'P 1'
_cell_length_a   5.03207332
_cell_length_b   6.86992692
_cell_length_c   8.73626282
_cell_angle_alpha   84.09855293
_cell_angle_beta   86.86449024
_cell_angle_gamma   82.58043754
_symmetry_Int_Tables_number   1
_chemical_formula_structural   Li3MnPCO7
_chemical_formula_sum   'Li6 Mn2 P2 C2 O14'
_cell_volume   297.63371856
_cell_formula_units_Z   2
loop_
 _symmetry_equiv_pos_site_id
 _symmetry_equiv_pos_as_xyz
  1  'x, y, z'
loop_
 _atom_site_type_symbol
 _atom_site_label
 _atom_site_symmetry_multiplicity
 _atom_site_fract_x
 _atom_site_fract_y
 _atom_site_fract_z
 _atom_site_occupancy
  Li  Li0  1  0.291597  0.104565  0.233053  1
  Li  Li1  1  0.129087  0.471966  0.210600  1
  Li  Li2  1  0.457397  0.731750  0.244298  1
  Li  Li3  1  0.542603  0.268250  0.755702  1
  Li  Li4  1  0.870913  0.528034  0.789400  1
  Li  Li5  1  0.708403  0.895435  0.766947  1
  Mn  Mn6  1  0.704170  0.253903  0.369228  1
  Mn  Mn7  1  0.295830  0.746097  0.630772  1
  P  P8  1  0.833245  0.755405  0.414103  1
  P  P9  1  0.166755  0.244595  0.585897  1
  C  C10  1  0.755326  0.277621  0.060748  1
  C  C11  1  0.244674  0.722379  0.939252  1
  O  O12  1  0.224907  0.713733  0.086100  1
  O  O13  1  0.524428  0.294559  0.136152  1
  O  O14  1  0.968181  0.252212  0.144306  1
  O  O15  1  0.773924  0.573279  0.334096  1
  O  O16  1  0.665436  0.936824  0.329172  1
  O  O17  1  0.138631  0.777680  0.405111  1
  O  O18  1  0.260601  0.269977  0.412238  1
  O  O19  1  0.739399  0.730023  0.587762  1
  O  O20  1  0.861369  0.222320  0.594889  1
  O  O21  1  0.334564  0.063176  0.670828  1
  O  O22  1  0.226076  0.426721  0.665904  1
  O  O23  1  0.031819  0.747788  0.855694  1
  O  O24  1  0.475572  0.705441  0.863848  1
  O  O25  1  0.775093  0.286267  0.913900  1
