# generated using pymatgen
data_Ca2CeO4
_symmetry_space_group_name_H-M   'P 1'
_cell_length_a   6.04634708
_cell_length_b   6.12014065
_cell_length_c   11.94470321
_cell_angle_alpha   90.00000000
_cell_angle_beta   90.00000000
_cell_angle_gamma   90.00000000
_symmetry_Int_Tables_number   1
_chemical_formula_structural   Ca2CeO4
_chemical_formula_sum   'Ca8 Ce4 O16'
_cell_volume   442.00770482
_cell_formula_units_Z   4
loop_
 _symmetry_equiv_pos_site_id
 _symmetry_equiv_pos_as_xyz
  1  'x, y, z'
loop_
 _atom_site_type_symbol
 _atom_site_label
 _atom_site_symmetry_multiplicity
 _atom_site_fract_x
 _atom_site_fract_y
 _atom_site_fract_z
 _atom_site_occupancy
  Ca  Ca0  1  0.026060  0.051467  0.342024  1
  Ca  Ca1  1  0.026060  0.448533  0.842024  1
  Ca  Ca2  1  0.473940  0.551467  0.342024  1
  Ca  Ca3  1  0.473940  0.948533  0.842024  1
  Ca  Ca4  1  0.526060  0.051467  0.157976  1
  Ca  Ca5  1  0.526060  0.448533  0.657976  1
  Ca  Ca6  1  0.973940  0.551467  0.157976  1
  Ca  Ca7  1  0.973940  0.948533  0.657976  1
  Ce  Ce8  1  0.000000  0.000000  0.000000  1
  Ce  Ce9  1  0.000000  0.500000  0.500000  1
  Ce  Ce10  1  0.500000  0.500000  0.000000  1
  Ce  Ce11  1  0.500000  0.000000  0.500000  1
  O  O12  1  0.111154  0.433775  0.325333  1
  O  O13  1  0.111154  0.066225  0.825333  1
  O  O14  1  0.176072  0.323290  0.037723  1
  O  O15  1  0.176072  0.176710  0.537723  1
  O  O16  1  0.323928  0.823290  0.037723  1
  O  O17  1  0.323928  0.676710  0.537723  1
  O  O18  1  0.388846  0.566225  0.825333  1
  O  O19  1  0.388846  0.933775  0.325333  1
  O  O20  1  0.611154  0.433775  0.174667  1
  O  O21  1  0.611154  0.066225  0.674667  1
  O  O22  1  0.676072  0.323290  0.462277  1
  O  O23  1  0.676072  0.176710  0.962277  1
  O  O24  1  0.823928  0.823290  0.462277  1
  O  O25  1  0.823928  0.676710  0.962277  1
  O  O26  1  0.888846  0.933775  0.174667  1
  O  O27  1  0.888846  0.566225  0.674667  1
