# generated using pymatgen
data_BaNb3NO7
_symmetry_space_group_name_H-M   'P 1'
_cell_length_a   10.75650192
_cell_length_b   10.75650192
_cell_length_c   9.11065671
_cell_angle_alpha   89.33842953
_cell_angle_beta   90.66157047
_cell_angle_gamma   159.13554971
_symmetry_Int_Tables_number   1
_chemical_formula_structural   BaNb3NO7
_chemical_formula_sum   'Ba2 Nb6 N2 O14'
_cell_volume   375.40921697
_cell_formula_units_Z   2
loop_
 _symmetry_equiv_pos_site_id
 _symmetry_equiv_pos_as_xyz
  1  'x, y, z'
loop_
 _atom_site_type_symbol
 _atom_site_label
 _atom_site_symmetry_multiplicity
 _atom_site_fract_x
 _atom_site_fract_y
 _atom_site_fract_z
 _atom_site_occupancy
  Ba  Ba0  1  0.986855  0.013145  0.247161  1
  Ba  Ba1  1  0.021267  0.978733  0.751967  1
  Nb  Nb2  1  0.640476  0.359524  0.047541  1
  Nb  Nb3  1  0.244284  0.755716  0.245419  1
  Nb  Nb4  1  0.635317  0.364683  0.439561  1
  Nb  Nb5  1  0.369372  0.630628  0.563705  1
  Nb  Nb6  1  0.762635  0.237365  0.750648  1
  Nb  Nb7  1  0.369553  0.630447  0.928922  1
  N  N8  1  0.297468  0.702532  0.746785  1
  N  N9  1  0.705164  0.294836  0.904796  1
  O  O10  1  0.436786  0.563214  0.063391  1
  O  O11  1  0.157432  0.842568  0.100517  1
  O  O12  1  0.300550  0.699450  0.094821  1
  O  O13  1  0.717009  0.282991  0.250677  1
  O  O14  1  0.583739  0.416261  0.256379  1
  O  O15  1  0.301116  0.698884  0.402351  1
  O  O16  1  0.157602  0.842398  0.406832  1
  O  O17  1  0.437417  0.562583  0.436824  1
  O  O18  1  0.570709  0.429291  0.570454  1
  O  O19  1  0.854857  0.145143  0.585454  1
  O  O20  1  0.708300  0.291700  0.584841  1
  O  O21  1  0.427453  0.572547  0.751857  1
  O  O22  1  0.851540  0.148460  0.912991  1
  O  O23  1  0.567946  0.432054  0.930801  1
