# generated using pymatgen
data_LiTaWO6
_symmetry_space_group_name_H-M   'P 1'
_cell_length_a   7.44351419
_cell_length_b   7.44351419
_cell_length_c   10.44811588
_cell_angle_alpha   90.00000000
_cell_angle_beta   90.00000000
_cell_angle_gamma   90.00000000
_symmetry_Int_Tables_number   1
_chemical_formula_structural   LiTaWO6
_chemical_formula_sum   'Li4 Ta4 W4 O24'
_cell_volume   578.88730026
_cell_formula_units_Z   4
loop_
 _symmetry_equiv_pos_site_id
 _symmetry_equiv_pos_as_xyz
  1  'x, y, z'
loop_
 _atom_site_type_symbol
 _atom_site_label
 _atom_site_symmetry_multiplicity
 _atom_site_fract_x
 _atom_site_fract_y
 _atom_site_fract_z
 _atom_site_occupancy
  Li  Li0  1  0.500000  0.137125  0.000000  1
  Li  Li1  1  0.862875  0.500000  0.250000  1
  Li  Li2  1  0.500000  0.862875  0.500000  1
  Li  Li3  1  0.137125  0.500000  0.750000  1
  Ta  Ta4  1  0.500000  0.741223  0.000000  1
  Ta  Ta5  1  0.258777  0.500000  0.250000  1
  Ta  Ta6  1  0.500000  0.258777  0.500000  1
  Ta  Ta7  1  0.741223  0.500000  0.750000  1
  W  W8  1  0.000000  0.747881  0.000000  1
  W  W9  1  0.252119  0.000000  0.250000  1
  W  W10  1  0.000000  0.252119  0.500000  1
  W  W11  1  0.747881  0.000000  0.750000  1
  O  O12  1  0.559811  0.559811  0.875000  1
  O  O13  1  0.929035  0.929035  0.875000  1
  O  O14  1  0.565093  0.946496  0.878996  1
  O  O15  1  0.946496  0.565093  0.871004  1
  O  O16  1  0.743074  0.244986  0.809469  1
  O  O17  1  0.256926  0.244986  0.190531  1
  O  O18  1  0.440189  0.559811  0.125000  1
  O  O19  1  0.053504  0.565093  0.128996  1
  O  O20  1  0.070965  0.929035  0.125000  1
  O  O21  1  0.434907  0.946496  0.121004  1
  O  O22  1  0.755014  0.743074  0.059469  1
  O  O23  1  0.755014  0.256926  0.440531  1
  O  O24  1  0.440189  0.440189  0.375000  1
  O  O25  1  0.070965  0.070965  0.375000  1
  O  O26  1  0.053504  0.434907  0.371004  1
  O  O27  1  0.434907  0.053504  0.378996  1
  O  O28  1  0.256926  0.755014  0.309469  1
  O  O29  1  0.743074  0.755014  0.690531  1
  O  O30  1  0.565093  0.053504  0.621004  1
  O  O31  1  0.929035  0.070965  0.625000  1
  O  O32  1  0.559811  0.440189  0.625000  1
  O  O33  1  0.946496  0.434907  0.628996  1
  O  O34  1  0.244986  0.256926  0.559469  1
  O  O35  1  0.244986  0.743074  0.940531  1
