# generated using pymatgen
data_MnPO4
_symmetry_space_group_name_H-M   'P 1'
_cell_length_a   5.76165441
_cell_length_b   7.42052350
_cell_length_c   9.24256891
_cell_angle_alpha   90.00000000
_cell_angle_beta   119.45435524
_cell_angle_gamma   90.00000000
_symmetry_Int_Tables_number   1
_chemical_formula_structural   MnPO4
_chemical_formula_sum   'Mn4 P4 O16'
_cell_volume   344.08582992
_cell_formula_units_Z   4
loop_
 _symmetry_equiv_pos_site_id
 _symmetry_equiv_pos_as_xyz
  1  'x, y, z'
loop_
 _atom_site_type_symbol
 _atom_site_label
 _atom_site_symmetry_multiplicity
 _atom_site_fract_x
 _atom_site_fract_y
 _atom_site_fract_z
 _atom_site_occupancy
  Mn  Mn0  1  0.323102  0.314281  0.445724  1
  Mn  Mn1  1  0.676898  0.814281  0.054276  1
  Mn  Mn2  1  0.323102  0.185719  0.945724  1
  Mn  Mn3  1  0.676898  0.685719  0.554276  1
  P  P4  1  0.691786  0.037029  0.768517  1
  P  P5  1  0.308214  0.537029  0.731483  1
  P  P6  1  0.691786  0.462971  0.268517  1
  P  P7  1  0.308214  0.962971  0.231483  1
  O  O8  1  0.243577  0.153958  0.267244  1
  O  O9  1  0.476962  0.128616  0.613548  1
  O  O10  1  0.056159  0.850425  0.137441  1
  O  O11  1  0.430670  0.511052  0.609991  1
  O  O12  1  0.569330  0.011052  0.890009  1
  O  O13  1  0.523038  0.628616  0.886452  1
  O  O14  1  0.943841  0.350425  0.362559  1
  O  O15  1  0.243577  0.346042  0.767244  1
  O  O16  1  0.756423  0.653958  0.232756  1
  O  O17  1  0.056159  0.649575  0.637441  1
  O  O18  1  0.476962  0.371384  0.113548  1
  O  O19  1  0.430670  0.988948  0.109991  1
  O  O20  1  0.569330  0.488948  0.390009  1
  O  O21  1  0.943841  0.149575  0.862559  1
  O  O22  1  0.523038  0.871384  0.386452  1
  O  O23  1  0.756423  0.846042  0.732756  1
