# generated using pymatgen
data_Li3FeF6
_symmetry_space_group_name_H-M   'P 1'
_cell_length_a   5.12702986
_cell_length_b   5.12702986
_cell_length_c   9.64977128
_cell_angle_alpha   90.00000000
_cell_angle_beta   90.00000000
_cell_angle_gamma   120.00000000
_symmetry_Int_Tables_number   1
_chemical_formula_structural   Li3FeF6
_chemical_formula_sum   'Li6 Fe2 F12'
_cell_volume   219.67434718
_cell_formula_units_Z   2
loop_
 _symmetry_equiv_pos_site_id
 _symmetry_equiv_pos_as_xyz
  1  'x, y, z'
loop_
 _atom_site_type_symbol
 _atom_site_label
 _atom_site_symmetry_multiplicity
 _atom_site_fract_x
 _atom_site_fract_y
 _atom_site_fract_z
 _atom_site_occupancy
  Li  Li0  1  0.333333  0.666667  0.945525  1
  Li  Li1  1  0.000000  0.000000  0.250000  1
  Li  Li2  1  0.000000  0.000000  0.750000  1
  Li  Li3  1  0.333333  0.666667  0.554475  1
  Li  Li4  1  0.666667  0.333333  0.054475  1
  Li  Li5  1  0.666667  0.333333  0.445525  1
  Fe  Fe6  1  0.333333  0.666667  0.250000  1
  Fe  Fe7  1  0.666667  0.333333  0.750000  1
  F  F8  1  0.027628  0.672534  0.368393  1
  F  F9  1  0.327466  0.972372  0.131607  1
  F  F10  1  0.027628  0.355094  0.131607  1
  F  F11  1  0.327466  0.355094  0.368393  1
  F  F12  1  0.644906  0.972372  0.368393  1
  F  F13  1  0.355094  0.327466  0.868393  1
  F  F14  1  0.644906  0.672534  0.131607  1
  F  F15  1  0.355094  0.027628  0.631607  1
  F  F16  1  0.672534  0.644906  0.631607  1
  F  F17  1  0.972372  0.644906  0.868393  1
  F  F18  1  0.672534  0.027628  0.868393  1
  F  F19  1  0.972372  0.327466  0.631607  1
