# generated using pymatgen
data_LiMn(PO4)2
_symmetry_space_group_name_H-M   'P 1'
_cell_length_a   6.20689031
_cell_length_b   6.20689031
_cell_length_c   9.01609509
_cell_angle_alpha   69.37898733
_cell_angle_beta   110.62101267
_cell_angle_gamma   98.22438408
_symmetry_Int_Tables_number   1
_chemical_formula_structural   LiMn(PO4)2
_chemical_formula_sum   'Li2 Mn2 P4 O16'
_cell_volume   304.19453659
_cell_formula_units_Z   2
loop_
 _symmetry_equiv_pos_site_id
 _symmetry_equiv_pos_as_xyz
  1  'x, y, z'
loop_
 _atom_site_type_symbol
 _atom_site_label
 _atom_site_symmetry_multiplicity
 _atom_site_fract_x
 _atom_site_fract_y
 _atom_site_fract_z
 _atom_site_occupancy
  Li  Li0  1  0.884646  0.662071  0.491667  1
  Li  Li1  1  0.337929  0.115354  0.991667  1
  Mn  Mn2  1  0.651337  0.647301  0.752544  1
  Mn  Mn3  1  0.352699  0.348663  0.252544  1
  P  P4  1  0.335577  0.787090  0.354644  1
  P  P5  1  0.212910  0.664423  0.854644  1
  P  P6  1  0.791660  0.341255  0.150048  1
  P  P7  1  0.658745  0.208340  0.650048  1
  O  O8  1  0.777297  0.554283  0.992276  1
  O  O9  1  0.361351  0.656009  0.243445  1
  O  O10  1  0.113286  0.741443  0.390771  1
  O  O11  1  0.343991  0.638649  0.743445  1
  O  O12  1  0.563874  0.748337  0.507365  1
  O  O13  1  0.958161  0.658683  0.733765  1
  O  O14  1  0.671060  0.126981  0.104812  1
  O  O15  1  0.341317  0.041839  0.233765  1
  O  O16  1  0.698344  0.955754  0.761769  1
  O  O17  1  0.258557  0.886714  0.890771  1
  O  O18  1  0.044246  0.301656  0.261769  1
  O  O19  1  0.445717  0.222703  0.492276  1
  O  O20  1  0.671084  0.388062  0.261201  1
  O  O21  1  0.873019  0.328940  0.604812  1
  O  O22  1  0.611938  0.328916  0.761201  1
  O  O23  1  0.251663  0.436126  0.007365  1
