# generated using pymatgen
data_NaAuF4
_symmetry_space_group_name_H-M   'P 1'
_cell_length_a   6.72548390
_cell_length_b   6.72548390
_cell_length_c   6.72548390
_cell_angle_alpha   129.06366118
_cell_angle_beta   129.06366118
_cell_angle_gamma   74.90816180
_symmetry_Int_Tables_number   1
_chemical_formula_structural   NaAuF4
_chemical_formula_sum   'Na2 Au2 F8'
_cell_volume   178.61602371
_cell_formula_units_Z   2
loop_
 _symmetry_equiv_pos_site_id
 _symmetry_equiv_pos_as_xyz
  1  'x, y, z'
loop_
 _atom_site_type_symbol
 _atom_site_label
 _atom_site_symmetry_multiplicity
 _atom_site_fract_x
 _atom_site_fract_y
 _atom_site_fract_z
 _atom_site_occupancy
  Na  Na0  1  0.250000  0.250000  0.000000  1
  Na  Na1  1  0.750000  0.750000  0.000000  1
  Au  Au2  1  0.500000  0.000000  0.500000  1
  Au  Au3  1  0.000000  0.500000  0.500000  1
  F  F4  1  0.457760  0.957760  0.156245  1
  F  F5  1  0.198484  0.698484  0.156245  1
  F  F6  1  0.542240  0.042240  0.843755  1
  F  F7  1  0.042240  0.198484  0.500000  1
  F  F8  1  0.801516  0.301516  0.843755  1
  F  F9  1  0.301516  0.457760  0.500000  1
  F  F10  1  0.957760  0.801516  0.500000  1
  F  F11  1  0.698484  0.542240  0.500000  1
