# generated using pymatgen
data_Gd2As4O11
_symmetry_space_group_name_H-M   'P 1'
_cell_length_a   6.70862950
_cell_length_b   6.70862950
_cell_length_c   16.42841878
_cell_angle_alpha   83.82995369
_cell_angle_beta   96.17004631
_cell_angle_gamma   132.82151518
_symmetry_Int_Tables_number   1
_chemical_formula_structural   Gd2As4O11
_chemical_formula_sum   'Gd4 As8 O22'
_cell_volume   538.56857876
_cell_formula_units_Z   2
loop_
 _symmetry_equiv_pos_site_id
 _symmetry_equiv_pos_as_xyz
  1  'x, y, z'
loop_
 _atom_site_type_symbol
 _atom_site_label
 _atom_site_symmetry_multiplicity
 _atom_site_fract_x
 _atom_site_fract_y
 _atom_site_fract_z
 _atom_site_occupancy
  Gd  Gd0  1  0.673324  0.880190  0.030840  1
  Gd  Gd1  1  0.119810  0.326676  0.530840  1
  Gd  Gd2  1  0.880190  0.673324  0.469160  1
  Gd  Gd3  1  0.326676  0.119810  0.969160  1
  As  As4  1  0.223734  0.348994  0.156994  1
  As  As5  1  0.509173  0.863756  0.381183  1
  As  As6  1  0.651006  0.776266  0.656994  1
  As  As7  1  0.863756  0.509173  0.118817  1
  As  As8  1  0.136244  0.490827  0.881183  1
  As  As9  1  0.348994  0.223734  0.343006  1
  As  As10  1  0.490827  0.136244  0.618817  1
  As  As11  1  0.776266  0.651006  0.843006  1
  O  O12  1  0.045435  0.906661  0.338837  1
  O  O13  1  0.240912  0.619501  0.135784  1
  O  O14  1  0.093339  0.954565  0.838837  1
  O  O15  1  0.242727  0.697388  0.451367  1
  O  O16  1  0.380499  0.759088  0.635784  1
  O  O17  1  0.432343  0.411222  0.085151  1
  O  O18  1  0.981328  0.792185  0.050799  1
  O  O19  1  0.422472  0.422472  0.250000  1
  O  O20  1  0.792185  0.981328  0.449201  1
  O  O21  1  0.302612  0.757273  0.951367  1
  O  O22  1  0.411222  0.432343  0.414849  1
  O  O23  1  0.588778  0.567657  0.585151  1
  O  O24  1  0.697388  0.242727  0.048633  1
  O  O25  1  0.207815  0.018672  0.550799  1
  O  O26  1  0.577528  0.577528  0.750000  1
  O  O27  1  0.018672  0.207815  0.949201  1
  O  O28  1  0.567657  0.588778  0.914849  1
  O  O29  1  0.619501  0.240912  0.364216  1
  O  O30  1  0.757274  0.302612  0.548633  1
  O  O31  1  0.906661  0.045435  0.161163  1
  O  O32  1  0.759088  0.380499  0.864216  1
  O  O33  1  0.954565  0.093339  0.661163  1
