# generated using pymatgen
data_V3FeSb2(PO4)6
_symmetry_space_group_name_H-M   'P 1'
_cell_length_a   8.89795562
_cell_length_b   8.89795562
_cell_length_c   8.89795562
_cell_angle_alpha   58.57228564
_cell_angle_beta   58.57228564
_cell_angle_gamma   58.57228564
_symmetry_Int_Tables_number   1
_chemical_formula_structural   V3FeSb2(PO4)6
_chemical_formula_sum   'V3 Fe1 Sb2 P6 O24'
_cell_volume   481.88203218
_cell_formula_units_Z   1
loop_
 _symmetry_equiv_pos_site_id
 _symmetry_equiv_pos_as_xyz
  1  'x, y, z'
loop_
 _atom_site_type_symbol
 _atom_site_label
 _atom_site_symmetry_multiplicity
 _atom_site_fract_x
 _atom_site_fract_y
 _atom_site_fract_z
 _atom_site_occupancy
  V  V0  1  0.646387  0.646387  0.646387  1
  V  V1  1  0.854326  0.854326  0.854326  1
  V  V2  1  0.353388  0.353388  0.353388  1
  Fe  Fe3  1  0.150297  0.150297  0.150297  1
  Sb  Sb4  1  0.005297  0.005297  0.005297  1
  Sb  Sb5  1  0.499587  0.499587  0.499587  1
  P  P6  1  0.249245  0.541068  0.959133  1
  P  P7  1  0.959133  0.249245  0.541068  1
  P  P8  1  0.541068  0.959133  0.249245  1
  P  P9  1  0.460144  0.039091  0.750148  1
  P  P10  1  0.039091  0.750148  0.460144  1
  P  P11  1  0.750148  0.460144  0.039091  1
  O  O12  1  0.114834  0.301605  0.507965  1
  O  O13  1  0.507965  0.114834  0.301605  1
  O  O14  1  0.301605  0.507965  0.114834  1
  O  O15  1  0.084930  0.732178  0.937286  1
  O  O16  1  0.198725  0.383695  0.990458  1
  O  O17  1  0.416327  0.560623  0.766807  1
  O  O18  1  0.937286  0.084930  0.732178  1
  O  O19  1  0.766807  0.416327  0.560623  1
  O  O20  1  0.614269  0.007187  0.802084  1
  O  O21  1  0.560623  0.766807  0.416327  1
  O  O22  1  0.265285  0.060317  0.917306  1
  O  O23  1  0.007187  0.802084  0.614269  1
  O  O24  1  0.990458  0.198725  0.383695  1
  O  O25  1  0.732178  0.937286  0.084930  1
  O  O26  1  0.437440  0.232861  0.584854  1
  O  O27  1  0.383695  0.990458  0.198725  1
  O  O28  1  0.232861  0.584854  0.437440  1
  O  O29  1  0.060317  0.917306  0.265285  1
  O  O30  1  0.584854  0.437440  0.232861  1
  O  O31  1  0.802084  0.614269  0.007187  1
  O  O32  1  0.917306  0.265285  0.060317  1
  O  O33  1  0.697980  0.492521  0.884352  1
  O  O34  1  0.492521  0.884352  0.697980  1
  O  O35  1  0.884352  0.697980  0.492521  1
