# generated using pymatgen
data_Li6MnFe5(BO3)6
_symmetry_space_group_name_H-M   'P 1'
_cell_length_a   8.81545075
_cell_length_b   8.81545075
_cell_length_c   8.24492773
_cell_angle_alpha   62.23677014
_cell_angle_beta   117.76322986
_cell_angle_gamma   138.29025561
_symmetry_Int_Tables_number   1
_chemical_formula_structural   Li6MnFe5(BO3)6
_chemical_formula_sum   'Li6 Mn1 Fe5 B6 O18'
_cell_volume   369.57404861
_cell_formula_units_Z   1
loop_
 _symmetry_equiv_pos_site_id
 _symmetry_equiv_pos_as_xyz
  1  'x, y, z'
loop_
 _atom_site_type_symbol
 _atom_site_label
 _atom_site_symmetry_multiplicity
 _atom_site_fract_x
 _atom_site_fract_y
 _atom_site_fract_z
 _atom_site_occupancy
  Li  Li0  1  0.741828  0.757848  0.285671  1
  Li  Li1  1  0.242152  0.258172  0.285671  1
  Li  Li2  1  0.900556  0.598632  0.016314  1
  Li  Li3  1  0.401368  0.099444  0.016314  1
  Li  Li4  1  0.608570  0.893233  0.698052  1
  Li  Li5  1  0.106767  0.391430  0.698052  1
  Mn  Mn6  1  0.313548  0.686452  0.987026  1
  Fe  Fe7  1  0.180089  0.819911  0.367897  1
  Fe  Fe8  1  0.679742  0.320258  0.367506  1
  Fe  Fe9  1  0.503590  0.496410  0.640755  1
  Fe  Fe10  1  0.004177  0.995823  0.639634  1
  Fe  Fe11  1  0.816093  0.183907  0.992281  1
  B  B12  1  0.081529  0.414940  0.334302  1
  B  B13  1  0.585060  0.918471  0.334302  1
  B  B14  1  0.914629  0.582386  0.664985  1
  B  B15  1  0.417614  0.085371  0.664985  1
  B  B16  1  0.000110  0.999890  0.000023  1
  B  B17  1  0.501071  0.498929  0.002084  1
  O  O18  1  0.460202  0.539798  0.113760  1
  O  O19  1  0.957354  0.042646  0.109030  1
  O  O20  1  0.544251  0.963116  0.141051  1
  O  O21  1  0.036884  0.455749  0.141051  1
  O  O22  1  0.097188  0.902812  0.085004  1
  O  O23  1  0.598126  0.401874  0.083998  1
  O  O24  1  0.180415  0.319661  0.442528  1
  O  O25  1  0.680339  0.819585  0.442528  1
  O  O26  1  0.529271  0.971027  0.420230  1
  O  O27  1  0.028973  0.470729  0.420230  1
  O  O28  1  0.877164  0.623970  0.471599  1
  O  O29  1  0.376030  0.122836  0.471599  1
  O  O30  1  0.445435  0.554565  0.807765  1
  O  O31  1  0.945705  0.054295  0.806166  1
  O  O32  1  0.009494  0.483519  0.778641  1
  O  O33  1  0.516481  0.990506  0.778641  1
  O  O34  1  0.858686  0.640494  0.745162  1
  O  O35  1  0.359506  0.141314  0.745162  1
