# generated using pymatgen
data_BaNb3NO7
_symmetry_space_group_name_H-M   'P 1'
_cell_length_a   10.77684202
_cell_length_b   10.77684202
_cell_length_c   9.11880239
_cell_angle_alpha   88.53951600
_cell_angle_beta   91.46048400
_cell_angle_gamma   159.28091808
_symmetry_Int_Tables_number   1
_chemical_formula_structural   BaNb3NO7
_chemical_formula_sum   'Ba2 Nb6 N2 O14'
_cell_volume   374.55543790
_cell_formula_units_Z   2
loop_
 _symmetry_equiv_pos_site_id
 _symmetry_equiv_pos_as_xyz
  1  'x, y, z'
loop_
 _atom_site_type_symbol
 _atom_site_label
 _atom_site_symmetry_multiplicity
 _atom_site_fract_x
 _atom_site_fract_y
 _atom_site_fract_z
 _atom_site_occupancy
  Ba  Ba0  1  0.982652  0.017348  0.251303  1
  Ba  Ba1  1  0.017238  0.982762  0.752006  1
  Nb  Nb2  1  0.627453  0.372547  0.071755  1
  Nb  Nb3  1  0.241238  0.758762  0.246580  1
  Nb  Nb4  1  0.631987  0.368013  0.442789  1
  Nb  Nb5  1  0.368390  0.631610  0.561688  1
  Nb  Nb6  1  0.759237  0.240763  0.763103  1
  Nb  Nb7  1  0.368167  0.631833  0.940678  1
  N  N8  1  0.580404  0.419596  0.250191  1
  N  N9  1  0.844398  0.155602  0.905447  1
  O  O10  1  0.436103  0.563897  0.070539  1
  O  O11  1  0.155677  0.844323  0.092143  1
  O  O12  1  0.297958  0.702042  0.099239  1
  O  O13  1  0.713722  0.286278  0.248331  1
  O  O14  1  0.296973  0.703027  0.405875  1
  O  O15  1  0.154979  0.845021  0.408053  1
  O  O16  1  0.433617  0.566383  0.435174  1
  O  O17  1  0.566423  0.433577  0.571060  1
  O  O18  1  0.848384  0.151616  0.588591  1
  O  O19  1  0.705614  0.294386  0.592158  1
  O  O20  1  0.286765  0.713235  0.741920  1
  O  O21  1  0.420930  0.579070  0.747833  1
  O  O22  1  0.702260  0.297740  0.907304  1
  O  O23  1  0.564422  0.435578  0.928145  1
