# generated using pymatgen
data_Mg3(AsO4)2
_symmetry_space_group_name_H-M   'P 1'
_cell_length_a   10.71884934
_cell_length_b   10.71884934
_cell_length_c   10.71884934
_cell_angle_alpha   142.48771631
_cell_angle_beta   142.48771631
_cell_angle_gamma   54.09481790
_symmetry_Int_Tables_number   1
_chemical_formula_structural   Mg3(AsO4)2
_chemical_formula_sum   'Mg9 As6 O24'
_cell_volume   453.60175247
_cell_formula_units_Z   3
loop_
 _symmetry_equiv_pos_site_id
 _symmetry_equiv_pos_as_xyz
  1  'x, y, z'
loop_
 _atom_site_type_symbol
 _atom_site_label
 _atom_site_symmetry_multiplicity
 _atom_site_fract_x
 _atom_site_fract_y
 _atom_site_fract_z
 _atom_site_occupancy
  Mg  Mg0  1  0.128330  0.631637  0.007327  1
  Mg  Mg1  1  0.750000  0.250000  0.500000  1
  Mg  Mg2  1  0.227982  0.227982  0.000000  1
  Mg  Mg3  1  0.878997  0.871670  0.503307  1
  Mg  Mg4  1  0.624310  0.121003  0.992673  1
  Mg  Mg5  1  0.479522  0.979522  0.500000  1
  Mg  Mg6  1  0.772018  0.772018  0.000000  1
  Mg  Mg7  1  0.020478  0.520478  0.500000  1
  Mg  Mg8  1  0.368363  0.375690  0.496693  1
  As  As9  1  0.000000  0.000000  0.000000  1
  As  As10  1  0.628085  0.531209  0.407175  1
  As  As11  1  0.124034  0.220909  0.592825  1
  As  As12  1  0.468791  0.875966  0.096875  1
  As  As13  1  0.250000  0.750000  0.500000  1
  As  As14  1  0.779091  0.371915  0.903125  1
  O  O15  1  0.165011  0.902323  0.156556  1
  O  O16  1  0.441566  0.676689  0.327878  1
  O  O17  1  0.807262  0.620418  0.732351  1
  O  O18  1  0.925089  0.192738  0.813156  1
  O  O19  1  0.143823  0.452162  0.714966  1
  O  O20  1  0.079726  0.310105  0.781579  1
  O  O21  1  0.528526  0.298147  0.218421  1
  O  O22  1  0.737196  0.428857  0.285034  1
  O  O23  1  0.379582  0.111933  0.186844  1
  O  O24  1  0.991545  0.834989  0.737313  1
  O  O25  1  0.571143  0.856177  0.308339  1
  O  O26  1  0.888067  0.074911  0.267649  1
  O  O27  1  0.348811  0.113687  0.672122  1
  O  O28  1  0.701853  0.920274  0.230379  1
  O  O29  1  0.145763  0.917110  0.649618  1
  O  O30  1  0.745767  0.008455  0.843444  1
  O  O31  1  0.503855  0.854237  0.771347  1
  O  O32  1  0.323311  0.651189  0.764876  1
  O  O33  1  0.886313  0.558434  0.235124  1
  O  O34  1  0.082890  0.732508  0.228653  1
  O  O35  1  0.267492  0.496145  0.350382  1
  O  O36  1  0.689895  0.471474  0.769621  1
  O  O37  1  0.547838  0.262804  0.691661  1
  O  O38  1  0.097677  0.254233  0.262687  1
