# generated using pymatgen
data_Ba6YCl15
_symmetry_space_group_name_H-M   'P 1'
_cell_length_a   10.84400199
_cell_length_b   10.84400199
_cell_length_c   31.05594652
_cell_angle_alpha   89.94072475
_cell_angle_beta   90.05927525
_cell_angle_gamma   88.06315221
_symmetry_Int_Tables_number   1
_chemical_formula_structural   Ba6YCl15
_chemical_formula_sum   'Ba24 Y4 Cl60'
_cell_volume   3649.85219024
_cell_formula_units_Z   4
loop_
 _symmetry_equiv_pos_site_id
 _symmetry_equiv_pos_as_xyz
  1  'x, y, z'
loop_
 _atom_site_type_symbol
 _atom_site_label
 _atom_site_symmetry_multiplicity
 _atom_site_fract_x
 _atom_site_fract_y
 _atom_site_fract_z
 _atom_site_occupancy
  Ba  Ba0  1  0.975692  0.003468  0.386563  1
  Ba  Ba1  1  0.996532  0.024308  0.886563  1
  Ba  Ba2  1  0.547096  0.939685  0.362278  1
  Ba  Ba3  1  0.761212  0.184138  0.256874  1
  Ba  Ba4  1  0.060315  0.452904  0.862278  1
  Ba  Ba5  1  0.815862  0.238788  0.756874  1
  Ba  Ba6  1  0.917585  0.442647  0.372042  1
  Ba  Ba7  1  0.671260  0.222401  0.477266  1
  Ba  Ba8  1  0.557353  0.082415  0.872042  1
  Ba  Ba9  1  0.777599  0.328740  0.977266  1
  Ba  Ba10  1  0.459184  0.391527  0.353498  1
  Ba  Ba11  1  0.608473  0.540816  0.853498  1
  Ba  Ba12  1  0.391527  0.459184  0.146502  1
  Ba  Ba13  1  0.540816  0.608473  0.646502  1
  Ba  Ba14  1  0.222401  0.671260  0.022734  1
  Ba  Ba15  1  0.442647  0.917585  0.127958  1
  Ba  Ba16  1  0.328740  0.777599  0.522734  1
  Ba  Ba17  1  0.082415  0.557353  0.627958  1
  Ba  Ba18  1  0.184138  0.761212  0.243126  1
  Ba  Ba19  1  0.939685  0.547096  0.137722  1
  Ba  Ba20  1  0.238788  0.815862  0.743126  1
  Ba  Ba21  1  0.452904  0.060315  0.637722  1
  Ba  Ba22  1  0.003468  0.975692  0.113437  1
  Ba  Ba23  1  0.024308  0.996532  0.613437  1
  Y  Y24  1  0.703560  0.247900  0.113423  1
  Y  Y25  1  0.752100  0.296440  0.613423  1
  Y  Y26  1  0.247900  0.703560  0.386577  1
  Y  Y27  1  0.296440  0.752100  0.886577  1
  Cl  Cl28  1  0.876656  0.170206  0.054382  1
  Cl  Cl29  1  0.829794  0.123344  0.554382  1
  Cl  Cl30  1  0.902782  0.215945  0.168625  1
  Cl  Cl31  1  0.938804  0.242869  0.440413  1
  Cl  Cl32  1  0.784055  0.097218  0.668625  1
  Cl  Cl33  1  0.757131  0.061196  0.940413  1
  Cl  Cl34  1  0.765485  0.455117  0.066725  1
  Cl  Cl35  1  0.505960  0.154660  0.297224  1
  Cl  Cl36  1  0.544884  0.234515  0.566725  1
  Cl  Cl37  1  0.993168  0.709425  0.382358  1
  Cl  Cl38  1  0.845340  0.494040  0.797224  1
  Cl  Cl39  1  0.680528  0.447923  0.169137  1
  Cl  Cl40  1  0.290575  0.006832  0.882358  1
  Cl  Cl41  1  0.453560  0.168439  0.415116  1
  Cl  Cl42  1  0.711123  0.426475  0.302989  1
  Cl  Cl43  1  0.510637  0.266640  0.064509  1
  Cl  Cl44  1  0.969711  0.734540  0.064899  1
  Cl  Cl45  1  0.213640  0.986921  0.181806  1
  Cl  Cl46  1  0.552077  0.319472  0.669137  1
  Cl  Cl47  1  0.831561  0.546440  0.915116  1
  Cl  Cl48  1  0.573525  0.288877  0.802989  1
  Cl  Cl49  1  0.733360  0.489363  0.564509  1
  Cl  Cl50  1  0.265460  0.030289  0.564899  1
  Cl  Cl51  1  0.013079  0.786360  0.681806  1
  Cl  Cl52  1  0.524822  0.190715  0.174262  1
  Cl  Cl53  1  0.662092  0.449762  0.418984  1
  Cl  Cl54  1  0.943710  0.791747  0.188979  1
  Cl  Cl55  1  0.809285  0.475178  0.674262  1
  Cl  Cl56  1  0.550238  0.337908  0.918984  1
  Cl  Cl57  1  0.208253  0.056290  0.688979  1
  Cl  Cl58  1  0.791747  0.943710  0.311021  1
  Cl  Cl59  1  0.449762  0.662092  0.081016  1
  Cl  Cl60  1  0.190715  0.524822  0.325738  1
  Cl  Cl61  1  0.056290  0.208253  0.811021  1
  Cl  Cl62  1  0.337908  0.550238  0.581016  1
  Cl  Cl63  1  0.475178  0.809285  0.825738  1
  Cl  Cl64  1  0.986921  0.213640  0.318194  1
  Cl  Cl65  1  0.734540  0.969711  0.435101  1
  Cl  Cl66  1  0.266640  0.510637  0.435491  1
  Cl  Cl67  1  0.426475  0.711123  0.197011  1
  Cl  Cl68  1  0.168439  0.453560  0.084884  1
  Cl  Cl69  1  0.447923  0.680528  0.330863  1
  Cl  Cl70  1  0.786360  0.013079  0.818194  1
  Cl  Cl71  1  0.030289  0.265460  0.935101  1
  Cl  Cl72  1  0.489363  0.733360  0.935491  1
  Cl  Cl73  1  0.288877  0.573525  0.697011  1
  Cl  Cl74  1  0.546440  0.831561  0.584884  1
  Cl  Cl75  1  0.709425  0.993168  0.117642  1
  Cl  Cl76  1  0.319472  0.552077  0.830863  1
  Cl  Cl77  1  0.154660  0.505960  0.202776  1
  Cl  Cl78  1  0.006832  0.290575  0.617642  1
  Cl  Cl79  1  0.455117  0.765485  0.433275  1
  Cl  Cl80  1  0.494040  0.845340  0.702776  1
  Cl  Cl81  1  0.234515  0.544883  0.933275  1
  Cl  Cl82  1  0.242869  0.938804  0.059587  1
  Cl  Cl83  1  0.215945  0.902782  0.331375  1
  Cl  Cl84  1  0.061196  0.757131  0.559587  1
  Cl  Cl85  1  0.097218  0.784055  0.831375  1
  Cl  Cl86  1  0.170206  0.876656  0.445618  1
  Cl  Cl87  1  0.123344  0.829794  0.945618  1
