# generated using pymatgen
data_Cu4PtO5
_symmetry_space_group_name_H-M   'P 1'
_cell_length_a   6.03678419
_cell_length_b   2.91117001
_cell_length_c   13.23431366
_cell_angle_alpha   90.00000000
_cell_angle_beta   97.01204968
_cell_angle_gamma   90.00000000
_symmetry_Int_Tables_number   1
_chemical_formula_structural   Cu4PtO5
_chemical_formula_sum   'Cu8 Pt2 O10'
_cell_volume   230.84162785
_cell_formula_units_Z   2
loop_
 _symmetry_equiv_pos_site_id
 _symmetry_equiv_pos_as_xyz
  1  'x, y, z'
loop_
 _atom_site_type_symbol
 _atom_site_label
 _atom_site_symmetry_multiplicity
 _atom_site_fract_x
 _atom_site_fract_y
 _atom_site_fract_z
 _atom_site_occupancy
  Cu  Cu0  1  0.699479  0.500000  0.298710  1
  Cu  Cu1  1  0.101926  0.500000  0.901593  1
  Cu  Cu2  1  0.300521  0.500000  0.701290  1
  Cu  Cu3  1  0.898074  0.500000  0.098407  1
  Cu  Cu4  1  0.500000  0.500000  0.500000  1
  Cu  Cu5  1  0.000000  0.000000  0.500000  1
  Cu  Cu6  1  0.597641  0.000000  0.903767  1
  Cu  Cu7  1  0.402359  0.000000  0.096233  1
  Pt  Pt8  1  0.199938  0.000000  0.298607  1
  Pt  Pt9  1  0.800062  0.000000  0.701393  1
  O  O10  1  0.895281  0.000000  0.351752  1
  O  O11  1  0.104719  0.000000  0.648248  1
  O  O12  1  0.503751  0.000000  0.245326  1
  O  O13  1  0.700047  0.000000  0.547662  1
  O  O14  1  0.898302  0.000000  0.854841  1
  O  O15  1  0.101698  0.000000  0.145159  1
  O  O16  1  0.299953  0.000000  0.452338  1
  O  O17  1  0.496249  0.000000  0.754674  1
  O  O18  1  0.701192  0.000000  0.050576  1
  O  O19  1  0.298808  0.000000  0.949424  1
