# generated using pymatgen
data_Rb2O
_symmetry_space_group_name_H-M   'P 1'
_cell_length_a   4.37091336
_cell_length_b   6.51904739
_cell_length_c   7.72825223
_cell_angle_alpha   90.00000000
_cell_angle_beta   122.52835816
_cell_angle_gamma   90.00000000
_symmetry_Int_Tables_number   1
_chemical_formula_structural   Rb2O
_chemical_formula_sum   'Rb4 O2'
_cell_volume   185.66489775
_cell_formula_units_Z   2
loop_
 _symmetry_equiv_pos_site_id
 _symmetry_equiv_pos_as_xyz
  1  'x, y, z'
loop_
 _atom_site_type_symbol
 _atom_site_label
 _atom_site_symmetry_multiplicity
 _atom_site_fract_x
 _atom_site_fract_y
 _atom_site_fract_z
 _atom_site_occupancy
  Rb  Rb0  1  0.215198  0.350839  0.227145  1
  Rb  Rb1  1  0.784802  0.649161  0.772855  1
  Rb  Rb2  1  0.215198  0.149161  0.727145  1
  Rb  Rb3  1  0.784802  0.850839  0.272855  1
  O  O4  1  0.500000  0.000000  0.500000  1
  O  O5  1  0.500000  0.500000  0.000000  1
