# generated using pymatgen
data_Li4MnFe3(BO3)4
_symmetry_space_group_name_H-M   'P 1'
_cell_length_a   5.23734731
_cell_length_b   9.05954696
_cell_length_c   10.41634205
_cell_angle_alpha   89.11740088
_cell_angle_beta   89.13645086
_cell_angle_gamma   89.93556054
_symmetry_Int_Tables_number   1
_chemical_formula_structural   Li4MnFe3(BO3)4
_chemical_formula_sum   'Li8 Mn2 Fe6 B8 O24'
_cell_volume   494.11957233
_cell_formula_units_Z   2
loop_
 _symmetry_equiv_pos_site_id
 _symmetry_equiv_pos_as_xyz
  1  'x, y, z'
loop_
 _atom_site_type_symbol
 _atom_site_label
 _atom_site_symmetry_multiplicity
 _atom_site_fract_x
 _atom_site_fract_y
 _atom_site_fract_z
 _atom_site_occupancy
  Li  Li0  1  0.150452  0.174271  0.667577  1
  Li  Li1  1  0.184989  0.163413  0.167755  1
  Li  Li2  1  0.321066  0.332873  0.416001  1
  Li  Li3  1  0.338587  0.326767  0.916059  1
  Li  Li4  1  0.650742  0.671519  0.666877  1
  Li  Li5  1  0.685134  0.660399  0.168587  1
  Li  Li6  1  0.817458  0.830866  0.416056  1
  Li  Li7  1  0.836638  0.824548  0.916091  1
  Mn  Mn8  1  0.330287  0.997692  0.882438  1
  Mn  Mn9  1  0.677798  0.000266  0.135130  1
  Fe  Fe10  1  0.182486  0.498545  0.132439  1
  Fe  Fe11  1  0.155938  0.838930  0.632058  1
  Fe  Fe12  1  0.322200  0.667084  0.382601  1
  Fe  Fe13  1  0.655615  0.340571  0.633482  1
  Fe  Fe14  1  0.838040  0.168229  0.386622  1
  Fe  Fe15  1  0.835229  0.500138  0.884726  1
  B  B16  1  0.170977  0.828604  0.125548  1
  B  B17  1  0.161642  0.501163  0.625639  1
  B  B18  1  0.335929  0.997683  0.377166  1
  B  B19  1  0.326331  0.663983  0.874352  1
  B  B20  1  0.674981  0.332982  0.127307  1
  B  B21  1  0.662107  0.000939  0.624970  1
  B  B22  1  0.833108  0.497410  0.376225  1
  B  B23  1  0.828057  0.168442  0.874653  1
  O  O24  1  0.095420  0.484628  0.346978  1
  O  O25  1  0.090874  0.179641  0.860883  1
  O  O26  1  0.176548  0.787111  0.843678  1
  O  O27  1  0.196017  0.872831  0.416030  1
  O  O28  1  0.214062  0.132362  0.363305  1
  O  O29  1  0.210617  0.532984  0.916941  1
  O  O30  1  0.277264  0.363549  0.612227  1
  O  O31  1  0.287353  0.964658  0.096769  1
  O  O32  1  0.303445  0.628159  0.596967  1
  O  O33  1  0.318005  0.708294  0.165482  1
  O  O34  1  0.410836  0.320711  0.114063  1
  O  O35  1  0.406133  0.010512  0.662758  1
  O  O36  1  0.596414  0.986624  0.349091  1
  O  O37  1  0.589395  0.671636  0.861131  1
  O  O38  1  0.675326  0.291048  0.844952  1
  O  O39  1  0.694160  0.373289  0.416754  1
  O  O40  1  0.713496  0.632541  0.362103  1
  O  O41  1  0.717387  0.035625  0.916659  1
  O  O42  1  0.793370  0.467184  0.096454  1
  O  O43  1  0.777091  0.862769  0.612466  1
  O  O44  1  0.804014  0.128220  0.597438  1
  O  O45  1  0.819149  0.212706  0.167775  1
  O  O46  1  0.909798  0.814869  0.111220  1
  O  O47  1  0.907433  0.510139  0.665122  1
