# generated using pymatgen
data_Li10Fe3Co7O20
_symmetry_space_group_name_H-M   'P 1'
_cell_length_a   5.81899407
_cell_length_b   2.87950220
_cell_length_c   20.59599477
_cell_angle_alpha   90.00000000
_cell_angle_beta   96.92873161
_cell_angle_gamma   90.00000000
_symmetry_Int_Tables_number   1
_chemical_formula_structural   Li10Fe3Co7O20
_chemical_formula_sum   'Li10 Fe3 Co7 O20'
_cell_volume   342.58220481
_cell_formula_units_Z   1
loop_
 _symmetry_equiv_pos_site_id
 _symmetry_equiv_pos_as_xyz
  1  'x, y, z'
loop_
 _atom_site_type_symbol
 _atom_site_label
 _atom_site_symmetry_multiplicity
 _atom_site_fract_x
 _atom_site_fract_y
 _atom_site_fract_z
 _atom_site_occupancy
  Li  Li0  1  0.301568  0.000000  0.098538  1
  Li  Li1  1  0.500000  0.500000  0.000000  1
  Li  Li2  1  0.698432  0.000000  0.901462  1
  Li  Li3  1  0.901695  0.500000  0.804328  1
  Li  Li4  1  0.098047  0.000000  0.701273  1
  Li  Li5  1  0.299577  0.500000  0.600937  1
  Li  Li6  1  0.500000  0.000000  0.500000  1
  Li  Li7  1  0.700423  0.500000  0.399063  1
  Li  Li8  1  0.901953  0.000000  0.298727  1
  Li  Li9  1  0.098305  0.500000  0.195672  1
  Fe  Fe10  1  0.000000  0.000000  0.500000  1
  Fe  Fe11  1  0.598123  0.000000  0.702726  1
  Fe  Fe12  1  0.401877  0.000000  0.297274  1
  Co  Co13  1  0.000000  0.500000  0.000000  1
  Co  Co14  1  0.197881  0.000000  0.901812  1
  Co  Co15  1  0.395510  0.500000  0.803355  1
  Co  Co16  1  0.799396  0.500000  0.601224  1
  Co  Co17  1  0.200604  0.500000  0.398776  1
  Co  Co18  1  0.604490  0.500000  0.196645  1
  Co  Co19  1  0.802119  0.000000  0.098188  1
  O  O20  1  0.025841  0.500000  0.094388  1
  O  O21  1  0.776359  0.000000  0.003764  1
  O  O22  1  0.223641  0.000000  0.996236  1
  O  O23  1  0.419986  0.500000  0.897479  1
  O  O24  1  0.974159  0.500000  0.905612  1
  O  O25  1  0.623894  0.000000  0.802019  1
  O  O26  1  0.173137  0.000000  0.807299  1
  O  O27  1  0.357418  0.500000  0.706887  1
  O  O28  1  0.838976  0.500000  0.697414  1
  O  O29  1  0.572838  0.000000  0.602950  1
  O  O30  1  0.026355  0.000000  0.599352  1
  O  O31  1  0.759616  0.500000  0.505014  1
  O  O32  1  0.240384  0.500000  0.494986  1
  O  O33  1  0.427162  0.000000  0.397050  1
  O  O34  1  0.973645  0.000000  0.400648  1
  O  O35  1  0.161024  0.500000  0.302586  1
  O  O36  1  0.642582  0.500000  0.293113  1
  O  O37  1  0.376106  0.000000  0.197981  1
  O  O38  1  0.826863  0.000000  0.192701  1
  O  O39  1  0.580014  0.500000  0.102521  1
