# generated using pymatgen
data_TiCdFe(PO4)3
_symmetry_space_group_name_H-M   'P 1'
_cell_length_a   8.80207377
_cell_length_b   8.80207377
_cell_length_c   8.80207377
_cell_angle_alpha   58.88666668
_cell_angle_beta   58.88666668
_cell_angle_gamma   58.88666668
_symmetry_Int_Tables_number   1
_chemical_formula_structural   TiCdFe(PO4)3
_chemical_formula_sum   'Ti2 Cd2 Fe2 P6 O24'
_cell_volume   469.96000473
_cell_formula_units_Z   2
loop_
 _symmetry_equiv_pos_site_id
 _symmetry_equiv_pos_as_xyz
  1  'x, y, z'
loop_
 _atom_site_type_symbol
 _atom_site_label
 _atom_site_symmetry_multiplicity
 _atom_site_fract_x
 _atom_site_fract_y
 _atom_site_fract_z
 _atom_site_occupancy
  Ti  Ti0  1  0.853083  0.853083  0.853083  1
  Ti  Ti1  1  0.353083  0.353083  0.353083  1
  Cd  Cd2  1  0.001219  0.001219  0.001219  1
  Cd  Cd3  1  0.501219  0.501219  0.501219  1
  Fe  Fe4  1  0.646514  0.646514  0.646514  1
  Fe  Fe5  1  0.146514  0.146514  0.146514  1
  P  P6  1  0.250001  0.539660  0.958285  1
  P  P7  1  0.958285  0.250001  0.539660  1
  P  P8  1  0.539660  0.958285  0.250001  1
  P  P9  1  0.458285  0.039660  0.750001  1
  P  P10  1  0.039660  0.750001  0.458285  1
  P  P11  1  0.750001  0.458285  0.039660  1
  O  O12  1  0.697331  0.496170  0.881052  1
  O  O13  1  0.496170  0.881052  0.697331  1
  O  O14  1  0.080629  0.730064  0.942815  1
  O  O15  1  0.881052  0.697331  0.496170  1
  O  O16  1  0.197331  0.381052  0.996170  1
  O  O17  1  0.417674  0.558740  0.770897  1
  O  O18  1  0.942815  0.080629  0.730064  1
  O  O19  1  0.770897  0.417674  0.558740  1
  O  O20  1  0.624424  0.000605  0.800836  1
  O  O21  1  0.558740  0.770897  0.417674  1
  O  O22  1  0.270897  0.058740  0.917674  1
  O  O23  1  0.000605  0.800836  0.624424  1
  O  O24  1  0.996170  0.197331  0.381052  1
  O  O25  1  0.730064  0.942815  0.080629  1
  O  O26  1  0.442815  0.230064  0.580629  1
  O  O27  1  0.381052  0.996170  0.197331  1
  O  O28  1  0.230064  0.580629  0.442815  1
  O  O29  1  0.058740  0.917674  0.270897  1
  O  O30  1  0.580629  0.442815  0.230064  1
  O  O31  1  0.800836  0.624424  0.000605  1
  O  O32  1  0.124424  0.300836  0.500605  1
  O  O33  1  0.917674  0.270897  0.058740  1
  O  O34  1  0.500605  0.124424  0.300836  1
  O  O35  1  0.300836  0.500605  0.124424  1
