# generated using pymatgen
data_Mn6O7F5
_symmetry_space_group_name_H-M   'P 1'
_cell_length_a   4.56862629
_cell_length_b   5.64113179
_cell_length_c   15.34618682
_cell_angle_alpha   89.96015003
_cell_angle_beta   89.55802801
_cell_angle_gamma   89.20324503
_symmetry_Int_Tables_number   1
_chemical_formula_structural   Mn6O7F5
_chemical_formula_sum   'Mn12 O14 F10'
_cell_volume   395.45527454
_cell_formula_units_Z   2
loop_
 _symmetry_equiv_pos_site_id
 _symmetry_equiv_pos_as_xyz
  1  'x, y, z'
loop_
 _atom_site_type_symbol
 _atom_site_label
 _atom_site_symmetry_multiplicity
 _atom_site_fract_x
 _atom_site_fract_y
 _atom_site_fract_z
 _atom_site_occupancy
  Mn  Mn0  1  0.032675  0.823789  0.592026  1
  Mn  Mn1  1  0.030443  0.161563  0.754187  1
  Mn  Mn2  1  0.998468  0.847626  0.924391  1
  Mn  Mn3  1  0.018432  0.834937  0.255788  1
  Mn  Mn4  1  0.992088  0.151567  0.418101  1
  Mn  Mn5  1  0.014054  0.150949  0.093430  1
  Mn  Mn6  1  0.503199  0.648855  0.412660  1
  Mn  Mn7  1  0.497449  0.652132  0.078917  1
  Mn  Mn8  1  0.500894  0.637139  0.743568  1
  Mn  Mn9  1  0.508955  0.345641  0.909819  1
  Mn  Mn10  1  0.517010  0.376036  0.579439  1
  Mn  Mn11  1  0.497989  0.364755  0.239168  1
  O  O12  1  0.240998  0.887105  0.699340  1
  O  O13  1  0.209247  0.883825  0.365007  1
  O  O14  1  0.218995  0.887632  0.032993  1
  O  O15  1  0.215459  0.113766  0.866315  1
  O  O16  1  0.232630  0.113346  0.198898  1
  O  O17  1  0.287188  0.402451  0.684878  1
  O  O18  1  0.288344  0.608464  0.521638  1
  O  O19  1  0.275233  0.602547  0.186917  1
  O  O20  1  0.714370  0.617426  0.969048  1
  O  O21  1  0.724046  0.384270  0.802394  1
  O  O22  1  0.728050  0.615897  0.640175  1
  O  O23  1  0.734362  0.387819  0.470420  1
  O  O24  1  0.722426  0.382682  0.137060  1
  O  O25  1  0.721748  0.609166  0.303789  1
  F  F26  1  0.254386  0.120265  0.530959  1
  F  F27  1  0.249335  0.616617  0.848445  1
  F  F28  1  0.251310  0.375514  0.349870  1
  F  F29  1  0.252941  0.382558  0.014378  1
  F  F30  1  0.749053  0.872930  0.808749  1
  F  F31  1  0.774634  0.895555  0.482509  1
  F  F32  1  0.781022  0.130474  0.639027  1
  F  F33  1  0.754118  0.117210  0.988646  1
  F  F34  1  0.771406  0.873757  0.151898  1
  F  F35  1  0.737044  0.123738  0.305152  1
