# generated using pymatgen
data_Li2Mn3CuO8
_symmetry_space_group_name_H-M   'P 1'
_cell_length_a   5.81911097
_cell_length_b   5.81911097
_cell_length_c   9.67334872
_cell_angle_alpha   88.68121730
_cell_angle_beta   91.31878270
_cell_angle_gamma   60.04036528
_symmetry_Int_Tables_number   1
_chemical_formula_structural   Li2Mn3CuO8
_chemical_formula_sum   'Li4 Mn6 Cu2 O16'
_cell_volume   283.48967591
_cell_formula_units_Z   2
loop_
 _symmetry_equiv_pos_site_id
 _symmetry_equiv_pos_as_xyz
  1  'x, y, z'
loop_
 _atom_site_type_symbol
 _atom_site_label
 _atom_site_symmetry_multiplicity
 _atom_site_fract_x
 _atom_site_fract_y
 _atom_site_fract_z
 _atom_site_occupancy
  Li  Li0  1  0.324030  0.342564  0.109461  1
  Li  Li1  1  0.013380  0.987009  0.003425  1
  Li  Li2  1  0.012991  0.986620  0.503425  1
  Li  Li3  1  0.657436  0.675970  0.609461  1
  Mn  Mn4  1  0.664680  0.167617  0.784506  1
  Mn  Mn5  1  0.168156  0.661224  0.785552  1
  Mn  Mn6  1  0.167334  0.169732  0.784813  1
  Mn  Mn7  1  0.830268  0.832666  0.284813  1
  Mn  Mn8  1  0.832383  0.335320  0.284506  1
  Mn  Mn9  1  0.338776  0.831844  0.285552  1
  Cu  Cu10  1  0.336444  0.330997  0.506188  1
  Cu  Cu11  1  0.669003  0.663556  0.006188  1
  O  O12  1  0.692424  0.150696  0.392363  1
  O  O13  1  0.472664  0.491249  0.669425  1
  O  O14  1  0.342216  0.324923  0.891627  1
  O  O15  1  0.993720  0.005942  0.687866  1
  O  O16  1  0.994058  0.006280  0.187866  1
  O  O17  1  0.165638  0.674969  0.395459  1
  O  O18  1  0.472390  0.046134  0.664809  1
  O  O19  1  0.021523  0.493965  0.675798  1
  O  O20  1  0.848221  0.835485  0.894788  1
  O  O21  1  0.164515  0.151779  0.394788  1
  O  O22  1  0.953866  0.527610  0.164809  1
  O  O23  1  0.506035  0.978477  0.175798  1
  O  O24  1  0.675077  0.657784  0.391627  1
  O  O25  1  0.849304  0.307576  0.892363  1
  O  O26  1  0.508751  0.527336  0.169425  1
  O  O27  1  0.325031  0.834362  0.895459  1
