# generated using pymatgen
data_La2WO6
_symmetry_space_group_name_H-M   'P 1'
_cell_length_a   5.80745277
_cell_length_b   11.21715220
_cell_length_c   16.78811929
_cell_angle_alpha   90.00000000
_cell_angle_beta   90.00000000
_cell_angle_gamma   90.00000000
_symmetry_Int_Tables_number   1
_chemical_formula_structural   La2WO6
_chemical_formula_sum   'La16 W8 O48'
_cell_volume   1093.62982508
_cell_formula_units_Z   8
loop_
 _symmetry_equiv_pos_site_id
 _symmetry_equiv_pos_as_xyz
  1  'x, y, z'
loop_
 _atom_site_type_symbol
 _atom_site_label
 _atom_site_symmetry_multiplicity
 _atom_site_fract_x
 _atom_site_fract_y
 _atom_site_fract_z
 _atom_site_occupancy
  La  La0  1  0.899701  0.638347  0.062076  1
  La  La1  1  0.399701  0.861653  0.062076  1
  La  La2  1  0.936616  0.860732  0.233286  1
  La  La3  1  0.436616  0.639268  0.233286  1
  La  La4  1  0.936616  0.360732  0.266714  1
  La  La5  1  0.436616  0.139268  0.266714  1
  La  La6  1  0.399701  0.361653  0.437924  1
  La  La7  1  0.899701  0.138347  0.437924  1
  La  La8  1  0.100299  0.861653  0.562076  1
  La  La9  1  0.600299  0.638347  0.562076  1
  La  La10  1  0.563384  0.860732  0.733286  1
  La  La11  1  0.063384  0.639268  0.733286  1
  La  La12  1  0.563384  0.360732  0.766714  1
  La  La13  1  0.063384  0.139268  0.766714  1
  La  La14  1  0.100299  0.361653  0.937924  1
  La  La15  1  0.600299  0.138347  0.937924  1
  W  W16  1  0.392272  0.373443  0.120446  1
  W  W17  1  0.892272  0.126557  0.120446  1
  W  W18  1  0.392272  0.873443  0.379554  1
  W  W19  1  0.892272  0.626557  0.379554  1
  W  W20  1  0.107728  0.373443  0.620446  1
  W  W21  1  0.607728  0.126557  0.620446  1
  W  W22  1  0.107728  0.873443  0.879554  1
  W  W23  1  0.607728  0.626557  0.879554  1
  O  O24  1  0.919880  0.211505  0.023557  1
  O  O25  1  0.419880  0.288495  0.023557  1
  O  O26  1  0.130286  0.453118  0.077674  1
  O  O27  1  0.630286  0.046882  0.077674  1
  O  O28  1  0.090151  0.998714  0.108460  1
  O  O29  1  0.590151  0.501286  0.108460  1
  O  O30  1  0.671130  0.765226  0.148060  1
  O  O31  1  0.171130  0.734774  0.148060  1
  O  O32  1  0.651599  0.265605  0.165513  1
  O  O33  1  0.151599  0.234395  0.165513  1
  O  O34  1  0.830098  0.072137  0.229950  1
  O  O35  1  0.330098  0.427863  0.229950  1
  O  O36  1  0.330098  0.927863  0.270050  1
  O  O37  1  0.830098  0.572137  0.270050  1
  O  O38  1  0.651599  0.765605  0.334487  1
  O  O39  1  0.151599  0.734395  0.334487  1
  O  O40  1  0.671130  0.265226  0.351940  1
  O  O41  1  0.171130  0.234774  0.351940  1
  O  O42  1  0.090151  0.498714  0.391540  1
  O  O43  1  0.590151  0.001286  0.391540  1
  O  O44  1  0.130286  0.953118  0.422326  1
  O  O45  1  0.630286  0.546882  0.422326  1
  O  O46  1  0.419880  0.788495  0.476443  1
  O  O47  1  0.919880  0.711505  0.476443  1
  O  O48  1  0.080120  0.288495  0.523557  1
  O  O49  1  0.580120  0.211505  0.523557  1
  O  O50  1  0.369714  0.453118  0.577674  1
  O  O51  1  0.869714  0.046882  0.577674  1
  O  O52  1  0.409849  0.998714  0.608460  1
  O  O53  1  0.909849  0.501286  0.608460  1
  O  O54  1  0.828870  0.765226  0.648060  1
  O  O55  1  0.328870  0.734774  0.648060  1
  O  O56  1  0.848401  0.265605  0.665513  1
  O  O57  1  0.348401  0.234395  0.665513  1
  O  O58  1  0.169902  0.427863  0.729950  1
  O  O59  1  0.669902  0.072137  0.729950  1
  O  O60  1  0.169902  0.927863  0.770050  1
  O  O61  1  0.669902  0.572137  0.770050  1
  O  O62  1  0.848401  0.765605  0.834487  1
  O  O63  1  0.348401  0.734395  0.834487  1
  O  O64  1  0.828870  0.265226  0.851940  1
  O  O65  1  0.328870  0.234774  0.851940  1
  O  O66  1  0.409849  0.498714  0.891540  1
  O  O67  1  0.909849  0.001286  0.891540  1
  O  O68  1  0.369714  0.953118  0.922326  1
  O  O69  1  0.869714  0.546882  0.922326  1
  O  O70  1  0.080120  0.788495  0.976443  1
  O  O71  1  0.580120  0.711505  0.976443  1
