# generated using pymatgen
data_Li5Cu5(NiO6)2
_symmetry_space_group_name_H-M   'P 1'
_cell_length_a   5.00729389
_cell_length_b   5.00729389
_cell_length_c   9.49574181
_cell_angle_alpha   88.17441160
_cell_angle_beta   91.82558840
_cell_angle_gamma   65.31446199
_symmetry_Int_Tables_number   1
_chemical_formula_structural   Li5Cu5(NiO6)2
_chemical_formula_sum   'Li5 Cu5 Ni2 O12'
_cell_volume   215.95145912
_cell_formula_units_Z   1
loop_
 _symmetry_equiv_pos_site_id
 _symmetry_equiv_pos_as_xyz
  1  'x, y, z'
loop_
 _atom_site_type_symbol
 _atom_site_label
 _atom_site_symmetry_multiplicity
 _atom_site_fract_x
 _atom_site_fract_y
 _atom_site_fract_z
 _atom_site_occupancy
  Li  Li0  1  0.840639  0.335277  0.742098  1
  Li  Li1  1  0.668229  0.152490  0.255834  1
  Li  Li2  1  0.335277  0.840638  0.257902  1
  Li  Li3  1  0.152490  0.668229  0.744166  1
  Li  Li4  1  0.082060  0.082060  0.500000  1
  Cu  Cu5  1  0.920090  0.920090  0.000000  1
  Cu  Cu6  1  0.002825  0.492390  0.252149  1
  Cu  Cu7  1  0.492390  0.002825  0.747851  1
  Cu  Cu8  1  0.581329  0.581329  0.000000  1
  Cu  Cu9  1  0.416600  0.416600  0.500000  1
  Ni  Ni10  1  0.752520  0.752520  0.500000  1
  Ni  Ni11  1  0.251251  0.251251  0.000000  1
  O  O12  1  0.006017  0.794013  0.368184  1
  O  O13  1  0.794013  0.006017  0.631816  1
  O  O14  1  0.923706  0.577900  0.904408  1
  O  O15  1  0.577900  0.923706  0.095592  1
  O  O16  1  0.694652  0.487823  0.377420  1
  O  O17  1  0.487823  0.694652  0.622580  1
  O  O18  1  0.502485  0.313008  0.873156  1
  O  O19  1  0.313008  0.502485  0.126844  1
  O  O20  1  0.432392  0.079968  0.402669  1
  O  O21  1  0.079968  0.432392  0.597331  1
  O  O22  1  0.189661  0.002672  0.870889  1
  O  O23  1  0.002672  0.189661  0.129111  1
