# generated using pymatgen
data_LiFeSiO4
_symmetry_space_group_name_H-M   'P 1'
_cell_length_a   5.23229613
_cell_length_b   5.23229613
_cell_length_c   9.33915014
_cell_angle_alpha   90.00000000
_cell_angle_beta   90.00000000
_cell_angle_gamma   120.00000000
_symmetry_Int_Tables_number   1
_chemical_formula_structural   LiFeSiO4
_chemical_formula_sum   'Li2 Fe2 Si2 O8'
_cell_volume   221.42294355
_cell_formula_units_Z   2
loop_
 _symmetry_equiv_pos_site_id
 _symmetry_equiv_pos_as_xyz
  1  'x, y, z'
loop_
 _atom_site_type_symbol
 _atom_site_label
 _atom_site_symmetry_multiplicity
 _atom_site_fract_x
 _atom_site_fract_y
 _atom_site_fract_z
 _atom_site_occupancy
  Li  Li0  1  0.000000  0.000000  0.198123  1
  Li  Li1  1  0.000000  0.000000  0.698123  1
  Fe  Fe2  1  0.333333  0.666667  0.135277  1
  Fe  Fe3  1  0.666667  0.333333  0.635277  1
  Si  Si4  1  0.333333  0.666667  0.765297  1
  Si  Si5  1  0.666667  0.333333  0.265297  1
  O  O6  1  0.029984  0.376544  0.704357  1
  O  O7  1  0.346560  0.970016  0.704357  1
  O  O8  1  0.333333  0.666667  0.938520  1
  O  O9  1  0.376544  0.346560  0.204357  1
  O  O10  1  0.623456  0.653440  0.704357  1
  O  O11  1  0.666667  0.333333  0.438520  1
  O  O12  1  0.653440  0.029984  0.204357  1
  O  O13  1  0.970016  0.623456  0.204357  1
