# generated using pymatgen
data_V4(OF3)3
_symmetry_space_group_name_H-M   'P 1'
_cell_length_a   5.22456130
_cell_length_b   5.39703635
_cell_length_c   17.42900905
_cell_angle_alpha   89.76479047
_cell_angle_beta   97.99466507
_cell_angle_gamma   118.47873400
_symmetry_Int_Tables_number   1
_chemical_formula_structural   V4(OF3)3
_chemical_formula_sum   'V8 O6 F18'
_cell_volume   426.68779336
_cell_formula_units_Z   2
loop_
 _symmetry_equiv_pos_site_id
 _symmetry_equiv_pos_as_xyz
  1  'x, y, z'
loop_
 _atom_site_type_symbol
 _atom_site_label
 _atom_site_symmetry_multiplicity
 _atom_site_fract_x
 _atom_site_fract_y
 _atom_site_fract_z
 _atom_site_occupancy
  V  V0  1  0.756681  0.356865  0.118949  1
  V  V1  1  0.735085  0.880451  0.625288  1
  V  V2  1  0.520273  0.720925  0.247714  1
  V  V3  1  0.504279  0.237642  0.748177  1
  V  V4  1  0.260486  0.096233  0.379517  1
  V  V5  1  0.242665  0.636899  0.881604  1
  V  V6  1  0.999727  0.997354  0.999867  1
  V  V7  1  0.031663  0.522751  0.505184  1
  O  O8  1  0.321419  0.670932  0.578061  1
  O  O9  1  0.830735  0.207774  0.046011  1
  O  O10  1  0.171329  0.786663  0.954602  1
  O  O11  1  0.659798  0.540267  0.207380  1
  O  O12  1  0.643331  0.053236  0.708229  1
  O  O13  1  0.208278  0.822443  0.434095  1
  F  F14  1  0.326126  0.154289  0.087385  1
  F  F15  1  0.769617  0.676357  0.061808  1
  F  F16  1  0.777984  0.196727  0.560081  1
  F  F17  1  0.724117  0.067437  0.191890  1
  F  F18  1  0.340387  0.952182  0.288963  1
  F  F19  1  0.330093  0.461028  0.793026  1
  F  F20  1  0.171000  0.595278  0.165888  1
  F  F21  1  0.161754  0.102959  0.664664  1
  F  F22  1  0.174416  0.292776  0.458887  1
  F  F23  1  0.294499  0.429029  0.315254  1
  F  F24  1  0.714330  0.572808  0.690790  1
  F  F25  1  0.834855  0.920182  0.335269  1
  F  F26  1  0.824375  0.713589  0.537869  1
  F  F27  1  0.821628  0.404398  0.837983  1
  F  F28  1  0.681815  0.338673  0.416142  1
  F  F29  1  0.263095  0.930860  0.810218  1
  F  F30  1  0.230880  0.317911  0.937454  1
  F  F31  1  0.673276  0.843082  0.911748  1
