# generated using pymatgen
data_Li2Ti3MnO8
_symmetry_space_group_name_H-M   'P 1'
_cell_length_a   8.52664111
_cell_length_b   8.52664111
_cell_length_c   8.52664111
_cell_angle_alpha   90.00000000
_cell_angle_beta   90.00000000
_cell_angle_gamma   90.00000000
_symmetry_Int_Tables_number   1
_chemical_formula_structural   Li2Ti3MnO8
_chemical_formula_sum   'Li8 Ti12 Mn4 O32'
_cell_volume   619.91757883
_cell_formula_units_Z   4
loop_
 _symmetry_equiv_pos_site_id
 _symmetry_equiv_pos_as_xyz
  1  'x, y, z'
loop_
 _atom_site_type_symbol
 _atom_site_label
 _atom_site_symmetry_multiplicity
 _atom_site_fract_x
 _atom_site_fract_y
 _atom_site_fract_z
 _atom_site_occupancy
  Li  Li0  1  0.626320  0.373680  0.873680  1
  Li  Li1  1  0.747263  0.247263  0.252737  1
  Li  Li2  1  0.752737  0.752737  0.752737  1
  Li  Li3  1  0.873680  0.626320  0.373680  1
  Li  Li4  1  0.126320  0.126320  0.126320  1
  Li  Li5  1  0.247263  0.252737  0.747263  1
  Li  Li6  1  0.252737  0.747263  0.247263  1
  Li  Li7  1  0.373680  0.873680  0.626320  1
  Ti  Ti8  1  0.617044  0.122166  0.628538  1
  Ti  Ti9  1  0.622166  0.871462  0.382956  1
  Ti  Ti10  1  0.628538  0.617044  0.122166  1
  Ti  Ti11  1  0.871462  0.382956  0.622166  1
  Ti  Ti12  1  0.877834  0.128538  0.882956  1
  Ti  Ti13  1  0.882956  0.877834  0.128538  1
  Ti  Ti14  1  0.117044  0.377834  0.371462  1
  Ti  Ti15  1  0.122166  0.628538  0.617044  1
  Ti  Ti16  1  0.128538  0.882956  0.877834  1
  Ti  Ti17  1  0.371462  0.117044  0.377834  1
  Ti  Ti18  1  0.377834  0.371462  0.117044  1
  Ti  Ti19  1  0.382956  0.622166  0.871462  1
  Mn  Mn20  1  0.501435  0.998565  0.001435  1
  Mn  Mn21  1  0.998565  0.001435  0.501435  1
  Mn  Mn22  1  0.001435  0.501435  0.998565  1
  Mn  Mn23  1  0.498565  0.498565  0.498565  1
  O  O24  1  0.603427  0.628768  0.892495  1
  O  O25  1  0.607505  0.396573  0.128768  1
  O  O26  1  0.611346  0.111346  0.388654  1
  O  O27  1  0.628768  0.892495  0.603427  1
  O  O28  1  0.623655  0.647149  0.357499  1
  O  O29  1  0.639429  0.860571  0.139429  1
  O  O30  1  0.642501  0.123655  0.852851  1
  O  O31  1  0.647149  0.357499  0.623655  1
  O  O32  1  0.852851  0.642501  0.123655  1
  O  O33  1  0.857499  0.876345  0.352851  1
  O  O34  1  0.860571  0.139429  0.639429  1
  O  O35  1  0.876345  0.352851  0.857499  1
  O  O36  1  0.871232  0.107505  0.103427  1
  O  O37  1  0.888654  0.888654  0.888654  1
  O  O38  1  0.892495  0.603427  0.628768  1
  O  O39  1  0.896573  0.371232  0.392495  1
  O  O40  1  0.103427  0.871232  0.107505  1
  O  O41  1  0.107505  0.103427  0.871232  1
  O  O42  1  0.111346  0.388654  0.611346  1
  O  O43  1  0.128768  0.607505  0.396573  1
  O  O44  1  0.123655  0.852851  0.642501  1
  O  O45  1  0.139429  0.639429  0.860571  1
  O  O46  1  0.142501  0.376345  0.147149  1
  O  O47  1  0.147149  0.142501  0.376345  1
  O  O48  1  0.352851  0.857499  0.876345  1
  O  O49  1  0.357499  0.623655  0.647149  1
  O  O50  1  0.360571  0.360571  0.360571  1
  O  O51  1  0.376345  0.147149  0.142501  1
  O  O52  1  0.371232  0.392495  0.896573  1
  O  O53  1  0.388654  0.611346  0.111346  1
  O  O54  1  0.392495  0.896573  0.371232  1
  O  O55  1  0.396573  0.128768  0.607505  1
