# generated using pymatgen
data_Ho2WO6
_symmetry_space_group_name_H-M   'P 1'
_cell_length_a   5.27286951
_cell_length_b   8.66671995
_cell_length_c   20.99922537
_cell_angle_alpha   90.00000000
_cell_angle_beta   90.00000000
_cell_angle_gamma   90.00000000
_symmetry_Int_Tables_number   1
_chemical_formula_structural   Ho2WO6
_chemical_formula_sum   'Ho16 W8 O48'
_cell_volume   959.63275148
_cell_formula_units_Z   8
loop_
 _symmetry_equiv_pos_site_id
 _symmetry_equiv_pos_as_xyz
  1  'x, y, z'
loop_
 _atom_site_type_symbol
 _atom_site_label
 _atom_site_symmetry_multiplicity
 _atom_site_fract_x
 _atom_site_fract_y
 _atom_site_fract_z
 _atom_site_occupancy
  Ho  Ho0  1  0.459283  0.088005  0.435164  1
  Ho  Ho1  1  0.411957  0.105004  0.665758  1
  Ho  Ho2  1  0.536248  0.245102  0.931708  1
  Ho  Ho3  1  0.489669  0.244658  0.199739  1
  Ho  Ho4  1  0.989669  0.255342  0.800261  1
  Ho  Ho5  1  0.036248  0.254898  0.068292  1
  Ho  Ho6  1  0.911957  0.394996  0.334242  1
  Ho  Ho7  1  0.959283  0.411995  0.564836  1
  Ho  Ho8  1  0.540717  0.588005  0.064836  1
  Ho  Ho9  1  0.588043  0.605004  0.834242  1
  Ho  Ho10  1  0.463752  0.745102  0.568292  1
  Ho  Ho11  1  0.510331  0.744658  0.300261  1
  Ho  Ho12  1  0.010331  0.755342  0.699739  1
  Ho  Ho13  1  0.963752  0.754898  0.431708  1
  Ho  Ho14  1  0.088043  0.894996  0.165758  1
  Ho  Ho15  1  0.040717  0.911995  0.935164  1
  W  W16  1  0.935797  0.016912  0.556693  1
  W  W17  1  0.987024  0.021974  0.311918  1
  W  W18  1  0.487024  0.478026  0.688082  1
  W  W19  1  0.435797  0.483088  0.443307  1
  W  W20  1  0.064203  0.516912  0.943307  1
  W  W21  1  0.012976  0.521974  0.188082  1
  W  W22  1  0.512976  0.978026  0.811918  1
  W  W23  1  0.564203  0.983088  0.056693  1
  O  O24  1  0.254304  0.030357  0.248065  1
  O  O25  1  0.796699  0.047245  0.122066  1
  O  O26  1  0.770845  0.053490  0.873291  1
  O  O27  1  0.306909  0.047657  0.996906  1
  O  O28  1  0.320502  0.110830  0.119579  1
  O  O29  1  0.781704  0.124155  0.002727  1
  O  O30  1  0.286755  0.127657  0.859216  1
  O  O31  1  0.678753  0.125605  0.754167  1
  O  O32  1  0.126232  0.175029  0.368019  1
  O  O33  1  0.108424  0.183432  0.598476  1
  O  O34  1  0.759441  0.174573  0.514837  1
  O  O35  1  0.770772  0.182572  0.278217  1
  O  O36  1  0.270772  0.317428  0.721783  1
  O  O37  1  0.259441  0.325427  0.485163  1
  O  O38  1  0.608424  0.316568  0.401524  1
  O  O39  1  0.626232  0.324971  0.631981  1
  O  O40  1  0.178753  0.374395  0.245833  1
  O  O41  1  0.786755  0.372343  0.140784  1
  O  O42  1  0.281704  0.375845  0.997273  1
  O  O43  1  0.820502  0.389170  0.880421  1
  O  O44  1  0.806909  0.452343  0.003094  1
  O  O45  1  0.270845  0.446510  0.126709  1
  O  O46  1  0.296699  0.452755  0.877934  1
  O  O47  1  0.754304  0.469643  0.751935  1
  O  O48  1  0.745696  0.530357  0.251935  1
  O  O49  1  0.203301  0.547245  0.377934  1
  O  O50  1  0.229155  0.553490  0.626709  1
  O  O51  1  0.693091  0.547657  0.503094  1
  O  O52  1  0.679498  0.610830  0.380421  1
  O  O53  1  0.218296  0.624155  0.497273  1
  O  O54  1  0.713245  0.627657  0.640784  1
  O  O55  1  0.321247  0.625605  0.745833  1
  O  O56  1  0.873768  0.675029  0.131981  1
  O  O57  1  0.891576  0.683432  0.901524  1
  O  O58  1  0.240559  0.674573  0.985163  1
  O  O59  1  0.229228  0.682572  0.221783  1
  O  O60  1  0.729228  0.817428  0.778217  1
  O  O61  1  0.740559  0.825427  0.014837  1
  O  O62  1  0.391576  0.816568  0.098476  1
  O  O63  1  0.373768  0.824971  0.868019  1
  O  O64  1  0.821247  0.874395  0.254167  1
  O  O65  1  0.213245  0.872343  0.359216  1
  O  O66  1  0.718296  0.875845  0.502727  1
  O  O67  1  0.179498  0.889170  0.619579  1
  O  O68  1  0.193091  0.952343  0.496906  1
  O  O69  1  0.729155  0.946510  0.373291  1
  O  O70  1  0.703301  0.952755  0.622066  1
  O  O71  1  0.245696  0.969643  0.748065  1
