# generated using pymatgen
data_Ti5Cr(PO4)6
_symmetry_space_group_name_H-M   'P 1'
_cell_length_a   8.47521207
_cell_length_b   8.47521207
_cell_length_c   8.47521207
_cell_angle_alpha   61.89505344
_cell_angle_beta   61.89505344
_cell_angle_gamma   61.89505344
_symmetry_Int_Tables_number   1
_chemical_formula_structural   Ti5Cr(PO4)6
_chemical_formula_sum   'Ti5 Cr1 P6 O24'
_cell_volume   448.72411752
_cell_formula_units_Z   1
loop_
 _symmetry_equiv_pos_site_id
 _symmetry_equiv_pos_as_xyz
  1  'x, y, z'
loop_
 _atom_site_type_symbol
 _atom_site_label
 _atom_site_symmetry_multiplicity
 _atom_site_fract_x
 _atom_site_fract_y
 _atom_site_fract_z
 _atom_site_occupancy
  Ti  Ti0  1  0.997188  0.997188  0.997188  1
  Ti  Ti1  1  0.500406  0.500406  0.500406  1
  Ti  Ti2  1  0.858428  0.858428  0.858428  1
  Ti  Ti3  1  0.641190  0.641190  0.641190  1
  Ti  Ti4  1  0.360038  0.360038  0.360038  1
  Cr  Cr5  1  0.141772  0.141772  0.141772  1
  P  P6  1  0.958498  0.250793  0.539492  1
  P  P7  1  0.539492  0.958498  0.250793  1
  P  P8  1  0.753859  0.455326  0.041914  1
  P  P9  1  0.455326  0.041914  0.753859  1
  P  P10  1  0.041914  0.753859  0.455326  1
  P  P11  1  0.250793  0.539492  0.958498  1
  O  O12  1  0.885417  0.683393  0.497865  1
  O  O13  1  0.683393  0.497865  0.885417  1
  O  O14  1  0.942628  0.093525  0.738993  1
  O  O15  1  0.497865  0.885417  0.683393  1
  O  O16  1  0.992440  0.185282  0.385006  1
  O  O17  1  0.758539  0.407129  0.559363  1
  O  O18  1  0.738993  0.942628  0.093525  1
  O  O19  1  0.559363  0.758539  0.407129  1
  O  O20  1  0.821301  0.613434  0.000486  1
  O  O21  1  0.407129  0.559363  0.758539  1
  O  O22  1  0.908561  0.256322  0.056574  1
  O  O23  1  0.613434  0.000486  0.821301  1
  O  O24  1  0.385006  0.992440  0.185282  1
  O  O25  1  0.093525  0.738993  0.942628  1
  O  O26  1  0.596715  0.442184  0.240300  1
  O  O27  1  0.185282  0.385006  0.992440  1
  O  O28  1  0.442184  0.240300  0.596715  1
  O  O29  1  0.256322  0.056574  0.908561  1
  O  O30  1  0.240300  0.596715  0.442184  1
  O  O31  1  0.000486  0.821301  0.613434  1
  O  O32  1  0.501621  0.114129  0.319891  1
  O  O33  1  0.056574  0.908561  0.256322  1
  O  O34  1  0.319891  0.501621  0.114129  1
  O  O35  1  0.114129  0.319891  0.501621  1
