# generated using pymatgen
data_TiPO4
_symmetry_space_group_name_H-M   'P 1'
_cell_length_a   8.50730548
_cell_length_b   8.50730548
_cell_length_c   8.50730548
_cell_angle_alpha   61.71071336
_cell_angle_beta   61.71071336
_cell_angle_gamma   61.71071336
_symmetry_Int_Tables_number   1
_chemical_formula_structural   TiPO4
_chemical_formula_sum   'Ti6 P6 O24'
_cell_volume   452.06654243
_cell_formula_units_Z   6
loop_
 _symmetry_equiv_pos_site_id
 _symmetry_equiv_pos_as_xyz
  1  'x, y, z'
loop_
 _atom_site_type_symbol
 _atom_site_label
 _atom_site_symmetry_multiplicity
 _atom_site_fract_x
 _atom_site_fract_y
 _atom_site_fract_z
 _atom_site_occupancy
  Ti  Ti0  1  0.000000  0.000000  0.000000  1
  Ti  Ti1  1  0.500000  0.500000  0.500000  1
  Ti  Ti2  1  0.857425  0.857425  0.857425  1
  Ti  Ti3  1  0.642575  0.642575  0.642575  1
  Ti  Ti4  1  0.357425  0.357425  0.357425  1
  Ti  Ti5  1  0.142575  0.142575  0.142575  1
  P  P6  1  0.043635  0.750000  0.456365  1
  P  P7  1  0.750000  0.456365  0.043635  1
  P  P8  1  0.456365  0.043635  0.750000  1
  P  P9  1  0.543635  0.956365  0.250000  1
  P  P10  1  0.250000  0.543635  0.956365  1
  P  P11  1  0.956365  0.250000  0.543635  1
  O  O12  1  0.498344  0.888273  0.679486  1
  O  O13  1  0.888273  0.679486  0.498344  1
  O  O14  1  0.742378  0.941131  0.094346  1
  O  O15  1  0.679486  0.498344  0.888273  1
  O  O16  1  0.388273  0.998344  0.179486  1
  O  O17  1  0.558869  0.757622  0.405654  1
  O  O18  1  0.094346  0.742378  0.941131  1
  O  O19  1  0.405654  0.558869  0.757622  1
  O  O20  1  0.001656  0.820514  0.611727  1
  O  O21  1  0.757622  0.405654  0.558869  1
  O  O22  1  0.058869  0.905654  0.257622  1
  O  O23  1  0.820514  0.611727  0.001656  1
  O  O24  1  0.179486  0.388273  0.998344  1
  O  O25  1  0.941131  0.094346  0.742378  1
  O  O26  1  0.242378  0.594346  0.441131  1
  O  O27  1  0.998344  0.179486  0.388273  1
  O  O28  1  0.594346  0.441131  0.242378  1
  O  O29  1  0.905654  0.257622  0.058869  1
  O  O30  1  0.441131  0.242378  0.594346  1
  O  O31  1  0.611727  0.001656  0.820514  1
  O  O32  1  0.320514  0.501656  0.111727  1
  O  O33  1  0.257622  0.058869  0.905654  1
  O  O34  1  0.111727  0.320514  0.501656  1
  O  O35  1  0.501656  0.111727  0.320514  1
