# generated using pymatgen
data_Li3AlFeO4
_symmetry_space_group_name_H-M   'P 1'
_cell_length_a   10.19113606
_cell_length_b   10.19113606
_cell_length_c   10.19113606
_cell_angle_alpha   116.65273023
_cell_angle_beta   116.65273023
_cell_angle_gamma   95.90252626
_symmetry_Int_Tables_number   1
_chemical_formula_structural   Li3AlFeO4
_chemical_formula_sum   'Li24 Al8 Fe8 O32'
_cell_volume   781.80729004
_cell_formula_units_Z   8
loop_
 _symmetry_equiv_pos_site_id
 _symmetry_equiv_pos_as_xyz
  1  'x, y, z'
loop_
 _atom_site_type_symbol
 _atom_site_label
 _atom_site_symmetry_multiplicity
 _atom_site_fract_x
 _atom_site_fract_y
 _atom_site_fract_z
 _atom_site_occupancy
  Li  Li0  1  0.929314  0.106112  0.155999  1
  Li  Li1  1  0.820686  0.143888  0.344001  1
  Li  Li2  1  0.893888  0.049886  0.823201  1
  Li  Li3  1  0.523315  0.179314  0.323201  1
  Li  Li4  1  0.441908  0.292369  0.132577  1
  Li  Li5  1  0.715441  0.564586  0.140426  1
  Li  Li6  1  0.226685  0.070686  0.176799  1
  Li  Li7  1  0.856112  0.200114  0.676799  1
  Li  Li8  1  0.707631  0.840208  0.149539  1
  Li  Li9  1  0.435414  0.575840  0.150855  1
  Li  Li10  1  0.799886  0.476685  0.655999  1
  Li  Li11  1  0.950114  0.773315  0.844001  1
  Li  Li12  1  0.314586  0.674160  0.349145  1
  Li  Li13  1  0.424985  0.284559  0.849145  1
  Li  Li14  1  0.042369  0.409792  0.350461  1
  Li  Li15  1  0.690669  0.558092  0.850461  1
  Li  Li16  1  0.034559  0.685414  0.359574  1
  Li  Li17  1  0.424160  0.575015  0.859574  1
  Li  Li18  1  0.590208  0.940669  0.632577  1
  Li  Li19  1  0.308092  0.957631  0.367423  1
  Li  Li20  1  0.159792  0.309331  0.867423  1
  Li  Li21  1  0.325840  0.674985  0.640426  1
  Li  Li22  1  0.059331  0.691908  0.649539  1
  Li  Li23  1  0.325015  0.965441  0.650855  1
  Al  Al24  1  0.748996  0.414026  0.301565  1
  Al  Al25  1  0.164026  0.362461  0.165030  1
  Al  Al26  1  0.552569  0.251004  0.665030  1
  Al  Al27  1  0.585974  0.887539  0.334970  1
  Al  Al28  1  0.637539  0.802569  0.801565  1
  Al  Al29  1  0.001004  0.835974  0.198435  1
  Al  Al30  1  0.112461  0.447431  0.698435  1
  Al  Al31  1  0.197431  0.998996  0.834970  1
  Fe  Fe32  1  0.450324  0.925330  0.998528  1
  Fe  Fe33  1  0.548205  0.549676  0.475007  1
  Fe  Fe34  1  0.675330  0.176802  0.975007  1
  Fe  Fe35  1  0.823198  0.798205  0.498528  1
  Fe  Fe36  1  0.299676  0.324670  0.501472  1
  Fe  Fe37  1  0.074670  0.073198  0.524993  1
  Fe  Fe38  1  0.201795  0.700324  0.024993  1
  Fe  Fe39  1  0.926802  0.451795  0.001472  1
  O  O40  1  0.831704  0.267749  0.242725  1
  O  O41  1  0.338980  0.081704  0.063955  1
  O  O42  1  0.598078  0.354856  0.081326  1
  O  O43  1  0.864690  0.641276  0.092946  1
  O  O44  1  0.885310  0.608724  0.407054  1
  O  O45  1  0.648005  0.393243  0.399475  1
  O  O46  1  0.411021  0.168296  0.436045  1
  O  O47  1  0.358724  0.451670  0.223414  1
  O  O48  1  0.521744  0.114690  0.723414  1
  O  O49  1  0.918296  0.982251  0.257275  1
  O  O50  1  0.143243  0.243768  0.245238  1
  O  O51  1  0.751470  0.351995  0.745238  1
  O  O52  1  0.645144  0.726470  0.243222  1
  O  O53  1  0.104856  0.523530  0.256778  1
  O  O54  1  0.483248  0.401922  0.756778  1
  O  O55  1  0.606757  0.006232  0.254762  1
  O  O56  1  0.724975  0.661021  0.742725  1
  O  O57  1  0.391276  0.798330  0.276586  1
  O  O58  1  0.228256  0.135310  0.776586  1
  O  O59  1  0.732251  0.974975  0.563955  1
  O  O60  1  0.476470  0.733248  0.581326  1
  O  O61  1  0.101995  0.856757  0.100525  1
  O  O62  1  0.993768  0.248530  0.600525  1
  O  O63  1  0.201670  0.478256  0.592946  1
  O  O64  1  0.548330  0.771744  0.907054  1
  O  O65  1  0.756232  0.001470  0.899475  1
  O  O66  1  0.273530  0.516752  0.918674  1
  O  O67  1  0.151922  0.895144  0.418674  1
  O  O68  1  0.017749  0.275025  0.936045  1
  O  O69  1  0.025025  0.588980  0.757275  1
  O  O70  1  0.266752  0.848078  0.743222  1
  O  O71  1  0.998530  0.898005  0.754762  1
