# generated using pymatgen
data_Li3TiFe3O8
_symmetry_space_group_name_H-M   'P 1'
_cell_length_a   5.61939608
_cell_length_b   6.60835662
_cell_length_c   10.25995389
_cell_angle_alpha   89.92864357
_cell_angle_beta   89.99335215
_cell_angle_gamma   89.92972157
_symmetry_Int_Tables_number   1
_chemical_formula_structural   Li3TiFe3O8
_chemical_formula_sum   'Li6 Ti2 Fe6 O16'
_cell_volume   381.00252882
_cell_formula_units_Z   2
loop_
 _symmetry_equiv_pos_site_id
 _symmetry_equiv_pos_as_xyz
  1  'x, y, z'
loop_
 _atom_site_type_symbol
 _atom_site_label
 _atom_site_symmetry_multiplicity
 _atom_site_fract_x
 _atom_site_fract_y
 _atom_site_fract_z
 _atom_site_occupancy
  Li  Li0  1  0.915380  0.618337  0.505722  1
  Li  Li1  1  0.914774  0.616511  0.001425  1
  Li  Li2  1  0.581150  0.129569  0.754025  1
  Li  Li3  1  0.426173  0.877575  0.501114  1
  Li  Li4  1  0.427019  0.876330  0.005210  1
  Li  Li5  1  0.089733  0.373255  0.254598  1
  Ti  Ti6  1  0.081020  0.874347  0.750837  1
  Ti  Ti7  1  0.083900  0.875376  0.250427  1
  Fe  Fe8  1  0.912088  0.132115  0.502337  1
  Fe  Fe9  1  0.912741  0.132243  0.001162  1
  Fe  Fe10  1  0.583023  0.622383  0.750457  1
  Fe  Fe11  1  0.581356  0.622659  0.250382  1
  Fe  Fe12  1  0.414516  0.372979  0.500828  1
  Fe  Fe13  1  0.415377  0.372170  0.001654  1
  O  O14  1  0.927466  0.093179  0.815633  1
  O  O15  1  0.958767  0.105692  0.317484  1
  O  O16  1  0.903988  0.661611  0.807648  1
  O  O17  1  0.910225  0.648892  0.302954  1
  O  O18  1  0.572891  0.615111  0.563757  1
  O  O19  1  0.572260  0.614499  0.063723  1
  O  O20  1  0.587880  0.134013  0.556254  1
  O  O21  1  0.587538  0.130952  0.039001  1
  O  O22  1  0.455062  0.385099  0.817198  1
  O  O23  1  0.421131  0.398530  0.315795  1
  O  O24  1  0.397393  0.859062  0.803360  1
  O  O25  1  0.387803  0.844766  0.307340  1
  O  O26  1  0.083784  0.367207  0.539139  1
  O  O27  1  0.086340  0.364598  0.056597  1
  O  O28  1  0.067932  0.888054  0.569685  1
  O  O29  1  0.072737  0.889370  0.069234  1
