# generated using pymatgen
data_Li2V(PO4)2
_symmetry_space_group_name_H-M   'P 1'
_cell_length_a   4.85080224
_cell_length_b   4.85080224
_cell_length_c   7.51967097
_cell_angle_alpha   90.00000000
_cell_angle_beta   90.00000000
_cell_angle_gamma   120.00000000
_symmetry_Int_Tables_number   1
_chemical_formula_structural   Li2V(PO4)2
_chemical_formula_sum   'Li2 V1 P2 O8'
_cell_volume   153.23451897
_cell_formula_units_Z   1
loop_
 _symmetry_equiv_pos_site_id
 _symmetry_equiv_pos_as_xyz
  1  'x, y, z'
loop_
 _atom_site_type_symbol
 _atom_site_label
 _atom_site_symmetry_multiplicity
 _atom_site_fract_x
 _atom_site_fract_y
 _atom_site_fract_z
 _atom_site_occupancy
  Li  Li0  1  0.333333  0.666667  0.671802  1
  Li  Li1  1  0.666667  0.333333  0.328198  1
  V  V2  1  0.000000  0.000000  0.000000  1
  P  P3  1  0.333333  0.666667  0.223023  1
  P  P4  1  0.666667  0.333333  0.776977  1
  O  O5  1  0.047428  0.699195  0.150163  1
  O  O6  1  0.333333  0.666667  0.422168  1
  O  O7  1  0.300805  0.348232  0.150163  1
  O  O8  1  0.651768  0.952572  0.150163  1
  O  O9  1  0.348232  0.047428  0.849837  1
  O  O10  1  0.699195  0.651768  0.849837  1
  O  O11  1  0.666667  0.333333  0.577832  1
  O  O12  1  0.952572  0.300805  0.849837  1
