# generated using pymatgen
data_CdSnO3
_symmetry_space_group_name_H-M   'P 1'
_cell_length_a   6.02233504
_cell_length_b   6.02233504
_cell_length_c   6.02233504
_cell_angle_alpha   54.91035763
_cell_angle_beta   54.91035763
_cell_angle_gamma   54.91035763
_symmetry_Int_Tables_number   1
_chemical_formula_structural   CdSnO3
_chemical_formula_sum   'Cd2 Sn2 O6'
_cell_volume   136.15068574
_cell_formula_units_Z   2
loop_
 _symmetry_equiv_pos_site_id
 _symmetry_equiv_pos_as_xyz
  1  'x, y, z'
loop_
 _atom_site_type_symbol
 _atom_site_label
 _atom_site_symmetry_multiplicity
 _atom_site_fract_x
 _atom_site_fract_y
 _atom_site_fract_z
 _atom_site_occupancy
  Cd  Cd0  1  0.634323  0.634323  0.634323  1
  Cd  Cd1  1  0.365677  0.365677  0.365677  1
  Sn  Sn2  1  0.845580  0.845580  0.845580  1
  Sn  Sn3  1  0.154420  0.154420  0.154420  1
  O  O4  1  0.212085  0.556205  0.960858  1
  O  O5  1  0.039142  0.787915  0.443795  1
  O  O6  1  0.443795  0.039142  0.787915  1
  O  O7  1  0.556205  0.960858  0.212085  1
  O  O8  1  0.960858  0.212085  0.556205  1
  O  O9  1  0.787915  0.443795  0.039142  1
