# generated using pymatgen
data_Tm3TaO7
_symmetry_space_group_name_H-M   'P 1'
_cell_length_a   7.38095436
_cell_length_b   7.48660518
_cell_length_c   10.45799852
_cell_angle_alpha   90.00000000
_cell_angle_beta   90.00000000
_cell_angle_gamma   90.00000000
_symmetry_Int_Tables_number   1
_chemical_formula_structural   Tm3TaO7
_chemical_formula_sum   'Tm12 Ta4 O28'
_cell_volume   577.89112701
_cell_formula_units_Z   4
loop_
 _symmetry_equiv_pos_site_id
 _symmetry_equiv_pos_as_xyz
  1  'x, y, z'
loop_
 _atom_site_type_symbol
 _atom_site_label
 _atom_site_symmetry_multiplicity
 _atom_site_fract_x
 _atom_site_fract_y
 _atom_site_fract_z
 _atom_site_occupancy
  Tm  Tm0  1  0.985100  0.702851  0.250000  1
  Tm  Tm1  1  0.747558  0.530081  0.519755  1
  Tm  Tm2  1  0.747558  0.530081  0.980245  1
  Tm  Tm3  1  0.752442  0.030081  0.019755  1
  Tm  Tm4  1  0.752442  0.030081  0.480245  1
  Tm  Tm5  1  0.514900  0.202851  0.750000  1
  Tm  Tm6  1  0.485100  0.797149  0.250000  1
  Tm  Tm7  1  0.247558  0.969919  0.519755  1
  Tm  Tm8  1  0.247558  0.969919  0.980245  1
  Tm  Tm9  1  0.252442  0.469919  0.019755  1
  Tm  Tm10  1  0.252442  0.469919  0.480245  1
  Tm  Tm11  1  0.014900  0.297149  0.750000  1
  Ta  Ta12  1  0.001702  0.751428  0.750000  1
  Ta  Ta13  1  0.498298  0.251428  0.250000  1
  Ta  Ta14  1  0.501702  0.748572  0.750000  1
  Ta  Ta15  1  0.998298  0.248572  0.250000  1
  O  O16  1  0.962449  0.455157  0.123710  1
  O  O17  1  0.962449  0.455157  0.376290  1
  O  O18  1  0.959961  0.916793  0.610566  1
  O  O19  1  0.959961  0.916793  0.889434  1
  O  O20  1  0.750682  0.160177  0.250000  1
  O  O21  1  0.743699  0.767494  0.115806  1
  O  O22  1  0.743699  0.767494  0.384194  1
  O  O23  1  0.756301  0.267494  0.615806  1
  O  O24  1  0.756301  0.267494  0.884194  1
  O  O25  1  0.749318  0.660177  0.750000  1
  O  O26  1  0.540039  0.416793  0.110566  1
  O  O27  1  0.540039  0.416793  0.389434  1
  O  O28  1  0.537551  0.955157  0.623710  1
  O  O29  1  0.537551  0.955157  0.876290  1
  O  O30  1  0.462449  0.044843  0.123710  1
  O  O31  1  0.462449  0.044843  0.376290  1
  O  O32  1  0.459961  0.583207  0.610566  1
  O  O33  1  0.459961  0.583207  0.889434  1
  O  O34  1  0.250682  0.339823  0.250000  1
  O  O35  1  0.243699  0.732506  0.115806  1
  O  O36  1  0.243699  0.732506  0.384194  1
  O  O37  1  0.256301  0.232506  0.615806  1
  O  O38  1  0.256301  0.232506  0.884194  1
  O  O39  1  0.249318  0.839823  0.750000  1
  O  O40  1  0.040039  0.083207  0.110566  1
  O  O41  1  0.040039  0.083207  0.389434  1
  O  O42  1  0.037551  0.544843  0.623710  1
  O  O43  1  0.037551  0.544843  0.876290  1
