# generated using pymatgen
data_VF5
_symmetry_space_group_name_H-M   'P 1'
_cell_length_a   5.34282224
_cell_length_b   18.17793695
_cell_length_c   9.43007578
_cell_angle_alpha   90.00000000
_cell_angle_beta   124.41456977
_cell_angle_gamma   90.00000000
_symmetry_Int_Tables_number   1
_chemical_formula_structural   VF5
_chemical_formula_sum   'V8 F40'
_cell_volume   755.55929799
_cell_formula_units_Z   8
loop_
 _symmetry_equiv_pos_site_id
 _symmetry_equiv_pos_as_xyz
  1  'x, y, z'
loop_
 _atom_site_type_symbol
 _atom_site_label
 _atom_site_symmetry_multiplicity
 _atom_site_fract_x
 _atom_site_fract_y
 _atom_site_fract_z
 _atom_site_occupancy
  V  V0  1  0.116048  0.121017  0.878691  1
  V  V1  1  0.265296  0.375070  0.026805  1
  V  V2  1  0.883952  0.621017  0.621309  1
  V  V3  1  0.734704  0.875070  0.473195  1
  V  V4  1  0.265296  0.124930  0.526805  1
  V  V5  1  0.116048  0.378983  0.378691  1
  V  V6  1  0.734704  0.624930  0.973195  1
  V  V7  1  0.883952  0.878983  0.121309  1
  F  F8  1  0.496617  0.355296  0.476167  1
  F  F9  1  0.457075  0.149516  0.433251  1
  F  F10  1  0.112812  0.136961  0.059354  1
  F  F11  1  0.902862  0.356714  0.847670  1
  F  F12  1  0.888314  0.597431  0.835382  1
  F  F13  1  0.315175  0.904024  0.258986  1
  F  F14  1  0.334698  0.289388  0.132782  1
  F  F15  1  0.979978  0.208130  0.779217  1
  F  F16  1  0.828067  0.524912  0.592596  1
  F  F17  1  0.746885  0.970391  0.510566  1
  F  F18  1  0.253115  0.470391  0.989434  1
  F  F19  1  0.171933  0.024912  0.907404  1
  F  F20  1  0.020022  0.708130  0.720783  1
  F  F21  1  0.665302  0.789388  0.367218  1
  F  F22  1  0.684825  0.404024  0.241014  1
  F  F23  1  0.111686  0.097431  0.664618  1
  F  F24  1  0.097138  0.856714  0.652330  1
  F  F25  1  0.887188  0.636961  0.440646  1
  F  F26  1  0.542925  0.649516  0.066749  1
  F  F27  1  0.503383  0.855296  0.023833  1
  F  F28  1  0.496617  0.144704  0.976167  1
  F  F29  1  0.457075  0.350484  0.933251  1
  F  F30  1  0.112812  0.363039  0.559354  1
  F  F31  1  0.902862  0.143286  0.347670  1
  F  F32  1  0.888314  0.902569  0.335382  1
  F  F33  1  0.315175  0.595976  0.758986  1
  F  F34  1  0.334698  0.210612  0.632782  1
  F  F35  1  0.979978  0.291870  0.279217  1
  F  F36  1  0.828067  0.975088  0.092596  1
  F  F37  1  0.746885  0.529609  0.010566  1
  F  F38  1  0.253115  0.029609  0.489434  1
  F  F39  1  0.171933  0.475088  0.407404  1
  F  F40  1  0.020022  0.791870  0.220783  1
  F  F41  1  0.665302  0.710612  0.867218  1
  F  F42  1  0.684825  0.095976  0.741014  1
  F  F43  1  0.111686  0.402569  0.164618  1
  F  F44  1  0.097138  0.643286  0.152330  1
  F  F45  1  0.887188  0.863039  0.940646  1
  F  F46  1  0.542925  0.850484  0.566749  1
  F  F47  1  0.503383  0.644704  0.523833  1
