# generated using pymatgen
data_Nb(PO3)4
_symmetry_space_group_name_H-M   'P 1'
_cell_length_a   7.47941722
_cell_length_b   7.47941722
_cell_length_c   10.26022609
_cell_angle_alpha   66.58138904
_cell_angle_beta   113.41861096
_cell_angle_gamma   110.10637092
_symmetry_Int_Tables_number   1
_chemical_formula_structural   Nb(PO3)4
_chemical_formula_sum   'Nb2 P8 O24'
_cell_volume   471.39467166
_cell_formula_units_Z   2
loop_
 _symmetry_equiv_pos_site_id
 _symmetry_equiv_pos_as_xyz
  1  'x, y, z'
loop_
 _atom_site_type_symbol
 _atom_site_label
 _atom_site_symmetry_multiplicity
 _atom_site_fract_x
 _atom_site_fract_y
 _atom_site_fract_z
 _atom_site_occupancy
  Nb  Nb0  1  0.500000  1.000000  0.000000  1
  Nb  Nb1  1  0.000000  0.500000  0.500000  1
  P  P2  1  0.679901  0.311418  0.694921  1
  P  P3  1  0.273375  0.258999  0.468916  1
  P  P4  1  0.258999  0.273375  0.031084  1
  P  P5  1  0.688582  0.320099  0.194921  1
  P  P6  1  0.311418  0.679901  0.805079  1
  P  P7  1  0.741001  0.726625  0.968916  1
  P  P8  1  0.726625  0.741001  0.531084  1
  P  P9  1  0.320099  0.688582  0.305079  1
  O  O10  1  0.341717  0.802244  0.152176  1
  O  O11  1  0.669394  0.805305  0.054962  1
  O  O12  1  0.194695  0.330606  0.554962  1
  O  O13  1  0.331799  0.464713  0.338878  1
  O  O14  1  0.494878  0.224667  0.573397  1
  O  O15  1  0.868431  0.314183  0.670963  1
  O  O16  1  0.775333  0.505122  0.073397  1
  O  O17  1  0.802244  0.341717  0.347824  1
  O  O18  1  0.156846  0.091814  0.410443  1
  O  O19  1  0.464713  0.331799  0.161122  1
  O  O20  1  0.314183  0.868431  0.829037  1
  O  O21  1  0.091814  0.156846  0.089557  1
  O  O22  1  0.908186  0.843154  0.910443  1
  O  O23  1  0.685817  0.131569  0.170963  1
  O  O24  1  0.535287  0.668201  0.838878  1
  O  O25  1  0.843154  0.908186  0.589557  1
  O  O26  1  0.197756  0.658283  0.652176  1
  O  O27  1  0.224667  0.494878  0.926603  1
  O  O28  1  0.131569  0.685817  0.329037  1
  O  O29  1  0.505122  0.775333  0.426603  1
  O  O30  1  0.668201  0.535287  0.661122  1
  O  O31  1  0.805305  0.669394  0.445038  1
  O  O32  1  0.330606  0.194695  0.945038  1
  O  O33  1  0.658283  0.197756  0.847824  1
