# generated using pymatgen
data_Li2BiO3
_symmetry_space_group_name_H-M   'P 1'
_cell_length_a   5.69595676
_cell_length_b   5.69595676
_cell_length_c   10.38439260
_cell_angle_alpha   85.31995669
_cell_angle_beta   94.68004331
_cell_angle_gamma   60.27928113
_symmetry_Int_Tables_number   1
_chemical_formula_structural   Li2BiO3
_chemical_formula_sum   'Li8 Bi4 O12'
_cell_volume   288.70181885
_cell_formula_units_Z   4
loop_
 _symmetry_equiv_pos_site_id
 _symmetry_equiv_pos_as_xyz
  1  'x, y, z'
loop_
 _atom_site_type_symbol
 _atom_site_label
 _atom_site_symmetry_multiplicity
 _atom_site_fract_x
 _atom_site_fract_y
 _atom_site_fract_z
 _atom_site_occupancy
  Li  Li0  1  0.307578  0.880291  0.504859  1
  Li  Li1  1  0.500000  0.000000  0.000000  1
  Li  Li2  1  0.911139  0.911139  0.250000  1
  Li  Li3  1  1.000000  0.500000  0.500000  1
  Li  Li4  1  0.880291  0.307578  0.995141  1
  Li  Li5  1  0.119709  0.692422  0.004859  1
  Li  Li6  1  0.088861  0.088861  0.750000  1
  Li  Li7  1  0.692422  0.119709  0.495141  1
  Bi  Bi8  1  0.754012  0.754012  0.750000  1
  Bi  Bi9  1  0.578574  0.578574  0.250000  1
  Bi  Bi10  1  0.421426  0.421426  0.750000  1
  Bi  Bi11  1  0.245988  0.245988  0.250000  1
  O  O12  1  0.196553  0.981402  0.126257  1
  O  O13  1  0.486047  0.721876  0.877301  1
  O  O14  1  0.600417  0.907004  0.367921  1
  O  O15  1  0.721876  0.486047  0.622699  1
  O  O16  1  0.018598  0.803447  0.626257  1
  O  O17  1  0.092996  0.399583  0.867921  1
  O  O18  1  0.907004  0.600417  0.132079  1
  O  O19  1  0.981402  0.196553  0.373743  1
  O  O20  1  0.278124  0.513953  0.377301  1
  O  O21  1  0.399583  0.092996  0.632079  1
  O  O22  1  0.513953  0.278124  0.122699  1
  O  O23  1  0.803447  0.018598  0.873743  1
