# generated using pymatgen
data_LiV6O7F5
_symmetry_space_group_name_H-M   'P 1'
_cell_length_a   7.01101789
_cell_length_b   6.59720231
_cell_length_c   9.26447788
_cell_angle_alpha   90.00000000
_cell_angle_beta   90.51338970
_cell_angle_gamma   90.00000000
_symmetry_Int_Tables_number   1
_chemical_formula_structural   LiV6O7F5
_chemical_formula_sum   'Li2 V12 O14 F10'
_cell_volume   428.49365154
_cell_formula_units_Z   2
loop_
 _symmetry_equiv_pos_site_id
 _symmetry_equiv_pos_as_xyz
  1  'x, y, z'
loop_
 _atom_site_type_symbol
 _atom_site_label
 _atom_site_symmetry_multiplicity
 _atom_site_fract_x
 _atom_site_fract_y
 _atom_site_fract_z
 _atom_site_occupancy
  Li  Li0  1  0.759603  0.739849  0.738427  1
  Li  Li1  1  0.240397  0.739849  0.261573  1
  V  V2  1  0.000000  0.969792  0.000000  1
  V  V3  1  0.000000  0.506784  0.500000  1
  V  V4  1  0.954415  0.497660  0.171436  1
  V  V5  1  0.004504  0.013444  0.672074  1
  V  V6  1  0.519954  0.494058  0.329823  1
  V  V7  1  0.480046  0.494058  0.670177  1
  V  V8  1  0.500000  0.479680  0.000000  1
  V  V9  1  0.525282  0.015341  0.827383  1
  V  V10  1  0.500000  0.000991  0.500000  1
  V  V11  1  0.045585  0.497660  0.828564  1
  V  V12  1  0.474718  0.015341  0.172617  1
  V  V13  1  0.995496  0.013444  0.327926  1
  O  O14  1  0.994808  0.708402  0.335414  1
  O  O15  1  0.000000  0.676902  0.000000  1
  O  O16  1  0.988189  0.308765  0.335174  1
  O  O17  1  0.512586  0.802648  0.667432  1
  O  O18  1  0.487414  0.802648  0.332568  1
  O  O19  1  0.683423  0.499048  0.162593  1
  O  O20  1  0.812332  0.992182  0.832131  1
  O  O21  1  0.316577  0.499048  0.837407  1
  O  O22  1  0.501043  0.204390  0.659318  1
  O  O23  1  0.498957  0.204390  0.340682  1
  O  O24  1  0.500000  0.189048  0.000000  1
  O  O25  1  0.005192  0.708402  0.664586  1
  O  O26  1  0.011811  0.308765  0.664826  1
  O  O27  1  0.187668  0.992182  0.167869  1
  F  F28  1  0.793258  0.998301  0.163043  1
  F  F29  1  0.000000  0.284837  0.000000  1
  F  F30  1  0.500000  0.797453  0.000000  1
  F  F31  1  0.700894  0.497571  0.831355  1
  F  F32  1  0.697460  0.508444  0.507754  1
  F  F33  1  0.206742  0.998301  0.836957  1
  F  F34  1  0.805288  0.004693  0.500866  1
  F  F35  1  0.302540  0.508444  0.492246  1
  F  F36  1  0.299106  0.497571  0.168645  1
  F  F37  1  0.194712  0.004693  0.499134  1
