# generated using pymatgen
data_Mg2Mn3O8
_symmetry_space_group_name_H-M   'P 1'
_cell_length_a   4.98360608
_cell_length_b   5.87326740
_cell_length_c   9.49624009
_cell_angle_alpha   90.00000000
_cell_angle_beta   90.00000000
_cell_angle_gamma   90.00000000
_symmetry_Int_Tables_number   1
_chemical_formula_structural   Mg2Mn3O8
_chemical_formula_sum   'Mg4 Mn6 O16'
_cell_volume   277.95543292
_cell_formula_units_Z   2
loop_
 _symmetry_equiv_pos_site_id
 _symmetry_equiv_pos_as_xyz
  1  'x, y, z'
loop_
 _atom_site_type_symbol
 _atom_site_label
 _atom_site_symmetry_multiplicity
 _atom_site_fract_x
 _atom_site_fract_y
 _atom_site_fract_z
 _atom_site_occupancy
  Mg  Mg0  1  0.676363  0.000000  0.218798  1
  Mg  Mg1  1  0.663055  0.000000  0.818447  1
  Mg  Mg2  1  0.336945  0.500000  0.318447  1
  Mg  Mg3  1  0.323637  0.500000  0.718798  1
  Mn  Mn4  1  0.327914  0.000000  0.497205  1
  Mn  Mn5  1  0.163981  0.758829  0.000481  1
  Mn  Mn6  1  0.836019  0.741171  0.500481  1
  Mn  Mn7  1  0.672086  0.500000  0.997205  1
  Mn  Mn8  1  0.836019  0.258829  0.500481  1
  Mn  Mn9  1  0.163981  0.241171  0.000481  1
  O  O10  1  0.311321  0.000000  0.107455  1
  O  O11  1  0.660407  0.000000  0.606530  1
  O  O12  1  0.995054  0.000000  0.391647  1
  O  O13  1  0.037969  0.000000  0.887199  1
  O  O14  1  0.519998  0.779930  0.379948  1
  O  O15  1  0.159721  0.763061  0.603022  1
  O  O16  1  0.840279  0.736939  0.103022  1
  O  O17  1  0.480002  0.720070  0.879948  1
  O  O18  1  0.339593  0.500000  0.106530  1
  O  O19  1  0.004946  0.500000  0.891647  1
  O  O20  1  0.688679  0.500000  0.607455  1
  O  O21  1  0.962031  0.500000  0.387199  1
  O  O22  1  0.480002  0.279930  0.879948  1
  O  O23  1  0.840279  0.263061  0.103022  1
  O  O24  1  0.159721  0.236939  0.603022  1
  O  O25  1  0.519998  0.220070  0.379948  1
