# generated using pymatgen
data_MgCu2(SiO3)4
_symmetry_space_group_name_H-M   'P 1'
_cell_length_a   5.28503389
_cell_length_b   5.74623476
_cell_length_c   7.29517473
_cell_angle_alpha   84.83695571
_cell_angle_beta   80.23388241
_cell_angle_gamma   84.05415140
_symmetry_Int_Tables_number   1
_chemical_formula_structural   MgCu2(SiO3)4
_chemical_formula_sum   'Mg1 Cu2 Si4 O12'
_cell_volume   216.56881774
_cell_formula_units_Z   1
loop_
 _symmetry_equiv_pos_site_id
 _symmetry_equiv_pos_as_xyz
  1  'x, y, z'
loop_
 _atom_site_type_symbol
 _atom_site_label
 _atom_site_symmetry_multiplicity
 _atom_site_fract_x
 _atom_site_fract_y
 _atom_site_fract_z
 _atom_site_occupancy
  Mg  Mg0  1  0.000000  0.000000  0.000000  1
  Cu  Cu1  1  0.507103  0.822881  0.185372  1
  Cu  Cu2  1  0.492897  0.177119  0.814628  1
  Si  Si3  1  0.306753  0.782710  0.619509  1
  Si  Si4  1  0.779293  0.587591  0.802198  1
  Si  Si5  1  0.220707  0.412409  0.197802  1
  Si  Si6  1  0.693247  0.217290  0.380491  1
  O  O7  1  0.242524  0.005882  0.754027  1
  O  O8  1  0.757476  0.994118  0.245973  1
  O  O9  1  0.730354  0.791039  0.955379  1
  O  O10  1  0.294572  0.877460  0.404333  1
  O  O11  1  0.577435  0.631057  0.652842  1
  O  O12  1  0.253354  0.679190  0.097526  1
  O  O13  1  0.076214  0.608584  0.698611  1
  O  O14  1  0.923786  0.391416  0.301389  1
  O  O15  1  0.746646  0.320810  0.902474  1
  O  O16  1  0.422565  0.368943  0.347158  1
  O  O17  1  0.705428  0.122540  0.595667  1
  O  O18  1  0.269646  0.208961  0.044621  1
