# generated using pymatgen
data_Mo4H8N2O13
_symmetry_space_group_name_H-M   'P 1'
_cell_length_a   8.42606780
_cell_length_b   8.48663993
_cell_length_c   10.41942749
_cell_angle_alpha   104.15953777
_cell_angle_beta   105.99577832
_cell_angle_gamma   109.93288855
_symmetry_Int_Tables_number   1
_chemical_formula_structural   Mo4H8N2O13
_chemical_formula_sum   'Mo8 H16 N4 O26'
_cell_volume   624.28621217
_cell_formula_units_Z   2
loop_
 _symmetry_equiv_pos_site_id
 _symmetry_equiv_pos_as_xyz
  1  'x, y, z'
loop_
 _atom_site_type_symbol
 _atom_site_label
 _atom_site_symmetry_multiplicity
 _atom_site_fract_x
 _atom_site_fract_y
 _atom_site_fract_z
 _atom_site_occupancy
  Mo  Mo0  1  0.226657  0.539423  0.039377  1
  Mo  Mo1  1  0.773343  0.460577  0.960623  1
  Mo  Mo2  1  0.938977  0.119346  0.727716  1
  Mo  Mo3  1  0.061023  0.880654  0.272284  1
  Mo  Mo4  1  0.922017  0.504977  0.707289  1
  Mo  Mo5  1  0.077983  0.495023  0.292711  1
  Mo  Mo6  1  0.773896  0.849434  0.946272  1
  Mo  Mo7  1  0.226104  0.150566  0.053728  1
  H  H8  1  0.755852  0.121769  0.334870  1
  H  H9  1  0.244148  0.878231  0.665130  1
  H  H10  1  0.411965  0.088260  0.713420  1
  H  H11  1  0.588035  0.911740  0.286580  1
  H  H12  1  0.441976  0.904264  0.638188  1
  H  H13  1  0.558024  0.095736  0.361812  1
  H  H14  1  0.441402  0.958818  0.804802  1
  H  H15  1  0.558598  0.041182  0.195198  1
  H  H16  1  0.681808  0.552104  0.465751  1
  H  H17  1  0.318192  0.447896  0.534249  1
  H  H18  1  0.649595  0.742349  0.486143  1
  H  H19  1  0.350405  0.257651  0.513857  1
  H  H20  1  0.814400  0.720125  0.429310  1
  H  H21  1  0.185600  0.279875  0.570690  1
  H  H22  1  0.409589  0.405455  0.679892  1
  H  H23  1  0.590411  0.594545  0.320108  1
  N  N24  1  0.615439  0.043781  0.297037  1
  N  N25  1  0.384561  0.956219  0.702963  1
  N  N26  1  0.684388  0.653032  0.425778  1
  N  N27  1  0.315612  0.346968  0.574222  1
  O  O28  1  0.929007  0.019516  0.883748  1
  O  O29  1  0.070993  0.980484  0.116252  1
  O  O30  1  0.218727  0.305103  0.934381  1
  O  O31  1  0.781273  0.694897  0.065619  1
  O  O32  1  0.453910  0.660268  0.163248  1
  O  O33  1  0.546090  0.339732  0.836752  1
  O  O34  1  0.029832  0.660290  0.641609  1
  O  O35  1  0.970168  0.339710  0.358391  1
  O  O36  1  0.898428  0.350996  0.867199  1
  O  O37  1  0.101572  0.649004  0.132801  1
  O  O38  1  0.877120  0.641102  0.857666  1
  O  O39  1  0.122880  0.358898  0.142334  1
  O  O40  1  0.048518  0.009641  0.650950  1
  O  O41  1  0.951482  0.990359  0.349050  1
  O  O42  1  0.295280  0.015453  0.951758  1
  O  O43  1  0.704720  0.984547  0.048242  1
  O  O44  1  0.003334  0.312904  0.659082  1
  O  O45  1  0.996666  0.687096  0.340918  1
  O  O46  1  0.705833  0.987830  0.616397  1
  O  O47  1  0.294167  0.012170  0.383603  1
  O  O48  1  0.695872  0.385732  0.575901  1
  O  O49  1  0.304128  0.614268  0.424099  1
  O  O50  1  0.212941  0.621092  0.897793  1
  O  O51  1  0.787059  0.378908  0.102207  1
  O  O52  1  0.421658  0.278821  0.211307  1
  O  O53  1  0.578342  0.721179  0.788693  1
