# generated using pymatgen
data_Li11(CoO4)2
_symmetry_space_group_name_H-M   'P 1'
_cell_length_a   6.58324568
_cell_length_b   6.58324568
_cell_length_c   9.33611188
_cell_angle_alpha   90.00000000
_cell_angle_beta   90.00000000
_cell_angle_gamma   91.32921831
_symmetry_Int_Tables_number   1
_chemical_formula_structural   Li11(CoO4)2
_chemical_formula_sum   'Li22 Co4 O16'
_cell_volume   404.51002862
_cell_formula_units_Z   2
loop_
 _symmetry_equiv_pos_site_id
 _symmetry_equiv_pos_as_xyz
  1  'x, y, z'
loop_
 _atom_site_type_symbol
 _atom_site_label
 _atom_site_symmetry_multiplicity
 _atom_site_fract_x
 _atom_site_fract_y
 _atom_site_fract_z
 _atom_site_occupancy
  Li  Li0  1  0.287273  0.289816  0.251359  1
  Li  Li1  1  0.289816  0.287273  0.748641  1
  Li  Li2  1  0.726837  0.273163  0.250000  1
  Li  Li3  1  0.020987  0.521465  0.274282  1
  Li  Li4  1  0.002055  0.495694  0.529522  1
  Li  Li5  1  0.979013  0.478535  0.774282  1
  Li  Li6  1  0.997945  0.504306  0.029522  1
  Li  Li7  1  0.273163  0.726837  0.750000  1
  Li  Li8  1  0.710184  0.712727  0.248641  1
  Li  Li9  1  0.712727  0.710184  0.751359  1
  Li  Li10  1  0.785270  0.785270  0.500000  1
  Li  Li11  1  0.219799  0.777408  0.480793  1
  Li  Li12  1  0.784611  0.784611  0.000000  1
  Li  Li13  1  0.222592  0.780201  0.019207  1
  Li  Li14  1  0.495694  0.002055  0.470478  1
  Li  Li15  1  0.478535  0.979013  0.225718  1
  Li  Li16  1  0.504306  0.997945  0.970478  1
  Li  Li17  1  0.521465  0.020987  0.725718  1
  Li  Li18  1  0.777408  0.219799  0.519207  1
  Li  Li19  1  0.780201  0.222592  0.980793  1
  Li  Li20  1  0.215389  0.215389  0.500000  1
  Li  Li21  1  0.214730  0.214730  0.000000  1
  Co  Co22  1  0.500225  0.500225  0.500000  1
  Co  Co23  1  0.499774  0.499774  0.000000  1
  Co  Co24  1  0.003617  0.996383  0.250000  1
  Co  Co25  1  0.996383  0.003617  0.750000  1
  O  O26  1  0.000462  0.266510  0.143535  1
  O  O27  1  0.016767  0.259270  0.640998  1
  O  O28  1  0.243937  0.497126  0.898731  1
  O  O29  1  0.756063  0.502874  0.398731  1
  O  O30  1  0.753666  0.506805  0.905820  1
  O  O31  1  0.246334  0.493195  0.405820  1
  O  O32  1  0.999538  0.733490  0.643535  1
  O  O33  1  0.983233  0.740730  0.140998  1
  O  O34  1  0.502874  0.756063  0.601269  1
  O  O35  1  0.506805  0.753666  0.094180  1
  O  O36  1  0.740730  0.983233  0.859002  1
  O  O37  1  0.733490  0.999538  0.356465  1
  O  O38  1  0.259270  0.016767  0.359002  1
  O  O39  1  0.266510  0.000462  0.856465  1
  O  O40  1  0.493195  0.246334  0.594180  1
  O  O41  1  0.497126  0.243937  0.101269  1
