# generated using pymatgen
data_Li2CrSi4O11
_symmetry_space_group_name_H-M   'P 1'
_cell_length_a   7.18642640
_cell_length_b   7.18642640
_cell_length_c   8.21263217
_cell_angle_alpha   81.12351535
_cell_angle_beta   98.87648465
_cell_angle_gamma   96.62268248
_symmetry_Int_Tables_number   1
_chemical_formula_structural   Li2CrSi4O11
_chemical_formula_sum   'Li4 Cr2 Si8 O22'
_cell_volume   412.21674008
_cell_formula_units_Z   2
loop_
 _symmetry_equiv_pos_site_id
 _symmetry_equiv_pos_as_xyz
  1  'x, y, z'
loop_
 _atom_site_type_symbol
 _atom_site_label
 _atom_site_symmetry_multiplicity
 _atom_site_fract_x
 _atom_site_fract_y
 _atom_site_fract_z
 _atom_site_occupancy
  Li  Li0  1  0.922044  0.922044  0.250000  1
  Li  Li1  1  0.650580  0.650580  0.250000  1
  Li  Li2  1  0.349420  0.349420  0.750000  1
  Li  Li3  1  0.077956  0.077956  0.750000  1
  Cr  Cr4  1  0.000000  0.500000  0.500000  1
  Cr  Cr5  1  0.500000  0.000000  0.000000  1
  Si  Si6  1  0.657603  0.223984  0.338007  1
  Si  Si7  1  0.776016  0.342397  0.838007  1
  Si  Si8  1  0.252107  0.161016  0.436730  1
  Si  Si9  1  0.161016  0.252107  0.063270  1
  Si  Si10  1  0.838984  0.747893  0.936730  1
  Si  Si11  1  0.747893  0.838984  0.563270  1
  Si  Si12  1  0.223984  0.657603  0.161993  1
  Si  Si13  1  0.342397  0.776016  0.661993  1
  O  O14  1  0.755825  0.054674  0.466437  1
  O  O15  1  0.606081  0.152860  0.158490  1
  O  O16  1  0.945326  0.244175  0.966437  1
  O  O17  1  0.847140  0.393919  0.658490  1
  O  O18  1  0.801168  0.415426  0.323816  1
  O  O19  1  0.584574  0.198832  0.823816  1
  O  O20  1  0.463690  0.260415  0.409984  1
  O  O21  1  0.850578  0.730960  0.447818  1
  O  O22  1  0.739585  0.536310  0.909984  1
  O  O23  1  0.133503  0.133503  0.250000  1
  O  O24  1  0.730960  0.850577  0.052182  1
  O  O25  1  0.269040  0.149422  0.947818  1
  O  O26  1  0.866497  0.866497  0.750000  1
  O  O27  1  0.260415  0.463690  0.090016  1
  O  O28  1  0.149423  0.269040  0.552182  1
  O  O29  1  0.536310  0.739585  0.590016  1
  O  O30  1  0.415426  0.801168  0.176184  1
  O  O31  1  0.198832  0.584574  0.676184  1
  O  O32  1  0.152860  0.606081  0.341510  1
  O  O33  1  0.054674  0.755825  0.033563  1
  O  O34  1  0.393919  0.847140  0.841510  1
  O  O35  1  0.244175  0.945326  0.533563  1
