# generated using pymatgen
data_Zn3Co9O16
_symmetry_space_group_name_H-M   'P 1'
_cell_length_a   10.07930938
_cell_length_b   10.07930938
_cell_length_c   10.07930938
_cell_angle_alpha   33.33155246
_cell_angle_beta   33.33155246
_cell_angle_gamma   33.33155246
_symmetry_Int_Tables_number   1
_chemical_formula_structural   Zn3Co9O16
_chemical_formula_sum   'Zn3 Co9 O16'
_cell_volume   275.28532271
_cell_formula_units_Z   1
loop_
 _symmetry_equiv_pos_site_id
 _symmetry_equiv_pos_as_xyz
  1  'x, y, z'
loop_
 _atom_site_type_symbol
 _atom_site_label
 _atom_site_symmetry_multiplicity
 _atom_site_fract_x
 _atom_site_fract_y
 _atom_site_fract_z
 _atom_site_occupancy
  Zn  Zn0  1  0.312480  0.312480  0.312480  1
  Zn  Zn1  1  0.624102  0.624102  0.624102  1
  Zn  Zn2  1  0.500665  0.500665  0.500665  1
  Co  Co3  1  0.561890  0.060971  0.060971  1
  Co  Co4  1  0.000559  0.000559  0.000559  1
  Co  Co5  1  0.060971  0.060971  0.561890  1
  Co  Co6  1  0.060971  0.561890  0.060971  1
  Co  Co7  1  0.124624  0.124624  0.124624  1
  Co  Co8  1  0.564487  0.062056  0.564487  1
  Co  Co9  1  0.564487  0.564487  0.062056  1
  Co  Co10  1  0.062056  0.564487  0.564487  1
  Co  Co11  1  0.812513  0.812513  0.812513  1
  O  O12  1  0.959217  0.417377  0.417377  1
  O  O13  1  0.193310  0.193310  0.193310  1
  O  O14  1  0.708877  0.149883  0.708877  1
  O  O15  1  0.708877  0.708877  0.149883  1
  O  O16  1  0.417377  0.417377  0.959217  1
  O  O17  1  0.417377  0.959217  0.417377  1
  O  O18  1  0.149883  0.708877  0.708877  1
  O  O19  1  0.671833  0.204523  0.204523  1
  O  O20  1  0.431171  0.431171  0.431171  1
  O  O21  1  0.930593  0.930593  0.930593  1
  O  O22  1  0.204523  0.671833  0.204523  1
  O  O23  1  0.204523  0.204523  0.671833  1
  O  O24  1  0.916743  0.916743  0.474109  1
  O  O25  1  0.916743  0.474109  0.916743  1
  O  O26  1  0.474109  0.916743  0.916743  1
  O  O27  1  0.695032  0.695032  0.695032  1
