# generated using pymatgen
data_Li4Cr3Cu3(WO8)2
_symmetry_space_group_name_H-M   'P 1'
_cell_length_a   5.96340063
_cell_length_b   5.96340063
_cell_length_c   9.78771679
_cell_angle_alpha   87.21452491
_cell_angle_beta   92.78547509
_cell_angle_gamma   120.85557026
_symmetry_Int_Tables_number   1
_chemical_formula_structural   Li4Cr3Cu3(WO8)2
_chemical_formula_sum   'Li4 Cr3 Cu3 W2 O16'
_cell_volume   298.34027315
_cell_formula_units_Z   1
loop_
 _symmetry_equiv_pos_site_id
 _symmetry_equiv_pos_as_xyz
  1  'x, y, z'
loop_
 _atom_site_type_symbol
 _atom_site_label
 _atom_site_symmetry_multiplicity
 _atom_site_fract_x
 _atom_site_fract_y
 _atom_site_fract_z
 _atom_site_occupancy
  Li  Li0  1  0.663713  0.336287  0.091359  1
  Li  Li1  1  0.997422  0.002578  0.010561  1
  Li  Li2  1  0.003806  0.996194  0.516589  1
  Li  Li3  1  0.344878  0.655122  0.588382  1
  Cr  Cr4  1  0.829309  0.170691  0.784163  1
  Cr  Cr5  1  0.660373  0.832534  0.285779  1
  Cr  Cr6  1  0.167466  0.339627  0.285779  1
  Cu  Cu7  1  0.830033  0.662470  0.788010  1
  Cu  Cu8  1  0.337530  0.169967  0.788010  1
  Cu  Cu9  1  0.167576  0.832424  0.287782  1
  W  W10  1  0.677682  0.322318  0.512711  1
  W  W11  1  0.326421  0.673579  0.015033  1
  O  O12  1  0.819466  0.656734  0.415182  1
  O  O13  1  0.532433  0.467567  0.648862  1
  O  O14  1  0.666473  0.333527  0.880510  1
  O  O15  1  0.999605  0.000395  0.704602  1
  O  O16  1  0.999594  0.000406  0.196774  1
  O  O17  1  0.343266  0.180534  0.415182  1
  O  O18  1  0.977603  0.455320  0.638990  1
  O  O19  1  0.544680  0.022397  0.638990  1
  O  O20  1  0.160023  0.839977  0.916477  1
  O  O21  1  0.830223  0.169777  0.397881  1
  O  O22  1  0.486514  0.965010  0.151689  1
  O  O23  1  0.034990  0.513486  0.151689  1
  O  O24  1  0.332755  0.667245  0.385454  1
  O  O25  1  0.641088  0.851990  0.918312  1
  O  O26  1  0.478375  0.521625  0.158980  1
  O  O27  1  0.148010  0.358912  0.918312  1
