# generated using pymatgen
data_K2AgSb
_symmetry_space_group_name_H-M   'P 1'
_cell_length_a   6.75906660
_cell_length_b   6.75906660
_cell_length_c   6.36017281
_cell_angle_alpha   90.00000000
_cell_angle_beta   90.00000000
_cell_angle_gamma   103.41930240
_symmetry_Int_Tables_number   1
_chemical_formula_structural   K2AgSb
_chemical_formula_sum   'K4 Ag2 Sb2'
_cell_volume   282.63131459
_cell_formula_units_Z   2
loop_
 _symmetry_equiv_pos_site_id
 _symmetry_equiv_pos_as_xyz
  1  'x, y, z'
loop_
 _atom_site_type_symbol
 _atom_site_label
 _atom_site_symmetry_multiplicity
 _atom_site_fract_x
 _atom_site_fract_y
 _atom_site_fract_z
 _atom_site_occupancy
  K  K0  1  0.023269  0.678314  0.250000  1
  K  K1  1  0.976731  0.321686  0.750000  1
  K  K2  1  0.678314  0.023269  0.250000  1
  K  K3  1  0.321686  0.976731  0.750000  1
  Ag  Ag4  1  0.500000  0.500000  1.000000  1
  Ag  Ag5  1  0.500000  0.500000  0.500000  1
  Sb  Sb6  1  0.234996  0.234996  0.250000  1
  Sb  Sb7  1  0.765004  0.765004  0.750000  1
