# generated using pymatgen
data_LiMnOF2
_symmetry_space_group_name_H-M   'P 1'
_cell_length_a   5.14592748
_cell_length_b   5.23015591
_cell_length_c   9.75363360
_cell_angle_alpha   76.79174676
_cell_angle_beta   76.78441972
_cell_angle_gamma   61.80717192
_symmetry_Int_Tables_number   1
_chemical_formula_structural   LiMnOF2
_chemical_formula_sum   'Li4 Mn4 O4 F8'
_cell_volume   223.00690695
_cell_formula_units_Z   4
loop_
 _symmetry_equiv_pos_site_id
 _symmetry_equiv_pos_as_xyz
  1  'x, y, z'
loop_
 _atom_site_type_symbol
 _atom_site_label
 _atom_site_symmetry_multiplicity
 _atom_site_fract_x
 _atom_site_fract_y
 _atom_site_fract_z
 _atom_site_occupancy
  Li  Li0  1  0.397715  0.476904  0.706026  1
  Li  Li1  1  0.062053  0.084956  0.794670  1
  Li  Li2  1  0.937947  0.915044  0.205330  1
  Li  Li3  1  0.602285  0.523096  0.293974  1
  Mn  Mn4  1  0.300869  0.337409  0.016202  1
  Mn  Mn5  1  0.159679  0.159379  0.485576  1
  Mn  Mn6  1  0.699131  0.662591  0.983798  1
  Mn  Mn7  1  0.840321  0.840621  0.514424  1
  O  O8  1  0.903474  0.139391  0.382683  1
  O  O9  1  0.947130  0.599169  0.114975  1
  O  O10  1  0.052870  0.400831  0.885025  1
  O  O11  1  0.096526  0.860609  0.617317  1
  F  F12  1  0.407930  0.152363  0.617342  1
  F  F13  1  0.651988  0.101131  0.882637  1
  F  F14  1  0.800326  0.492118  0.624668  1
  F  F15  1  0.594879  0.298656  0.128403  1
  F  F16  1  0.405121  0.701344  0.871597  1
  F  F17  1  0.199674  0.507882  0.375332  1
  F  F18  1  0.348012  0.898869  0.117363  1
  F  F19  1  0.592070  0.847637  0.382658  1
