# generated using pymatgen
data_Li5FeO4
_symmetry_space_group_name_H-M   'P 1'
_cell_length_a   6.93479401
_cell_length_b   7.06914267
_cell_length_c   8.11567702
_cell_angle_alpha   90.00000000
_cell_angle_beta   90.00000000
_cell_angle_gamma   90.00000000
_symmetry_Int_Tables_number   1
_chemical_formula_structural   Li5FeO4
_chemical_formula_sum   'Li20 Fe4 O16'
_cell_volume   397.85522608
_cell_formula_units_Z   4
loop_
 _symmetry_equiv_pos_site_id
 _symmetry_equiv_pos_as_xyz
  1  'x, y, z'
loop_
 _atom_site_type_symbol
 _atom_site_label
 _atom_site_symmetry_multiplicity
 _atom_site_fract_x
 _atom_site_fract_y
 _atom_site_fract_z
 _atom_site_occupancy
  Li  Li0  1  0.724928  0.500000  0.000000  1
  Li  Li1  1  0.275072  0.500000  0.000000  1
  Li  Li2  1  0.500000  0.240441  0.923408  1
  Li  Li3  1  0.746310  0.013547  0.847372  1
  Li  Li4  1  0.253690  0.013547  0.847372  1
  Li  Li5  1  0.000000  0.253562  0.747380  1
  Li  Li6  1  0.500000  0.753562  0.752620  1
  Li  Li7  1  0.753690  0.513547  0.652628  1
  Li  Li8  1  0.246310  0.513547  0.652628  1
  Li  Li9  1  0.000000  0.740441  0.576592  1
  Li  Li10  1  0.224928  0.000000  0.500000  1
  Li  Li11  1  0.775072  0.000000  0.500000  1
  Li  Li12  1  0.000000  0.259559  0.423408  1
  Li  Li13  1  0.753690  0.486453  0.347372  1
  Li  Li14  1  0.246310  0.486453  0.347372  1
  Li  Li15  1  0.500000  0.246438  0.247380  1
  Li  Li16  1  0.000000  0.746438  0.252620  1
  Li  Li17  1  0.746310  0.986453  0.152628  1
  Li  Li18  1  0.253690  0.986453  0.152628  1
  Li  Li19  1  0.500000  0.759559  0.076592  1
  Fe  Fe20  1  0.000000  0.758099  0.882924  1
  Fe  Fe21  1  0.500000  0.258099  0.617076  1
  Fe  Fe22  1  0.500000  0.741901  0.382924  1
  Fe  Fe23  1  0.000000  0.241901  0.117076  1
  O  O24  1  0.757771  0.779153  0.989401  1
  O  O25  1  0.242229  0.779153  0.989401  1
  O  O26  1  0.500000  0.470205  0.773899  1
  O  O27  1  0.000000  0.530357  0.760971  1
  O  O28  1  0.500000  0.030357  0.739029  1
  O  O29  1  0.000000  0.970205  0.726101  1
  O  O30  1  0.257771  0.279153  0.510599  1
  O  O31  1  0.742229  0.279153  0.510599  1
  O  O32  1  0.742229  0.720847  0.489401  1
  O  O33  1  0.257771  0.720847  0.489401  1
  O  O34  1  0.000000  0.029795  0.273899  1
  O  O35  1  0.500000  0.969643  0.260971  1
  O  O36  1  0.000000  0.469643  0.239029  1
  O  O37  1  0.500000  0.529795  0.226101  1
  O  O38  1  0.757771  0.220847  0.010599  1
  O  O39  1  0.242229  0.220847  0.010599  1
