# generated using pymatgen
data_Na4Al3Ge3NO14
_symmetry_space_group_name_H-M   'P 1'
_cell_length_a   9.20149581
_cell_length_b   9.20149581
_cell_length_c   9.18401176
_cell_angle_alpha   89.93380305
_cell_angle_beta   90.06619695
_cell_angle_gamma   89.99262085
_symmetry_Int_Tables_number   1
_chemical_formula_structural   Na4Al3Ge3NO14
_chemical_formula_sum   'Na8 Al6 Ge6 N2 O28'
_cell_volume   777.58650156
_cell_formula_units_Z   2
loop_
 _symmetry_equiv_pos_site_id
 _symmetry_equiv_pos_as_xyz
  1  'x, y, z'
loop_
 _atom_site_type_symbol
 _atom_site_label
 _atom_site_symmetry_multiplicity
 _atom_site_fract_x
 _atom_site_fract_y
 _atom_site_fract_z
 _atom_site_occupancy
  Na  Na0  1  0.180379  0.680082  0.819213  1
  Na  Na1  1  0.180872  0.319486  0.181225  1
  Na  Na2  1  0.319918  0.819621  0.319213  1
  Na  Na3  1  0.321069  0.180967  0.680116  1
  Na  Na4  1  0.680514  0.819128  0.681225  1
  Na  Na5  1  0.679227  0.181319  0.319521  1
  Na  Na6  1  0.819033  0.678931  0.180116  1
  Na  Na7  1  0.818681  0.320773  0.819521  1
  Al  Al8  1  0.999689  0.999830  0.750004  1
  Al  Al9  1  0.249951  0.499914  0.499889  1
  Al  Al10  1  0.500102  0.249877  0.000117  1
  Al  Al11  1  0.500086  0.750049  0.999889  1
  Al  Al12  1  0.750123  0.499898  0.500117  1
  Al  Al13  1  0.000170  0.000311  0.250004  1
  Ge  Ge14  1  0.999943  0.749669  0.500402  1
  Ge  Ge15  1  0.250331  0.000057  0.000402  1
  Ge  Ge16  1  0.500071  0.499688  0.249998  1
  Ge  Ge17  1  0.500312  0.499929  0.749998  1
  Ge  Ge18  1  0.749642  0.000063  0.999611  1
  Ge  Ge19  1  0.999937  0.250358  0.499611  1
  N  N20  1  0.031992  0.500583  0.999909  1
  N  N21  1  0.499417  0.968008  0.499909  1
  O  O22  1  0.069365  0.854366  0.354884  1
  O  O23  1  0.069885  0.145376  0.645112  1
  O  O24  1  0.145634  0.930635  0.854884  1
  O  O25  1  0.144727  0.069552  0.144359  1
  O  O26  1  0.145653  0.645634  0.568880  1
  O  O27  1  0.145218  0.354611  0.431138  1
  O  O28  1  0.355025  0.569562  0.354498  1
  O  O29  1  0.354836  0.430574  0.645665  1
  O  O30  1  0.354366  0.854347  0.068880  1
  O  O31  1  0.354362  0.145268  0.930493  1
  O  O32  1  0.430438  0.644975  0.854498  1
  O  O33  1  0.430404  0.355452  0.144774  1
  O  O34  1  0.442217  0.041907  0.397910  1
  O  O35  1  0.558352  0.041457  0.602201  1
  O  O36  1  0.569426  0.645164  0.145665  1
  O  O37  1  0.569429  0.355257  0.855012  1
  O  O38  1  0.645389  0.854782  0.931138  1
  O  O39  1  0.645409  0.144804  0.069450  1
  O  O40  1  0.644548  0.569596  0.644774  1
  O  O41  1  0.644743  0.430571  0.355012  1
  O  O42  1  0.854732  0.645638  0.430493  1
  O  O43  1  0.855196  0.354591  0.569450  1
  O  O44  1  0.855513  0.070033  0.855621  1
  O  O45  1  0.854624  0.930115  0.145112  1
  O  O46  1  0.930448  0.855273  0.644359  1
  O  O47  1  0.929967  0.144487  0.355621  1
  O  O48  1  0.958543  0.441648  0.102201  1
  O  O49  1  0.958093  0.557783  0.897910  1
