# generated using pymatgen
data_Li2MnSi3O8
_symmetry_space_group_name_H-M   'P 1'
_cell_length_a   5.14103682
_cell_length_b   6.32516134
_cell_length_c   6.35862685
_cell_angle_alpha   76.75658187
_cell_angle_beta   71.69597889
_cell_angle_gamma   74.73013392
_symmetry_Int_Tables_number   1
_chemical_formula_structural   Li2MnSi3O8
_chemical_formula_sum   'Li2 Mn1 Si3 O8'
_cell_volume   186.94269059
_cell_formula_units_Z   1
loop_
 _symmetry_equiv_pos_site_id
 _symmetry_equiv_pos_as_xyz
  1  'x, y, z'
loop_
 _atom_site_type_symbol
 _atom_site_label
 _atom_site_symmetry_multiplicity
 _atom_site_fract_x
 _atom_site_fract_y
 _atom_site_fract_z
 _atom_site_occupancy
  Li  Li0  1  0.716503  0.861470  0.361382  1
  Li  Li1  1  0.219469  0.118502  0.699937  1
  Mn  Mn2  1  0.346822  0.624544  0.709883  1
  Si  Si3  1  0.697957  0.820589  0.884354  1
  Si  Si4  1  0.675834  0.400694  0.238250  1
  Si  Si5  1  0.284408  0.190661  0.115837  1
  O  O6  1  0.004155  0.876774  0.810805  1
  O  O7  1  0.947231  0.181420  0.239719  1
  O  O8  1  0.557166  0.880377  0.678549  1
  O  O9  1  0.643691  0.551282  0.417329  1
  O  O10  1  0.310920  0.314789  0.864819  1
  O  O11  1  0.713849  0.548561  0.983664  1
  O  O12  1  0.486791  0.939057  0.109346  1
  O  O13  1  0.395205  0.289879  0.287524  1
