# generated using pymatgen
data_Ca3MnCoO6
_symmetry_space_group_name_H-M   'P 1'
_cell_length_a   6.40087370
_cell_length_b   6.40087370
_cell_length_c   6.40087370
_cell_angle_alpha   92.17151868
_cell_angle_beta   92.17151868
_cell_angle_gamma   92.17151868
_symmetry_Int_Tables_number   1
_chemical_formula_structural   Ca3MnCoO6
_chemical_formula_sum   'Ca6 Mn2 Co2 O12'
_cell_volume   261.67168296
_cell_formula_units_Z   2
loop_
 _symmetry_equiv_pos_site_id
 _symmetry_equiv_pos_as_xyz
  1  'x, y, z'
loop_
 _atom_site_type_symbol
 _atom_site_label
 _atom_site_symmetry_multiplicity
 _atom_site_fract_x
 _atom_site_fract_y
 _atom_site_fract_z
 _atom_site_occupancy
  Ca  Ca0  1  0.750000  0.111232  0.388768  1
  Ca  Ca1  1  0.250000  0.888768  0.611232  1
  Ca  Ca2  1  0.388768  0.750000  0.111232  1
  Ca  Ca3  1  0.111232  0.388768  0.750000  1
  Ca  Ca4  1  0.611232  0.250000  0.888768  1
  Ca  Ca5  1  0.888768  0.611232  0.250000  1
  Mn  Mn6  1  0.500000  0.500000  0.500000  1
  Mn  Mn7  1  0.000000  0.000000  0.000000  1
  Co  Co8  1  0.250000  0.250000  0.250000  1
  Co  Co9  1  0.750000  0.750000  0.750000  1
  O  O10  1  0.583603  0.787367  0.454562  1
  O  O11  1  0.954562  0.287367  0.083603  1
  O  O12  1  0.787367  0.454562  0.583603  1
  O  O13  1  0.045438  0.712633  0.916397  1
  O  O14  1  0.916397  0.045438  0.712633  1
  O  O15  1  0.454562  0.583603  0.787367  1
  O  O16  1  0.083603  0.954562  0.287367  1
  O  O17  1  0.416397  0.212633  0.545438  1
  O  O18  1  0.545438  0.416397  0.212633  1
  O  O19  1  0.287367  0.083603  0.954562  1
  O  O20  1  0.212633  0.545438  0.416397  1
  O  O21  1  0.712633  0.916397  0.045438  1
