# generated using pymatgen
data_Li3Sb3(PO4)4
_symmetry_space_group_name_H-M   'P 1'
_cell_length_a   6.78703930
_cell_length_b   11.30885366
_cell_length_c   9.12173806
_cell_angle_alpha   90.00000000
_cell_angle_beta   104.94768161
_cell_angle_gamma   90.00000000
_symmetry_Int_Tables_number   1
_chemical_formula_structural   Li3Sb3(PO4)4
_chemical_formula_sum   'Li6 Sb6 P8 O32'
_cell_volume   676.43549543
_cell_formula_units_Z   2
loop_
 _symmetry_equiv_pos_site_id
 _symmetry_equiv_pos_as_xyz
  1  'x, y, z'
loop_
 _atom_site_type_symbol
 _atom_site_label
 _atom_site_symmetry_multiplicity
 _atom_site_fract_x
 _atom_site_fract_y
 _atom_site_fract_z
 _atom_site_occupancy
  Li  Li0  1  0.675179  0.596015  0.915605  1
  Li  Li1  1  0.180472  0.889530  0.919678  1
  Li  Li2  1  0.082433  0.199451  0.651843  1
  Li  Li3  1  0.917567  0.699451  0.348157  1
  Li  Li4  1  0.324821  0.096015  0.084395  1
  Li  Li5  1  0.819528  0.389530  0.080322  1
  Sb  Sb6  1  0.609922  0.886746  0.738414  1
  Sb  Sb7  1  0.082466  0.612305  0.708409  1
  Sb  Sb8  1  0.635104  0.318278  0.674562  1
  Sb  Sb9  1  0.364896  0.818278  0.325438  1
  Sb  Sb10  1  0.390078  0.386746  0.261586  1
  Sb  Sb11  1  0.917534  0.112305  0.291591  1
  P  P12  1  0.356434  0.368655  0.885506  1
  P  P13  1  0.865022  0.116769  0.917336  1
  P  P14  1  0.519571  0.596837  0.594321  1
  P  P15  1  0.083504  0.915342  0.609946  1
  P  P16  1  0.480429  0.096837  0.405679  1
  P  P17  1  0.916496  0.415342  0.390054  1
  P  P18  1  0.643566  0.868655  0.114494  1
  P  P19  1  0.134978  0.616769  0.082664  1
  O  O20  1  0.561337  0.434622  0.921061  1
  O  O21  1  0.683355  0.806535  0.971925  1
  O  O22  1  0.058453  0.044176  0.964524  1
  O  O23  1  0.176421  0.693383  0.952195  1
  O  O24  1  0.666066  0.041002  0.851728  1
  O  O25  1  0.370373  0.270807  0.764398  1
  O  O26  1  0.167614  0.448648  0.809388  1
  O  O27  1  0.390506  0.639359  0.703827  1
  O  O28  1  0.295763  0.933054  0.729640  1
  O  O29  1  0.876004  0.201463  0.781469  1
  O  O30  1  0.941319  0.874822  0.710335  1
  O  O31  1  0.733553  0.578768  0.703060  1
  O  O32  1  0.474198  0.196040  0.522814  1
  O  O33  1  0.436402  0.481115  0.509983  1
  O  O34  1  0.901517  0.318398  0.507307  1
  O  O35  1  0.563598  0.981115  0.490017  1
  O  O36  1  0.016186  0.037882  0.533528  1
  O  O37  1  0.525802  0.696040  0.477186  1
  O  O38  1  0.983814  0.537882  0.466472  1
  O  O39  1  0.098483  0.818398  0.492693  1
  O  O40  1  0.704237  0.433054  0.270360  1
  O  O41  1  0.609494  0.139359  0.296173  1
  O  O42  1  0.629627  0.770807  0.235602  1
  O  O43  1  0.266447  0.078768  0.296940  1
  O  O44  1  0.058681  0.374822  0.289665  1
  O  O45  1  0.333934  0.541002  0.148272  1
  O  O46  1  0.123996  0.701463  0.218531  1
  O  O47  1  0.832386  0.948648  0.190612  1
  O  O48  1  0.316645  0.306535  0.028075  1
  O  O49  1  0.438663  0.934622  0.078939  1
  O  O50  1  0.823579  0.193383  0.047805  1
  O  O51  1  0.941547  0.544176  0.035476  1
