# generated using pymatgen
data_NaPH3C2N3O4
_symmetry_space_group_name_H-M   'P 1'
_cell_length_a   6.97589319
_cell_length_b   12.47153295
_cell_length_c   8.63720621
_cell_angle_alpha   90.00000000
_cell_angle_beta   127.30341418
_cell_angle_gamma   90.00000000
_symmetry_Int_Tables_number   1
_chemical_formula_structural   NaPH3C2N3O4
_chemical_formula_sum   'Na4 P4 H12 C8 N12 O16'
_cell_volume   597.72158458
_cell_formula_units_Z   4
loop_
 _symmetry_equiv_pos_site_id
 _symmetry_equiv_pos_as_xyz
  1  'x, y, z'
loop_
 _atom_site_type_symbol
 _atom_site_label
 _atom_site_symmetry_multiplicity
 _atom_site_fract_x
 _atom_site_fract_y
 _atom_site_fract_z
 _atom_site_occupancy
  Na  Na0  1  0.851646  0.552932  0.601867  1
  Na  Na1  1  0.148354  0.052932  0.898133  1
  Na  Na2  1  0.851646  0.947068  0.101867  1
  Na  Na3  1  0.148354  0.447068  0.398133  1
  P  P4  1  0.321362  0.578759  0.116076  1
  P  P5  1  0.678638  0.078759  0.383924  1
  P  P6  1  0.321362  0.921241  0.616076  1
  P  P7  1  0.678638  0.421241  0.883924  1
  H  H8  1  0.679706  0.924755  0.643622  1
  H  H9  1  0.049233  0.692134  0.114300  1
  H  H10  1  0.563314  0.379656  0.487981  1
  H  H11  1  0.436686  0.879656  0.012019  1
  H  H12  1  0.320294  0.424755  0.856378  1
  H  H13  1  0.049233  0.807866  0.614300  1
  H  H14  1  0.950767  0.192134  0.385700  1
  H  H15  1  0.679706  0.575245  0.143622  1
  H  H16  1  0.563314  0.120344  0.987981  1
  H  H17  1  0.950767  0.307866  0.885700  1
  H  H18  1  0.436686  0.620344  0.512019  1
  H  H19  1  0.320294  0.075245  0.356378  1
  C  C20  1  0.407877  0.231442  0.401294  1
  C  C21  1  0.225888  0.796223  0.060447  1
  C  C22  1  0.774112  0.296223  0.439553  1
  C  C23  1  0.407877  0.268558  0.901294  1
  C  C24  1  0.592123  0.731442  0.098706  1
  C  C25  1  0.225888  0.703777  0.560447  1
  C  C26  1  0.774112  0.203777  0.939553  1
  C  C27  1  0.592123  0.768558  0.598706  1
  N  N28  1  0.186644  0.696853  0.101979  1
  N  N29  1  0.435403  0.130072  0.360704  1
  N  N30  1  0.582682  0.305719  0.447170  1
  N  N31  1  0.417318  0.805719  0.052830  1
  N  N32  1  0.564597  0.630072  0.139296  1
  N  N33  1  0.186644  0.803147  0.601979  1
  N  N34  1  0.813356  0.196853  0.398021  1
  N  N35  1  0.435403  0.369928  0.860704  1
  N  N36  1  0.582682  0.194281  0.947170  1
  N  N37  1  0.417318  0.694281  0.552830  1
  N  N38  1  0.564597  0.869928  0.639296  1
  N  N39  1  0.813356  0.303147  0.898021  1
  O  O40  1  0.765059  0.739531  0.600417  1
  O  O41  1  0.104001  0.877404  0.031988  1
  O  O42  1  0.828825  0.016756  0.571418  1
  O  O43  1  0.404743  0.525087  0.303885  1
  O  O44  1  0.171175  0.516756  0.928582  1
  O  O45  1  0.234941  0.239531  0.899583  1
  O  O46  1  0.104001  0.622596  0.531988  1
  O  O47  1  0.595257  0.025087  0.196115  1
  O  O48  1  0.404743  0.974913  0.803885  1
  O  O49  1  0.895999  0.377404  0.468012  1
  O  O50  1  0.765059  0.760469  0.100417  1
  O  O51  1  0.828825  0.483244  0.071418  1
  O  O52  1  0.595257  0.474913  0.696115  1
  O  O53  1  0.171175  0.983244  0.428582  1
  O  O54  1  0.895999  0.122596  0.968012  1
  O  O55  1  0.234941  0.260469  0.399583  1
