# generated using pymatgen
data_Li4Mn3Fe(BO3)4
_symmetry_space_group_name_H-M   'P 1'
_cell_length_a   5.17509638
_cell_length_b   6.25005509
_cell_length_c   8.07214450
_cell_angle_alpha   78.39409968
_cell_angle_beta   88.80720920
_cell_angle_gamma   87.69620477
_symmetry_Int_Tables_number   1
_chemical_formula_structural   Li4Mn3Fe(BO3)4
_chemical_formula_sum   'Li4 Mn3 Fe1 B4 O12'
_cell_volume   255.52413981
_cell_formula_units_Z   1
loop_
 _symmetry_equiv_pos_site_id
 _symmetry_equiv_pos_as_xyz
  1  'x, y, z'
loop_
 _atom_site_type_symbol
 _atom_site_label
 _atom_site_symmetry_multiplicity
 _atom_site_fract_x
 _atom_site_fract_y
 _atom_site_fract_z
 _atom_site_occupancy
  Li  Li0  1  0.916568  0.521776  0.150568  1
  Li  Li1  1  0.415190  0.019833  0.651486  1
  Li  Li2  1  0.583829  0.979080  0.347070  1
  Li  Li3  1  0.085133  0.482025  0.849476  1
  Mn  Mn4  1  0.903690  0.256180  0.509545  1
  Mn  Mn5  1  0.095488  0.743916  0.491014  1
  Mn  Mn6  1  0.595330  0.242277  0.989558  1
  Fe  Fe7  1  0.411176  0.754510  0.011685  1
  B  B8  1  0.097726  0.092980  0.166775  1
  B  B9  1  0.399807  0.407902  0.331220  1
  B  B10  1  0.597589  0.594780  0.668406  1
  B  B11  1  0.903318  0.903147  0.834209  1
  O  O12  1  0.989869  0.254936  0.042075  1
  O  O13  1  0.957212  0.010797  0.313316  1
  O  O14  1  0.355372  0.019653  0.150611  1
  O  O15  1  0.539212  0.495517  0.184781  1
  O  O16  1  0.509561  0.246354  0.454821  1
  O  O17  1  0.142129  0.478988  0.347865  1
  O  O18  1  0.855319  0.521065  0.652862  1
  O  O19  1  0.490947  0.755743  0.542396  1
  O  O20  1  0.455957  0.510356  0.813479  1
  O  O21  1  0.642083  0.971050  0.849945  1
  O  O22  1  0.040939  0.990164  0.687453  1
  O  O23  1  0.016556  0.746970  0.959382  1
