# generated using pymatgen
data_Li13Mn3Nb2O16
_symmetry_space_group_name_H-M   'P 1'
_cell_length_a   6.02467038
_cell_length_b   6.02467038
_cell_length_c   9.99811444
_cell_angle_alpha   88.95306343
_cell_angle_beta   91.04693657
_cell_angle_gamma   119.29255257
_symmetry_Int_Tables_number   1
_chemical_formula_structural   Li13Mn3Nb2O16
_chemical_formula_sum   'Li13 Mn3 Nb2 O16'
_cell_volume   316.42440104
_cell_formula_units_Z   1
loop_
 _symmetry_equiv_pos_site_id
 _symmetry_equiv_pos_as_xyz
  1  'x, y, z'
loop_
 _atom_site_type_symbol
 _atom_site_label
 _atom_site_symmetry_multiplicity
 _atom_site_fract_x
 _atom_site_fract_y
 _atom_site_fract_z
 _atom_site_occupancy
  Li  Li0  1  0.003118  0.996882  0.982525  1
  Li  Li1  1  0.123425  0.876575  0.497917  1
  Li  Li2  1  0.740072  0.653997  0.774298  1
  Li  Li3  1  0.163217  0.836783  0.743868  1
  Li  Li4  1  0.172799  0.827201  0.256718  1
  Li  Li5  1  0.824663  0.583706  0.024742  1
  Li  Li6  1  0.346003  0.259928  0.774298  1
  Li  Li7  1  0.416294  0.175337  0.024742  1
  Li  Li8  1  0.669198  0.330802  0.249361  1
  Li  Li9  1  0.324815  0.675185  0.597789  1
  Li  Li10  1  0.714334  0.880069  0.542893  1
  Li  Li11  1  0.119931  0.285666  0.542893  1
  Li  Li12  1  0.818477  0.181523  0.056763  1
  Mn  Mn13  1  0.661912  0.832415  0.279639  1
  Mn  Mn14  1  0.167585  0.338088  0.279639  1
  Mn  Mn15  1  0.820256  0.179744  0.780437  1
  Nb  Nb16  1  0.649843  0.350157  0.519324  1
  Nb  Nb17  1  0.344560  0.655440  0.009443  1
  O  O18  1  0.807260  0.665281  0.400881  1
  O  O19  1  0.171902  0.828098  0.934172  1
  O  O20  1  0.496917  0.503083  0.631535  1
  O  O21  1  0.503905  0.968268  0.150913  1
  O  O22  1  0.334719  0.192740  0.400881  1
  O  O23  1  0.663963  0.842179  0.911803  1
  O  O24  1  0.973030  0.510173  0.639073  1
  O  O25  1  0.672767  0.327233  0.887075  1
  O  O26  1  0.340664  0.659336  0.378933  1
  O  O27  1  0.031732  0.496095  0.150913  1
  O  O28  1  0.489827  0.026970  0.639073  1
  O  O29  1  0.157821  0.336037  0.911803  1
  O  O30  1  0.504868  0.495132  0.133842  1
  O  O31  1  0.815120  0.184880  0.412495  1
  O  O32  1  0.981654  0.018346  0.680888  1
  O  O33  1  0.983996  0.016004  0.179956  1
