# generated using pymatgen
data_V3OF11
_symmetry_space_group_name_H-M   'P 1'
_cell_length_a   5.27164884
_cell_length_b   5.45657511
_cell_length_c   14.74026245
_cell_angle_alpha   100.35214018
_cell_angle_beta   90.06157746
_cell_angle_gamma   90.06810359
_symmetry_Int_Tables_number   1
_chemical_formula_structural   V3OF11
_chemical_formula_sum   'V6 O2 F22'
_cell_volume   417.10317470
_cell_formula_units_Z   2
loop_
 _symmetry_equiv_pos_site_id
 _symmetry_equiv_pos_as_xyz
  1  'x, y, z'
loop_
 _atom_site_type_symbol
 _atom_site_label
 _atom_site_symmetry_multiplicity
 _atom_site_fract_x
 _atom_site_fract_y
 _atom_site_fract_z
 _atom_site_occupancy
  V  V0  1  0.000097  0.999843  0.999858  1
  V  V1  1  0.490524  0.165772  0.327064  1
  V  V2  1  0.008053  0.321696  0.667033  1
  V  V3  1  0.500123  0.499688  0.999712  1
  V  V4  1  0.995640  0.667856  0.334554  1
  V  V5  1  0.524539  0.792719  0.663340  1
  O  O6  1  0.418241  0.123026  0.218718  1
  O  O7  1  0.704620  0.541655  0.644021  1
  F  F8  1  0.790394  0.023197  0.641934  1
  F  F9  1  0.697477  0.189232  0.975197  1
  F  F10  1  0.292254  0.138807  0.690428  1
  F  F11  1  0.914308  0.042101  0.117573  1
  F  F12  1  0.591772  0.208899  0.448970  1
  F  F13  1  0.911992  0.383704  0.783935  1
  F  F14  1  0.076434  0.296827  0.548489  1
  F  F15  1  0.413202  0.460437  0.882282  1
  F  F16  1  0.792651  0.362473  0.308960  1
  F  F17  1  0.802644  0.688966  0.975435  1
  F  F18  1  0.197555  0.311073  0.024593  1
  F  F19  1  0.296227  0.468325  0.359742  1
  F  F20  1  0.213633  0.636555  0.690856  1
  F  F21  1  0.586599  0.541793  0.117473  1
  F  F22  1  0.917135  0.710952  0.452250  1
  F  F23  1  0.571955  0.894796  0.783179  1
  F  F24  1  0.088614  0.624204  0.217845  1
  F  F25  1  0.405805  0.801503  0.551304  1
  F  F26  1  0.084840  0.957961  0.882266  1
  F  F27  1  0.702159  0.863274  0.308471  1
  F  F28  1  0.302132  0.810585  0.024795  1
  F  F29  1  0.208381  0.972077  0.359728  1
