# generated using pymatgen
data_LiMnF3
_symmetry_space_group_name_H-M   'P 1'
_cell_length_a   3.80311890
_cell_length_b   10.22499404
_cell_length_c   6.94525471
_cell_angle_alpha   90.00000000
_cell_angle_beta   92.67696741
_cell_angle_gamma   90.00000000
_symmetry_Int_Tables_number   1
_chemical_formula_structural   LiMnF3
_chemical_formula_sum   'Li4 Mn4 F12'
_cell_volume   269.78447483
_cell_formula_units_Z   4
loop_
 _symmetry_equiv_pos_site_id
 _symmetry_equiv_pos_as_xyz
  1  'x, y, z'
loop_
 _atom_site_type_symbol
 _atom_site_label
 _atom_site_symmetry_multiplicity
 _atom_site_fract_x
 _atom_site_fract_y
 _atom_site_fract_z
 _atom_site_occupancy
  Li  Li0  1  0.272078  0.544647  0.291825  1
  Li  Li1  1  0.272078  0.955353  0.791825  1
  Li  Li2  1  0.727922  0.044647  0.208175  1
  Li  Li3  1  0.727922  0.455353  0.708175  1
  Mn  Mn4  1  0.248240  0.220679  0.480061  1
  Mn  Mn5  1  0.248240  0.279321  0.980061  1
  Mn  Mn6  1  0.751760  0.720679  0.019939  1
  Mn  Mn7  1  0.751760  0.779321  0.519939  1
  F  F8  1  0.219073  0.107955  0.158318  1
  F  F9  1  0.219073  0.392045  0.658318  1
  F  F10  1  0.289647  0.364651  0.262759  1
  F  F11  1  0.253165  0.644106  0.056385  1
  F  F12  1  0.289647  0.135349  0.762759  1
  F  F13  1  0.253165  0.855894  0.556385  1
  F  F14  1  0.746835  0.144106  0.443615  1
  F  F15  1  0.710353  0.864651  0.237241  1
  F  F16  1  0.746835  0.355894  0.943615  1
  F  F17  1  0.710353  0.635349  0.737241  1
  F  F18  1  0.780927  0.607955  0.341682  1
  F  F19  1  0.780927  0.892045  0.841682  1
