# generated using pymatgen
data_CeZr6O14
_symmetry_space_group_name_H-M   'P 1'
_cell_length_a   3.68250437
_cell_length_b   5.29756432
_cell_length_c   25.72219683
_cell_angle_alpha   90.00000000
_cell_angle_beta   90.00000000
_cell_angle_gamma   90.00000000
_symmetry_Int_Tables_number   1
_chemical_formula_structural   CeZr6O14
_chemical_formula_sum   'Ce2 Zr12 O28'
_cell_volume   501.79642910
_cell_formula_units_Z   2
loop_
 _symmetry_equiv_pos_site_id
 _symmetry_equiv_pos_as_xyz
  1  'x, y, z'
loop_
 _atom_site_type_symbol
 _atom_site_label
 _atom_site_symmetry_multiplicity
 _atom_site_fract_x
 _atom_site_fract_y
 _atom_site_fract_z
 _atom_site_occupancy
  Ce  Ce0  1  0.500000  0.501052  0.856377  1
  Ce  Ce1  1  0.500000  0.501052  0.143623  1
  Zr  Zr2  1  0.000000  0.000288  0.782876  1
  Zr  Zr3  1  0.000000  0.999176  0.641588  1
  Zr  Zr4  1  0.000000  0.999468  0.500000  1
  Zr  Zr5  1  0.000000  0.999176  0.358412  1
  Zr  Zr6  1  0.000000  0.000288  0.217124  1
  Zr  Zr7  1  0.000000  0.999945  0.070167  1
  Zr  Zr8  1  0.000000  0.999945  0.929833  1
  Zr  Zr9  1  0.500000  0.500546  0.570751  1
  Zr  Zr10  1  0.500000  0.500036  0.287858  1
  Zr  Zr11  1  0.500000  0.499821  0.000000  1
  Zr  Zr12  1  0.500000  0.500036  0.712142  1
  Zr  Zr13  1  0.500000  0.500546  0.429249  1
  O  O14  1  0.000000  0.198057  0.570766  1
  O  O15  1  0.000000  0.201456  0.711773  1
  O  O16  1  0.000000  0.699436  0.713272  1
  O  O17  1  0.000000  0.198057  0.429234  1
  O  O18  1  0.000000  0.697560  0.428880  1
  O  O19  1  0.000000  0.201456  0.288227  1
  O  O20  1  0.000000  0.699436  0.286728  1
  O  O21  1  0.000000  0.209523  0.143642  1
  O  O22  1  0.000000  0.737690  0.143260  1
  O  O23  1  0.000000  0.206000  0.000000  1
  O  O24  1  0.000000  0.697560  0.571120  1
  O  O25  1  0.000000  0.702168  0.000000  1
  O  O26  1  0.000000  0.209523  0.856358  1
  O  O27  1  0.000000  0.737690  0.856740  1
  O  O28  1  0.500000  0.279710  0.069003  1
  O  O29  1  0.500000  0.792291  0.067876  1
  O  O30  1  0.500000  0.279710  0.930997  1
  O  O31  1  0.500000  0.281609  0.781173  1
  O  O32  1  0.500000  0.793929  0.781382  1
  O  O33  1  0.500000  0.300538  0.641221  1
  O  O34  1  0.500000  0.801201  0.642398  1
  O  O35  1  0.500000  0.301780  0.500000  1
  O  O36  1  0.500000  0.802680  0.500000  1
  O  O37  1  0.500000  0.300538  0.358779  1
  O  O38  1  0.500000  0.801201  0.357602  1
  O  O39  1  0.500000  0.281609  0.218827  1
  O  O40  1  0.500000  0.793929  0.218618  1
  O  O41  1  0.500000  0.792291  0.932124  1
