# generated using pymatgen
data_Mn3Cr3(SbO8)2
_symmetry_space_group_name_H-M   'P 1'
_cell_length_a   5.90099327
_cell_length_b   5.90099327
_cell_length_c   9.24250315
_cell_angle_alpha   89.13192816
_cell_angle_beta   90.86807184
_cell_angle_gamma   120.09483503
_symmetry_Int_Tables_number   1
_chemical_formula_structural   Mn3Cr3(SbO8)2
_chemical_formula_sum   'Mn3 Cr3 Sb2 O16'
_cell_volume   278.41219940
_cell_formula_units_Z   1
loop_
 _symmetry_equiv_pos_site_id
 _symmetry_equiv_pos_as_xyz
  1  'x, y, z'
loop_
 _atom_site_type_symbol
 _atom_site_label
 _atom_site_symmetry_multiplicity
 _atom_site_fract_x
 _atom_site_fract_y
 _atom_site_fract_z
 _atom_site_occupancy
  Mn  Mn0  1  0.829564  0.170436  0.790691  1
  Mn  Mn1  1  0.663526  0.832929  0.287150  1
  Mn  Mn2  1  0.167071  0.336474  0.287150  1
  Cr  Cr3  1  0.827810  0.662466  0.784005  1
  Cr  Cr4  1  0.337534  0.172190  0.784005  1
  Cr  Cr5  1  0.168148  0.831852  0.286808  1
  Sb  Sb6  1  0.665484  0.334516  0.507459  1
  Sb  Sb7  1  0.331104  0.668896  0.008111  1
  O  O8  1  0.833531  0.671620  0.400593  1
  O  O9  1  0.520273  0.479727  0.657713  1
  O  O10  1  0.670230  0.329770  0.892755  1
  O  O11  1  0.997722  0.002278  0.699428  1
  O  O12  1  0.993749  0.006251  0.190262  1
  O  O13  1  0.328380  0.166469  0.400593  1
  O  O14  1  0.959880  0.475840  0.663177  1
  O  O15  1  0.524160  0.040120  0.663177  1
  O  O16  1  0.164043  0.835957  0.901706  1
  O  O17  1  0.834117  0.165883  0.398601  1
  O  O18  1  0.487018  0.960536  0.161525  1
  O  O19  1  0.039464  0.512982  0.161525  1
  O  O20  1  0.339210  0.660790  0.390797  1
  O  O21  1  0.666433  0.835042  0.899926  1
  O  O22  1  0.480710  0.519290  0.165198  1
  O  O23  1  0.164958  0.333567  0.899926  1
