# generated using pymatgen
data_Gd2W2O9
_symmetry_space_group_name_H-M   'P 1'
_cell_length_a   5.40389039
_cell_length_b   5.50792861
_cell_length_c   23.83693355
_cell_angle_alpha   90.00000000
_cell_angle_beta   90.00000000
_cell_angle_gamma   90.00000000
_symmetry_Int_Tables_number   1
_chemical_formula_structural   Gd2W2O9
_chemical_formula_sum   'Gd8 W8 O36'
_cell_volume   709.48827027
_cell_formula_units_Z   4
loop_
 _symmetry_equiv_pos_site_id
 _symmetry_equiv_pos_as_xyz
  1  'x, y, z'
loop_
 _atom_site_type_symbol
 _atom_site_label
 _atom_site_symmetry_multiplicity
 _atom_site_fract_x
 _atom_site_fract_y
 _atom_site_fract_z
 _atom_site_occupancy
  Gd  Gd0  1  0.272578  0.878323  0.298931  1
  Gd  Gd1  1  0.772578  0.878323  0.201069  1
  Gd  Gd2  1  0.272578  0.621677  0.701069  1
  Gd  Gd3  1  0.772578  0.621677  0.798931  1
  Gd  Gd4  1  0.727422  0.378323  0.298931  1
  Gd  Gd5  1  0.227422  0.378323  0.201069  1
  Gd  Gd6  1  0.727422  0.121677  0.701069  1
  Gd  Gd7  1  0.227422  0.121677  0.798931  1
  W  W8  1  0.751063  0.824575  0.422073  1
  W  W9  1  0.251063  0.824575  0.077927  1
  W  W10  1  0.751063  0.675425  0.577927  1
  W  W11  1  0.251063  0.675425  0.922073  1
  W  W12  1  0.248937  0.324575  0.422073  1
  W  W13  1  0.748937  0.324575  0.077927  1
  W  W14  1  0.248937  0.175425  0.577927  1
  W  W15  1  0.748937  0.175425  0.922073  1
  O  O16  1  0.537917  0.989110  0.096465  1
  O  O17  1  0.462083  0.010890  0.903535  1
  O  O18  1  0.004805  0.883149  0.742047  1
  O  O19  1  0.452496  0.929405  0.560834  1
  O  O20  1  0.504805  0.883149  0.757953  1
  O  O21  1  0.952496  0.929405  0.939166  1
  O  O22  1  0.643099  0.775714  0.348708  1
  O  O23  1  0.143099  0.775714  0.151292  1
  O  O24  1  0.335098  0.750000  0.000000  1
  O  O25  1  0.835098  0.750000  0.500000  1
  O  O26  1  0.643099  0.724286  0.651292  1
  O  O27  1  0.143099  0.724286  0.848708  1
  O  O28  1  0.452496  0.570595  0.439166  1
  O  O29  1  0.004805  0.616851  0.257953  1
  O  O30  1  0.952496  0.570595  0.060834  1
  O  O31  1  0.504805  0.616851  0.242047  1
  O  O32  1  0.962083  0.489110  0.403535  1
  O  O33  1  0.037917  0.510890  0.596465  1
  O  O34  1  0.462083  0.489110  0.096465  1
  O  O35  1  0.537917  0.510890  0.903535  1
  O  O36  1  0.995195  0.383149  0.742047  1
  O  O37  1  0.547504  0.429405  0.560834  1
  O  O38  1  0.495195  0.383149  0.757953  1
  O  O39  1  0.047504  0.429405  0.939166  1
  O  O40  1  0.356901  0.275714  0.348708  1
  O  O41  1  0.856901  0.275714  0.151292  1
  O  O42  1  0.664902  0.250000  0.000000  1
  O  O43  1  0.164902  0.250000  0.500000  1
  O  O44  1  0.356901  0.224286  0.651292  1
  O  O45  1  0.856901  0.224286  0.848708  1
  O  O46  1  0.547504  0.070595  0.439166  1
  O  O47  1  0.995195  0.116851  0.257953  1
  O  O48  1  0.047504  0.070595  0.060834  1
  O  O49  1  0.495195  0.116851  0.242047  1
  O  O50  1  0.037917  0.989110  0.403535  1
  O  O51  1  0.962083  0.010890  0.596465  1
