# generated using pymatgen
data_Zr2N2O
_symmetry_space_group_name_H-M   'P 1'
_cell_length_a   9.61810031
_cell_length_b   9.61810031
_cell_length_c   5.88464323
_cell_angle_alpha   74.17728865
_cell_angle_beta   105.82271135
_cell_angle_gamma   60.09751639
_symmetry_Int_Tables_number   1
_chemical_formula_structural   Zr2N2O
_chemical_formula_sum   'Zr12 N12 O6'
_cell_volume   395.80969027
_cell_formula_units_Z   6
loop_
 _symmetry_equiv_pos_site_id
 _symmetry_equiv_pos_as_xyz
  1  'x, y, z'
loop_
 _atom_site_type_symbol
 _atom_site_label
 _atom_site_symmetry_multiplicity
 _atom_site_fract_x
 _atom_site_fract_y
 _atom_site_fract_z
 _atom_site_occupancy
  Zr  Zr0  1  0.813591  0.022862  0.439222  1
  Zr  Zr1  1  0.022862  0.813591  0.060778  1
  Zr  Zr2  1  0.307511  0.529348  0.913212  1
  Zr  Zr3  1  0.529348  0.307511  0.586788  1
  Zr  Zr4  1  0.640843  0.858471  0.925999  1
  Zr  Zr5  1  0.359157  0.141529  0.074001  1
  Zr  Zr6  1  0.470652  0.692489  0.413212  1
  Zr  Zr7  1  0.186409  0.977138  0.560778  1
  Zr  Zr8  1  0.858471  0.640843  0.574001  1
  Zr  Zr9  1  0.141529  0.359157  0.425999  1
  Zr  Zr10  1  0.692489  0.470652  0.086788  1
  Zr  Zr11  1  0.977138  0.186409  0.939222  1
  N  N12  1  0.816623  0.816623  0.750000  1
  N  N13  1  0.149021  0.450525  0.748362  1
  N  N14  1  0.450525  0.149021  0.751638  1
  N  N15  1  0.549475  0.850979  0.248362  1
  N  N16  1  0.183377  0.183377  0.250000  1
  N  N17  1  0.113955  0.818471  0.744510  1
  N  N18  1  0.886045  0.181529  0.255490  1
  N  N19  1  0.181529  0.886045  0.244510  1
  N  N20  1  0.850979  0.549475  0.251638  1
  N  N21  1  0.486155  0.486155  0.750000  1
  N  N22  1  0.818471  0.113955  0.755490  1
  N  N23  1  0.513845  0.513845  0.250000  1
  O  O24  1  0.515504  0.216267  0.253012  1
  O  O25  1  0.851499  0.851499  0.250000  1
  O  O26  1  0.484496  0.783733  0.746988  1
  O  O27  1  0.216267  0.515504  0.246988  1
  O  O28  1  0.148501  0.148501  0.750000  1
  O  O29  1  0.783733  0.484496  0.753012  1
