# generated using pymatgen
data_Fe3Pb8F24
_symmetry_space_group_name_H-M   'P 1'
_cell_length_a   5.67051273
_cell_length_b   9.57956813
_cell_length_c   10.61499229
_cell_angle_alpha   104.90570377
_cell_angle_beta   104.74360480
_cell_angle_gamma   89.45161368
_symmetry_Int_Tables_number   1
_chemical_formula_structural   Fe3Pb8F24
_chemical_formula_sum   'Fe3 Pb8 F24'
_cell_volume   537.90348019
_cell_formula_units_Z   1
loop_
 _symmetry_equiv_pos_site_id
 _symmetry_equiv_pos_as_xyz
  1  'x, y, z'
loop_
 _atom_site_type_symbol
 _atom_site_label
 _atom_site_symmetry_multiplicity
 _atom_site_fract_x
 _atom_site_fract_y
 _atom_site_fract_z
 _atom_site_occupancy
  Fe  Fe0  1  0.000000  0.000000  0.000000  1
  Fe  Fe1  1  0.450519  0.248814  0.905032  1
  Fe  Fe2  1  0.549481  0.751186  0.094968  1
  Pb  Pb3  1  0.265330  0.359860  0.550217  1
  Pb  Pb4  1  0.734670  0.640140  0.449783  1
  Pb  Pb5  1  0.357155  0.826729  0.737139  1
  Pb  Pb6  1  0.642845  0.173271  0.262861  1
  Pb  Pb7  1  0.176327  0.897612  0.357736  1
  Pb  Pb8  1  0.823673  0.102388  0.642264  1
  Pb  Pb9  1  0.912871  0.562481  0.826687  1
  Pb  Pb10  1  0.087129  0.437519  0.173313  1
  F  F11  1  0.021986  0.875389  0.552085  1
  F  F12  1  0.978014  0.124611  0.447915  1
  F  F13  1  0.572872  0.608833  0.643837  1
  F  F14  1  0.427128  0.391167  0.356163  1
  F  F15  1  0.078584  0.613831  0.632202  1
  F  F16  1  0.921416  0.386169  0.367798  1
  F  F17  1  0.293467  0.139707  0.716693  1
  F  F18  1  0.706533  0.860293  0.283307  1
  F  F19  1  0.831417  0.632917  0.083207  1
  F  F20  1  0.168583  0.367083  0.916793  1
  F  F21  1  0.109289  0.643429  0.358432  1
  F  F22  1  0.890711  0.356571  0.641568  1
  F  F23  1  0.271237  0.877959  0.105385  1
  F  F24  1  0.728763  0.122041  0.894615  1
  F  F25  1  0.706610  0.897181  0.037633  1
  F  F26  1  0.293390  0.102819  0.962367  1
  F  F27  1  0.403592  0.623853  0.174666  1
  F  F28  1  0.596408  0.376147  0.825334  1
  F  F29  1  0.388420  0.664385  0.904050  1
  F  F30  1  0.611580  0.335615  0.095950  1
  F  F31  1  0.044078  0.147386  0.179579  1
  F  F32  1  0.955922  0.852614  0.820421  1
  F  F33  1  0.517224  0.867349  0.544735  1
  F  F34  1  0.482776  0.132651  0.455265  1
