# generated using pymatgen
data_CoB12H28(NO15)2
_symmetry_space_group_name_H-M   'P 1'
_cell_length_a   7.56478248
_cell_length_b   7.91858945
_cell_length_c   11.14140832
_cell_angle_alpha   107.92410825
_cell_angle_beta   94.89258219
_cell_angle_gamma   90.38458855
_symmetry_Int_Tables_number   1
_chemical_formula_structural   CoB12H28(NO15)2
_chemical_formula_sum   'Co1 B12 H28 N2 O30'
_cell_volume   632.30878417
_cell_formula_units_Z   1
loop_
 _symmetry_equiv_pos_site_id
 _symmetry_equiv_pos_as_xyz
  1  'x, y, z'
loop_
 _atom_site_type_symbol
 _atom_site_label
 _atom_site_symmetry_multiplicity
 _atom_site_fract_x
 _atom_site_fract_y
 _atom_site_fract_z
 _atom_site_occupancy
  Co  Co0  1  0.000000  0.000000  0.000000  1
  B  B1  1  0.170804  0.701586  0.115941  1
  B  B2  1  0.829196  0.298414  0.884059  1
  B  B3  1  0.330481  0.012735  0.204337  1
  B  B4  1  0.669519  0.987265  0.795663  1
  B  B5  1  0.127954  0.891517  0.348227  1
  B  B6  1  0.872046  0.108483  0.651773  1
  B  B7  1  0.108359  0.564619  0.284677  1
  B  B8  1  0.891641  0.435381  0.715323  1
  B  B9  1  0.461036  0.762198  0.044991  1
  B  B10  1  0.538964  0.237802  0.955009  1
  B  B11  1  0.350288  0.143658  0.439387  1
  B  B12  1  0.649712  0.856342  0.560613  1
  H  H13  1  0.976396  0.650720  0.968078  1
  H  H14  1  0.023604  0.349280  0.031922  1
  H  H15  1  0.280220  0.183671  0.103038  1
  H  H16  1  0.719780  0.816329  0.896962  1
  H  H17  1  0.880067  0.961729  0.396673  1
  H  H18  1  0.119933  0.038271  0.603327  1
  H  H19  1  0.113017  0.302808  0.255404  1
  H  H20  1  0.886983  0.697192  0.744596  1
  H  H21  1  0.613157  0.577142  0.940612  1
  H  H22  1  0.386843  0.422858  0.059388  1
  H  H23  1  0.388331  0.294239  0.624922  1
  H  H24  1  0.611669  0.705761  0.375078  1
  H  H25  1  0.316684  0.517617  0.561754  1
  H  H26  1  0.683316  0.482383  0.438246  1
  H  H27  1  0.214135  0.683980  0.520371  1
  H  H28  1  0.785865  0.316020  0.479629  1
  H  H29  1  0.176230  0.645410  0.657034  1
  H  H30  1  0.823770  0.354590  0.342966  1
  H  H31  1  0.380355  0.730075  0.639773  1
  H  H32  1  0.619645  0.269925  0.360227  1
  H  H33  1  0.305023  0.967119  0.877440  1
  H  H34  1  0.694977  0.032881  0.122560  1
  H  H35  1  0.131714  0.971027  0.788871  1
  H  H36  1  0.868286  0.028973  0.211129  1
  H  H37  1  0.293307  0.462868  0.853851  1
  H  H38  1  0.706693  0.537132  0.146149  1
  H  H39  1  0.204622  0.279336  0.769623  1
  H  H40  1  0.795378  0.720664  0.230377  1
  N  N41  1  0.271798  0.645193  0.596197  1
  N  N42  1  0.728202  0.354807  0.403803  1
  O  O43  1  0.028041  0.753619  0.037675  1
  O  O44  1  0.971959  0.246381  0.962325  1
  O  O45  1  0.206814  0.115854  0.144495  1
  O  O46  1  0.793186  0.884146  0.855505  1
  O  O47  1  0.944690  0.940813  0.320295  1
  O  O48  1  0.055310  0.059187  0.679705  1
  O  O49  1  0.084316  0.414246  0.320165  1
  O  O50  1  0.915684  0.585754  0.679835  1
  O  O51  1  0.596460  0.706506  0.966851  1
  O  O52  1  0.403540  0.293494  0.033149  1
  O  O53  1  0.423021  0.284261  0.539497  1
  O  O54  1  0.576979  0.715739  0.460503  1
  O  O55  1  0.115866  0.553982  0.159088  1
  O  O56  1  0.884134  0.446018  0.840912  1
  O  O57  1  0.327785  0.642538  0.044294  1
  O  O58  1  0.672215  0.357462  0.955706  1
  O  O59  1  0.465917  0.935854  0.118407  1
  O  O60  1  0.534083  0.064146  0.881593  1
  O  O61  1  0.414695  0.126813  0.324324  1
  O  O62  1  0.585305  0.873187  0.675676  1
  O  O63  1  0.126462  0.724381  0.379027  1
  O  O64  1  0.873538  0.275619  0.620973  1
  O  O65  1  0.223635  0.028103  0.453617  1
  O  O66  1  0.776365  0.971897  0.546383  1
  O  O67  1  0.222966  0.864483  0.227677  1
  O  O68  1  0.777034  0.135517  0.772323  1
  O  O69  1  0.179923  0.922740  0.858400  1
  O  O70  1  0.820077  0.077260  0.141600  1
  O  O71  1  0.290543  0.374267  0.770389  1
  O  O72  1  0.709457  0.625733  0.229611  1
