# generated using pymatgen
data_Li3Nb2Fe3O10
_symmetry_space_group_name_H-M   'P 1'
_cell_length_a   5.26056741
_cell_length_b   5.35971509
_cell_length_c   8.06622661
_cell_angle_alpha   100.47189350
_cell_angle_beta   108.19569235
_cell_angle_gamma   101.73601864
_symmetry_Int_Tables_number   1
_chemical_formula_structural   Li3Nb2Fe3O10
_chemical_formula_sum   'Li3 Nb2 Fe3 O10'
_cell_volume   204.05238527
_cell_formula_units_Z   1
loop_
 _symmetry_equiv_pos_site_id
 _symmetry_equiv_pos_as_xyz
  1  'x, y, z'
loop_
 _atom_site_type_symbol
 _atom_site_label
 _atom_site_symmetry_multiplicity
 _atom_site_fract_x
 _atom_site_fract_y
 _atom_site_fract_z
 _atom_site_occupancy
  Li  Li0  1  0.875683  0.318233  0.416799  1
  Li  Li1  1  0.330507  0.398849  0.763183  1
  Li  Li2  1  0.671581  0.612818  0.216545  1
  Nb  Nb3  1  0.735361  0.054480  0.688239  1
  Nb  Nb4  1  0.256717  0.914330  0.311295  1
  Fe  Fe5  1  0.500748  0.002023  0.000385  1
  Fe  Fe6  1  0.904956  0.663568  0.881799  1
  Fe  Fe7  1  0.107717  0.316574  0.104411  1
  O  O8  1  0.926745  0.396273  0.675639  1
  O  O9  1  0.480700  0.212277  0.226537  1
  O  O10  1  0.341280  0.121977  0.549908  1
  O  O11  1  0.687085  0.304920  0.921709  1
  O  O12  1  0.904863  0.961972  0.158078  1
  O  O13  1  0.101950  0.041590  0.860882  1
  O  O14  1  0.310626  0.689223  0.073774  1
  O  O15  1  0.660773  0.864913  0.447385  1
  O  O16  1  0.543830  0.781619  0.787984  1
  O  O17  1  0.067706  0.570344  0.313690  1
