# generated using pymatgen
data_Fe11O12
_symmetry_space_group_name_H-M   'P 1'
_cell_length_a   6.24220610
_cell_length_b   6.83967113
_cell_length_c   6.89965110
_cell_angle_alpha   71.81697127
_cell_angle_beta   63.59809435
_cell_angle_gamma   76.28061247
_symmetry_Int_Tables_number   1
_chemical_formula_structural   Fe11O12
_chemical_formula_sum   'Fe11 O12'
_cell_volume   248.99530531
_cell_formula_units_Z   1
loop_
 _symmetry_equiv_pos_site_id
 _symmetry_equiv_pos_as_xyz
  1  'x, y, z'
loop_
 _atom_site_type_symbol
 _atom_site_label
 _atom_site_symmetry_multiplicity
 _atom_site_fract_x
 _atom_site_fract_y
 _atom_site_fract_z
 _atom_site_occupancy
  Fe  Fe0  1  0.500000  0.000000  0.000000  1
  Fe  Fe1  1  0.673012  0.674803  0.328322  1
  Fe  Fe2  1  0.082717  0.320570  0.162630  1
  Fe  Fe3  1  0.836424  0.323660  0.677376  1
  Fe  Fe4  1  0.163576  0.676340  0.322624  1
  Fe  Fe5  1  0.240957  0.000528  0.519842  1
  Fe  Fe6  1  0.591191  0.324385  0.163662  1
  Fe  Fe7  1  0.326988  0.325197  0.671678  1
  Fe  Fe8  1  0.408809  0.675615  0.836338  1
  Fe  Fe9  1  0.759043  0.999472  0.480158  1
  Fe  Fe10  1  0.917283  0.679430  0.837370  1
  O  O11  1  0.558499  0.664276  0.073974  1
  O  O12  1  0.726276  0.341825  0.404751  1
  O  O13  1  0.044075  0.638828  0.081066  1
  O  O14  1  0.132149  0.006869  0.262843  1
  O  O15  1  0.204304  0.341942  0.402390  1
  O  O16  1  0.599011  0.996297  0.265869  1
  O  O17  1  0.400989  0.003703  0.734131  1
  O  O18  1  0.795696  0.658058  0.597610  1
  O  O19  1  0.867851  0.993131  0.737157  1
  O  O20  1  0.955925  0.361172  0.918934  1
  O  O21  1  0.273724  0.658175  0.595249  1
  O  O22  1  0.441501  0.335724  0.926026  1
