# generated using pymatgen
data_Cr4OF11
_symmetry_space_group_name_H-M   'P 1'
_cell_length_a   5.32804966
_cell_length_b   5.32804966
_cell_length_c   17.18650742
_cell_angle_alpha   77.86482167
_cell_angle_beta   102.13517833
_cell_angle_gamma   122.84947734
_symmetry_Int_Tables_number   1
_chemical_formula_structural   Cr4OF11
_chemical_formula_sum   'Cr8 O2 F22'
_cell_volume   397.96121845
_cell_formula_units_Z   2
loop_
 _symmetry_equiv_pos_site_id
 _symmetry_equiv_pos_as_xyz
  1  'x, y, z'
loop_
 _atom_site_type_symbol
 _atom_site_label
 _atom_site_symmetry_multiplicity
 _atom_site_fract_x
 _atom_site_fract_y
 _atom_site_fract_z
 _atom_site_occupancy
  Cr  Cr0  1  0.391908  0.496279  0.317193  1
  Cr  Cr1  1  0.868296  0.005997  0.811862  1
  Cr  Cr2  1  0.246933  0.629030  0.937455  1
  Cr  Cr3  1  0.743223  0.138722  0.435121  1
  Cr  Cr4  1  0.138722  0.743223  0.564879  1
  Cr  Cr5  1  0.629030  0.246933  0.062545  1
  Cr  Cr6  1  0.496279  0.391908  0.682807  1
  Cr  Cr7  1  0.005997  0.868296  0.188138  1
  O  O8  1  0.688269  0.439858  0.375635  1
  O  O9  1  0.439858  0.688269  0.624365  1
  F  F10  1  0.600363  0.666332  0.221832  1
  F  F11  1  0.566384  0.080509  0.746958  1
  F  F12  1  0.080509  0.566384  0.253042  1
  F  F13  1  0.651449  0.847769  0.905749  1
  F  F14  1  0.335005  0.155367  0.595142  1
  F  F15  1  0.155367  0.335005  0.404858  1
  F  F16  1  0.406786  0.852903  0.029841  1
  F  F17  1  0.902186  0.348610  0.530459  1
  F  F18  1  0.093137  0.160138  0.719815  1
  F  F19  1  0.160138  0.093137  0.280185  1
  F  F20  1  0.180647  0.939266  0.874259  1
  F  F21  1  0.829501  0.829501  0.500000  1
  F  F22  1  0.847769  0.651449  0.094251  1
  F  F23  1  0.092684  0.410194  0.844139  1
  F  F24  1  0.591867  0.904412  0.345907  1
  F  F25  1  0.904412  0.591867  0.654093  1
  F  F26  1  0.852903  0.406786  0.970159  1
  F  F27  1  0.666332  0.600363  0.778168  1
  F  F28  1  0.348610  0.902186  0.469541  1
  F  F29  1  0.939266  0.180647  0.125741  1
  F  F30  1  0.312065  0.312065  0.000000  1
  F  F31  1  0.410194  0.092684  0.155861  1
