# generated using pymatgen
data_LiZr2(PO4)3
_symmetry_space_group_name_H-M   'P 1'
_cell_length_a   8.83654717
_cell_length_b   8.89000770
_cell_length_c   9.16071137
_cell_angle_alpha   91.16854093
_cell_angle_beta   118.78987456
_cell_angle_gamma   118.84546596
_symmetry_Int_Tables_number   1
_chemical_formula_structural   LiZr2(PO4)3
_chemical_formula_sum   'Li2 Zr4 P6 O24'
_cell_volume   521.63216329
_cell_formula_units_Z   2
loop_
 _symmetry_equiv_pos_site_id
 _symmetry_equiv_pos_as_xyz
  1  'x, y, z'
loop_
 _atom_site_type_symbol
 _atom_site_label
 _atom_site_symmetry_multiplicity
 _atom_site_fract_x
 _atom_site_fract_y
 _atom_site_fract_z
 _atom_site_occupancy
  Li  Li0  1  0.348242  0.317491  0.573127  1
  Li  Li1  1  0.651758  0.682509  0.426873  1
  Zr  Zr2  1  0.796261  0.643067  0.931460  1
  Zr  Zr3  1  0.213986  0.857745  0.576627  1
  Zr  Zr4  1  0.786014  0.142255  0.423373  1
  Zr  Zr5  1  0.203739  0.356933  0.068540  1
  P  P6  1  0.712162  0.247194  0.753864  1
  P  P7  1  0.015087  0.045992  0.258913  1
  P  P8  1  0.278866  0.520822  0.743141  1
  P  P9  1  0.721134  0.479178  0.256859  1
  P  P10  1  0.984913  0.954008  0.741087  1
  P  P11  1  0.287838  0.752806  0.246136  1
  O  O12  1  0.909317  0.309801  0.937008  1
  O  O13  1  0.528807  0.062171  0.723431  1
  O  O14  1  0.650512  0.386454  0.743695  1
  O  O15  1  0.165283  0.042745  0.439318  1
  O  O16  1  0.154694  0.232062  0.249494  1
  O  O17  1  0.490574  0.581266  0.772628  1
  O  O18  1  0.244419  0.765412  0.387997  1
  O  O19  1  0.836899  0.038363  0.257776  1
  O  O20  1  0.121157  0.333922  0.592288  1
  O  O21  1  0.282018  0.498249  0.910283  1
  O  O22  1  0.079506  0.113315  0.896976  1
  O  O23  1  0.228270  0.661784  0.689201  1
  O  O24  1  0.771730  0.338216  0.310799  1
  O  O25  1  0.920494  0.886685  0.103024  1
  O  O26  1  0.717982  0.501751  0.089717  1
  O  O27  1  0.878843  0.666078  0.407712  1
  O  O28  1  0.163101  0.961637  0.742224  1
  O  O29  1  0.755581  0.234588  0.612003  1
  O  O30  1  0.509426  0.418734  0.227372  1
  O  O31  1  0.845306  0.767938  0.750506  1
  O  O32  1  0.834717  0.957255  0.560682  1
  O  O33  1  0.349488  0.613546  0.256305  1
  O  O34  1  0.471193  0.937829  0.276569  1
  O  O35  1  0.090683  0.690199  0.062992  1
