# generated using pymatgen
data_Tm2TeO2
_symmetry_space_group_name_H-M   'P 1'
_cell_length_a   3.85511170
_cell_length_b   3.85511170
_cell_length_c   7.14287830
_cell_angle_alpha   90.00000000
_cell_angle_beta   90.00000000
_cell_angle_gamma   120.00000000
_symmetry_Int_Tables_number   1
_chemical_formula_structural   Tm2TeO2
_chemical_formula_sum   'Tm2 Te1 O2'
_cell_volume   91.93435077
_cell_formula_units_Z   1
loop_
 _symmetry_equiv_pos_site_id
 _symmetry_equiv_pos_as_xyz
  1  'x, y, z'
loop_
 _atom_site_type_symbol
 _atom_site_label
 _atom_site_symmetry_multiplicity
 _atom_site_fract_x
 _atom_site_fract_y
 _atom_site_fract_z
 _atom_site_occupancy
  Tm  Tm0  1  0.333333  0.666667  0.306261  1
  Tm  Tm1  1  0.666667  0.333333  0.693739  1
  Te  Te2  1  0.000000  0.000000  0.000000  1
  O  O3  1  0.333333  0.666667  0.619606  1
  O  O4  1  0.666667  0.333333  0.380394  1
