# generated using pymatgen
data_SbH6C(NCl2)3
_symmetry_space_group_name_H-M   'P 1'
_cell_length_a   11.97727580
_cell_length_b   8.20585986
_cell_length_c   13.34304153
_cell_angle_alpha   90.00000000
_cell_angle_beta   105.76431166
_cell_angle_gamma   90.00000000
_symmetry_Int_Tables_number   1
_chemical_formula_structural   SbH6C(NCl2)3
_chemical_formula_sum   'Sb4 H24 C4 N12 Cl24'
_cell_volume   1262.08008616
_cell_formula_units_Z   4
loop_
 _symmetry_equiv_pos_site_id
 _symmetry_equiv_pos_as_xyz
  1  'x, y, z'
loop_
 _atom_site_type_symbol
 _atom_site_label
 _atom_site_symmetry_multiplicity
 _atom_site_fract_x
 _atom_site_fract_y
 _atom_site_fract_z
 _atom_site_occupancy
  Sb  Sb0  1  0.000000  0.500000  0.000000  1
  Sb  Sb1  1  0.500000  0.000000  0.000000  1
  Sb  Sb2  1  0.000000  0.000000  0.500000  1
  Sb  Sb3  1  0.500000  0.500000  0.500000  1
  H  H4  1  0.267715  0.311274  0.853094  1
  H  H5  1  0.232285  0.811274  0.146906  1
  H  H6  1  0.732285  0.688726  0.146906  1
  H  H7  1  0.767715  0.188726  0.853094  1
  H  H8  1  0.191158  0.235736  0.732382  1
  H  H9  1  0.308842  0.735736  0.267618  1
  H  H10  1  0.808842  0.764264  0.267618  1
  H  H11  1  0.691158  0.264264  0.732382  1
  H  H12  1  0.183102  0.609619  0.598609  1
  H  H13  1  0.316898  0.109619  0.401391  1
  H  H14  1  0.816898  0.390381  0.401391  1
  H  H15  1  0.683102  0.890381  0.598609  1
  H  H16  1  0.149407  0.403809  0.585449  1
  H  H17  1  0.350593  0.903809  0.414551  1
  H  H18  1  0.850593  0.596191  0.414551  1
  H  H19  1  0.649407  0.096191  0.585449  1
  H  H20  1  0.264929  0.721525  0.767837  1
  H  H21  1  0.235071  0.221525  0.232163  1
  H  H22  1  0.735071  0.278475  0.232163  1
  H  H23  1  0.764929  0.778475  0.767837  1
  H  H24  1  0.310822  0.593277  0.872639  1
  H  H25  1  0.189178  0.093277  0.127361  1
  H  H26  1  0.689178  0.406723  0.127361  1
  H  H27  1  0.810822  0.906723  0.872639  1
  C  C28  1  0.229495  0.479574  0.734989  1
  C  C29  1  0.270505  0.979574  0.265011  1
  C  C30  1  0.770505  0.520426  0.265011  1
  C  C31  1  0.729495  0.020426  0.734989  1
  N  N32  1  0.180524  0.500135  0.632807  1
  N  N33  1  0.319476  0.000135  0.367193  1
  N  N34  1  0.819476  0.499865  0.367193  1
  N  N35  1  0.680524  0.999865  0.632807  1
  N  N36  1  0.229045  0.332087  0.776746  1
  N  N37  1  0.270955  0.832087  0.223254  1
  N  N38  1  0.770955  0.667913  0.223254  1
  N  N39  1  0.729045  0.167913  0.776746  1
  N  N40  1  0.279762  0.605145  0.794071  1
  N  N41  1  0.220238  0.105145  0.205929  1
  N  N42  1  0.720238  0.394855  0.205929  1
  N  N43  1  0.779762  0.894855  0.794071  1
  Cl  Cl44  1  0.210323  0.502323  0.035120  1
  Cl  Cl45  1  0.289677  0.002323  0.964880  1
  Cl  Cl46  1  0.789677  0.497677  0.964880  1
  Cl  Cl47  1  0.710323  0.997677  0.035120  1
  Cl  Cl48  1  0.999683  0.208412  0.972805  1
  Cl  Cl49  1  0.500317  0.708412  0.027195  1
  Cl  Cl50  1  0.000317  0.791588  0.027195  1
  Cl  Cl51  1  0.499683  0.291588  0.972805  1
  Cl  Cl52  1  0.023129  0.457267  0.182513  1
  Cl  Cl53  1  0.476871  0.957267  0.817487  1
  Cl  Cl54  1  0.976871  0.542733  0.817487  1
  Cl  Cl55  1  0.523129  0.042733  0.182513  1
  Cl  Cl56  1  0.192737  0.980639  0.620297  1
  Cl  Cl57  1  0.307263  0.480639  0.379703  1
  Cl  Cl58  1  0.807263  0.019361  0.379703  1
  Cl  Cl59  1  0.692737  0.519361  0.620297  1
  Cl  Cl60  1  0.946689  0.199888  0.610910  1
  Cl  Cl61  1  0.553311  0.699888  0.389090  1
  Cl  Cl62  1  0.053311  0.800112  0.389090  1
  Cl  Cl63  1  0.446689  0.300112  0.610910  1
  Cl  Cl64  1  0.933158  0.781482  0.589331  1
  Cl  Cl65  1  0.566842  0.281482  0.410669  1
  Cl  Cl66  1  0.066842  0.218518  0.410669  1
  Cl  Cl67  1  0.433158  0.718518  0.589331  1
