# generated using pymatgen
data_Li3Cr(PO4)2
_symmetry_space_group_name_H-M   'P 1'
_cell_length_a   8.68657571
_cell_length_b   8.72926227
_cell_length_c   9.11892102
_cell_angle_alpha   87.43755929
_cell_angle_beta   87.73372983
_cell_angle_gamma   67.06530416
_symmetry_Int_Tables_number   1
_chemical_formula_structural   Li3Cr(PO4)2
_chemical_formula_sum   'Li12 Cr4 P8 O32'
_cell_volume   635.98287186
_cell_formula_units_Z   4
loop_
 _symmetry_equiv_pos_site_id
 _symmetry_equiv_pos_as_xyz
  1  'x, y, z'
loop_
 _atom_site_type_symbol
 _atom_site_label
 _atom_site_symmetry_multiplicity
 _atom_site_fract_x
 _atom_site_fract_y
 _atom_site_fract_z
 _atom_site_occupancy
  Li  Li0  1  0.134422  0.359058  0.206663  1
  Li  Li1  1  0.375324  0.130004  0.700886  1
  Li  Li2  1  0.844942  0.040677  0.550335  1
  Li  Li3  1  0.416377  0.567342  0.241646  1
  Li  Li4  1  0.894591  0.084595  0.236464  1
  Li  Li5  1  0.564611  0.435826  0.749328  1
  Li  Li6  1  0.109810  0.894106  0.770227  1
  Li  Li7  1  0.157059  0.966778  0.456708  1
  Li  Li8  1  0.963074  0.147152  0.963598  1
  Li  Li9  1  0.603469  0.871215  0.325938  1
  Li  Li10  1  0.863179  0.622472  0.776268  1
  Li  Li11  1  0.897242  0.733718  0.100903  1
  Cr  Cr12  1  0.513657  0.230708  0.087952  1
  Cr  Cr13  1  0.233027  0.509856  0.588508  1
  Cr  Cr14  1  0.769096  0.491846  0.407666  1
  Cr  Cr15  1  0.489342  0.769213  0.911834  1
  P  P16  1  0.287415  0.013564  0.074913  1
  P  P17  1  0.014564  0.289739  0.571491  1
  P  P18  1  0.571466  0.240988  0.430065  1
  P  P19  1  0.237893  0.572547  0.928655  1
  P  P20  1  0.759616  0.432466  0.071087  1
  P  P21  1  0.431185  0.763121  0.570448  1
  P  P22  1  0.990773  0.714946  0.422225  1
  P  P23  1  0.715733  0.989864  0.918001  1
  O  O24  1  0.112483  0.030862  0.126475  1
  O  O25  1  0.021893  0.115000  0.614951  1
  O  O26  1  0.324236  0.159087  0.135739  1
  O  O27  1  0.164806  0.315080  0.634846  1
  O  O28  1  0.628168  0.052948  0.448350  1
  O  O29  1  0.048889  0.625765  0.940815  1
  O  O30  1  0.707681  0.983192  0.092801  1
  O  O31  1  0.985567  0.681326  0.592570  1
  O  O32  1  0.160722  0.575619  0.373088  1
  O  O33  1  0.562532  0.153529  0.877924  1
  O  O34  1  0.334744  0.465445  0.062792  1
  O  O35  1  0.465554  0.336275  0.563245  1
  O  O36  1  0.472953  0.316694  0.289952  1
  O  O37  1  0.316043  0.469478  0.791194  1
  O  O38  1  0.736354  0.273648  0.424083  1
  O  O39  1  0.274743  0.733218  0.916723  1
  O  O40  1  0.735138  0.263656  0.075374  1
  O  O41  1  0.268258  0.727063  0.577738  1
  O  O42  1  0.674820  0.530876  0.208569  1
  O  O43  1  0.533270  0.686871  0.708491  1
  O  O44  1  0.540624  0.673736  0.436351  1
  O  O45  1  0.662944  0.534950  0.936140  1
  O  O46  1  0.430033  0.844341  0.123646  1
  O  O47  1  0.846065  0.432421  0.621341  1
  O  O48  1  0.011750  0.320208  0.399331  1
  O  O49  1  0.309420  0.010669  0.901714  1
  O  O50  1  0.946653  0.387638  0.060874  1
  O  O51  1  0.372354  0.951145  0.550715  1
  O  O52  1  0.845891  0.688990  0.343719  1
  O  O53  1  0.690591  0.834176  0.867019  1
  O  O54  1  0.981363  0.892122  0.386441  1
  O  O55  1  0.879770  0.994795  0.856409  1
