# generated using pymatgen
data_Y2(SeO4)3
_symmetry_space_group_name_H-M   'P 1'
_cell_length_a   6.83575518
_cell_length_b   6.83575518
_cell_length_c   11.33435215
_cell_angle_alpha   80.70084721
_cell_angle_beta   99.29915279
_cell_angle_gamma   62.82533786
_symmetry_Int_Tables_number   1
_chemical_formula_structural   Y2(SeO4)3
_chemical_formula_sum   'Y4 Se6 O24'
_cell_volume   447.94902510
_cell_formula_units_Z   2
loop_
 _symmetry_equiv_pos_site_id
 _symmetry_equiv_pos_as_xyz
  1  'x, y, z'
loop_
 _atom_site_type_symbol
 _atom_site_label
 _atom_site_symmetry_multiplicity
 _atom_site_fract_x
 _atom_site_fract_y
 _atom_site_fract_z
 _atom_site_occupancy
  Y  Y0  1  0.700583  0.049683  0.405915  1
  Y  Y1  1  0.950317  0.299417  0.905915  1
  Y  Y2  1  0.049683  0.700583  0.094085  1
  Y  Y3  1  0.299417  0.950317  0.594085  1
  Se  Se4  1  0.548384  0.213199  0.077858  1
  Se  Se5  1  0.786801  0.451616  0.577858  1
  Se  Se6  1  0.132098  0.132098  0.250000  1
  Se  Se7  1  0.867902  0.867902  0.750000  1
  Se  Se8  1  0.213199  0.548384  0.422142  1
  Se  Se9  1  0.451616  0.786801  0.922142  1
  O  O10  1  0.623408  0.268172  0.211340  1
  O  O11  1  0.415128  0.999419  0.288707  1
  O  O12  1  0.045252  0.058593  0.123199  1
  O  O13  1  0.691030  0.376996  0.459116  1
  O  O14  1  0.256960  0.344348  0.043615  1
  O  O15  1  0.928530  0.681125  0.391186  1
  O  O16  1  0.731828  0.376592  0.711340  1
  O  O17  1  0.681125  0.928530  0.108814  1
  O  O18  1  0.344348  0.256960  0.456385  1
  O  O19  1  0.376996  0.691030  0.040884  1
  O  O20  1  0.058593  0.045252  0.376801  1
  O  O21  1  0.000581  0.584872  0.788707  1
  O  O22  1  0.999419  0.415128  0.211293  1
  O  O23  1  0.941407  0.954748  0.623199  1
  O  O24  1  0.623004  0.308970  0.959116  1
  O  O25  1  0.655652  0.743040  0.543615  1
  O  O26  1  0.318875  0.071470  0.891186  1
  O  O27  1  0.268172  0.623408  0.288660  1
  O  O28  1  0.071470  0.318875  0.608814  1
  O  O29  1  0.743040  0.655652  0.956385  1
  O  O30  1  0.308970  0.623004  0.540884  1
  O  O31  1  0.954748  0.941407  0.876801  1
  O  O32  1  0.584872  0.000581  0.711293  1
  O  O33  1  0.376592  0.731828  0.788660  1
