# generated using pymatgen
data_Li3MnSi2O7
_symmetry_space_group_name_H-M   'P 1'
_cell_length_a   4.66534433
_cell_length_b   5.35343697
_cell_length_c   6.75930114
_cell_angle_alpha   99.34430083
_cell_angle_beta   90.85181337
_cell_angle_gamma   115.62987385
_symmetry_Int_Tables_number   1
_chemical_formula_structural   Li3MnSi2O7
_chemical_formula_sum   'Li3 Mn1 Si2 O7'
_cell_volume   149.49891177
_cell_formula_units_Z   1
loop_
 _symmetry_equiv_pos_site_id
 _symmetry_equiv_pos_as_xyz
  1  'x, y, z'
loop_
 _atom_site_type_symbol
 _atom_site_label
 _atom_site_symmetry_multiplicity
 _atom_site_fract_x
 _atom_site_fract_y
 _atom_site_fract_z
 _atom_site_occupancy
  Li  Li0  1  0.713883  0.422572  0.150919  1
  Li  Li1  1  0.837437  0.704485  0.551692  1
  Li  Li2  1  0.284351  0.569679  0.832160  1
  Mn  Mn3  1  0.000615  0.007086  0.011777  1
  Si  Si4  1  0.584593  0.155144  0.712453  1
  Si  Si5  1  0.438362  0.841780  0.289328  1
  O  O6  1  0.750106  0.087814  0.208150  1
  O  O7  1  0.882835  0.440639  0.689639  1
  O  O8  1  0.371773  0.231333  0.886716  1
  O  O9  1  0.688013  0.919573  0.784968  1
  O  O10  1  0.513826  0.587727  0.324224  1
  O  O11  1  0.340159  0.982128  0.502663  1
  O  O12  1  0.134973  0.749934  0.117251  1
