# generated using pymatgen
data_Li3Mn2F9
_symmetry_space_group_name_H-M   'P 1'
_cell_length_a   5.48373626
_cell_length_b   5.65954801
_cell_length_c   14.15021344
_cell_angle_alpha   89.15546064
_cell_angle_beta   93.87639745
_cell_angle_gamma   118.61212896
_symmetry_Int_Tables_number   1
_chemical_formula_structural   Li3Mn2F9
_chemical_formula_sum   'Li6 Mn4 F18'
_cell_volume   384.56920162
_cell_formula_units_Z   2
loop_
 _symmetry_equiv_pos_site_id
 _symmetry_equiv_pos_as_xyz
  1  'x, y, z'
loop_
 _atom_site_type_symbol
 _atom_site_label
 _atom_site_symmetry_multiplicity
 _atom_site_fract_x
 _atom_site_fract_y
 _atom_site_fract_z
 _atom_site_occupancy
  Li  Li0  1  0.098119  0.583419  0.242902  1
  Li  Li1  1  0.002808  0.717492  0.451345  1
  Li  Li2  1  0.228544  0.710123  0.044545  1
  Li  Li3  1  0.997203  0.414836  0.751343  1
  Li  Li4  1  0.991568  0.282637  0.547453  1
  Li  Li5  1  0.776857  0.292273  0.956100  1
  Mn  Mn6  1  0.119341  0.971192  0.849341  1
  Mn  Mn7  1  0.342388  0.978056  0.653192  1
  Mn  Mn8  1  0.652991  0.034543  0.346148  1
  Mn  Mn9  1  0.869008  0.015051  0.151117  1
  F  F10  1  0.890112  0.755315  0.749172  1
  F  F11  1  0.240980  0.801283  0.353676  1
  F  F12  1  0.614317  0.841525  0.050062  1
  F  F13  1  0.016562  0.328325  0.075688  1
  F  F14  1  0.336732  0.224444  0.749492  1
  F  F15  1  0.808470  0.329096  0.434430  1
  F  F16  1  0.628907  0.247136  0.249762  1
  F  F17  1  0.922775  0.189831  0.858580  1
  F  F18  1  0.250081  0.153098  0.557834  1
  F  F19  1  0.743528  0.844591  0.436750  1
  F  F20  1  0.080353  0.808860  0.143255  1
  F  F21  1  0.355770  0.769293  0.755610  1
  F  F22  1  0.608655  0.773124  0.240739  1
  F  F23  1  0.999781  0.672350  0.931623  1
  F  F24  1  0.195723  0.675893  0.569454  1
  F  F25  1  0.759746  0.197378  0.647629  1
  F  F26  1  0.392833  0.169904  0.943515  1
  F  F27  1  0.075970  0.219131  0.259242  1
