# generated using pymatgen
data_Y2W2O9
_symmetry_space_group_name_H-M   'P 1'
_cell_length_a   5.37801144
_cell_length_b   5.49375291
_cell_length_c   23.76542050
_cell_angle_alpha   90.00000000
_cell_angle_beta   90.00000000
_cell_angle_gamma   90.00000000
_symmetry_Int_Tables_number   1
_chemical_formula_structural   Y2W2O9
_chemical_formula_sum   'Y8 W8 O36'
_cell_volume   702.16042332
_cell_formula_units_Z   4
loop_
 _symmetry_equiv_pos_site_id
 _symmetry_equiv_pos_as_xyz
  1  'x, y, z'
loop_
 _atom_site_type_symbol
 _atom_site_label
 _atom_site_symmetry_multiplicity
 _atom_site_fract_x
 _atom_site_fract_y
 _atom_site_fract_z
 _atom_site_occupancy
  Y  Y0  1  0.276555  0.887623  0.297403  1
  Y  Y1  1  0.776555  0.887623  0.202597  1
  Y  Y2  1  0.276555  0.612377  0.702597  1
  Y  Y3  1  0.776555  0.612377  0.797403  1
  Y  Y4  1  0.723445  0.387623  0.297403  1
  Y  Y5  1  0.223445  0.387623  0.202597  1
  Y  Y6  1  0.723445  0.112377  0.702597  1
  Y  Y7  1  0.223445  0.112377  0.797403  1
  W  W8  1  0.751308  0.821528  0.421650  1
  W  W9  1  0.251308  0.821528  0.078350  1
  W  W10  1  0.751308  0.678472  0.578350  1
  W  W11  1  0.251308  0.678472  0.921650  1
  W  W12  1  0.248692  0.321528  0.421650  1
  W  W13  1  0.748692  0.321528  0.078350  1
  W  W14  1  0.248692  0.178472  0.578350  1
  W  W15  1  0.748692  0.178472  0.921650  1
  O  O16  1  0.540128  0.987005  0.097679  1
  O  O17  1  0.459872  0.012995  0.902321  1
  O  O18  1  0.005723  0.872724  0.740503  1
  O  O19  1  0.449931  0.929090  0.560560  1
  O  O20  1  0.505723  0.872724  0.759497  1
  O  O21  1  0.949931  0.929090  0.939440  1
  O  O22  1  0.634482  0.776804  0.348276  1
  O  O23  1  0.134482  0.776804  0.151724  1
  O  O24  1  0.338814  0.750000  0.000000  1
  O  O25  1  0.838814  0.750000  0.500000  1
  O  O26  1  0.634482  0.723196  0.651724  1
  O  O27  1  0.134482  0.723196  0.848276  1
  O  O28  1  0.449931  0.570910  0.439440  1
  O  O29  1  0.005723  0.627276  0.259497  1
  O  O30  1  0.949931  0.570910  0.060560  1
  O  O31  1  0.505723  0.627276  0.240503  1
  O  O32  1  0.959872  0.487005  0.402321  1
  O  O33  1  0.040128  0.512995  0.597679  1
  O  O34  1  0.459872  0.487005  0.097679  1
  O  O35  1  0.540128  0.512995  0.902321  1
  O  O36  1  0.994277  0.372724  0.740503  1
  O  O37  1  0.550069  0.429090  0.560560  1
  O  O38  1  0.494277  0.372724  0.759497  1
  O  O39  1  0.050069  0.429090  0.939440  1
  O  O40  1  0.365518  0.276804  0.348276  1
  O  O41  1  0.865518  0.276804  0.151724  1
  O  O42  1  0.661186  0.250000  0.000000  1
  O  O43  1  0.161186  0.250000  0.500000  1
  O  O44  1  0.365518  0.223196  0.651724  1
  O  O45  1  0.865518  0.223196  0.848276  1
  O  O46  1  0.550069  0.070910  0.439440  1
  O  O47  1  0.994277  0.127276  0.259497  1
  O  O48  1  0.050069  0.070910  0.060560  1
  O  O49  1  0.494277  0.127276  0.240503  1
  O  O50  1  0.040128  0.987005  0.402321  1
  O  O51  1  0.959872  0.012995  0.597679  1
