# generated using pymatgen
data_Ba2LaCl7
_symmetry_space_group_name_H-M   'P 1'
_cell_length_a   11.69939917
_cell_length_b   11.69939917
_cell_length_c   11.56658650
_cell_angle_alpha   66.84275090
_cell_angle_beta   113.15724910
_cell_angle_gamma   111.30076605
_symmetry_Int_Tables_number   1
_chemical_formula_structural   Ba2LaCl7
_chemical_formula_sum   'Ba8 La4 Cl28'
_cell_volume   1296.95481861
_cell_formula_units_Z   4
loop_
 _symmetry_equiv_pos_site_id
 _symmetry_equiv_pos_as_xyz
  1  'x, y, z'
loop_
 _atom_site_type_symbol
 _atom_site_label
 _atom_site_symmetry_multiplicity
 _atom_site_fract_x
 _atom_site_fract_y
 _atom_site_fract_z
 _atom_site_occupancy
  Ba  Ba0  1  0.330857  0.568621  0.536102  1
  Ba  Ba1  1  0.101993  0.260529  0.955745  1
  Ba  Ba2  1  0.568621  0.330857  0.963898  1
  Ba  Ba3  1  0.739471  0.898007  0.455745  1
  Ba  Ba4  1  0.260529  0.101993  0.544255  1
  Ba  Ba5  1  0.431379  0.669143  0.036102  1
  Ba  Ba6  1  0.898007  0.739471  0.044255  1
  Ba  Ba7  1  0.669143  0.431379  0.463898  1
  La  La8  1  0.013786  0.662646  0.678038  1
  La  La9  1  0.662646  0.013786  0.821962  1
  La  La10  1  0.337354  0.986214  0.178038  1
  La  La11  1  0.986214  0.337354  0.321962  1
  Cl  Cl12  1  0.132456  0.546036  0.939715  1
  Cl  Cl13  1  0.776258  0.623870  0.710007  1
  Cl  Cl14  1  0.623870  0.776258  0.789993  1
  Cl  Cl15  1  0.237751  0.765345  0.609877  1
  Cl  Cl16  1  0.413401  0.948926  0.840448  1
  Cl  Cl17  1  0.283518  0.140852  0.918819  1
  Cl  Cl18  1  0.032062  0.911224  0.667839  1
  Cl  Cl19  1  0.051074  0.586599  0.340448  1
  Cl  Cl20  1  0.523105  0.646930  0.353653  1
  Cl  Cl21  1  0.859148  0.716482  0.418819  1
  Cl  Cl22  1  0.911224  0.032062  0.832161  1
  Cl  Cl23  1  0.646930  0.523105  0.146347  1
  Cl  Cl24  1  0.765345  0.237751  0.890123  1
  Cl  Cl25  1  0.453964  0.867544  0.439715  1
  Cl  Cl26  1  0.546036  0.132456  0.560285  1
  Cl  Cl27  1  0.234655  0.762249  0.109877  1
  Cl  Cl28  1  0.353070  0.476895  0.853653  1
  Cl  Cl29  1  0.088776  0.967938  0.167839  1
  Cl  Cl30  1  0.140852  0.283518  0.581181  1
  Cl  Cl31  1  0.476895  0.353070  0.646347  1
  Cl  Cl32  1  0.948926  0.413401  0.659552  1
  Cl  Cl33  1  0.967938  0.088776  0.332161  1
  Cl  Cl34  1  0.716482  0.859148  0.081181  1
  Cl  Cl35  1  0.586599  0.051074  0.159552  1
  Cl  Cl36  1  0.762249  0.234655  0.390123  1
  Cl  Cl37  1  0.376130  0.223742  0.210007  1
  Cl  Cl38  1  0.223742  0.376130  0.289993  1
  Cl  Cl39  1  0.867544  0.453964  0.060285  1
