# generated using pymatgen
data_LiCrBO3
_symmetry_space_group_name_H-M   'P 1'
_cell_length_a   3.17572558
_cell_length_b   14.25605996
_cell_length_c   14.26342510
_cell_angle_alpha   60.03972356
_cell_angle_beta   89.10577512
_cell_angle_gamma   89.11970251
_symmetry_Int_Tables_number   1
_chemical_formula_structural   LiCrBO3
_chemical_formula_sum   'Li9 Cr9 B9 O27'
_cell_volume   559.37256443
_cell_formula_units_Z   9
loop_
 _symmetry_equiv_pos_site_id
 _symmetry_equiv_pos_as_xyz
  1  'x, y, z'
loop_
 _atom_site_type_symbol
 _atom_site_label
 _atom_site_symmetry_multiplicity
 _atom_site_fract_x
 _atom_site_fract_y
 _atom_site_fract_z
 _atom_site_occupancy
  Li  Li0  1  0.055891  0.826157  0.744860  1
  Li  Li1  1  0.004748  0.428317  0.827582  1
  Li  Li2  1  0.012809  0.097398  0.773968  1
  Li  Li3  1  0.948597  0.745118  0.429106  1
  Li  Li4  1  0.970809  0.481690  0.413002  1
  Li  Li5  1  0.024185  0.105726  0.481991  1
  Li  Li6  1  0.983061  0.773720  0.129346  1
  Li  Li7  1  0.992279  0.412161  0.106660  1
  Li  Li8  1  0.010222  0.128638  0.097753  1
  Cr  Cr9  1  0.524161  0.868325  0.911974  1
  Cr  Cr10  1  0.490653  0.570926  0.880860  1
  Cr  Cr11  1  0.556750  0.879973  0.548568  1
  Cr  Cr12  1  0.520757  0.219628  0.869085  1
  Cr  Cr13  1  0.450091  0.549273  0.571756  1
  Cr  Cr14  1  0.491811  0.263935  0.547282  1
  Cr  Cr15  1  0.475094  0.911754  0.220171  1
  Cr  Cr16  1  0.480867  0.546698  0.189766  1
  Cr  Cr17  1  0.516550  0.188921  0.264490  1
  B  B18  1  0.999476  0.665947  0.991335  1
  B  B19  1  0.999283  0.666782  0.666982  1
  B  B20  1  0.987755  0.343209  0.666783  1
  B  B21  1  0.014380  0.990837  0.343152  1
  B  B22  1  0.530026  0.015177  0.669113  1
  B  B23  1  0.466882  0.668937  0.316353  1
  B  B24  1  0.995742  0.333107  0.333931  1
  B  B25  1  0.006868  0.999807  0.000458  1
  B  B26  1  0.503584  0.315359  0.016224  1
  O  O27  1  0.014794  0.914375  0.979694  1
  O  O28  1  0.983225  0.576144  0.976526  1
  O  O29  1  0.036462  0.770217  0.903216  1
  O  O30  1  0.555600  0.910237  0.686981  1
  O  O31  1  0.500389  0.402370  0.911266  1
  O  O32  1  0.998592  0.589303  0.775627  1
  O  O33  1  0.063830  0.774166  0.635472  1
  O  O34  1  0.025721  0.105843  0.915211  1
  O  O35  1  0.054780  0.975590  0.447440  1
  O  O36  1  0.022419  0.326493  0.771244  1
  O  O37  1  0.935554  0.636757  0.590046  1
  O  O38  1  0.961561  0.903180  0.327028  1
  O  O39  1  0.983272  0.254523  0.651111  1
  O  O40  1  0.957621  0.447916  0.577599  1
  O  O41  1  0.517498  0.030911  0.757730  1
  O  O42  1  0.453493  0.687141  0.403225  1
  O  O43  1  0.469856  0.562835  0.336042  1
  O  O44  1  0.517214  0.101526  0.563213  1
  O  O45  1  0.979465  0.979198  0.106402  1
  O  O46  1  0.477467  0.757391  0.212058  1
  O  O47  1  0.996662  0.327148  0.433964  1
  O  O48  1  0.006462  0.239052  0.327815  1
  O  O49  1  0.984386  0.433251  0.239956  1
  O  O50  1  0.978634  0.650715  0.095420  1
  O  O51  1  0.027079  0.094950  0.254362  1
  O  O52  1  0.499306  0.335050  0.102588  1
  O  O53  1  0.511140  0.211112  0.031742  1
