# generated using pymatgen
data_TiB
_symmetry_space_group_name_H-M   'P 1'
_cell_length_a   3.05165046
_cell_length_b   4.56017128
_cell_length_c   6.12059826
_cell_angle_alpha   90.00000000
_cell_angle_beta   90.00000000
_cell_angle_gamma   90.00000000
_symmetry_Int_Tables_number   1
_chemical_formula_structural   TiB
_chemical_formula_sum   'Ti4 B4'
_cell_volume   85.17454398
_cell_formula_units_Z   4
loop_
 _symmetry_equiv_pos_site_id
 _symmetry_equiv_pos_as_xyz
  1  'x, y, z'
loop_
 _atom_site_type_symbol
 _atom_site_label
 _atom_site_symmetry_multiplicity
 _atom_site_fract_x
 _atom_site_fract_y
 _atom_site_fract_z
 _atom_site_occupancy
  Ti  Ti0  1  0.250000  0.378183  0.677596  1
  Ti  Ti1  1  0.250000  0.121817  0.177596  1
  Ti  Ti2  1  0.750000  0.621817  0.322404  1
  Ti  Ti3  1  0.750000  0.878183  0.822404  1
  B  B4  1  0.250000  0.900710  0.529867  1
  B  B5  1  0.250000  0.599290  0.029867  1
  B  B6  1  0.750000  0.099290  0.470133  1
  B  B7  1  0.750000  0.400710  0.970133  1
