# generated using pymatgen
data_Na3FeO4
_symmetry_space_group_name_H-M   'P 1'
_cell_length_a   8.43448484
_cell_length_b   8.43448484
_cell_length_c   5.73575312
_cell_angle_alpha   77.16610741
_cell_angle_beta   102.83389259
_cell_angle_gamma   81.13065472
_symmetry_Int_Tables_number   1
_chemical_formula_structural   Na3FeO4
_chemical_formula_sum   'Na12 Fe4 O16'
_cell_volume   378.91811006
_cell_formula_units_Z   4
loop_
 _symmetry_equiv_pos_site_id
 _symmetry_equiv_pos_as_xyz
  1  'x, y, z'
loop_
 _atom_site_type_symbol
 _atom_site_label
 _atom_site_symmetry_multiplicity
 _atom_site_fract_x
 _atom_site_fract_y
 _atom_site_fract_z
 _atom_site_occupancy
  Na  Na0  1  0.119498  0.635716  0.515527  1
  Na  Na1  1  0.364284  0.880502  0.515527  1
  Na  Na2  1  0.500000  0.000000  0.000000  1
  Na  Na3  1  0.000000  0.000000  0.500000  1
  Na  Na4  1  0.743303  0.743303  0.500000  1
  Na  Na5  1  0.500000  0.500000  0.500000  1
  Na  Na6  1  0.256697  0.256697  0.500000  1
  Na  Na7  1  0.624429  0.624429  0.000000  1
  Na  Na8  1  0.375571  0.375571  0.000000  1
  Na  Na9  1  0.880502  0.364284  0.484473  1
  Na  Na10  1  0.635716  0.119498  0.484473  1
  Na  Na11  1  0.000000  0.500000  0.000000  1
  Fe  Fe12  1  0.249605  0.750395  0.029382  1
  Fe  Fe13  1  0.875983  0.875983  0.000000  1
  Fe  Fe14  1  0.124017  0.124017  0.000000  1
  Fe  Fe15  1  0.750395  0.249605  0.970618  1
  O  O16  1  0.228719  0.988230  0.822488  1
  O  O17  1  0.011770  0.771281  0.822488  1
  O  O18  1  0.109305  0.890695  0.191333  1
  O  O19  1  0.335313  0.664687  0.808063  1
  O  O20  1  0.124801  0.317760  0.781327  1
  O  O21  1  0.682240  0.875199  0.781327  1
  O  O22  1  0.245748  0.546961  0.228404  1
  O  O23  1  0.453039  0.754252  0.228404  1
  O  O24  1  0.754252  0.453039  0.771596  1
  O  O25  1  0.546961  0.245748  0.771596  1
  O  O26  1  0.875199  0.682240  0.218673  1
  O  O27  1  0.317760  0.124801  0.218673  1
  O  O28  1  0.664687  0.335313  0.191937  1
  O  O29  1  0.890695  0.109305  0.808667  1
  O  O30  1  0.988230  0.228719  0.177512  1
  O  O31  1  0.771281  0.011770  0.177512  1
