# generated using pymatgen
data_Ba2Tl(HO)7
_symmetry_space_group_name_H-M   'P 1'
_cell_length_a   6.87323085
_cell_length_b   6.87323085
_cell_length_c   10.65964905
_cell_angle_alpha   82.38881228
_cell_angle_beta   97.61118772
_cell_angle_gamma   122.43588979
_symmetry_Int_Tables_number   1
_chemical_formula_structural   Ba2Tl(HO)7
_chemical_formula_sum   'Ba4 Tl2 H14 O14'
_cell_volume   420.13284545
_cell_formula_units_Z   2
loop_
 _symmetry_equiv_pos_site_id
 _symmetry_equiv_pos_as_xyz
  1  'x, y, z'
loop_
 _atom_site_type_symbol
 _atom_site_label
 _atom_site_symmetry_multiplicity
 _atom_site_fract_x
 _atom_site_fract_y
 _atom_site_fract_z
 _atom_site_occupancy
  Ba  Ba0  1  0.807583  0.568572  0.628907  1
  Ba  Ba1  1  0.431428  0.192417  0.128907  1
  Ba  Ba2  1  0.568572  0.807583  0.871093  1
  Ba  Ba3  1  0.192417  0.431428  0.371093  1
  Tl  Tl4  1  0.500000  1.000000  0.500000  1
  Tl  Tl5  1  0.000000  0.500000  0.000000  1
  H  H6  1  0.121036  0.907598  0.881860  1
  H  H7  1  0.570765  0.314372  0.851748  1
  H  H8  1  0.318011  0.031923  0.704802  1
  H  H9  1  0.092402  0.878964  0.381860  1
  H  H10  1  0.685628  0.429235  0.351748  1
  H  H11  1  0.968077  0.681989  0.204802  1
  H  H12  1  0.031923  0.318011  0.795198  1
  H  H13  1  0.314372  0.570765  0.648252  1
  H  H14  1  0.907598  0.121036  0.618140  1
  H  H15  1  0.681989  0.968077  0.295198  1
  H  H16  1  0.429235  0.685628  0.148252  1
  H  H17  1  0.878964  0.092402  0.118140  1
  H  H18  1  0.129891  0.129891  0.750000  1
  H  H19  1  0.870109  0.870109  0.250000  1
  O  O20  1  0.647353  0.455341  0.897768  1
  O  O21  1  0.212192  0.877039  0.954570  1
  O  O22  1  0.544659  0.352647  0.397768  1
  O  O23  1  0.483438  0.102077  0.697364  1
  O  O24  1  0.122961  0.787808  0.454570  1
  O  O25  1  0.897923  0.516562  0.197364  1
  O  O26  1  0.102077  0.483438  0.802636  1
  O  O27  1  0.877039  0.212192  0.545430  1
  O  O28  1  0.516562  0.897923  0.302636  1
  O  O29  1  0.455341  0.647353  0.602232  1
  O  O30  1  0.787808  0.122961  0.045430  1
  O  O31  1  0.352647  0.544659  0.102232  1
  O  O32  1  0.983156  0.983156  0.750000  1
  O  O33  1  0.016844  0.016844  0.250000  1
