# generated using pymatgen
data_Li2Ni(CO3)2
_symmetry_space_group_name_H-M   'P 1'
_cell_length_a   5.39692723
_cell_length_b   6.16095262
_cell_length_c   8.38904406
_cell_angle_alpha   82.00735062
_cell_angle_beta   74.59313027
_cell_angle_gamma   64.50021828
_symmetry_Int_Tables_number   1
_chemical_formula_structural   Li2Ni(CO3)2
_chemical_formula_sum   'Li4 Ni2 C4 O12'
_cell_volume   242.62020404
_cell_formula_units_Z   2
loop_
 _symmetry_equiv_pos_site_id
 _symmetry_equiv_pos_as_xyz
  1  'x, y, z'
loop_
 _atom_site_type_symbol
 _atom_site_label
 _atom_site_symmetry_multiplicity
 _atom_site_fract_x
 _atom_site_fract_y
 _atom_site_fract_z
 _atom_site_occupancy
  Li  Li0  1  0.961317  0.460783  0.827432  1
  Li  Li1  1  0.537226  0.956843  0.663339  1
  Li  Li2  1  0.137788  0.013383  0.346456  1
  Li  Li3  1  0.319653  0.402910  0.147278  1
  Ni  Ni4  1  0.632214  0.500348  0.497490  1
  Ni  Ni5  1  0.971931  0.985092  0.994219  1
  C  C6  1  0.373992  0.588327  0.794458  1
  C  C7  1  0.901854  0.088511  0.709579  1
  C  C8  1  0.662088  0.919754  0.291963  1
  C  C9  1  0.762625  0.398308  0.200717  1
  O  O10  1  0.227415  0.627289  0.945148  1
  O  O11  1  0.733772  0.023871  0.825480  1
  O  O12  1  0.617043  0.600618  0.744032  1
  O  O13  1  0.112672  0.101615  0.750487  1
  O  O14  1  0.279158  0.537455  0.685014  1
  O  O15  1  0.858404  0.137062  0.562573  1
  O  O16  1  0.577165  0.851027  0.443186  1
  O  O17  1  0.920171  0.901856  0.239573  1
  O  O18  1  0.957433  0.395831  0.263607  1
  O  O19  1  0.514735  0.453991  0.297574  1
  O  O20  1  0.492751  0.004101  0.195566  1
  O  O21  1  0.807729  0.343733  0.048876  1
