# generated using pymatgen
data_Li5V2Cr2O8
_symmetry_space_group_name_H-M   'P 1'
_cell_length_a   6.06987865
_cell_length_b   6.06987865
_cell_length_c   6.06784089
_cell_angle_alpha   60.19902479
_cell_angle_beta   119.80097521
_cell_angle_gamma   120.48894837
_symmetry_Int_Tables_number   1
_chemical_formula_structural   Li5V2Cr2O8
_chemical_formula_sum   'Li5 V2 Cr2 O8'
_cell_volume   157.95708316
_cell_formula_units_Z   1
loop_
 _symmetry_equiv_pos_site_id
 _symmetry_equiv_pos_as_xyz
  1  'x, y, z'
loop_
 _atom_site_type_symbol
 _atom_site_label
 _atom_site_symmetry_multiplicity
 _atom_site_fract_x
 _atom_site_fract_y
 _atom_site_fract_z
 _atom_site_occupancy
  Li  Li0  1  0.000000  0.000000  0.000000  1
  Li  Li1  1  0.000000  0.500000  0.000000  1
  Li  Li2  1  0.500000  0.000000  0.000000  1
  Li  Li3  1  0.933736  0.066264  0.289969  1
  Li  Li4  1  0.066264  0.933736  0.710031  1
  V  V5  1  0.500000  0.500000  0.000000  1
  V  V6  1  0.500000  0.500000  0.500000  1
  Cr  Cr7  1  0.500000  0.000000  0.500000  1
  Cr  Cr8  1  0.000000  0.500000  0.500000  1
  O  O9  1  0.253119  0.746881  0.737362  1
  O  O10  1  0.250369  0.749631  0.269039  1
  O  O11  1  0.751877  0.727946  0.249496  1
  O  O12  1  0.272054  0.248123  0.249496  1
  O  O13  1  0.727946  0.751877  0.750504  1
  O  O14  1  0.248123  0.272054  0.750504  1
  O  O15  1  0.749631  0.250369  0.730961  1
  O  O16  1  0.746881  0.253119  0.262638  1
