# generated using pymatgen
data_Li7VO5F
_symmetry_space_group_name_H-M   'P 1'
_cell_length_a   5.52278527
_cell_length_b   5.55595385
_cell_length_c   5.77237676
_cell_angle_alpha   61.53265492
_cell_angle_beta   62.92293386
_cell_angle_gamma   61.22032366
_symmetry_Int_Tables_number   1
_chemical_formula_structural   Li7VO5F
_chemical_formula_sum   'Li7 V1 O5 F1'
_cell_volume   130.48584070
_cell_formula_units_Z   1
loop_
 _symmetry_equiv_pos_site_id
 _symmetry_equiv_pos_as_xyz
  1  'x, y, z'
loop_
 _atom_site_type_symbol
 _atom_site_label
 _atom_site_symmetry_multiplicity
 _atom_site_fract_x
 _atom_site_fract_y
 _atom_site_fract_z
 _atom_site_occupancy
  Li  Li0  1  0.882508  0.274885  0.332035  1
  Li  Li1  1  0.251297  0.510673  0.354517  1
  Li  Li2  1  0.506507  0.060871  0.679773  1
  Li  Li3  1  0.525471  0.872036  0.315572  1
  Li  Li4  1  0.772247  0.494356  0.666619  1
  Li  Li5  1  0.068470  0.764245  0.653957  1
  Li  Li6  1  0.315514  0.357894  0.963923  1
  V  V7  1  0.037147  0.974001  0.979695  1
  O  O8  1  0.929370  0.621821  0.239687  1
  O  O9  1  0.773706  0.101776  0.781251  1
  O  O10  1  0.368359  0.759650  0.758685  1
  O  O11  1  0.188021  0.934274  0.240903  1
  O  O12  1  0.124271  0.354479  0.752784  1
  F  F13  1  0.600792  0.213811  0.269720  1
