# generated using pymatgen
data_LiVSiCO7
_symmetry_space_group_name_H-M   'P 1'
_cell_length_a   5.33274361
_cell_length_b   6.38173180
_cell_length_c   8.68190956
_cell_angle_alpha   90.00000000
_cell_angle_beta   95.93408618
_cell_angle_gamma   90.00000000
_symmetry_Int_Tables_number   1
_chemical_formula_structural   LiVSiCO7
_chemical_formula_sum   'Li2 V2 Si2 C2 O14'
_cell_volume   293.88070977
_cell_formula_units_Z   2
loop_
 _symmetry_equiv_pos_site_id
 _symmetry_equiv_pos_as_xyz
  1  'x, y, z'
loop_
 _atom_site_type_symbol
 _atom_site_label
 _atom_site_symmetry_multiplicity
 _atom_site_fract_x
 _atom_site_fract_y
 _atom_site_fract_z
 _atom_site_occupancy
  Li  Li0  1  0.778921  0.468977  0.189255  1
  Li  Li1  1  0.221079  0.968977  0.810745  1
  V  V2  1  0.195359  0.247885  0.339076  1
  V  V3  1  0.804641  0.747885  0.660924  1
  Si  Si4  1  0.263155  0.751187  0.435141  1
  Si  Si5  1  0.736845  0.251187  0.564859  1
  C  C6  1  0.277344  0.252003  0.065778  1
  C  C7  1  0.722656  0.752003  0.934222  1
  O  O8  1  0.684877  0.717576  0.070005  1
  O  O9  1  0.050409  0.253775  0.119121  1
  O  O10  1  0.453997  0.280867  0.182918  1
  O  O11  1  0.199520  0.963862  0.333071  1
  O  O12  1  0.174827  0.549805  0.331864  1
  O  O13  1  0.882544  0.261524  0.406622  1
  O  O14  1  0.567152  0.754691  0.496698  1
  O  O15  1  0.432848  0.254691  0.503302  1
  O  O16  1  0.117456  0.761524  0.593378  1
  O  O17  1  0.825173  0.049805  0.668136  1
  O  O18  1  0.800480  0.463862  0.666929  1
  O  O19  1  0.546003  0.780867  0.817082  1
  O  O20  1  0.949591  0.753775  0.880879  1
  O  O21  1  0.315123  0.217576  0.929995  1
