# generated using pymatgen
data_Li3V2(O2F)2
_symmetry_space_group_name_H-M   'P 1'
_cell_length_a   5.93713019
_cell_length_b   7.87132707
_cell_length_c   7.90849696
_cell_angle_alpha   85.99911852
_cell_angle_beta   68.70460035
_cell_angle_gamma   79.72677208
_symmetry_Int_Tables_number   1
_chemical_formula_structural   Li3V2(O2F)2
_chemical_formula_sum   'Li9 V6 O12 F6'
_cell_volume   338.82761904
_cell_formula_units_Z   3
loop_
 _symmetry_equiv_pos_site_id
 _symmetry_equiv_pos_as_xyz
  1  'x, y, z'
loop_
 _atom_site_type_symbol
 _atom_site_label
 _atom_site_symmetry_multiplicity
 _atom_site_fract_x
 _atom_site_fract_y
 _atom_site_fract_z
 _atom_site_occupancy
  Li  Li0  1  0.135313  0.211970  0.627677  1
  Li  Li1  1  0.202014  0.450459  0.372384  1
  Li  Li2  1  0.537545  0.085862  0.367756  1
  Li  Li3  1  0.373429  0.775553  0.392820  1
  Li  Li4  1  0.633160  0.213282  0.632456  1
  Li  Li5  1  0.713027  0.433620  0.360617  1
  Li  Li6  1  0.772359  0.578208  0.640138  1
  Li  Li7  1  0.864100  0.798437  0.362348  1
  Li  Li8  1  0.956116  0.898897  0.636160  1
  V  V9  1  0.996709  0.004993  0.002597  1
  V  V10  1  0.169713  0.334744  0.997125  1
  V  V11  1  0.493431  0.000368  0.002092  1
  V  V12  1  0.338982  0.663169  0.988114  1
  V  V13  1  0.669949  0.332056  0.998068  1
  V  V14  1  0.830077  0.664604  0.001487  1
  O  O15  1  0.044102  0.542550  0.144141  1
  O  O16  1  0.224067  0.887833  0.132809  1
  O  O17  1  0.377252  0.220142  0.137799  1
  O  O18  1  0.547189  0.562248  0.144212  1
  O  O19  1  0.098585  0.776824  0.870609  1
  O  O20  1  0.294834  0.128354  0.854213  1
  O  O21  1  0.693969  0.889783  0.149530  1
  O  O22  1  0.878274  0.226952  0.139773  1
  O  O23  1  0.464418  0.440664  0.854267  1
  O  O24  1  0.784682  0.100208  0.854086  1
  O  O25  1  0.638292  0.777690  0.855684  1
  O  O26  1  0.959489  0.447320  0.859490  1
  F  F27  1  0.072815  0.679020  0.487621  1
  F  F28  1  0.246254  0.995943  0.505551  1
  F  F29  1  0.430056  0.313474  0.480031  1
  F  F30  1  0.750737  0.002617  0.499872  1
  F  F31  1  0.621216  0.655646  0.468025  1
  F  F32  1  0.906378  0.350952  0.521160  1
