# generated using pymatgen
data_NaMnPCO7
_symmetry_space_group_name_H-M   'P 1'
_cell_length_a   8.14249363
_cell_length_b   8.15845433
_cell_length_c   10.35530223
_cell_angle_alpha   108.48726291
_cell_angle_beta   106.36440203
_cell_angle_gamma   100.09039870
_symmetry_Int_Tables_number   1
_chemical_formula_structural   NaMnPCO7
_chemical_formula_sum   'Na4 Mn4 P4 C4 O28'
_cell_volume   598.93938762
_cell_formula_units_Z   4
loop_
 _symmetry_equiv_pos_site_id
 _symmetry_equiv_pos_as_xyz
  1  'x, y, z'
loop_
 _atom_site_type_symbol
 _atom_site_label
 _atom_site_symmetry_multiplicity
 _atom_site_fract_x
 _atom_site_fract_y
 _atom_site_fract_z
 _atom_site_occupancy
  Na  Na0  1  0.776278  0.734010  0.757277  1
  Na  Na1  1  0.480722  0.029356  0.756933  1
  Na  Na2  1  0.724908  0.753463  0.236444  1
  Na  Na3  1  0.223136  0.255658  0.237318  1
  Mn  Mn4  1  0.816583  0.066772  0.655873  1
  Mn  Mn5  1  0.307724  0.558009  0.659396  1
  Mn  Mn6  1  0.695108  0.431625  0.343138  1
  Mn  Mn7  1  0.194549  0.932224  0.342880  1
  P  P8  1  0.048306  0.795077  0.565326  1
  P  P9  1  0.545910  0.297318  0.565583  1
  P  P10  1  0.455749  0.699827  0.436043  1
  P  P11  1  0.957068  0.201258  0.433254  1
  C  C12  1  0.966439  0.224490  0.916911  1
  C  C13  1  0.468098  0.725573  0.919847  1
  C  C14  1  0.527839  0.281574  0.083352  1
  C  C15  1  0.034244  0.775248  0.082537  1
  O  O16  1  0.947439  0.697368  0.950925  1
  O  O17  1  0.438862  0.205670  0.951858  1
  O  O18  1  0.325903  0.585429  0.859921  1
  O  O19  1  0.822045  0.080964  0.853505  1
  O  O20  1  0.009538  0.268156  0.816143  1
  O  O21  1  0.509740  0.767364  0.815023  1
  O  O22  1  0.165238  0.722931  0.666849  1
  O  O23  1  0.965135  0.907990  0.667402  1
  O  O24  1  0.652758  0.210833  0.661094  1
  O  O25  1  0.476638  0.419938  0.673188  1
  O  O26  1  0.600039  0.846838  0.578012  1
  O  O27  1  0.670734  0.420357  0.522391  1
  O  O28  1  0.171697  0.919442  0.522192  1
  O  O29  1  0.101651  0.348681  0.570426  1
  O  O30  1  0.901810  0.649354  0.426295  1
  O  O31  1  0.335395  0.571613  0.477924  1
  O  O32  1  0.837070  0.073557  0.476732  1
  O  O33  1  0.395546  0.155696  0.426928  1
  O  O34  1  0.346408  0.780136  0.337547  1
  O  O35  1  0.539812  0.588764  0.334185  1
  O  O36  1  0.840517  0.274265  0.331962  1
  O  O37  1  0.034308  0.083039  0.328708  1
  O  O38  1  0.488133  0.236666  0.185922  1
  O  O39  1  0.993349  0.731354  0.185268  1
  O  O40  1  0.674891  0.418482  0.143723  1
  O  O41  1  0.178885  0.915126  0.143667  1
  O  O42  1  0.047667  0.302830  0.049276  1
  O  O43  1  0.554040  0.807776  0.050826  1
