# generated using pymatgen
data_SrTaNO2
_symmetry_space_group_name_H-M   'P 1'
_cell_length_a   5.73044200
_cell_length_b   8.17919663
_cell_length_c   5.74053909
_cell_angle_alpha   90.00000000
_cell_angle_beta   90.82938006
_cell_angle_gamma   90.00000000
_symmetry_Int_Tables_number   1
_chemical_formula_structural   SrTaNO2
_chemical_formula_sum   'Sr4 Ta4 N4 O8'
_cell_volume   269.03324311
_cell_formula_units_Z   4
loop_
 _symmetry_equiv_pos_site_id
 _symmetry_equiv_pos_as_xyz
  1  'x, y, z'
loop_
 _atom_site_type_symbol
 _atom_site_label
 _atom_site_symmetry_multiplicity
 _atom_site_fract_x
 _atom_site_fract_y
 _atom_site_fract_z
 _atom_site_occupancy
  Sr  Sr0  1  0.992904  0.000000  0.005798  1
  Sr  Sr1  1  0.492740  0.000000  0.511043  1
  Sr  Sr2  1  0.512280  0.500000  0.508891  1
  Sr  Sr3  1  0.015510  0.500000  0.004647  1
  Ta  Ta4  1  0.494145  0.242140  0.013324  1
  Ta  Ta5  1  0.494145  0.757860  0.013324  1
  Ta  Ta6  1  0.007466  0.258882  0.497758  1
  Ta  Ta7  1  0.007466  0.741118  0.497758  1
  N  N8  1  0.001854  0.500000  0.539026  1
  N  N9  1  0.270578  0.263585  0.269739  1
  N  N10  1  0.270578  0.736415  0.269739  1
  N  N11  1  0.517062  0.000000  0.030550  1
  O  O12  1  0.491573  0.500000  0.949819  1
  O  O13  1  0.224147  0.774079  0.772272  1
  O  O14  1  0.224147  0.225921  0.772272  1
  O  O15  1  0.722033  0.234620  0.718371  1
  O  O16  1  0.722033  0.765380  0.718371  1
  O  O17  1  0.986492  0.000000  0.464649  1
  O  O18  1  0.775249  0.274808  0.221108  1
  O  O19  1  0.775249  0.725192  0.221108  1
