# generated using pymatgen
data_Li2V4O3F8
_symmetry_space_group_name_H-M   'P 1'
_cell_length_a   5.14845044
_cell_length_b   6.59510016
_cell_length_c   6.88974491
_cell_angle_alpha   107.94249047
_cell_angle_beta   105.38025173
_cell_angle_gamma   96.80875501
_symmetry_Int_Tables_number   1
_chemical_formula_structural   Li2V4O3F8
_chemical_formula_sum   'Li2 V4 O3 F8'
_cell_volume   209.41389204
_cell_formula_units_Z   1
loop_
 _symmetry_equiv_pos_site_id
 _symmetry_equiv_pos_as_xyz
  1  'x, y, z'
loop_
 _atom_site_type_symbol
 _atom_site_label
 _atom_site_symmetry_multiplicity
 _atom_site_fract_x
 _atom_site_fract_y
 _atom_site_fract_z
 _atom_site_occupancy
  Li  Li0  1  0.669677  0.180444  0.397898  1
  Li  Li1  1  0.330323  0.819556  0.602102  1
  V  V2  1  0.903400  0.245125  0.966387  1
  V  V3  1  0.350451  0.380128  0.763962  1
  V  V4  1  0.649549  0.619873  0.236038  1
  V  V5  1  0.096600  0.754875  0.033613  1
  O  O6  1  0.000000  0.000000  0.000000  1
  O  O7  1  0.733995  0.524877  0.948030  1
  O  O8  1  0.266005  0.475123  0.051970  1
  F  F9  1  0.488057  0.109084  0.802928  1
  F  F10  1  0.954265  0.206541  0.666071  1
  F  F11  1  0.380700  0.285224  0.482674  1
  F  F12  1  0.802986  0.349185  0.250818  1
  F  F13  1  0.197014  0.650815  0.749182  1
  F  F14  1  0.619300  0.714776  0.517326  1
  F  F15  1  0.045735  0.793459  0.333929  1
  F  F16  1  0.511943  0.890916  0.197072  1
