# generated using pymatgen
data_V3P6WO24
_symmetry_space_group_name_H-M   'P 1'
_cell_length_a   8.80208048
_cell_length_b   8.80208048
_cell_length_c   8.80208048
_cell_angle_alpha   58.60262899
_cell_angle_beta   58.60262899
_cell_angle_gamma   58.60262899
_symmetry_Int_Tables_number   1
_chemical_formula_structural   V3P6WO24
_chemical_formula_sum   'V3 P6 W1 O24'
_cell_volume   466.80971206
_cell_formula_units_Z   1
loop_
 _symmetry_equiv_pos_site_id
 _symmetry_equiv_pos_as_xyz
  1  'x, y, z'
loop_
 _atom_site_type_symbol
 _atom_site_label
 _atom_site_symmetry_multiplicity
 _atom_site_fract_x
 _atom_site_fract_y
 _atom_site_fract_z
 _atom_site_occupancy
  V  V0  1  0.857895  0.857895  0.857895  1
  V  V1  1  0.641049  0.641049  0.641049  1
  V  V2  1  0.357611  0.357611  0.357611  1
  P  P3  1  0.250945  0.540683  0.964126  1
  P  P4  1  0.964126  0.250945  0.540683  1
  P  P5  1  0.540683  0.964126  0.250945  1
  P  P6  1  0.472309  0.032742  0.742374  1
  P  P7  1  0.032742  0.742374  0.472309  1
  P  P8  1  0.742374  0.472309  0.032742  1
  W  W9  1  0.141219  0.141219  0.141219  1
  O  O10  1  0.723094  0.490956  0.860806  1
  O  O11  1  0.490956  0.860806  0.723094  1
  O  O12  1  0.075242  0.714316  0.938304  1
  O  O13  1  0.860806  0.723094  0.490956  1
  O  O14  1  0.424343  0.558874  0.784427  1
  O  O15  1  0.219303  0.361638  0.998821  1
  O  O16  1  0.938304  0.075242  0.714316  1
  O  O17  1  0.784427  0.424343  0.558874  1
  O  O18  1  0.558874  0.784427  0.424343  1
  O  O19  1  0.636022  0.006104  0.780865  1
  O  O20  1  0.287193  0.063165  0.922993  1
  O  O21  1  0.006104  0.780865  0.636022  1
  O  O22  1  0.998821  0.219303  0.361638  1
  O  O23  1  0.714316  0.938304  0.075242  1
  O  O24  1  0.361638  0.998821  0.219303  1
  O  O25  1  0.436619  0.215857  0.576713  1
  O  O26  1  0.215857  0.576713  0.436619  1
  O  O27  1  0.063165  0.922993  0.287193  1
  O  O28  1  0.780865  0.636022  0.006104  1
  O  O29  1  0.576713  0.436619  0.215857  1
  O  O30  1  0.137697  0.279080  0.506615  1
  O  O31  1  0.922993  0.287193  0.063165  1
  O  O32  1  0.506615  0.137697  0.279080  1
  O  O33  1  0.279080  0.506615  0.137697  1
