# generated using pymatgen
data_Fe15O16
_symmetry_space_group_name_H-M   'P 1'
_cell_length_a   6.24710285
_cell_length_b   6.26532231
_cell_length_c   8.76823762
_cell_angle_alpha   90.37687949
_cell_angle_beta   90.44855365
_cell_angle_gamma   90.08757688
_symmetry_Int_Tables_number   1
_chemical_formula_structural   Fe15O16
_chemical_formula_sum   'Fe15 O16'
_cell_volume   343.17144063
_cell_formula_units_Z   1
loop_
 _symmetry_equiv_pos_site_id
 _symmetry_equiv_pos_as_xyz
  1  'x, y, z'
loop_
 _atom_site_type_symbol
 _atom_site_label
 _atom_site_symmetry_multiplicity
 _atom_site_fract_x
 _atom_site_fract_y
 _atom_site_fract_z
 _atom_site_occupancy
  Fe  Fe0  1  0.680595  0.259708  0.263576  1
  Fe  Fe1  1  0.039511  0.212102  0.127048  1
  Fe  Fe2  1  0.489943  0.496484  0.502989  1
  Fe  Fe3  1  0.989648  0.568874  0.991604  1
  Fe  Fe4  1  0.752016  0.753991  0.250546  1
  Fe  Fe5  1  0.248296  0.761635  0.750748  1
  Fe  Fe6  1  0.506146  0.996569  0.002994  1
  Fe  Fe7  1  0.489792  0.999855  0.496907  1
  Fe  Fe8  1  0.002212  0.006901  0.499087  1
  Fe  Fe9  1  0.245429  0.249432  0.752003  1
  Fe  Fe10  1  0.756875  0.246353  0.756234  1
  Fe  Fe11  1  0.001082  0.495199  0.493502  1
  Fe  Fe12  1  0.498516  0.501705  0.997699  1
  Fe  Fe13  1  0.755845  0.760990  0.748065  1
  Fe  Fe14  1  0.256327  0.747233  0.251720  1
  O  O15  1  0.998377  0.487735  0.233661  1
  O  O16  1  0.740829  0.725998  0.500778  1
  O  O17  1  0.006315  0.967595  0.254002  1
  O  O18  1  0.499799  0.014249  0.741923  1
  O  O19  1  0.755433  0.248286  0.491158  1
  O  O20  1  0.285997  0.250558  0.997660  1
  O  O21  1  0.752148  0.264497  0.016053  1
  O  O22  1  0.504123  0.528702  0.235693  1
  O  O23  1  0.516550  0.503755  0.764054  1
  O  O24  1  0.270571  0.730560  0.992159  1
  O  O25  1  0.238838  0.750082  0.509165  1
  O  O26  1  0.716010  0.741499  0.998341  1
  O  O27  1  0.506240  0.991991  0.256993  1
  O  O28  1  0.988279  0.996834  0.740895  1
  O  O29  1  0.252908  0.267497  0.509650  1
  O  O30  1  0.001683  0.491301  0.762823  1
