# generated using pymatgen
data_LiFe4(BO3)4
_symmetry_space_group_name_H-M   'P 1'
_cell_length_a   5.23037034
_cell_length_b   5.27212214
_cell_length_c   10.09707178
_cell_angle_alpha   88.99356647
_cell_angle_beta   89.12117511
_cell_angle_gamma   60.78873115
_symmetry_Int_Tables_number   1
_chemical_formula_structural   LiFe4(BO3)4
_chemical_formula_sum   'Li1 Fe4 B4 O12'
_cell_volume   242.97468056
_cell_formula_units_Z   1
loop_
 _symmetry_equiv_pos_site_id
 _symmetry_equiv_pos_as_xyz
  1  'x, y, z'
loop_
 _atom_site_type_symbol
 _atom_site_label
 _atom_site_symmetry_multiplicity
 _atom_site_fract_x
 _atom_site_fract_y
 _atom_site_fract_z
 _atom_site_occupancy
  Li  Li0  1  0.666447  0.356192  0.157246  1
  Fe  Fe1  1  0.679469  0.979258  0.376925  1
  Fe  Fe2  1  0.006415  0.684890  0.123070  1
  Fe  Fe3  1  0.000939  0.328246  0.880003  1
  Fe  Fe4  1  0.325845  0.003877  0.630953  1
  B  B5  1  0.337925  0.004968  0.128217  1
  B  B6  1  0.010484  0.328716  0.374332  1
  B  B7  1  0.999161  0.659947  0.628781  1
  B  B8  1  0.663794  0.996493  0.877516  1
  O  O9  1  0.271495  0.120730  0.433379  1
  O  O10  1  0.089380  0.256879  0.081424  1
  O  O11  1  0.575637  0.032951  0.175270  1
  O  O12  1  0.984470  0.592142  0.333035  1
  O  O13  1  0.697939  0.235206  0.884761  1
  O  O14  1  0.788136  0.270430  0.351491  1
  O  O15  1  0.232278  0.704267  0.634292  1
  O  O16  1  0.351143  0.741703  0.129640  1
  O  O17  1  0.008789  0.402960  0.675249  1
  O  O18  1  0.401735  0.018387  0.829973  1
  O  O19  1  0.880891  0.727347  0.921339  1
  O  O20  1  0.732614  0.875736  0.575259  1
