# generated using pymatgen
data_TiMn3O8
_symmetry_space_group_name_H-M   'P 1'
_cell_length_a   5.78658833
_cell_length_b   5.78658833
_cell_length_c   9.03595239
_cell_angle_alpha   90.00000000
_cell_angle_beta   90.00000000
_cell_angle_gamma   120.00000000
_symmetry_Int_Tables_number   1
_chemical_formula_structural   TiMn3O8
_chemical_formula_sum   'Ti2 Mn6 O16'
_cell_volume   262.02922920
_cell_formula_units_Z   2
loop_
 _symmetry_equiv_pos_site_id
 _symmetry_equiv_pos_as_xyz
  1  'x, y, z'
loop_
 _atom_site_type_symbol
 _atom_site_label
 _atom_site_symmetry_multiplicity
 _atom_site_fract_x
 _atom_site_fract_y
 _atom_site_fract_z
 _atom_site_occupancy
  Ti  Ti0  1  0.333333  0.666667  0.497096  1
  Ti  Ti1  1  0.666667  0.333333  0.997096  1
  Mn  Mn2  1  0.168256  0.831744  0.212828  1
  Mn  Mn3  1  0.168256  0.336511  0.212828  1
  Mn  Mn4  1  0.663489  0.831744  0.212828  1
  Mn  Mn5  1  0.336511  0.168256  0.712828  1
  Mn  Mn6  1  0.831744  0.663489  0.712828  1
  Mn  Mn7  1  0.831744  0.168256  0.712828  1
  O  O8  1  0.166774  0.833226  0.599733  1
  O  O9  1  0.039899  0.519949  0.334476  1
  O  O10  1  0.333333  0.666667  0.103527  1
  O  O11  1  0.000000  0.000000  0.316104  1
  O  O12  1  0.000000  0.000000  0.816104  1
  O  O13  1  0.166774  0.333548  0.599733  1
  O  O14  1  0.480051  0.960101  0.334476  1
  O  O15  1  0.480051  0.519949  0.334476  1
  O  O16  1  0.333548  0.166774  0.099733  1
  O  O17  1  0.666452  0.833226  0.599733  1
  O  O18  1  0.519949  0.480051  0.834476  1
  O  O19  1  0.519949  0.039899  0.834476  1
  O  O20  1  0.666667  0.333333  0.603527  1
  O  O21  1  0.833226  0.666452  0.099733  1
  O  O22  1  0.960101  0.480051  0.834476  1
  O  O23  1  0.833226  0.166774  0.099733  1
