# generated using pymatgen
data_Na2GePCO7
_symmetry_space_group_name_H-M   'P 1'
_cell_length_a   5.30537416
_cell_length_b   6.59961909
_cell_length_c   9.09297390
_cell_angle_alpha   90.00000000
_cell_angle_beta   92.34867863
_cell_angle_gamma   90.00000000
_symmetry_Int_Tables_number   1
_chemical_formula_structural   Na2GePCO7
_chemical_formula_sum   'Na4 Ge2 P2 C2 O14'
_cell_volume   318.10891805
_cell_formula_units_Z   2
loop_
 _symmetry_equiv_pos_site_id
 _symmetry_equiv_pos_as_xyz
  1  'x, y, z'
loop_
 _atom_site_type_symbol
 _atom_site_label
 _atom_site_symmetry_multiplicity
 _atom_site_fract_x
 _atom_site_fract_y
 _atom_site_fract_z
 _atom_site_occupancy
  Na  Na0  1  0.237959  0.494902  0.230074  1
  Na  Na1  1  0.237959  0.005098  0.230074  1
  Na  Na2  1  0.762041  0.505098  0.769926  1
  Na  Na3  1  0.762041  0.994902  0.769926  1
  Ge  Ge4  1  0.790853  0.750000  0.351670  1
  Ge  Ge5  1  0.209147  0.250000  0.648330  1
  P  P6  1  0.711649  0.250000  0.419165  1
  P  P7  1  0.288351  0.750000  0.580835  1
  C  C8  1  0.724711  0.750000  0.074764  1
  C  C9  1  0.275289  0.250000  0.925236  1
  O  O10  1  0.290561  0.250000  0.063160  1
  O  O11  1  0.944804  0.750000  0.150828  1
  O  O12  1  0.529107  0.750000  0.159273  1
  O  O13  1  0.808024  0.062523  0.332980  1
  O  O14  1  0.808024  0.437477  0.332980  1
  O  O15  1  0.172945  0.750000  0.419004  1
  O  O16  1  0.419830  0.250000  0.423117  1
  O  O17  1  0.580170  0.750000  0.576883  1
  O  O18  1  0.827055  0.250000  0.580996  1
  O  O19  1  0.191976  0.562523  0.667020  1
  O  O20  1  0.191976  0.937477  0.667020  1
  O  O21  1  0.470893  0.250000  0.840727  1
  O  O22  1  0.055196  0.250000  0.849172  1
  O  O23  1  0.709439  0.750000  0.936840  1
