# generated using pymatgen
data_Li4MnV3O12
_symmetry_space_group_name_H-M   'P 1'
_cell_length_a   4.91425069
_cell_length_b   8.31950232
_cell_length_c   4.92728134
_cell_angle_alpha   90.00000000
_cell_angle_beta   90.73534004
_cell_angle_gamma   90.00000000
_symmetry_Int_Tables_number   1
_chemical_formula_structural   Li4MnV3O12
_chemical_formula_sum   'Li4 Mn1 V3 O12'
_cell_volume   201.43097139
_cell_formula_units_Z   1
loop_
 _symmetry_equiv_pos_site_id
 _symmetry_equiv_pos_as_xyz
  1  'x, y, z'
loop_
 _atom_site_type_symbol
 _atom_site_label
 _atom_site_symmetry_multiplicity
 _atom_site_fract_x
 _atom_site_fract_y
 _atom_site_fract_z
 _atom_site_occupancy
  Li  Li0  1  0.000000  0.696364  0.000000  1
  Li  Li1  1  0.000000  0.811692  0.500000  1
  Li  Li2  1  0.500000  0.313550  0.000000  1
  Li  Li3  1  0.500000  0.188572  0.500000  1
  Mn  Mn4  1  0.000000  0.098007  0.000000  1
  V  V5  1  0.000000  0.400321  0.500000  1
  V  V6  1  0.500000  0.894449  0.000000  1
  V  V7  1  0.500000  0.587478  0.500000  1
  O  O8  1  0.859082  0.264191  0.740855  1
  O  O9  1  0.820264  0.590546  0.690726  1
  O  O10  1  0.821405  0.932639  0.799760  1
  O  O11  1  0.674166  0.432460  0.294993  1
  O  O12  1  0.661263  0.093110  0.178580  1
  O  O13  1  0.639603  0.762378  0.248525  1
  O  O14  1  0.360397  0.762378  0.751475  1
  O  O15  1  0.338737  0.093110  0.821420  1
  O  O16  1  0.325834  0.432460  0.705007  1
  O  O17  1  0.178595  0.932639  0.200240  1
  O  O18  1  0.179736  0.590546  0.309274  1
  O  O19  1  0.140918  0.264191  0.259145  1
