# generated using pymatgen
data_Na3VO4
_symmetry_space_group_name_H-M   'P 1'
_cell_length_a   5.60286425
_cell_length_b   6.15170907
_cell_length_c   7.18361117
_cell_angle_alpha   90.00000000
_cell_angle_beta   90.00000000
_cell_angle_gamma   90.00000000
_symmetry_Int_Tables_number   1
_chemical_formula_structural   Na3VO4
_chemical_formula_sum   'Na6 V2 O8'
_cell_volume   247.59889701
_cell_formula_units_Z   2
loop_
 _symmetry_equiv_pos_site_id
 _symmetry_equiv_pos_as_xyz
  1  'x, y, z'
loop_
 _atom_site_type_symbol
 _atom_site_label
 _atom_site_symmetry_multiplicity
 _atom_site_fract_x
 _atom_site_fract_y
 _atom_site_fract_z
 _atom_site_occupancy
  Na  Na0  1  0.512534  0.841503  0.000000  1
  Na  Na1  1  0.011133  0.673588  0.246070  1
  Na  Na2  1  0.511133  0.326412  0.253930  1
  Na  Na3  1  0.012534  0.158497  0.500000  1
  Na  Na4  1  0.511133  0.326412  0.746070  1
  Na  Na5  1  0.011133  0.673588  0.753930  1
  V  V6  1  0.998934  0.173264  0.000000  1
  V  V7  1  0.498934  0.826736  0.500000  1
  O  O8  1  0.096072  0.902388  0.000000  1
  O  O9  1  0.688428  0.177714  0.000000  1
  O  O10  1  0.098517  0.307608  0.201383  1
  O  O11  1  0.598517  0.692392  0.298617  1
  O  O12  1  0.188428  0.822286  0.500000  1
  O  O13  1  0.596072  0.097612  0.500000  1
  O  O14  1  0.598517  0.692392  0.701383  1
  O  O15  1  0.098517  0.307608  0.798617  1
