# generated using pymatgen
data_LiCo2(CO3)4
_symmetry_space_group_name_H-M   'P 1'
_cell_length_a   5.29135491
_cell_length_b   6.69274812
_cell_length_c   7.53051094
_cell_angle_alpha   91.26293800
_cell_angle_beta   90.25506479
_cell_angle_gamma   112.73159533
_symmetry_Int_Tables_number   1
_chemical_formula_structural   LiCo2(CO3)4
_chemical_formula_sum   'Li1 Co2 C4 O12'
_cell_volume   245.88463802
_cell_formula_units_Z   1
loop_
 _symmetry_equiv_pos_site_id
 _symmetry_equiv_pos_as_xyz
  1  'x, y, z'
loop_
 _atom_site_type_symbol
 _atom_site_label
 _atom_site_symmetry_multiplicity
 _atom_site_fract_x
 _atom_site_fract_y
 _atom_site_fract_z
 _atom_site_occupancy
  Li  Li0  1  0.792712  0.189491  0.436935  1
  Co  Co1  1  0.996921  0.996597  0.003492  1
  Co  Co2  1  0.497650  0.520625  0.502162  1
  C  C3  1  0.757767  0.877215  0.737745  1
  C  C4  1  0.242958  0.370514  0.757892  1
  C  C5  1  0.744997  0.620968  0.237805  1
  C  C6  1  0.261256  0.124866  0.265502  1
  O  O7  1  0.648218  0.922288  0.877851  1
  O  O8  1  0.628083  0.822450  0.585975  1
  O  O9  1  0.493291  0.612355  0.263691  1
  O  O10  1  0.011042  0.900771  0.758556  1
  O  O11  1  0.878895  0.680703  0.099451  1
  O  O12  1  0.837463  0.558450  0.380481  1
  O  O13  1  0.131187  0.398974  0.606933  1
  O  O14  1  0.119284  0.314245  0.899759  1
  O  O15  1  0.004011  0.103606  0.254283  1
  O  O16  1  0.508065  0.417767  0.736322  1
  O  O17  1  0.411319  0.192929  0.405237  1
  O  O18  1  0.348594  0.068913  0.119773  1
