# generated using pymatgen
data_Zr6Nb2O17
_symmetry_space_group_name_H-M   'P 1'
_cell_length_a   21.18157266
_cell_length_b   21.18157266
_cell_length_c   5.03212662
_cell_angle_alpha   83.93717370
_cell_angle_beta   96.06282630
_cell_angle_gamma   165.53906013
_symmetry_Int_Tables_number   1
_chemical_formula_structural   Zr6Nb2O17
_chemical_formula_sum   'Zr12 Nb4 O34'
_cell_volume   560.59055031
_cell_formula_units_Z   2
loop_
 _symmetry_equiv_pos_site_id
 _symmetry_equiv_pos_as_xyz
  1  'x, y, z'
loop_
 _atom_site_type_symbol
 _atom_site_label
 _atom_site_symmetry_multiplicity
 _atom_site_fract_x
 _atom_site_fract_y
 _atom_site_fract_z
 _atom_site_occupancy
  Zr  Zr0  1  0.737841  0.737841  0.500000  1
  Zr  Zr1  1  0.235020  0.235020  0.000000  1
  Zr  Zr2  1  0.945136  0.812730  0.042559  1
  Zr  Zr3  1  0.585044  0.326937  0.109989  1
  Zr  Zr4  1  0.088351  0.831435  0.637918  1
  Zr  Zr5  1  0.578076  0.195301  0.698403  1
  Zr  Zr6  1  0.717994  0.218890  0.239102  1
  Zr  Zr7  1  0.218890  0.717994  0.760898  1
  Zr  Zr8  1  0.195301  0.578076  0.301597  1
  Zr  Zr9  1  0.831435  0.088351  0.362082  1
  Zr  Zr10  1  0.326937  0.585044  0.890011  1
  Zr  Zr11  1  0.812730  0.945136  0.957441  1
  Nb  Nb12  1  0.446443  0.313227  0.582573  1
  Nb  Nb13  1  0.079365  0.701003  0.162888  1
  Nb  Nb14  1  0.701003  0.079365  0.837112  1
  Nb  Nb15  1  0.313227  0.446443  0.417427  1
  O  O16  1  0.434990  0.380897  0.332293  1
  O  O17  1  0.936541  0.888144  0.214738  1
  O  O18  1  0.130641  0.057076  0.759632  1
  O  O19  1  0.619946  0.546283  0.801228  1
  O  O20  1  0.152157  0.983814  0.404882  1
  O  O21  1  0.641730  0.470592  0.287179  1
  O  O22  1  0.283014  0.089353  0.890935  1
  O  O23  1  0.767770  0.573940  0.794864  1
  O  O24  1  0.953526  0.667989  0.290818  1
  O  O25  1  0.448068  0.159808  0.476056  1
  O  O26  1  0.317275  0.998264  0.952006  1
  O  O27  1  0.826439  0.506737  0.855403  1
  O  O28  1  0.221736  0.825847  0.515640  1
  O  O29  1  0.752741  0.356297  0.334672  1
  O  O30  1  0.912396  0.472242  0.921884  1
  O  O31  1  0.386957  0.949334  0.026766  1
  O  O32  1  0.087086  0.574150  0.390949  1
  O  O33  1  0.574150  0.087086  0.609051  1
  O  O34  1  0.472242  0.912396  0.078116  1
  O  O35  1  0.949334  0.386957  0.973234  1
  O  O36  1  0.825847  0.221736  0.484360  1
  O  O37  1  0.356297  0.752741  0.665328  1
  O  O38  1  0.998264  0.317275  0.047994  1
  O  O39  1  0.506737  0.826439  0.144597  1
  O  O40  1  0.667989  0.953526  0.709182  1
  O  O41  1  0.159808  0.448068  0.523944  1
  O  O42  1  0.089353  0.283014  0.109065  1
  O  O43  1  0.573940  0.767770  0.205136  1
  O  O44  1  0.470592  0.641730  0.712821  1
  O  O45  1  0.983814  0.152157  0.595118  1
  O  O46  1  0.057076  0.130641  0.240368  1
  O  O47  1  0.546283  0.619946  0.198772  1
  O  O48  1  0.380897  0.434990  0.667707  1
  O  O49  1  0.888144  0.936541  0.785262  1
