# generated using pymatgen
data_CrCo5O12
_symmetry_space_group_name_H-M   'P 1'
_cell_length_a   4.92381370
_cell_length_b   4.92381370
_cell_length_c   9.79612979
_cell_angle_alpha   89.95723649
_cell_angle_beta   90.04276351
_cell_angle_gamma   59.94934819
_symmetry_Int_Tables_number   1
_chemical_formula_structural   CrCo5O12
_chemical_formula_sum   'Cr1 Co5 O12'
_cell_volume   205.57297056
_cell_formula_units_Z   1
loop_
 _symmetry_equiv_pos_site_id
 _symmetry_equiv_pos_as_xyz
  1  'x, y, z'
loop_
 _atom_site_type_symbol
 _atom_site_label
 _atom_site_symmetry_multiplicity
 _atom_site_fract_x
 _atom_site_fract_y
 _atom_site_fract_z
 _atom_site_occupancy
  Cr  Cr0  1  0.000000  0.000000  0.000000  1
  Co  Co1  1  0.833379  0.833379  0.500000  1
  Co  Co2  1  0.333399  0.333399  0.000000  1
  Co  Co3  1  0.666601  0.666601  0.000000  1
  Co  Co4  1  0.166621  0.166621  0.500000  1
  Co  Co5  1  0.500000  0.500000  0.500000  1
  O  O6  1  0.999624  0.659820  0.098422  1
  O  O7  1  0.659820  0.999624  0.901578  1
  O  O8  1  0.833124  0.500125  0.403157  1
  O  O9  1  0.499875  0.166876  0.403157  1
  O  O10  1  0.500125  0.833124  0.596843  1
  O  O11  1  0.833548  0.166452  0.596846  1
  O  O12  1  0.166876  0.499875  0.596843  1
  O  O13  1  0.340180  0.000376  0.098422  1
  O  O14  1  0.659919  0.340081  0.098304  1
  O  O15  1  0.000376  0.340180  0.901578  1
  O  O16  1  0.340081  0.659919  0.901696  1
  O  O17  1  0.166452  0.833548  0.403154  1
