# generated using pymatgen
data_HfO2
_symmetry_space_group_name_H-M   'P 1'
_cell_length_a   4.87030514
_cell_length_b   5.82594177
_cell_length_c   16.03650865
_cell_angle_alpha   90.00000000
_cell_angle_beta   90.00000000
_cell_angle_gamma   90.00000000
_symmetry_Int_Tables_number   1
_chemical_formula_structural   HfO2
_chemical_formula_sum   'Hf12 O24'
_cell_volume   455.02172697
_cell_formula_units_Z   12
loop_
 _symmetry_equiv_pos_site_id
 _symmetry_equiv_pos_as_xyz
  1  'x, y, z'
loop_
 _atom_site_type_symbol
 _atom_site_label
 _atom_site_symmetry_multiplicity
 _atom_site_fract_x
 _atom_site_fract_y
 _atom_site_fract_z
 _atom_site_occupancy
  Hf  Hf0  1  0.002773  0.346508  0.084101  1
  Hf  Hf1  1  0.000000  0.022097  0.250000  1
  Hf  Hf2  1  0.997227  0.346508  0.415899  1
  Hf  Hf3  1  0.000000  0.977903  0.750000  1
  Hf  Hf4  1  0.002773  0.653492  0.584101  1
  Hf  Hf5  1  0.997227  0.653492  0.915899  1
  Hf  Hf6  1  0.497227  0.153492  0.584101  1
  Hf  Hf7  1  0.500000  0.522097  0.250000  1
  Hf  Hf8  1  0.502773  0.153492  0.915899  1
  Hf  Hf9  1  0.500000  0.477903  0.750000  1
  Hf  Hf10  1  0.502773  0.846508  0.415899  1
  Hf  Hf11  1  0.497227  0.846508  0.084101  1
  O  O12  1  0.199867  0.631433  0.030756  1
  O  O13  1  0.199867  0.368567  0.530756  1
  O  O14  1  0.280561  0.190848  0.696221  1
  O  O15  1  0.280561  0.809152  0.196221  1
  O  O16  1  0.207423  0.067259  0.363291  1
  O  O17  1  0.207423  0.932741  0.863291  1
  O  O18  1  0.292577  0.567259  0.363291  1
  O  O19  1  0.292577  0.432741  0.863291  1
  O  O20  1  0.219439  0.309152  0.196221  1
  O  O21  1  0.219439  0.690848  0.696221  1
  O  O22  1  0.300133  0.131433  0.030756  1
  O  O23  1  0.300133  0.868567  0.530756  1
  O  O24  1  0.699867  0.868567  0.969244  1
  O  O25  1  0.699867  0.131433  0.469244  1
  O  O26  1  0.780561  0.309152  0.303779  1
  O  O27  1  0.780561  0.690848  0.803779  1
  O  O28  1  0.707423  0.432741  0.636709  1
  O  O29  1  0.707423  0.567259  0.136709  1
  O  O30  1  0.792577  0.932741  0.636709  1
  O  O31  1  0.792577  0.067259  0.136709  1
  O  O32  1  0.719439  0.190848  0.803779  1
  O  O33  1  0.719439  0.809152  0.303779  1
  O  O34  1  0.800133  0.368567  0.969244  1
  O  O35  1  0.800133  0.631433  0.469244  1
