# generated using pymatgen
data_MnH6(OF)3
_symmetry_space_group_name_H-M   'P 1'
_cell_length_a   6.43282992
_cell_length_b   9.73974870
_cell_length_c   8.47736592
_cell_angle_alpha   90.00000000
_cell_angle_beta   98.19829713
_cell_angle_gamma   90.00000000
_symmetry_Int_Tables_number   1
_chemical_formula_structural   MnH6(OF)3
_chemical_formula_sum   'Mn4 H24 O12 F12'
_cell_volume   525.71410630
_cell_formula_units_Z   4
loop_
 _symmetry_equiv_pos_site_id
 _symmetry_equiv_pos_as_xyz
  1  'x, y, z'
loop_
 _atom_site_type_symbol
 _atom_site_label
 _atom_site_symmetry_multiplicity
 _atom_site_fract_x
 _atom_site_fract_y
 _atom_site_fract_z
 _atom_site_occupancy
  Mn  Mn0  1  0.500000  0.500000  0.500000  1
  Mn  Mn1  1  0.000000  0.000000  0.500000  1
  Mn  Mn2  1  0.000000  0.500000  0.000000  1
  Mn  Mn3  1  0.500000  0.000000  0.000000  1
  H  H4  1  0.324909  0.766038  0.447697  1
  H  H5  1  0.175091  0.266038  0.552303  1
  H  H6  1  0.675091  0.233962  0.552303  1
  H  H7  1  0.824909  0.733962  0.447697  1
  H  H8  1  0.289990  0.683012  0.284975  1
  H  H9  1  0.210010  0.183012  0.715025  1
  H  H10  1  0.710010  0.316988  0.715025  1
  H  H11  1  0.789990  0.816988  0.284975  1
  H  H12  1  0.608093  0.594363  0.868425  1
  H  H13  1  0.891907  0.094363  0.131575  1
  H  H14  1  0.391907  0.405637  0.131575  1
  H  H15  1  0.108093  0.905637  0.868425  1
  H  H16  1  0.688175  0.697103  0.011915  1
  H  H17  1  0.811825  0.197103  0.988085  1
  H  H18  1  0.311825  0.302897  0.988085  1
  H  H19  1  0.188175  0.802897  0.011915  1
  H  H20  1  0.208576  0.556778  0.759507  1
  H  H21  1  0.291424  0.056778  0.240493  1
  H  H22  1  0.791424  0.443222  0.240493  1
  H  H23  1  0.708576  0.943222  0.759507  1
  H  H24  1  0.957162  0.563531  0.693855  1
  H  H25  1  0.542838  0.063531  0.306145  1
  H  H26  1  0.042838  0.436469  0.306145  1
  H  H27  1  0.457162  0.936469  0.693855  1
  O  O28  1  0.383436  0.692708  0.387346  1
  O  O29  1  0.116564  0.192708  0.612654  1
  O  O30  1  0.616564  0.307292  0.612654  1
  O  O31  1  0.883436  0.807292  0.387346  1
  O  O32  1  0.705597  0.604370  0.969309  1
  O  O33  1  0.794403  0.104370  0.030691  1
  O  O34  1  0.294403  0.395630  0.030691  1
  O  O35  1  0.205597  0.895630  0.969309  1
  O  O36  1  0.066012  0.570707  0.790034  1
  O  O37  1  0.433988  0.070707  0.209966  1
  O  O38  1  0.933988  0.429293  0.209966  1
  O  O39  1  0.566012  0.929293  0.790034  1
  F  F40  1  0.440721  0.561322  0.702640  1
  F  F41  1  0.059279  0.061322  0.297360  1
  F  F42  1  0.559279  0.438678  0.297360  1
  F  F43  1  0.940721  0.938678  0.702640  1
  F  F44  1  0.226931  0.422113  0.456908  1
  F  F45  1  0.273069  0.922113  0.543092  1
  F  F46  1  0.773069  0.577887  0.543092  1
  F  F47  1  0.726931  0.077887  0.456908  1
  F  F48  1  0.140448  0.652000  0.100314  1
  F  F49  1  0.359552  0.152000  0.899686  1
  F  F50  1  0.859552  0.348000  0.899686  1
  F  F51  1  0.640448  0.848000  0.100314  1
