# generated using pymatgen
data_Li3VF6
_symmetry_space_group_name_H-M   'P 1'
_cell_length_a   5.18467730
_cell_length_b   5.22685626
_cell_length_c   9.31931758
_cell_angle_alpha   90.00000000
_cell_angle_beta   123.42415154
_cell_angle_gamma   90.00000000
_symmetry_Int_Tables_number   1
_chemical_formula_structural   Li3VF6
_chemical_formula_sum   'Li6 V2 F12'
_cell_volume   210.78173473
_cell_formula_units_Z   2
loop_
 _symmetry_equiv_pos_site_id
 _symmetry_equiv_pos_as_xyz
  1  'x, y, z'
loop_
 _atom_site_type_symbol
 _atom_site_label
 _atom_site_symmetry_multiplicity
 _atom_site_fract_x
 _atom_site_fract_y
 _atom_site_fract_z
 _atom_site_occupancy
  Li  Li0  1  0.000000  0.000000  0.000000  1
  Li  Li1  1  0.777883  0.530830  0.763613  1
  Li  Li2  1  0.222117  0.030830  0.736387  1
  Li  Li3  1  0.000000  0.500000  0.500000  1
  Li  Li4  1  0.777883  0.969170  0.263613  1
  Li  Li5  1  0.222117  0.469170  0.236387  1
  V  V6  1  0.500000  0.000000  0.500000  1
  V  V7  1  0.500000  0.500000  0.000000  1
  F  F8  1  0.866987  0.905123  0.738450  1
  F  F9  1  0.573037  0.682470  0.417268  1
  F  F10  1  0.231243  0.671420  0.057464  1
  F  F11  1  0.768757  0.171420  0.442536  1
  F  F12  1  0.426963  0.182470  0.082732  1
  F  F13  1  0.133013  0.405123  0.761550  1
  F  F14  1  0.866987  0.594877  0.238450  1
  F  F15  1  0.573037  0.817530  0.917268  1
  F  F16  1  0.231243  0.828580  0.557464  1
  F  F17  1  0.768757  0.328580  0.942536  1
  F  F18  1  0.426963  0.317530  0.582732  1
  F  F19  1  0.133013  0.094877  0.261550  1
