# generated using pymatgen
data_LiCoSiO4
_symmetry_space_group_name_H-M   'P 1'
_cell_length_a   5.00828515
_cell_length_b   5.59434269
_cell_length_c   7.82458976
_cell_angle_alpha   90.00000000
_cell_angle_beta   129.39377157
_cell_angle_gamma   90.00000000
_symmetry_Int_Tables_number   1
_chemical_formula_structural   LiCoSiO4
_chemical_formula_sum   'Li2 Co2 Si2 O8'
_cell_volume   169.42139292
_cell_formula_units_Z   2
loop_
 _symmetry_equiv_pos_site_id
 _symmetry_equiv_pos_as_xyz
  1  'x, y, z'
loop_
 _atom_site_type_symbol
 _atom_site_label
 _atom_site_symmetry_multiplicity
 _atom_site_fract_x
 _atom_site_fract_y
 _atom_site_fract_z
 _atom_site_occupancy
  Li  Li0  1  0.280062  0.661314  0.252440  1
  Li  Li1  1  0.280062  0.338686  0.752440  1
  Co  Co2  1  0.521939  0.834142  0.999361  1
  Co  Co3  1  0.521939  0.165858  0.499361  1
  Si  Si4  1  0.021732  0.156083  0.003307  1
  Si  Si5  1  0.021732  0.843917  0.503307  1
  O  O6  1  0.177021  0.887884  0.024241  1
  O  O7  1  0.677205  0.131763  0.985172  1
  O  O8  1  0.310303  0.315475  0.227236  1
  O  O9  1  0.904710  0.712905  0.275618  1
  O  O10  1  0.677205  0.868237  0.485172  1
  O  O11  1  0.177021  0.112116  0.524241  1
  O  O12  1  0.310303  0.684525  0.727236  1
  O  O13  1  0.904710  0.287095  0.775618  1
