# generated using pymatgen
data_Mn2O3F
_symmetry_space_group_name_H-M   'P 1'
_cell_length_a   4.56489178
_cell_length_b   4.56489178
_cell_length_c   6.01830048
_cell_angle_alpha   90.00000000
_cell_angle_beta   90.00000000
_cell_angle_gamma   92.18865053
_symmetry_Int_Tables_number   1
_chemical_formula_structural   Mn2O3F
_chemical_formula_sum   'Mn4 O6 F2'
_cell_volume   125.31928431
_cell_formula_units_Z   2
loop_
 _symmetry_equiv_pos_site_id
 _symmetry_equiv_pos_as_xyz
  1  'x, y, z'
loop_
 _atom_site_type_symbol
 _atom_site_label
 _atom_site_symmetry_multiplicity
 _atom_site_fract_x
 _atom_site_fract_y
 _atom_site_fract_z
 _atom_site_occupancy
  Mn  Mn0  1  0.000000  0.000000  0.000000  1
  Mn  Mn1  1  0.000000  0.000000  0.500000  1
  Mn  Mn2  1  0.475622  0.524378  0.750000  1
  Mn  Mn3  1  0.524378  0.475622  0.250000  1
  O  O4  1  0.812855  0.187145  0.250000  1
  O  O5  1  0.308024  0.308024  0.000000  1
  O  O6  1  0.308024  0.308024  0.500000  1
  O  O7  1  0.691976  0.691976  0.000000  1
  O  O8  1  0.691976  0.691976  0.500000  1
  O  O9  1  0.187145  0.812855  0.750000  1
  F  F10  1  0.779709  0.220291  0.750000  1
  F  F11  1  0.220291  0.779709  0.250000  1
