# generated using pymatgen
data_Li3P2WO8
_symmetry_space_group_name_H-M   'P 1'
_cell_length_a   5.06252002
_cell_length_b   18.53454542
_cell_length_c   7.98795563
_cell_angle_alpha   90.00000000
_cell_angle_beta   127.24809882
_cell_angle_gamma   90.00000000
_symmetry_Int_Tables_number   1
_chemical_formula_structural   Li3P2WO8
_chemical_formula_sum   'Li12 P8 W4 O32'
_cell_volume   596.63600103
_cell_formula_units_Z   4
loop_
 _symmetry_equiv_pos_site_id
 _symmetry_equiv_pos_as_xyz
  1  'x, y, z'
loop_
 _atom_site_type_symbol
 _atom_site_label
 _atom_site_symmetry_multiplicity
 _atom_site_fract_x
 _atom_site_fract_y
 _atom_site_fract_z
 _atom_site_occupancy
  Li  Li0  1  0.383720  0.701147  0.188588  1
  Li  Li1  1  0.720050  0.880279  0.497296  1
  Li  Li2  1  0.977948  0.049756  0.710710  1
  Li  Li3  1  0.279950  0.380279  0.002704  1
  Li  Li4  1  0.022052  0.549756  0.789290  1
  Li  Li5  1  0.616280  0.201147  0.311412  1
  Li  Li6  1  0.383720  0.798853  0.688588  1
  Li  Li7  1  0.977948  0.450244  0.210710  1
  Li  Li8  1  0.720050  0.619721  0.997296  1
  Li  Li9  1  0.022052  0.950244  0.289290  1
  Li  Li10  1  0.279950  0.119721  0.502704  1
  Li  Li11  1  0.616280  0.298853  0.811412  1
  P  P12  1  0.889113  0.714871  0.708762  1
  P  P13  1  0.488097  0.534985  0.268599  1
  P  P14  1  0.511903  0.034985  0.231401  1
  P  P15  1  0.110887  0.214871  0.791238  1
  P  P16  1  0.889113  0.785129  0.208762  1
  P  P17  1  0.488097  0.965015  0.768599  1
  P  P18  1  0.511903  0.465015  0.731401  1
  P  P19  1  0.110887  0.285129  0.291238  1
  W  W20  1  0.181759  0.873699  0.983176  1
  W  W21  1  0.818241  0.373699  0.516824  1
  W  W22  1  0.181759  0.626301  0.483176  1
  W  W23  1  0.818241  0.126301  0.016824  1
  O  O24  1  0.825603  0.201468  0.811268  1
  O  O25  1  0.553243  0.690485  0.501076  1
  O  O26  1  0.819559  0.443925  0.737289  1
  O  O27  1  0.960623  0.674638  0.899260  1
  O  O28  1  0.185954  0.062421  0.024288  1
  O  O29  1  0.554313  0.066425  0.422784  1
  O  O30  1  0.846343  0.798549  0.725152  1
  O  O31  1  0.482840  0.450008  0.262948  1
  O  O32  1  0.517160  0.950008  0.237052  1
  O  O33  1  0.153657  0.298549  0.774848  1
  O  O34  1  0.445687  0.566425  0.077216  1
  O  O35  1  0.814046  0.562421  0.475712  1
  O  O36  1  0.039377  0.174638  0.600740  1
  O  O37  1  0.180441  0.943925  0.762711  1
  O  O38  1  0.446757  0.190485  0.998924  1
  O  O39  1  0.174397  0.701468  0.688732  1
  O  O40  1  0.825603  0.298532  0.311268  1
  O  O41  1  0.553243  0.809515  0.001076  1
  O  O42  1  0.819559  0.056075  0.237289  1
  O  O43  1  0.960623  0.825362  0.399260  1
  O  O44  1  0.185954  0.437579  0.524288  1
  O  O45  1  0.554313  0.433575  0.922784  1
  O  O46  1  0.846343  0.701451  0.225152  1
  O  O47  1  0.482840  0.049992  0.762948  1
  O  O48  1  0.517160  0.549992  0.737052  1
  O  O49  1  0.153657  0.201451  0.274848  1
  O  O50  1  0.445687  0.933575  0.577216  1
  O  O51  1  0.814046  0.937579  0.975712  1
  O  O52  1  0.039377  0.325362  0.100740  1
  O  O53  1  0.180441  0.556075  0.262711  1
  O  O54  1  0.446757  0.309515  0.498924  1
  O  O55  1  0.174397  0.798532  0.188732  1
