# generated using pymatgen
data_LiMn(PO3)3
_symmetry_space_group_name_H-M   'P 1'
_cell_length_a   5.39371599
_cell_length_b   10.30487347
_cell_length_c   11.74210802
_cell_angle_alpha   90.00000000
_cell_angle_beta   90.00000000
_cell_angle_gamma   90.00000000
_symmetry_Int_Tables_number   1
_chemical_formula_structural   LiMn(PO3)3
_chemical_formula_sum   'Li4 Mn4 P12 O36'
_cell_volume   652.64469095
_cell_formula_units_Z   4
loop_
 _symmetry_equiv_pos_site_id
 _symmetry_equiv_pos_as_xyz
  1  'x, y, z'
loop_
 _atom_site_type_symbol
 _atom_site_label
 _atom_site_symmetry_multiplicity
 _atom_site_fract_x
 _atom_site_fract_y
 _atom_site_fract_z
 _atom_site_occupancy
  Li  Li0  1  0.573596  0.037887  0.363684  1
  Li  Li1  1  0.073596  0.462113  0.636316  1
  Li  Li2  1  0.426404  0.537887  0.136316  1
  Li  Li3  1  0.926404  0.962113  0.863684  1
  Mn  Mn4  1  0.109581  0.109478  0.589135  1
  Mn  Mn5  1  0.609581  0.390522  0.410865  1
  Mn  Mn6  1  0.890419  0.609478  0.910865  1
  Mn  Mn7  1  0.390419  0.890522  0.089135  1
  P  P8  1  0.882421  0.076904  0.122538  1
  P  P9  1  0.379479  0.139813  0.866016  1
  P  P10  1  0.092166  0.214762  0.317001  1
  P  P11  1  0.592166  0.285238  0.682999  1
  P  P12  1  0.879479  0.360187  0.133984  1
  P  P13  1  0.382421  0.423096  0.877462  1
  P  P14  1  0.117579  0.576904  0.377462  1
  P  P15  1  0.620521  0.639813  0.633984  1
  P  P16  1  0.907834  0.714762  0.182999  1
  P  P17  1  0.407834  0.785238  0.817001  1
  P  P18  1  0.120521  0.860187  0.366016  1
  P  P19  1  0.617579  0.923096  0.622538  1
  O  O20  1  0.015471  0.987401  0.041772  1
  O  O21  1  0.633479  0.036351  0.169015  1
  O  O22  1  0.487687  0.040212  0.944607  1
  O  O23  1  0.073015  0.095423  0.228565  1
  O  O24  1  0.138367  0.117220  0.805527  1
  O  O25  1  0.593699  0.165989  0.770769  1
  O  O26  1  0.340904  0.209376  0.374655  1
  O  O27  1  0.861234  0.218423  0.390372  1
  O  O28  1  0.874852  0.220606  0.068495  1
  O  O29  1  0.374852  0.279394  0.931505  1
  O  O30  1  0.361234  0.281577  0.609628  1
  O  O31  1  0.840904  0.290624  0.625345  1
  O  O32  1  0.093699  0.334011  0.229231  1
  O  O33  1  0.638367  0.382780  0.194473  1
  O  O34  1  0.573015  0.404577  0.771435  1
  O  O35  1  0.987687  0.459788  0.055393  1
  O  O36  1  0.133479  0.463649  0.830985  1
  O  O37  1  0.515471  0.512599  0.958228  1
  O  O38  1  0.984529  0.487401  0.458228  1
  O  O39  1  0.366521  0.536351  0.330985  1
  O  O40  1  0.512313  0.540212  0.555393  1
  O  O41  1  0.926985  0.595423  0.271435  1
  O  O42  1  0.861633  0.617220  0.694473  1
  O  O43  1  0.406301  0.665989  0.729231  1
  O  O44  1  0.659096  0.709376  0.125345  1
  O  O45  1  0.138766  0.718423  0.109628  1
  O  O46  1  0.125148  0.720606  0.431505  1
  O  O47  1  0.625148  0.779394  0.568495  1
  O  O48  1  0.638766  0.781577  0.890372  1
  O  O49  1  0.159096  0.790624  0.874655  1
  O  O50  1  0.906301  0.834011  0.270769  1
  O  O51  1  0.361633  0.882780  0.305527  1
  O  O52  1  0.426985  0.904577  0.728565  1
  O  O53  1  0.012313  0.959788  0.444607  1
  O  O54  1  0.866521  0.963649  0.669015  1
  O  O55  1  0.484529  0.012599  0.541772  1
