# generated using pymatgen
data_FeOF
_symmetry_space_group_name_H-M   'P 1'
_cell_length_a   9.48672196
_cell_length_b   3.08998309
_cell_length_c   14.21483957
_cell_angle_alpha   90.00000000
_cell_angle_beta   90.39399514
_cell_angle_gamma   90.00000000
_symmetry_Int_Tables_number   1
_chemical_formula_structural   FeOF
_chemical_formula_sum   'Fe12 O12 F12'
_cell_volume   416.68126101
_cell_formula_units_Z   12
loop_
 _symmetry_equiv_pos_site_id
 _symmetry_equiv_pos_as_xyz
  1  'x, y, z'
loop_
 _atom_site_type_symbol
 _atom_site_label
 _atom_site_symmetry_multiplicity
 _atom_site_fract_x
 _atom_site_fract_y
 _atom_site_fract_z
 _atom_site_occupancy
  Fe  Fe0  1  0.999130  0.000000  0.999614  1
  Fe  Fe1  1  0.495813  0.000000  0.008121  1
  Fe  Fe2  1  0.243198  0.500000  0.149217  1
  Fe  Fe3  1  0.721474  0.500000  0.164611  1
  Fe  Fe4  1  0.990252  0.000000  0.342308  1
  Fe  Fe5  1  0.512292  0.000000  0.333737  1
  Fe  Fe6  1  0.744832  0.500000  0.489519  1
  Fe  Fe7  1  0.250456  0.500000  0.520891  1
  Fe  Fe8  1  0.008670  0.000000  0.672810  1
  Fe  Fe9  1  0.488230  0.000000  0.669950  1
  Fe  Fe10  1  0.253255  0.500000  0.815370  1
  Fe  Fe11  1  0.781841  0.500000  0.833636  1
  O  O12  1  0.401773  0.500000  0.063998  1
  O  O13  1  0.143005  0.000000  0.098238  1
  O  O14  1  0.656385  0.000000  0.096474  1
  O  O15  1  0.592791  0.500000  0.268550  1
  O  O16  1  0.903503  0.500000  0.397720  1
  O  O17  1  0.645913  0.000000  0.437568  1
  O  O18  1  0.356753  0.000000  0.564340  1
  O  O19  1  0.093562  0.500000  0.599798  1
  O  O20  1  0.411486  0.500000  0.734419  1
  O  O21  1  0.902502  0.500000  0.730419  1
  O  O22  1  0.155403  0.000000  0.770715  1
  O  O23  1  0.856396  0.000000  0.905175  1
  F  F24  1  0.903479  0.500000  0.069178  1
  F  F25  1  0.336906  0.000000  0.231615  1
  F  F26  1  0.850648  0.000000  0.229329  1
  F  F27  1  0.096570  0.500000  0.268895  1
  F  F28  1  0.394559  0.500000  0.394278  1
  F  F29  1  0.156673  0.000000  0.431561  1
  F  F30  1  0.841391  0.000000  0.562074  1
  F  F31  1  0.606451  0.500000  0.606642  1
  F  F32  1  0.657207  0.000000  0.770769  1
  F  F33  1  0.349473  0.000000  0.899843  1
  F  F34  1  0.103211  0.500000  0.937290  1
  F  F35  1  0.594521  0.500000  0.931327  1
