# generated using pymatgen
data_LiZn(FeO2)4
_symmetry_space_group_name_H-M   'P 1'
_cell_length_a   6.01347176
_cell_length_b   6.01347176
_cell_length_c   6.01347176
_cell_angle_alpha   59.70682900
_cell_angle_beta   59.70682900
_cell_angle_gamma   59.70682900
_symmetry_Int_Tables_number   1
_chemical_formula_structural   LiZn(FeO2)4
_chemical_formula_sum   'Li1 Zn1 Fe4 O8'
_cell_volume   152.74224184
_cell_formula_units_Z   1
loop_
 _symmetry_equiv_pos_site_id
 _symmetry_equiv_pos_as_xyz
  1  'x, y, z'
loop_
 _atom_site_type_symbol
 _atom_site_label
 _atom_site_symmetry_multiplicity
 _atom_site_fract_x
 _atom_site_fract_y
 _atom_site_fract_z
 _atom_site_occupancy
  Li  Li0  1  0.998448  0.998448  0.998448  1
  Zn  Zn1  1  0.372335  0.372335  0.372335  1
  Fe  Fe2  1  0.752175  0.752175  0.752175  1
  Fe  Fe3  1  0.884050  0.372402  0.372402  1
  Fe  Fe4  1  0.372402  0.884050  0.372402  1
  Fe  Fe5  1  0.372402  0.372402  0.884050  1
  O  O6  1  0.622862  0.147087  0.622862  1
  O  O7  1  0.622862  0.622862  0.147087  1
  O  O8  1  0.147087  0.622862  0.622862  1
  O  O9  1  0.620810  0.620810  0.620810  1
  O  O10  1  0.594053  0.128075  0.128075  1
  O  O11  1  0.134362  0.134362  0.134362  1
  O  O12  1  0.128075  0.594053  0.128075  1
  O  O13  1  0.128075  0.128075  0.594053  1
