# generated using pymatgen
data_Li2CrFe3O8
_symmetry_space_group_name_H-M   'P 1'
_cell_length_a   8.45085159
_cell_length_b   8.45085159
_cell_length_c   8.38566470
_cell_angle_alpha   90.00000000
_cell_angle_beta   90.00000000
_cell_angle_gamma   90.15282440
_symmetry_Int_Tables_number   1
_chemical_formula_structural   Li2CrFe3O8
_chemical_formula_sum   'Li8 Cr4 Fe12 O32'
_cell_volume   598.87598548
_cell_formula_units_Z   4
loop_
 _symmetry_equiv_pos_site_id
 _symmetry_equiv_pos_as_xyz
  1  'x, y, z'
loop_
 _atom_site_type_symbol
 _atom_site_label
 _atom_site_symmetry_multiplicity
 _atom_site_fract_x
 _atom_site_fract_y
 _atom_site_fract_z
 _atom_site_occupancy
  Li  Li0  1  0.999465  0.751782  0.878764  1
  Li  Li1  1  0.751782  0.999465  0.121236  1
  Li  Li2  1  0.248218  0.000535  0.621236  1
  Li  Li3  1  0.000535  0.248218  0.378764  1
  Li  Li4  1  0.500909  0.250554  0.877325  1
  Li  Li5  1  0.749446  0.499091  0.622675  1
  Li  Li6  1  0.250554  0.500909  0.122675  1
  Li  Li7  1  0.499091  0.749446  0.377325  1
  Cr  Cr8  1  0.123770  0.876230  0.250000  1
  Cr  Cr9  1  0.876230  0.123770  0.750000  1
  Cr  Cr10  1  0.373194  0.373194  0.500000  1
  Cr  Cr11  1  0.626806  0.626806  0.000000  1
  Fe  Fe12  1  0.876694  0.876694  0.500000  1
  Fe  Fe13  1  0.625213  0.874871  0.752535  1
  Fe  Fe14  1  0.374814  0.873644  0.999536  1
  Fe  Fe15  1  0.625186  0.126356  0.499536  1
  Fe  Fe16  1  0.374787  0.125129  0.252535  1
  Fe  Fe17  1  0.123306  0.123306  1.000000  1
  Fe  Fe18  1  0.625734  0.374266  0.250000  1
  Fe  Fe19  1  0.873644  0.374814  0.000464  1
  Fe  Fe20  1  0.125129  0.374787  0.747465  1
  Fe  Fe21  1  0.874871  0.625213  0.247465  1
  Fe  Fe22  1  0.126356  0.625186  0.500464  1
  Fe  Fe23  1  0.374266  0.625734  0.750000  1
  O  O24  1  0.888198  0.865093  0.260072  1
  O  O25  1  0.109994  0.863853  0.485509  1
  O  O26  1  0.386503  0.866326  0.760561  1
  O  O27  1  0.865093  0.888198  0.739928  1
  O  O28  1  0.616228  0.867013  0.981399  1
  O  O29  1  0.636465  0.885559  0.519433  1
  O  O30  1  0.360107  0.888778  0.240671  1
  O  O31  1  0.136147  0.890006  0.014491  1
  O  O32  1  0.863853  0.109994  0.514491  1
  O  O33  1  0.639893  0.111222  0.740671  1
  O  O34  1  0.363535  0.114441  0.019433  1
  O  O35  1  0.383772  0.132987  0.481399  1
  O  O36  1  0.134907  0.111802  0.239928  1
  O  O37  1  0.613497  0.133674  0.260561  1
  O  O38  1  0.890006  0.136147  0.985509  1
  O  O39  1  0.111802  0.134907  0.760072  1
  O  O40  1  0.610258  0.358933  0.490167  1
  O  O41  1  0.385319  0.358731  0.261162  1
  O  O42  1  0.114441  0.363535  0.980567  1
  O  O43  1  0.641067  0.389742  0.009833  1
  O  O44  1  0.888778  0.360107  0.759329  1
  O  O45  1  0.866326  0.386503  0.239439  1
  O  O46  1  0.132987  0.383772  0.518601  1
  O  O47  1  0.358731  0.385319  0.738838  1
  O  O48  1  0.641269  0.614681  0.238838  1
  O  O49  1  0.867013  0.616228  0.018601  1
  O  O50  1  0.133674  0.613497  0.739439  1
  O  O51  1  0.111222  0.639893  0.259329  1
  O  O52  1  0.358933  0.610258  0.509833  1
  O  O53  1  0.885559  0.636465  0.480567  1
  O  O54  1  0.614681  0.641269  0.761162  1
  O  O55  1  0.389742  0.641067  0.990167  1
