# generated using pymatgen
data_Cd4NiH20(ClO)10
_symmetry_space_group_name_H-M   'P 1'
_cell_length_a   6.72840344
_cell_length_b   12.04719891
_cell_length_c   16.46402135
_cell_angle_alpha   90.00000000
_cell_angle_beta   109.08284641
_cell_angle_gamma   90.00000000
_symmetry_Int_Tables_number   1
_chemical_formula_structural   Cd4NiH20(ClO)10
_chemical_formula_sum   'Cd8 Ni2 H40 Cl20 O20'
_cell_volume   1261.20986127
_cell_formula_units_Z   2
loop_
 _symmetry_equiv_pos_site_id
 _symmetry_equiv_pos_as_xyz
  1  'x, y, z'
loop_
 _atom_site_type_symbol
 _atom_site_label
 _atom_site_symmetry_multiplicity
 _atom_site_fract_x
 _atom_site_fract_y
 _atom_site_fract_z
 _atom_site_occupancy
  Cd  Cd0  1  0.305665  0.516800  0.068158  1
  Cd  Cd1  1  0.694335  0.016800  0.431842  1
  Cd  Cd2  1  0.694335  0.483200  0.931842  1
  Cd  Cd3  1  0.305665  0.983200  0.568158  1
  Cd  Cd4  1  0.889866  0.524880  0.190771  1
  Cd  Cd5  1  0.110134  0.024880  0.309229  1
  Cd  Cd6  1  0.110134  0.475120  0.809229  1
  Cd  Cd7  1  0.889866  0.975120  0.690771  1
  Ni  Ni8  1  0.500000  0.500000  0.500000  1
  Ni  Ni9  1  0.500000  0.000000  0.000000  1
  H  H10  1  0.096198  0.743646  0.242396  1
  H  H11  1  0.903802  0.243646  0.257604  1
  H  H12  1  0.903802  0.256354  0.757604  1
  H  H13  1  0.096198  0.756354  0.742396  1
  H  H14  1  0.213740  0.658030  0.314738  1
  H  H15  1  0.786260  0.158030  0.185262  1
  H  H16  1  0.786260  0.341970  0.685262  1
  H  H17  1  0.213740  0.841970  0.814738  1
  H  H18  1  0.615335  0.699318  0.576703  1
  H  H19  1  0.384665  0.199318  0.923297  1
  H  H20  1  0.384665  0.300682  0.423297  1
  H  H21  1  0.615335  0.800682  0.076703  1
  H  H22  1  0.817804  0.623537  0.601941  1
  H  H23  1  0.182196  0.123537  0.898059  1
  H  H24  1  0.182196  0.376463  0.398059  1
  H  H25  1  0.817804  0.876463  0.101941  1
  H  H26  1  0.445887  0.515411  0.332917  1
  H  H27  1  0.554113  0.015411  0.167083  1
  H  H28  1  0.554113  0.484589  0.667083  1
  H  H29  1  0.445887  0.984589  0.832917  1
  H  H30  1  0.602223  0.610637  0.383919  1
  H  H31  1  0.397777  0.110637  0.116081  1
  H  H32  1  0.397777  0.389363  0.616081  1
  H  H33  1  0.602223  0.889363  0.883919  1
  H  H34  1  0.193495  0.576714  0.554456  1
  H  H35  1  0.806505  0.076714  0.945544  1
  H  H36  1  0.806505  0.423286  0.445544  1
  H  H37  1  0.193495  0.923286  0.054456  1
  H  H38  1  0.104668  0.607375  0.455648  1
  H  H39  1  0.895332  0.107375  0.044352  1
  H  H40  1  0.895332  0.392625  0.544352  1
  H  H41  1  0.104668  0.892625  0.955648  1
  H  H42  1  0.860039  0.732793  0.445839  1
  H  H43  1  0.139961  0.232793  0.054161  1
  H  H44  1  0.139961  0.267207  0.554161  1
  H  H45  1  0.860039  0.767207  0.945839  1
  H  H46  1  0.852939  0.715713  0.351459  1
  H  H47  1  0.147061  0.215713  0.148541  1
  H  H48  1  0.147061  0.284287  0.648541  1
  H  H49  1  0.852939  0.784287  0.851459  1
  Cl  Cl50  1  0.947004  0.626369  0.044891  1
  Cl  Cl51  1  0.052996  0.126369  0.455109  1
  Cl  Cl52  1  0.052996  0.373631  0.955109  1
  Cl  Cl53  1  0.947004  0.873631  0.544891  1
  Cl  Cl54  1  0.236738  0.421860  0.200397  1
  Cl  Cl55  1  0.763262  0.921860  0.299603  1
  Cl  Cl56  1  0.763262  0.578140  0.799603  1
  Cl  Cl57  1  0.236738  0.078140  0.700397  1
  Cl  Cl58  1  0.363924  0.611759  0.928134  1
  Cl  Cl59  1  0.636076  0.111759  0.571866  1
  Cl  Cl60  1  0.636076  0.388241  0.071866  1
  Cl  Cl61  1  0.363924  0.888241  0.428134  1
  Cl  Cl62  1  0.567066  0.655124  0.166952  1
  Cl  Cl63  1  0.432934  0.155124  0.333048  1
  Cl  Cl64  1  0.432934  0.344876  0.833048  1
  Cl  Cl65  1  0.567066  0.844876  0.666952  1
  Cl  Cl66  1  0.869141  0.404739  0.319006  1
  Cl  Cl67  1  0.130859  0.904739  0.180994  1
  Cl  Cl68  1  0.130859  0.595261  0.680994  1
  Cl  Cl69  1  0.869141  0.095261  0.819006  1
  O  O70  1  0.073848  0.678919  0.275500  1
  O  O71  1  0.926152  0.178919  0.224500  1
  O  O72  1  0.926152  0.321081  0.724500  1
  O  O73  1  0.073848  0.821081  0.775500  1
  O  O74  1  0.679967  0.636332  0.556929  1
  O  O75  1  0.320033  0.136332  0.943071  1
  O  O76  1  0.320033  0.363668  0.443071  1
  O  O77  1  0.679967  0.863668  0.056929  1
  O  O78  1  0.467923  0.570641  0.379034  1
  O  O79  1  0.532077  0.070641  0.120966  1
  O  O80  1  0.532077  0.429359  0.620966  1
  O  O81  1  0.467923  0.929359  0.879034  1
  O  O82  1  0.232931  0.584219  0.502155  1
  O  O83  1  0.767069  0.084219  0.997845  1
  O  O84  1  0.767069  0.415781  0.497845  1
  O  O85  1  0.232931  0.915781  0.002155  1
  O  O86  1  0.846160  0.674889  0.402148  1
  O  O87  1  0.153840  0.174889  0.097852  1
  O  O88  1  0.153840  0.325111  0.597852  1
  O  O89  1  0.846160  0.825111  0.902148  1
