# generated using pymatgen
data_Mn3CrCu2(PO4)6
_symmetry_space_group_name_H-M   'P 1'
_cell_length_a   8.53030404
_cell_length_b   8.53030404
_cell_length_c   8.53030404
_cell_angle_alpha   59.86906846
_cell_angle_beta   59.86906846
_cell_angle_gamma   59.86906846
_symmetry_Int_Tables_number   1
_chemical_formula_structural   Mn3CrCu2(PO4)6
_chemical_formula_sum   'Mn3 Cr1 Cu2 P6 O24'
_cell_volume   437.60908768
_cell_formula_units_Z   1
loop_
 _symmetry_equiv_pos_site_id
 _symmetry_equiv_pos_as_xyz
  1  'x, y, z'
loop_
 _atom_site_type_symbol
 _atom_site_label
 _atom_site_symmetry_multiplicity
 _atom_site_fract_x
 _atom_site_fract_y
 _atom_site_fract_z
 _atom_site_occupancy
  Mn  Mn0  1  0.857522  0.857522  0.857522  1
  Mn  Mn1  1  0.642181  0.642181  0.642181  1
  Mn  Mn2  1  0.357502  0.357502  0.357502  1
  Cr  Cr3  1  0.141096  0.141096  0.141096  1
  Cu  Cu4  1  0.000902  0.000902  0.000902  1
  Cu  Cu5  1  0.500180  0.500180  0.500180  1
  P  P6  1  0.250210  0.540510  0.960896  1
  P  P7  1  0.960896  0.250210  0.540510  1
  P  P8  1  0.540510  0.960896  0.250210  1
  P  P9  1  0.460713  0.037712  0.748888  1
  P  P10  1  0.037712  0.748888  0.460713  1
  P  P11  1  0.748888  0.460713  0.037712  1
  O  O12  1  0.695152  0.493533  0.874854  1
  O  O13  1  0.493533  0.874854  0.695152  1
  O  O14  1  0.082558  0.738667  0.944175  1
  O  O15  1  0.874854  0.695152  0.493533  1
  O  O16  1  0.197542  0.380434  0.989300  1
  O  O17  1  0.420525  0.556958  0.763237  1
  O  O18  1  0.944175  0.082558  0.738667  1
  O  O19  1  0.763237  0.420525  0.556958  1
  O  O20  1  0.622114  0.009745  0.801686  1
  O  O21  1  0.556958  0.763237  0.420525  1
  O  O22  1  0.264182  0.055415  0.914279  1
  O  O23  1  0.009745  0.801686  0.622114  1
  O  O24  1  0.989300  0.197542  0.380434  1
  O  O25  1  0.738667  0.944175  0.082558  1
  O  O26  1  0.446603  0.235100  0.578827  1
  O  O27  1  0.380434  0.989300  0.197542  1
  O  O28  1  0.235100  0.578827  0.446603  1
  O  O29  1  0.055415  0.914279  0.264182  1
  O  O30  1  0.578827  0.446603  0.235100  1
  O  O31  1  0.801686  0.622114  0.009745  1
  O  O32  1  0.122951  0.302788  0.511061  1
  O  O33  1  0.914279  0.264182  0.055415  1
  O  O34  1  0.511061  0.122951  0.302788  1
  O  O35  1  0.302788  0.511061  0.122951  1
