# generated using pymatgen
data_V3Cu2Ni(PO4)6
_symmetry_space_group_name_H-M   'P 1'
_cell_length_a   8.57733033
_cell_length_b   8.57733033
_cell_length_c   8.57733033
_cell_angle_alpha   60.26208682
_cell_angle_beta   60.26208682
_cell_angle_gamma   60.26208682
_symmetry_Int_Tables_number   1
_chemical_formula_structural   V3Cu2Ni(PO4)6
_chemical_formula_sum   'V3 Cu2 Ni1 P6 O24'
_cell_volume   448.85921897
_cell_formula_units_Z   1
loop_
 _symmetry_equiv_pos_site_id
 _symmetry_equiv_pos_as_xyz
  1  'x, y, z'
loop_
 _atom_site_type_symbol
 _atom_site_label
 _atom_site_symmetry_multiplicity
 _atom_site_fract_x
 _atom_site_fract_y
 _atom_site_fract_z
 _atom_site_occupancy
  V  V0  1  0.642715  0.642715  0.642715  1
  V  V1  1  0.858502  0.858502  0.858502  1
  V  V2  1  0.356548  0.356548  0.356548  1
  Cu  Cu3  1  0.002802  0.002802  0.002802  1
  Cu  Cu4  1  0.499704  0.499704  0.499704  1
  Ni  Ni5  1  0.141660  0.141660  0.141660  1
  P  P6  1  0.959003  0.248427  0.540292  1
  P  P7  1  0.540292  0.959003  0.248427  1
  P  P8  1  0.248427  0.540292  0.959003  1
  P  P9  1  0.750551  0.458468  0.040296  1
  P  P10  1  0.458468  0.040296  0.750551  1
  P  P11  1  0.040296  0.750551  0.458468  1
  O  O12  1  0.505120  0.122329  0.305881  1
  O  O13  1  0.305881  0.505120  0.122329  1
  O  O14  1  0.122329  0.305881  0.505120  1
  O  O15  1  0.940204  0.085106  0.739075  1
  O  O16  1  0.982192  0.199418  0.383740  1
  O  O17  1  0.763240  0.417507  0.570646  1
  O  O18  1  0.739075  0.940204  0.085106  1
  O  O19  1  0.570646  0.763240  0.417507  1
  O  O20  1  0.806998  0.622517  0.002831  1
  O  O21  1  0.417507  0.570646  0.763240  1
  O  O22  1  0.910243  0.267569  0.046773  1
  O  O23  1  0.622517  0.002831  0.806998  1
  O  O24  1  0.383740  0.982192  0.199418  1
  O  O25  1  0.085106  0.739075  0.940204  1
  O  O26  1  0.579912  0.447022  0.231756  1
  O  O27  1  0.199418  0.383740  0.982192  1
  O  O28  1  0.447022  0.231756  0.579912  1
  O  O29  1  0.267569  0.046773  0.910243  1
  O  O30  1  0.231756  0.579912  0.447022  1
  O  O31  1  0.002831  0.806998  0.622517  1
  O  O32  1  0.046773  0.910243  0.267569  1
  O  O33  1  0.874885  0.683262  0.512807  1
  O  O34  1  0.683262  0.512807  0.874885  1
  O  O35  1  0.512807  0.874885  0.683262  1
