# generated using pymatgen
data_TmCrO3
_symmetry_space_group_name_H-M   'P 1'
_cell_length_a   5.24554733
_cell_length_b   5.56617853
_cell_length_c   7.59400789
_cell_angle_alpha   90.00000000
_cell_angle_beta   90.00000000
_cell_angle_gamma   90.00000000
_symmetry_Int_Tables_number   1
_chemical_formula_structural   TmCrO3
_chemical_formula_sum   'Tm4 Cr4 O12'
_cell_volume   221.72720669
_cell_formula_units_Z   4
loop_
 _symmetry_equiv_pos_site_id
 _symmetry_equiv_pos_as_xyz
  1  'x, y, z'
loop_
 _atom_site_type_symbol
 _atom_site_label
 _atom_site_symmetry_multiplicity
 _atom_site_fract_x
 _atom_site_fract_y
 _atom_site_fract_z
 _atom_site_occupancy
  Tm  Tm0  1  0.520702  0.569641  0.250000  1
  Tm  Tm1  1  0.979298  0.069641  0.250000  1
  Tm  Tm2  1  0.479298  0.430359  0.750000  1
  Tm  Tm3  1  0.020702  0.930359  0.750000  1
  Cr  Cr4  1  0.000000  0.500000  0.000000  1
  Cr  Cr5  1  0.500000  0.000000  0.500000  1
  Cr  Cr6  1  0.000000  0.500000  0.500000  1
  Cr  Cr7  1  0.500000  0.000000  0.000000  1
  O  O8  1  0.378939  0.952227  0.250000  1
  O  O9  1  0.121061  0.452227  0.250000  1
  O  O10  1  0.621061  0.047773  0.750000  1
  O  O11  1  0.878939  0.547773  0.750000  1
  O  O12  1  0.810347  0.805259  0.061479  1
  O  O13  1  0.689653  0.305259  0.438521  1
  O  O14  1  0.189653  0.194741  0.561479  1
  O  O15  1  0.310347  0.694741  0.938521  1
  O  O16  1  0.189653  0.194741  0.938521  1
  O  O17  1  0.310347  0.694741  0.561479  1
  O  O18  1  0.810347  0.805259  0.438521  1
  O  O19  1  0.689653  0.305259  0.061479  1
