# generated using pymatgen
data_Ti3PdO
_symmetry_space_group_name_H-M   'P 1'
_cell_length_a   5.86220282
_cell_length_b   5.86220282
_cell_length_c   5.86220282
_cell_angle_alpha   121.65284794
_cell_angle_beta   121.65284794
_cell_angle_gamma   87.16025668
_symmetry_Int_Tables_number   1
_chemical_formula_structural   Ti3PdO
_chemical_formula_sum   'Ti6 Pd2 O2'
_cell_volume   138.70758738
_cell_formula_units_Z   2
loop_
 _symmetry_equiv_pos_site_id
 _symmetry_equiv_pos_as_xyz
  1  'x, y, z'
loop_
 _atom_site_type_symbol
 _atom_site_label
 _atom_site_symmetry_multiplicity
 _atom_site_fract_x
 _atom_site_fract_y
 _atom_site_fract_z
 _atom_site_occupancy
  Ti  Ti0  1  0.207349  0.707349  0.914697  1
  Ti  Ti1  1  0.292651  0.207349  0.500000  1
  Ti  Ti2  1  0.250000  0.250000  0.000000  1
  Ti  Ti3  1  0.707349  0.792651  0.500000  1
  Ti  Ti4  1  0.792651  0.292651  0.085303  1
  Ti  Ti5  1  0.750000  0.750000  0.000000  1
  Pd  Pd6  1  0.250000  0.750000  0.500000  1
  Pd  Pd7  1  0.750000  0.250000  0.500000  1
  O  O8  1  0.000000  0.000000  0.000000  1
  O  O9  1  0.500000  0.500000  0.000000  1
