# generated using pymatgen
data_Li3Ti6O13
_symmetry_space_group_name_H-M   'P 1'
_cell_length_a   6.33971606
_cell_length_b   6.33971606
_cell_length_c   10.51469261
_cell_angle_alpha   79.81631316
_cell_angle_beta   100.18368684
_cell_angle_gamma   143.45625120
_symmetry_Int_Tables_number   1
_chemical_formula_structural   Li3Ti6O13
_chemical_formula_sum   'Li3 Ti6 O13'
_cell_volume   247.23503717
_cell_formula_units_Z   1
loop_
 _symmetry_equiv_pos_site_id
 _symmetry_equiv_pos_as_xyz
  1  'x, y, z'
loop_
 _atom_site_type_symbol
 _atom_site_label
 _atom_site_symmetry_multiplicity
 _atom_site_fract_x
 _atom_site_fract_y
 _atom_site_fract_z
 _atom_site_occupancy
  Li  Li0  1  0.069278  0.930722  0.413252  1
  Li  Li1  1  0.000000  0.000000  0.000000  1
  Li  Li2  1  0.930722  0.069278  0.586748  1
  Ti  Ti3  1  0.282130  0.717870  0.640843  1
  Ti  Ti4  1  0.401712  0.598288  0.360304  1
  Ti  Ti5  1  0.341995  0.658005  0.001399  1
  Ti  Ti6  1  0.658005  0.341995  0.998601  1
  Ti  Ti7  1  0.598288  0.401712  0.639696  1
  Ti  Ti8  1  0.717870  0.282130  0.359157  1
  O  O9  1  0.106694  0.893306  0.606820  1
  O  O10  1  0.170704  0.829296  0.000144  1
  O  O11  1  0.238380  0.761620  0.399543  1
  O  O12  1  0.316441  0.683559  0.807960  1
  O  O13  1  0.432458  0.567542  0.592723  1
  O  O14  1  0.378243  0.621757  0.191849  1
  O  O15  1  0.621757  0.378243  0.808151  1
  O  O16  1  0.500000  0.500000  0.000000  1
  O  O17  1  0.567542  0.432458  0.407277  1
  O  O18  1  0.683559  0.316441  0.192040  1
  O  O19  1  0.761620  0.238380  0.600457  1
  O  O20  1  0.829296  0.170704  0.999856  1
  O  O21  1  0.893306  0.106694  0.393180  1
