# generated using pymatgen
data_Sm2V2O7
_symmetry_space_group_name_H-M   'P 1'
_cell_length_a   6.93485270
_cell_length_b   7.01158177
_cell_length_c   12.61928805
_cell_angle_alpha   99.70061242
_cell_angle_beta   100.55612304
_cell_angle_gamma   92.11619160
_symmetry_Int_Tables_number   1
_chemical_formula_structural   Sm2V2O7
_chemical_formula_sum   'Sm8 V8 O28'
_cell_volume   593.13719676
_cell_formula_units_Z   4
loop_
 _symmetry_equiv_pos_site_id
 _symmetry_equiv_pos_as_xyz
  1  'x, y, z'
loop_
 _atom_site_type_symbol
 _atom_site_label
 _atom_site_symmetry_multiplicity
 _atom_site_fract_x
 _atom_site_fract_y
 _atom_site_fract_z
 _atom_site_occupancy
  Sm  Sm0  1  0.173537  0.974388  0.139428  1
  Sm  Sm1  1  0.780664  0.717012  0.361029  1
  Sm  Sm2  1  0.260507  0.719005  0.872986  1
  Sm  Sm3  1  0.664341  0.617243  0.631373  1
  Sm  Sm4  1  0.335659  0.382757  0.368627  1
  Sm  Sm5  1  0.739493  0.280995  0.127014  1
  Sm  Sm6  1  0.219336  0.282988  0.638971  1
  Sm  Sm7  1  0.826463  0.025612  0.860572  1
  V  V8  1  0.686597  0.821418  0.104425  1
  V  V9  1  0.318289  0.834204  0.394574  1
  V  V10  1  0.152207  0.806894  0.619217  1
  V  V11  1  0.735558  0.509969  0.878042  1
  V  V12  1  0.264442  0.490031  0.121958  1
  V  V13  1  0.847793  0.193106  0.380783  1
  V  V14  1  0.681711  0.165796  0.605426  1
  V  V15  1  0.313403  0.178582  0.895575  1
  O  O16  1  0.504437  0.988912  0.122292  1
  O  O17  1  0.677006  0.963472  0.674702  1
  O  O18  1  0.151807  0.019900  0.953255  1
  O  O19  1  0.256121  0.962772  0.535896  1
  O  O20  1  0.136317  0.995231  0.738320  1
  O  O21  1  0.779930  0.623366  0.168441  1
  O  O22  1  0.114728  0.658436  0.366766  1
  O  O23  1  0.512727  0.678727  0.458337  1
  O  O24  1  0.170681  0.664557  0.039197  1
  O  O25  1  0.916435  0.702083  0.547585  1
  O  O26  1  0.869084  0.686904  0.818812  1
  O  O27  1  0.579159  0.661968  0.957289  1
  O  O28  1  0.310309  0.635775  0.682366  1
  O  O29  1  0.402446  0.642135  0.247123  1
  O  O30  1  0.597554  0.357865  0.752877  1
  O  O31  1  0.689691  0.364225  0.317634  1
  O  O32  1  0.420841  0.338032  0.042711  1
  O  O33  1  0.130916  0.313096  0.181188  1
  O  O34  1  0.083565  0.297917  0.452415  1
  O  O35  1  0.829319  0.335443  0.960803  1
  O  O36  1  0.487273  0.321273  0.541663  1
  O  O37  1  0.885272  0.341564  0.633234  1
  O  O38  1  0.220070  0.376634  0.831559  1
  O  O39  1  0.863683  0.004769  0.261680  1
  O  O40  1  0.743879  0.037228  0.464104  1
  O  O41  1  0.848193  0.980100  0.046745  1
  O  O42  1  0.322994  0.036528  0.325298  1
  O  O43  1  0.495563  0.011088  0.877708  1
