# generated using pymatgen
data_Ti3Fe2Te(PO4)6
_symmetry_space_group_name_H-M   'P 1'
_cell_length_a   8.64726095
_cell_length_b   8.64726095
_cell_length_c   8.64726095
_cell_angle_alpha   61.30084682
_cell_angle_beta   61.30084682
_cell_angle_gamma   61.30084682
_symmetry_Int_Tables_number   1
_chemical_formula_structural   Ti3Fe2Te(PO4)6
_chemical_formula_sum   'Ti3 Fe2 Te1 P6 O24'
_cell_volume   470.58475116
_cell_formula_units_Z   1
loop_
 _symmetry_equiv_pos_site_id
 _symmetry_equiv_pos_as_xyz
  1  'x, y, z'
loop_
 _atom_site_type_symbol
 _atom_site_label
 _atom_site_symmetry_multiplicity
 _atom_site_fract_x
 _atom_site_fract_y
 _atom_site_fract_z
 _atom_site_occupancy
  Ti  Ti0  1  0.855899  0.855899  0.855899  1
  Ti  Ti1  1  0.644795  0.644795  0.644795  1
  Ti  Ti2  1  0.357017  0.357017  0.357017  1
  Fe  Fe3  1  0.996480  0.996480  0.996480  1
  Fe  Fe4  1  0.500477  0.500477  0.500477  1
  Te  Te5  1  0.145400  0.145400  0.145400  1
  P  P6  1  0.743095  0.462174  0.043115  1
  P  P7  1  0.462174  0.043115  0.743095  1
  P  P8  1  0.043115  0.743095  0.462174  1
  P  P9  1  0.950744  0.252676  0.553923  1
  P  P10  1  0.553923  0.950744  0.252676  1
  P  P11  1  0.252676  0.553923  0.950744  1
  O  O12  1  0.888799  0.671872  0.509213  1
  O  O13  1  0.671872  0.509213  0.888799  1
  O  O14  1  0.937484  0.092669  0.744460  1
  O  O15  1  0.509213  0.888799  0.671872  1
  O  O16  1  0.976895  0.185256  0.403188  1
  O  O17  1  0.757847  0.410078  0.569453  1
  O  O18  1  0.744460  0.937484  0.092669  1
  O  O19  1  0.569453  0.757847  0.410078  1
  O  O20  1  0.817463  0.612720  0.000776  1
  O  O21  1  0.410078  0.569453  0.757847  1
  O  O22  1  0.897949  0.264477  0.051821  1
  O  O23  1  0.612720  0.000776  0.817463  1
  O  O24  1  0.403188  0.976895  0.185256  1
  O  O25  1  0.092669  0.744460  0.937484  1
  O  O26  1  0.588725  0.445847  0.238091  1
  O  O27  1  0.185256  0.403188  0.976895  1
  O  O28  1  0.445847  0.238091  0.588725  1
  O  O29  1  0.264477  0.051821  0.897949  1
  O  O30  1  0.238091  0.588725  0.445847  1
  O  O31  1  0.000776  0.817463  0.612720  1
  O  O32  1  0.502415  0.113746  0.312962  1
  O  O33  1  0.051821  0.897949  0.264477  1
  O  O34  1  0.312962  0.502415  0.113746  1
  O  O35  1  0.113746  0.312962  0.502415  1
