# generated using pymatgen
data_Li2FeBO4
_symmetry_space_group_name_H-M   'P 1'
_cell_length_a   5.03906956
_cell_length_b   5.03906956
_cell_length_c   6.17436845
_cell_angle_alpha   90.00000000
_cell_angle_beta   90.00000000
_cell_angle_gamma   92.05930910
_symmetry_Int_Tables_number   1
_chemical_formula_structural   Li2FeBO4
_chemical_formula_sum   'Li4 Fe2 B2 O8'
_cell_volume   156.67967986
_cell_formula_units_Z   2
loop_
 _symmetry_equiv_pos_site_id
 _symmetry_equiv_pos_as_xyz
  1  'x, y, z'
loop_
 _atom_site_type_symbol
 _atom_site_label
 _atom_site_symmetry_multiplicity
 _atom_site_fract_x
 _atom_site_fract_y
 _atom_site_fract_z
 _atom_site_occupancy
  Li  Li0  1  0.695215  0.304785  0.250000  1
  Li  Li1  1  0.174533  0.174533  1.000000  1
  Li  Li2  1  0.825467  0.825467  0.500000  1
  Li  Li3  1  0.304785  0.695215  0.750000  1
  Fe  Fe4  1  0.683950  0.316050  0.750000  1
  Fe  Fe5  1  0.316050  0.683950  0.250000  1
  B  B6  1  0.180731  0.180731  0.500000  1
  B  B7  1  0.819269  0.819269  1.000000  1
  O  O8  1  0.886054  0.219153  0.507639  1
  O  O9  1  0.780847  0.113946  0.992361  1
  O  O10  1  0.307056  0.293850  0.700804  1
  O  O11  1  0.706150  0.692944  0.799196  1
  O  O12  1  0.692944  0.706150  0.200804  1
  O  O13  1  0.293850  0.307056  0.299196  1
  O  O14  1  0.219153  0.886054  0.492361  1
  O  O15  1  0.113946  0.780847  0.007639  1
