# generated using pymatgen
data_Na2NiO3
_symmetry_space_group_name_H-M   'P 1'
_cell_length_a   5.20179775
_cell_length_b   5.20179775
_cell_length_c   10.75984793
_cell_angle_alpha   85.18877736
_cell_angle_beta   94.81122264
_cell_angle_gamma   60.00735622
_symmetry_Int_Tables_number   1
_chemical_formula_structural   Na2NiO3
_chemical_formula_sum   'Na8 Ni4 O12'
_cell_volume   248.58757109
_cell_formula_units_Z   4
loop_
 _symmetry_equiv_pos_site_id
 _symmetry_equiv_pos_as_xyz
  1  'x, y, z'
loop_
 _atom_site_type_symbol
 _atom_site_label
 _atom_site_symmetry_multiplicity
 _atom_site_fract_x
 _atom_site_fract_y
 _atom_site_fract_z
 _atom_site_occupancy
  Na  Na0  1  0.842257  0.315670  0.000645  1
  Na  Na1  1  0.684330  0.157743  0.500645  1
  Na  Na2  1  0.000000  0.500000  0.500000  1
  Na  Na3  1  0.915566  0.915566  0.250000  1
  Na  Na4  1  0.084434  0.084434  0.750000  1
  Na  Na5  1  0.315670  0.842257  0.499355  1
  Na  Na6  1  0.500000  0.000000  0.000000  1
  Na  Na7  1  0.157743  0.684330  0.999355  1
  Ni  Ni8  1  0.582594  0.582594  0.250000  1
  Ni  Ni9  1  0.249642  0.249642  0.250000  1
  Ni  Ni10  1  0.417406  0.417406  0.750000  1
  Ni  Ni11  1  0.750358  0.750358  0.750000  1
  O  O12  1  0.949349  0.259292  0.348342  1
  O  O13  1  0.882286  0.571443  0.151782  1
  O  O14  1  0.740708  0.050651  0.848342  1
  O  O15  1  0.503561  0.328295  0.151952  1
  O  O16  1  0.428557  0.117714  0.651782  1
  O  O17  1  0.671705  0.496439  0.651952  1
  O  O18  1  0.328295  0.503561  0.348048  1
  O  O19  1  0.571443  0.882286  0.348218  1
  O  O20  1  0.496439  0.671705  0.848048  1
  O  O21  1  0.259292  0.949349  0.151658  1
  O  O22  1  0.117714  0.428557  0.848218  1
  O  O23  1  0.050651  0.740708  0.651658  1
