# generated using pymatgen
data_Cr2Fe3Ni(PO4)6
_symmetry_space_group_name_H-M   'P 1'
_cell_length_a   8.39784209
_cell_length_b   8.39784209
_cell_length_c   8.39784209
_cell_angle_alpha   61.82177493
_cell_angle_beta   61.82177493
_cell_angle_gamma   61.82177493
_symmetry_Int_Tables_number   1
_chemical_formula_structural   Cr2Fe3Ni(PO4)6
_chemical_formula_sum   'Cr2 Fe3 Ni1 P6 O24'
_cell_volume   435.86885157
_cell_formula_units_Z   1
loop_
 _symmetry_equiv_pos_site_id
 _symmetry_equiv_pos_as_xyz
  1  'x, y, z'
loop_
 _atom_site_type_symbol
 _atom_site_label
 _atom_site_symmetry_multiplicity
 _atom_site_fract_x
 _atom_site_fract_y
 _atom_site_fract_z
 _atom_site_occupancy
  Cr  Cr0  1  0.000971  0.000971  0.000971  1
  Cr  Cr1  1  0.500552  0.500552  0.500552  1
  Fe  Fe2  1  0.854229  0.854229  0.854229  1
  Fe  Fe3  1  0.646930  0.646930  0.646930  1
  Fe  Fe4  1  0.353226  0.353226  0.353226  1
  Ni  Ni5  1  0.143432  0.143432  0.143432  1
  P  P6  1  0.950932  0.249191  0.547897  1
  P  P7  1  0.547897  0.950932  0.249191  1
  P  P8  1  0.249191  0.547897  0.950932  1
  P  P9  1  0.750972  0.450277  0.049825  1
  P  P10  1  0.450277  0.049825  0.750972  1
  P  P11  1  0.049825  0.750972  0.450277  1
  O  O12  1  0.895779  0.673394  0.497446  1
  O  O13  1  0.673394  0.497446  0.895779  1
  O  O14  1  0.936594  0.096829  0.753137  1
  O  O15  1  0.497446  0.895779  0.673394  1
  O  O16  1  0.988135  0.176639  0.396269  1
  O  O17  1  0.746396  0.404656  0.566349  1
  O  O18  1  0.753137  0.936594  0.096829  1
  O  O19  1  0.566349  0.746396  0.404656  1
  O  O20  1  0.826129  0.605230  0.005006  1
  O  O21  1  0.404656  0.566349  0.746396  1
  O  O22  1  0.901925  0.247997  0.062638  1
  O  O23  1  0.605230  0.005006  0.826129  1
  O  O24  1  0.396269  0.988135  0.176639  1
  O  O25  1  0.096829  0.753137  0.936594  1
  O  O26  1  0.595456  0.438177  0.253095  1
  O  O27  1  0.176639  0.396269  0.988135  1
  O  O28  1  0.438177  0.253095  0.595456  1
  O  O29  1  0.247997  0.062638  0.901925  1
  O  O30  1  0.253095  0.595456  0.438177  1
  O  O31  1  0.005006  0.826129  0.605230  1
  O  O32  1  0.504272  0.105392  0.324626  1
  O  O33  1  0.062638  0.901925  0.247997  1
  O  O34  1  0.324626  0.504272  0.105392  1
  O  O35  1  0.105392  0.324626  0.504272  1
