# generated using pymatgen
data_MnP2O7
_symmetry_space_group_name_H-M   'P 1'
_cell_length_a   4.75742580
_cell_length_b   6.83905018
_cell_length_c   7.89853390
_cell_angle_alpha   91.41008337
_cell_angle_beta   92.99491696
_cell_angle_gamma   105.52845207
_symmetry_Int_Tables_number   1
_chemical_formula_structural   MnP2O7
_chemical_formula_sum   'Mn2 P4 O14'
_cell_volume   247.07095756
_cell_formula_units_Z   2
loop_
 _symmetry_equiv_pos_site_id
 _symmetry_equiv_pos_as_xyz
  1  'x, y, z'
loop_
 _atom_site_type_symbol
 _atom_site_label
 _atom_site_symmetry_multiplicity
 _atom_site_fract_x
 _atom_site_fract_y
 _atom_site_fract_z
 _atom_site_occupancy
  Mn  Mn0  1  0.000000  0.000000  0.000000  1
  Mn  Mn1  1  0.500000  0.500000  0.500000  1
  P  P2  1  0.520357  0.138253  0.762879  1
  P  P3  1  0.112552  0.746335  0.689097  1
  P  P4  1  0.887448  0.253665  0.310903  1
  P  P5  1  0.479643  0.861747  0.237121  1
  O  O6  1  0.355155  0.168316  0.918641  1
  O  O7  1  0.043810  0.764398  0.876201  1
  O  O8  1  0.792854  0.065527  0.804750  1
  O  O9  1  0.298366  0.595710  0.677864  1
  O  O10  1  0.619868  0.328250  0.660768  1
  O  O11  1  0.305650  0.966994  0.637228  1
  O  O12  1  0.849534  0.708810  0.561279  1
  O  O13  1  0.150466  0.291190  0.438721  1
  O  O14  1  0.694350  0.033006  0.362772  1
  O  O15  1  0.380132  0.671750  0.339232  1
  O  O16  1  0.701634  0.404290  0.322136  1
  O  O17  1  0.207146  0.934473  0.195250  1
  O  O18  1  0.956190  0.235602  0.123799  1
  O  O19  1  0.644845  0.831684  0.081359  1
