# generated using pymatgen
data_ZnFeO3
_symmetry_space_group_name_H-M   'P 1'
_cell_length_a   5.49710806
_cell_length_b   5.49710806
_cell_length_c   5.49710806
_cell_angle_alpha   55.65058140
_cell_angle_beta   55.65058140
_cell_angle_gamma   55.65058140
_symmetry_Int_Tables_number   1
_chemical_formula_structural   ZnFeO3
_chemical_formula_sum   'Zn2 Fe2 O6'
_cell_volume   105.60543470
_cell_formula_units_Z   2
loop_
 _symmetry_equiv_pos_site_id
 _symmetry_equiv_pos_as_xyz
  1  'x, y, z'
loop_
 _atom_site_type_symbol
 _atom_site_label
 _atom_site_symmetry_multiplicity
 _atom_site_fract_x
 _atom_site_fract_y
 _atom_site_fract_z
 _atom_site_occupancy
  Zn  Zn0  1  0.636983  0.636983  0.636983  1
  Zn  Zn1  1  0.363017  0.363017  0.363017  1
  Fe  Fe2  1  0.846767  0.846767  0.846767  1
  Fe  Fe3  1  0.153233  0.153233  0.153233  1
  O  O4  1  0.226147  0.559296  0.954501  1
  O  O5  1  0.045499  0.773853  0.440704  1
  O  O6  1  0.440704  0.045499  0.773853  1
  O  O7  1  0.559296  0.954501  0.226147  1
  O  O8  1  0.954501  0.226147  0.559296  1
  O  O9  1  0.773853  0.440704  0.045499  1
