# generated using pymatgen
data_Li5Mn3O5F3
_symmetry_space_group_name_H-M   'P 1'
_cell_length_a   5.80098839
_cell_length_b   5.93328094
_cell_length_c   6.09865473
_cell_angle_alpha   118.06320476
_cell_angle_beta   117.84031942
_cell_angle_gamma   90.93313185
_symmetry_Int_Tables_number   1
_chemical_formula_structural   Li5Mn3O5F3
_chemical_formula_sum   'Li5 Mn3 O5 F3'
_cell_volume   156.11958652
_cell_formula_units_Z   1
loop_
 _symmetry_equiv_pos_site_id
 _symmetry_equiv_pos_as_xyz
  1  'x, y, z'
loop_
 _atom_site_type_symbol
 _atom_site_label
 _atom_site_symmetry_multiplicity
 _atom_site_fract_x
 _atom_site_fract_y
 _atom_site_fract_z
 _atom_site_occupancy
  Li  Li0  1  0.874133  0.124611  0.247506  1
  Li  Li1  1  0.864240  0.132605  0.742965  1
  Li  Li2  1  0.861590  0.611472  0.738491  1
  Li  Li3  1  0.393652  0.143078  0.280930  1
  Li  Li4  1  0.381100  0.613411  0.742560  1
  Mn  Mn5  1  0.858169  0.608258  0.215119  1
  Mn  Mn6  1  0.375823  0.625120  0.250349  1
  Mn  Mn7  1  0.377547  0.128352  0.744100  1
  O  O8  1  0.610184  0.391293  0.234479  1
  O  O9  1  0.124430  0.405755  0.251103  1
  O  O10  1  0.629783  0.847741  0.255191  1
  O  O11  1  0.623890  0.374589  0.745572  1
  O  O12  1  0.140061  0.858739  0.270766  1
  F  F13  1  0.651903  0.878428  0.782277  1
  F  F14  1  0.136226  0.884821  0.780119  1
  F  F15  1  0.097270  0.371725  0.718474  1
