# generated using pymatgen
data_GdAsO4
_symmetry_space_group_name_H-M   'P 1'
_cell_length_a   6.11205347
_cell_length_b   6.11205347
_cell_length_c   6.11205347
_cell_angle_alpha   123.96597890
_cell_angle_beta   104.69569515
_cell_angle_gamma   100.81358379
_symmetry_Int_Tables_number   1
_chemical_formula_structural   GdAsO4
_chemical_formula_sum   'Gd2 As2 O8'
_cell_volume   167.02646946
_cell_formula_units_Z   2
loop_
 _symmetry_equiv_pos_site_id
 _symmetry_equiv_pos_as_xyz
  1  'x, y, z'
loop_
 _atom_site_type_symbol
 _atom_site_label
 _atom_site_symmetry_multiplicity
 _atom_site_fract_x
 _atom_site_fract_y
 _atom_site_fract_z
 _atom_site_occupancy
  Gd  Gd0  1  0.500000  0.500000  0.500000  1
  Gd  Gd1  1  0.000000  0.000000  0.500000  1
  As  As2  1  0.172014  0.750000  0.922014  1
  As  As3  1  0.827986  0.250000  0.077986  1
  O  O4  1  0.710145  0.510388  0.220533  1
  O  O5  1  0.761980  0.063353  0.198628  1
  O  O6  1  0.864725  0.563353  0.801372  1
  O  O7  1  0.710145  0.989612  0.699758  1
  O  O8  1  0.289855  0.010388  0.300242  1
  O  O9  1  0.238020  0.936647  0.801372  1
  O  O10  1  0.135275  0.436647  0.198628  1
  O  O11  1  0.289855  0.489612  0.779467  1
