# generated using pymatgen
data_Na3Li3Fe2P2(CO7)2
_symmetry_space_group_name_H-M   'P 1'
_cell_length_a   6.71015967
_cell_length_b   8.71772356
_cell_length_c   10.17790951
_cell_angle_alpha   87.93336658
_cell_angle_beta   89.57761704
_cell_angle_gamma   89.91919109
_symmetry_Int_Tables_number   1
_chemical_formula_structural   Na3Li3Fe2P2(CO7)2
_chemical_formula_sum   'Na6 Li6 Fe4 P4 C4 O28'
_cell_volume   594.97658445
_cell_formula_units_Z   2
loop_
 _symmetry_equiv_pos_site_id
 _symmetry_equiv_pos_as_xyz
  1  'x, y, z'
loop_
 _atom_site_type_symbol
 _atom_site_label
 _atom_site_symmetry_multiplicity
 _atom_site_fract_x
 _atom_site_fract_y
 _atom_site_fract_z
 _atom_site_occupancy
  Na  Na0  1  0.749733  0.914158  0.619929  1
  Na  Na1  1  0.001254  0.744415  0.368826  1
  Na  Na2  1  0.999889  0.737996  0.880910  1
  Na  Na3  1  0.497726  0.738625  0.879117  1
  Na  Na4  1  0.499661  0.256750  0.124196  1
  Na  Na5  1  0.497654  0.259018  0.625409  1
  Li  Li6  1  0.751364  0.914010  0.123413  1
  Li  Li7  1  0.522846  0.723868  0.375424  1
  Li  Li8  1  0.019381  0.271737  0.118635  1
  Li  Li9  1  0.021975  0.278637  0.615248  1
  Li  Li10  1  0.245178  0.095379  0.375874  1
  Li  Li11  1  0.234487  0.093992  0.874987  1
  Fe  Fe12  1  0.251863  0.646506  0.115970  1
  Fe  Fe13  1  0.253963  0.647588  0.605820  1
  Fe  Fe14  1  0.757643  0.349323  0.385562  1
  Fe  Fe15  1  0.754959  0.348272  0.891697  1
  P  P16  1  0.751603  0.592974  0.150306  1
  P  P17  1  0.756679  0.580627  0.643274  1
  P  P18  1  0.253132  0.406829  0.352125  1
  P  P19  1  0.245551  0.404575  0.858487  1
  C  C20  1  0.242510  0.954212  0.136195  1
  C  C21  1  0.239401  0.955461  0.635434  1
  C  C22  1  0.743955  0.053465  0.356173  1
  C  C23  1  0.750956  0.050625  0.868682  1
  O  O24  1  0.722383  0.907220  0.338987  1
  O  O25  1  0.749371  0.905885  0.847343  1
  O  O26  1  0.246699  0.919081  0.013424  1
  O  O27  1  0.243150  0.917768  0.513186  1
  O  O28  1  0.257318  0.844538  0.227183  1
  O  O29  1  0.254518  0.847574  0.727671  1
  O  O30  1  0.932432  0.699350  0.116509  1
  O  O31  1  0.566615  0.685785  0.102853  1
  O  O32  1  0.940564  0.681920  0.604438  1
  O  O33  1  0.570007  0.672813  0.593436  1
  O  O34  1  0.735969  0.567975  0.303728  1
  O  O35  1  0.271031  0.568971  0.409958  1
  O  O36  1  0.744979  0.560262  0.796132  1
  O  O37  1  0.248391  0.562011  0.924084  1
  O  O38  1  0.769985  0.433843  0.088353  1
  O  O39  1  0.228495  0.427878  0.199890  1
  O  O40  1  0.769489  0.420216  0.583834  1
  O  O41  1  0.225546  0.431237  0.706375  1
  O  O42  1  0.437757  0.304041  0.382639  1
  O  O43  1  0.073788  0.313477  0.410401  1
  O  O44  1  0.435882  0.307572  0.888826  1
  O  O45  1  0.069965  0.302528  0.912296  1
  O  O46  1  0.766506  0.147735  0.255502  1
  O  O47  1  0.757984  0.150474  0.769511  1
  O  O48  1  0.744764  0.109629  0.472749  1
  O  O49  1  0.746562  0.099292  0.987699  1
  O  O50  1  0.224617  0.094596  0.172465  1
  O  O51  1  0.221870  0.097283  0.668834  1
