# generated using pymatgen
data_K2NiPCO7
_symmetry_space_group_name_H-M   'P 1'
_cell_length_a   5.42835825
_cell_length_b   7.04686007
_cell_length_c   9.58949015
_cell_angle_alpha   90.00000000
_cell_angle_beta   90.29039909
_cell_angle_gamma   90.00000000
_symmetry_Int_Tables_number   1
_chemical_formula_structural   K2NiPCO7
_chemical_formula_sum   'K4 Ni2 P2 C2 O14'
_cell_volume   366.82091374
_cell_formula_units_Z   2
loop_
 _symmetry_equiv_pos_site_id
 _symmetry_equiv_pos_as_xyz
  1  'x, y, z'
loop_
 _atom_site_type_symbol
 _atom_site_label
 _atom_site_symmetry_multiplicity
 _atom_site_fract_x
 _atom_site_fract_y
 _atom_site_fract_z
 _atom_site_occupancy
  K  K0  1  0.754119  0.526284  0.753905  1
  K  K1  1  0.754119  0.973716  0.753905  1
  K  K2  1  0.245881  0.473716  0.246095  1
  K  K3  1  0.245881  0.026284  0.246095  1
  Ni  Ni4  1  0.226474  0.250000  0.859073  1
  Ni  Ni5  1  0.773526  0.750000  0.140927  1
  P  P6  1  0.280846  0.750000  0.928979  1
  P  P7  1  0.719154  0.250000  0.071021  1
  C  C8  1  0.272017  0.250000  0.601970  1
  C  C9  1  0.727983  0.750000  0.398030  1
  O  O10  1  0.705890  0.750000  0.527847  1
  O  O11  1  0.060426  0.250000  0.664817  1
  O  O12  1  0.459124  0.250000  0.687800  1
  O  O13  1  0.236959  0.929890  0.839314  1
  O  O14  1  0.236959  0.570110  0.839314  1
  O  O15  1  0.884685  0.250000  0.940474  1
  O  O16  1  0.558914  0.750000  0.974398  1
  O  O17  1  0.441086  0.250000  0.025602  1
  O  O18  1  0.115315  0.750000  0.059526  1
  O  O19  1  0.763041  0.429890  0.160686  1
  O  O20  1  0.763041  0.070110  0.160686  1
  O  O21  1  0.540876  0.750000  0.312200  1
  O  O22  1  0.939574  0.750000  0.335183  1
  O  O23  1  0.294110  0.250000  0.472153  1
