# generated using pymatgen
data_Mn3CrTe2(PO4)6
_symmetry_space_group_name_H-M   'P 1'
_cell_length_a   8.78284297
_cell_length_b   8.78284297
_cell_length_c   8.78284297
_cell_angle_alpha   60.29347055
_cell_angle_beta   60.29347055
_cell_angle_gamma   60.29347055
_symmetry_Int_Tables_number   1
_chemical_formula_structural   Mn3CrTe2(PO4)6
_chemical_formula_sum   'Mn3 Cr1 Te2 P6 O24'
_cell_volume   482.24207113
_cell_formula_units_Z   1
loop_
 _symmetry_equiv_pos_site_id
 _symmetry_equiv_pos_as_xyz
  1  'x, y, z'
loop_
 _atom_site_type_symbol
 _atom_site_label
 _atom_site_symmetry_multiplicity
 _atom_site_fract_x
 _atom_site_fract_y
 _atom_site_fract_z
 _atom_site_occupancy
  Mn  Mn0  1  0.844979  0.844979  0.844979  1
  Mn  Mn1  1  0.653784  0.653784  0.653784  1
  Mn  Mn2  1  0.349312  0.349312  0.349312  1
  Cr  Cr3  1  0.145662  0.145662  0.145662  1
  Te  Te4  1  0.992674  0.992674  0.992674  1
  Te  Te5  1  0.499341  0.499341  0.499341  1
  P  P6  1  0.956263  0.249968  0.541848  1
  P  P7  1  0.541848  0.956263  0.249968  1
  P  P8  1  0.249968  0.541848  0.956263  1
  P  P9  1  0.753222  0.447092  0.053148  1
  P  P10  1  0.447092  0.053148  0.753222  1
  P  P11  1  0.053148  0.753222  0.447092  1
  O  O12  1  0.905807  0.692434  0.474230  1
  O  O13  1  0.692434  0.474230  0.905807  1
  O  O14  1  0.935330  0.088046  0.744438  1
  O  O15  1  0.474230  0.905807  0.692434  1
  O  O16  1  0.756122  0.401246  0.565685  1
  O  O17  1  0.000484  0.179997  0.393216  1
  O  O18  1  0.744438  0.935330  0.088046  1
  O  O19  1  0.565685  0.756122  0.401246  1
  O  O20  1  0.401246  0.565685  0.756122  1
  O  O21  1  0.810602  0.600302  0.020446  1
  O  O22  1  0.912905  0.251297  0.077575  1
  O  O23  1  0.600302  0.020446  0.810602  1
  O  O24  1  0.393216  0.000484  0.179997  1
  O  O25  1  0.088046  0.744438  0.935330  1
  O  O26  1  0.179997  0.393216  0.000484  1
  O  O27  1  0.594600  0.424726  0.252344  1
  O  O28  1  0.424726  0.252344  0.594600  1
  O  O29  1  0.251297  0.077575  0.912905  1
  O  O30  1  0.020446  0.810602  0.600302  1
  O  O31  1  0.252344  0.594600  0.424726  1
  O  O32  1  0.514940  0.099573  0.316362  1
  O  O33  1  0.077575  0.912905  0.251297  1
  O  O34  1  0.316362  0.514940  0.099573  1
  O  O35  1  0.099573  0.316362  0.514940  1
