# generated using pymatgen
data_Mn(PO3)4
_symmetry_space_group_name_H-M   'P 1'
_cell_length_a   7.13229738
_cell_length_b   8.77397889
_cell_length_c   8.45164612
_cell_angle_alpha   90.00000000
_cell_angle_beta   122.65405233
_cell_angle_gamma   90.00000000
_symmetry_Int_Tables_number   1
_chemical_formula_structural   Mn(PO3)4
_chemical_formula_sum   'Mn2 P8 O24'
_cell_volume   445.29765719
_cell_formula_units_Z   2
loop_
 _symmetry_equiv_pos_site_id
 _symmetry_equiv_pos_as_xyz
  1  'x, y, z'
loop_
 _atom_site_type_symbol
 _atom_site_label
 _atom_site_symmetry_multiplicity
 _atom_site_fract_x
 _atom_site_fract_y
 _atom_site_fract_z
 _atom_site_occupancy
  Mn  Mn0  1  0.000000  0.000000  0.000000  1
  Mn  Mn1  1  0.000000  0.500000  0.500000  1
  P  P2  1  0.466340  0.570873  0.273425  1
  P  P3  1  0.777000  0.209431  0.617548  1
  P  P4  1  0.533660  0.070873  0.226575  1
  P  P5  1  0.223000  0.709431  0.882452  1
  P  P6  1  0.777000  0.290569  0.117548  1
  P  P7  1  0.466340  0.929127  0.773425  1
  P  P8  1  0.223000  0.790569  0.382452  1
  P  P9  1  0.533660  0.429127  0.726575  1
  O  O10  1  0.380756  0.721640  0.324363  1
  O  O11  1  0.365626  0.428708  0.283831  1
  O  O12  1  0.281920  0.094189  0.117916  1
  O  O13  1  0.609349  0.111132  0.440444  1
  O  O14  1  0.390651  0.611132  0.059556  1
  O  O15  1  0.718080  0.594189  0.382084  1
  O  O16  1  0.932041  0.097865  0.770370  1
  O  O17  1  0.634374  0.928708  0.216169  1
  O  O18  1  0.103759  0.823975  0.929396  1
  O  O19  1  0.619244  0.221640  0.175637  1
  O  O20  1  0.896241  0.323975  0.570604  1
  O  O21  1  0.067959  0.597865  0.729630  1
  O  O22  1  0.932041  0.402135  0.270370  1
  O  O23  1  0.103759  0.676025  0.429396  1
  O  O24  1  0.380756  0.778360  0.824363  1
  O  O25  1  0.896241  0.176025  0.070604  1
  O  O26  1  0.365626  0.071292  0.783831  1
  O  O27  1  0.067959  0.902135  0.229630  1
  O  O28  1  0.281920  0.405811  0.617916  1
  O  O29  1  0.609349  0.388868  0.940444  1
  O  O30  1  0.390651  0.888868  0.559556  1
  O  O31  1  0.718080  0.905811  0.882084  1
  O  O32  1  0.634374  0.571292  0.716169  1
  O  O33  1  0.619244  0.278360  0.675637  1
