# generated using pymatgen
data_Ti9SnO20
_symmetry_space_group_name_H-M   'P 1'
_cell_length_a   7.59857904
_cell_length_b   7.59857904
_cell_length_c   7.25883793
_cell_angle_alpha   85.96741149
_cell_angle_beta   94.03258851
_cell_angle_gamma   128.43534398
_symmetry_Int_Tables_number   1
_chemical_formula_structural   Ti9SnO20
_chemical_formula_sum   'Ti9 Sn1 O20'
_cell_volume   327.29329506
_cell_formula_units_Z   1
loop_
 _symmetry_equiv_pos_site_id
 _symmetry_equiv_pos_as_xyz
  1  'x, y, z'
loop_
 _atom_site_type_symbol
 _atom_site_label
 _atom_site_symmetry_multiplicity
 _atom_site_fract_x
 _atom_site_fract_y
 _atom_site_fract_z
 _atom_site_occupancy
  Ti  Ti0  1  0.297650  0.702350  0.301841  1
  Ti  Ti1  1  0.295609  0.704391  0.795840  1
  Ti  Ti2  1  0.702350  0.297650  0.698159  1
  Ti  Ti3  1  0.500000  0.500000  0.500000  1
  Ti  Ti4  1  0.704391  0.295609  0.204160  1
  Ti  Ti5  1  0.098988  0.901012  0.597626  1
  Ti  Ti6  1  0.901012  0.098988  0.402374  1
  Ti  Ti7  1  0.100244  0.899756  0.097917  1
  Ti  Ti8  1  0.899756  0.100244  0.902083  1
  Sn  Sn9  1  0.500000  0.500000  0.000000  1
  O  O10  1  0.606694  0.004455  0.300980  1
  O  O11  1  0.995545  0.393306  0.300980  1
  O  O12  1  0.393306  0.995545  0.699020  1
  O  O13  1  0.638931  0.361069  0.443681  1
  O  O14  1  0.760023  0.239977  0.953094  1
  O  O15  1  0.562719  0.437281  0.749776  1
  O  O16  1  0.161664  0.838336  0.359410  1
  O  O17  1  0.361069  0.638931  0.556319  1
  O  O18  1  0.004455  0.606694  0.699020  1
  O  O19  1  0.805991  0.805991  0.500000  1
  O  O20  1  0.404605  0.192904  0.106335  1
  O  O21  1  0.807096  0.595395  0.106335  1
  O  O22  1  0.194009  0.194009  0.500000  1
  O  O23  1  0.595395  0.807096  0.893665  1
  O  O24  1  0.239977  0.760023  0.046906  1
  O  O25  1  0.838336  0.161664  0.640590  1
  O  O26  1  0.437281  0.562719  0.250224  1
  O  O27  1  0.038943  0.961057  0.845255  1
  O  O28  1  0.961057  0.038943  0.154745  1
  O  O29  1  0.192904  0.404605  0.893665  1
