# generated using pymatgen
data_MoO3
_symmetry_space_group_name_H-M   'P 1'
_cell_length_a   5.30810377
_cell_length_b   5.28101649
_cell_length_c   10.47673240
_cell_angle_alpha   90.00000000
_cell_angle_beta   97.01922884
_cell_angle_gamma   90.00000000
_symmetry_Int_Tables_number   1
_chemical_formula_structural   MoO3
_chemical_formula_sum   'Mo4 O12'
_cell_volume   291.48456867
_cell_formula_units_Z   4
loop_
 _symmetry_equiv_pos_site_id
 _symmetry_equiv_pos_as_xyz
  1  'x, y, z'
loop_
 _atom_site_type_symbol
 _atom_site_label
 _atom_site_symmetry_multiplicity
 _atom_site_fract_x
 _atom_site_fract_y
 _atom_site_fract_z
 _atom_site_occupancy
  Mo  Mo0  1  0.086478  0.253236  0.959885  1
  Mo  Mo1  1  0.586478  0.746764  0.959885  1
  Mo  Mo2  1  0.185412  0.756159  0.458877  1
  Mo  Mo3  1  0.685412  0.243841  0.458877  1
  O  O4  1  0.975160  0.483386  0.489744  1
  O  O5  1  0.475160  0.516614  0.489744  1
  O  O6  1  0.330147  0.502165  0.009072  1
  O  O7  1  0.830147  0.497835  0.009072  1
  O  O8  1  0.550657  0.733213  0.796039  1
  O  O9  1  0.050657  0.266787  0.796039  1
  O  O10  1  0.459183  0.007303  0.513320  1
  O  O11  1  0.959183  0.992697  0.513320  1
  O  O12  1  0.143588  0.788192  0.295909  1
  O  O13  1  0.643588  0.211808  0.295909  1
  O  O14  1  0.320576  0.992183  0.997955  1
  O  O15  1  0.820576  0.007817  0.997955  1
