# generated using pymatgen
data_SmTlO2
_symmetry_space_group_name_H-M   'P 1'
_cell_length_a   6.83631864
_cell_length_b   6.83631864
_cell_length_c   6.83631864
_cell_angle_alpha   30.63238978
_cell_angle_beta   30.63238978
_cell_angle_gamma   30.63238978
_symmetry_Int_Tables_number   1
_chemical_formula_structural   SmTlO2
_chemical_formula_sum   'Sm1 Tl1 O2'
_cell_volume   73.54291606
_cell_formula_units_Z   1
loop_
 _symmetry_equiv_pos_site_id
 _symmetry_equiv_pos_as_xyz
  1  'x, y, z'
loop_
 _atom_site_type_symbol
 _atom_site_label
 _atom_site_symmetry_multiplicity
 _atom_site_fract_x
 _atom_site_fract_y
 _atom_site_fract_z
 _atom_site_occupancy
  Sm  Sm0  1  0.500000  0.500000  0.500000  1
  Tl  Tl1  1  0.000000  0.000000  0.000000  1
  O  O2  1  0.225297  0.225297  0.225297  1
  O  O3  1  0.774703  0.774703  0.774703  1
