# generated using pymatgen
data_Li3Mn5(NiO6)2
_symmetry_space_group_name_H-M   'P 1'
_cell_length_a   5.09276503
_cell_length_b   5.12237621
_cell_length_c   28.73153878
_cell_angle_alpha   89.32015172
_cell_angle_beta   91.56838078
_cell_angle_gamma   119.68856680
_symmetry_Int_Tables_number   1
_chemical_formula_structural   Li3Mn5(NiO6)2
_chemical_formula_sum   'Li9 Mn15 Ni6 O36'
_cell_volume   650.88677335
_cell_formula_units_Z   3
loop_
 _symmetry_equiv_pos_site_id
 _symmetry_equiv_pos_as_xyz
  1  'x, y, z'
loop_
 _atom_site_type_symbol
 _atom_site_label
 _atom_site_symmetry_multiplicity
 _atom_site_fract_x
 _atom_site_fract_y
 _atom_site_fract_z
 _atom_site_occupancy
  Li  Li0  1  0.331511  0.160604  0.505362  1
  Li  Li1  1  0.997290  0.159456  0.838610  1
  Li  Li2  1  0.996383  0.161512  0.327934  1
  Li  Li3  1  0.994315  0.833459  0.663250  1
  Li  Li4  1  0.015880  0.848195  0.917352  1
  Li  Li5  1  0.003558  0.833141  0.170357  1
  Li  Li6  1  0.348797  0.847454  0.584047  1
  Li  Li7  1  0.662741  0.833239  0.996149  1
  Li  Li8  1  0.665613  0.847981  0.249272  1
  Mn  Mn9  1  0.332370  0.146885  0.750174  1
  Mn  Mn10  1  0.333364  0.156479  0.250232  1
  Mn  Mn11  1  0.655050  0.143367  0.416640  1
  Mn  Mn12  1  0.656258  0.156646  0.916414  1
  Mn  Mn13  1  0.991866  0.150120  0.083314  1
  Mn  Mn14  1  0.989394  0.156419  0.583093  1
  Mn  Mn15  1  0.678058  0.518332  0.328927  1
  Mn  Mn16  1  0.672429  0.516940  0.837791  1
  Mn  Mn17  1  0.004984  0.518709  0.995606  1
  Mn  Mn18  1  0.006553  0.517536  0.504299  1
  Mn  Mn19  1  0.338159  0.518354  0.662446  1
  Mn  Mn20  1  0.997109  0.827199  0.416648  1
  Mn  Mn21  1  0.347042  0.517799  0.170932  1
  Mn  Mn22  1  0.332368  0.830709  0.083338  1
  Mn  Mn23  1  0.664505  0.829872  0.749728  1
  Ni  Ni24  1  0.657806  0.482635  0.083268  1
  Ni  Ni25  1  0.672578  0.511837  0.583155  1
  Ni  Ni26  1  0.992920  0.490260  0.749947  1
  Ni  Ni27  1  0.005681  0.511862  0.250223  1
  Ni  Ni28  1  0.331739  0.497368  0.416671  1
  Ni  Ni29  1  0.339073  0.511812  0.916469  1
  O  O30  1  0.328458  0.149898  0.382002  1
  O  O31  1  0.309265  0.142827  0.118928  1
  O  O32  1  0.312749  0.196670  0.624064  1
  O  O33  1  0.368338  0.208385  0.876230  1
  O  O34  1  0.666404  0.141930  0.047819  1
  O  O35  1  0.661328  0.150872  0.785274  1
  O  O36  1  0.673827  0.208516  0.290408  1
  O  O37  1  0.701684  0.208596  0.542955  1
  O  O38  1  0.004121  0.142608  0.714831  1
  O  O39  1  0.639707  0.494282  0.210144  1
  O  O40  1  0.688553  0.495800  0.956666  1
  O  O41  1  0.650438  0.527668  0.708784  1
  O  O42  1  0.988376  0.150998  0.451414  1
  O  O43  1  0.979420  0.196838  0.957341  1
  O  O44  1  0.699599  0.498955  0.456077  1
  O  O45  1  0.050978  0.197200  0.209333  1
  O  O46  1  0.958982  0.468686  0.875930  1
  O  O47  1  0.022319  0.494835  0.623390  1
  O  O48  1  0.966738  0.499720  0.377134  1
  O  O49  1  0.042770  0.517419  0.123187  1
  O  O50  1  0.291417  0.468071  0.542580  1
  O  O51  1  0.959436  0.810668  0.790650  1
  O  O52  1  0.997182  0.805774  0.044560  1
  O  O53  1  0.343691  0.469170  0.290937  1
  O  O54  1  0.308810  0.517686  0.043377  1
  O  O55  1  0.014405  0.853801  0.546397  1
  O  O56  1  0.006282  0.854469  0.287002  1
  O  O57  1  0.364382  0.488721  0.788213  1
  O  O58  1  0.329095  0.812529  0.711823  1
  O  O59  1  0.301133  0.817026  0.456862  1
  O  O60  1  0.351055  0.841244  0.953848  1
  O  O61  1  0.322707  0.840246  0.212882  1
  O  O62  1  0.681965  0.817544  0.376719  1
  O  O63  1  0.641449  0.805159  0.122332  1
  O  O64  1  0.680037  0.853787  0.879679  1
  O  O65  1  0.683555  0.840863  0.620389  1
