# generated using pymatgen
data_Li2Cr3CuO8
_symmetry_space_group_name_H-M   'P 1'
_cell_length_a   5.84419890
_cell_length_b   5.84419890
_cell_length_c   9.56498245
_cell_angle_alpha   89.78455153
_cell_angle_beta   90.21544847
_cell_angle_gamma   60.08029139
_symmetry_Int_Tables_number   1
_chemical_formula_structural   Li2Cr3CuO8
_chemical_formula_sum   'Li4 Cr6 Cu2 O16'
_cell_volume   283.14137641
_cell_formula_units_Z   2
loop_
 _symmetry_equiv_pos_site_id
 _symmetry_equiv_pos_as_xyz
  1  'x, y, z'
loop_
 _atom_site_type_symbol
 _atom_site_label
 _atom_site_symmetry_multiplicity
 _atom_site_fract_x
 _atom_site_fract_y
 _atom_site_fract_z
 _atom_site_occupancy
  Li  Li0  1  0.663811  0.667557  0.899588  1
  Li  Li1  1  0.002821  0.997111  0.996540  1
  Li  Li2  1  0.002889  0.997179  0.496540  1
  Li  Li3  1  0.332443  0.336189  0.399588  1
  Cr  Cr4  1  0.828310  0.344316  0.215559  1
  Cr  Cr5  1  0.334638  0.835983  0.209438  1
  Cr  Cr6  1  0.829285  0.837985  0.208797  1
  Cr  Cr7  1  0.162015  0.170715  0.708797  1
  Cr  Cr8  1  0.655684  0.171690  0.715559  1
  Cr  Cr9  1  0.164017  0.665362  0.709438  1
  Cu  Cu10  1  0.674725  0.663166  0.483098  1
  Cu  Cu11  1  0.336834  0.325275  0.983098  1
  O  O12  1  0.847370  0.323253  0.605636  1
  O  O13  1  0.512206  0.527889  0.335530  1
  O  O14  1  0.663674  0.671933  0.102650  1
  O  O15  1  0.001539  0.999478  0.313253  1
  O  O16  1  0.000522  0.998461  0.813253  1
  O  O17  1  0.328918  0.836202  0.610399  1
  O  O18  1  0.962833  0.527300  0.334377  1
  O  O19  1  0.522317  0.958838  0.332363  1
  O  O20  1  0.171534  0.152670  0.106694  1
  O  O21  1  0.847330  0.828466  0.606694  1
  O  O22  1  0.472700  0.037167  0.834377  1
  O  O23  1  0.041162  0.477683  0.832363  1
  O  O24  1  0.328067  0.336326  0.602650  1
  O  O25  1  0.676747  0.152630  0.105636  1
  O  O26  1  0.472111  0.487794  0.835530  1
  O  O27  1  0.163798  0.671082  0.110399  1
