# generated using pymatgen
data_LiTiMnO4
_symmetry_space_group_name_H-M   'P 1'
_cell_length_a   6.27975872
_cell_length_b   6.27975872
_cell_length_c   7.29759347
_cell_angle_alpha   90.00000000
_cell_angle_beta   90.00000000
_cell_angle_gamma   90.00000000
_symmetry_Int_Tables_number   1
_chemical_formula_structural   LiTiMnO4
_chemical_formula_sum   'Li4 Ti4 Mn4 O16'
_cell_volume   287.78329554
_cell_formula_units_Z   4
loop_
 _symmetry_equiv_pos_site_id
 _symmetry_equiv_pos_as_xyz
  1  'x, y, z'
loop_
 _atom_site_type_symbol
 _atom_site_label
 _atom_site_symmetry_multiplicity
 _atom_site_fract_x
 _atom_site_fract_y
 _atom_site_fract_z
 _atom_site_occupancy
  Li  Li0  1  0.000000  0.220165  0.000000  1
  Li  Li1  1  0.000000  0.779835  0.500000  1
  Li  Li2  1  0.220165  0.000000  0.250000  1
  Li  Li3  1  0.779835  0.000000  0.750000  1
  Ti  Ti4  1  0.216767  0.500000  0.250000  1
  Ti  Ti5  1  0.500000  0.216767  0.000000  1
  Ti  Ti6  1  0.500000  0.783233  0.500000  1
  Ti  Ti7  1  0.783233  0.500000  0.750000  1
  Mn  Mn8  1  0.258716  0.258716  0.625000  1
  Mn  Mn9  1  0.258716  0.741284  0.875000  1
  Mn  Mn10  1  0.741284  0.258716  0.375000  1
  Mn  Mn11  1  0.741284  0.741284  0.125000  1
  O  O12  1  0.031958  0.269473  0.285975  1
  O  O13  1  0.031958  0.730527  0.214025  1
  O  O14  1  0.269473  0.031958  0.964025  1
  O  O15  1  0.269473  0.968042  0.535975  1
  O  O16  1  0.265206  0.458893  0.986605  1
  O  O17  1  0.265206  0.541107  0.513395  1
  O  O18  1  0.458893  0.265206  0.263395  1
  O  O19  1  0.458893  0.734794  0.236605  1
  O  O20  1  0.541107  0.265206  0.736605  1
  O  O21  1  0.541107  0.734794  0.763395  1
  O  O22  1  0.734794  0.541107  0.486605  1
  O  O23  1  0.734794  0.458893  0.013395  1
  O  O24  1  0.730527  0.031958  0.035975  1
  O  O25  1  0.730527  0.968042  0.464025  1
  O  O26  1  0.968042  0.269473  0.714025  1
  O  O27  1  0.968042  0.730527  0.785975  1
