# generated using pymatgen
data_Ti3Cu2P6WO24
_symmetry_space_group_name_H-M   'P 1'
_cell_length_a   8.70317993
_cell_length_b   8.70317993
_cell_length_c   8.70317993
_cell_angle_alpha   59.97038340
_cell_angle_beta   59.97038340
_cell_angle_gamma   59.97038340
_symmetry_Int_Tables_number   1
_chemical_formula_structural   Ti3Cu2P6WO24
_chemical_formula_sum   'Ti3 Cu2 P6 W1 O24'
_cell_volume   465.82963678
_cell_formula_units_Z   1
loop_
 _symmetry_equiv_pos_site_id
 _symmetry_equiv_pos_as_xyz
  1  'x, y, z'
loop_
 _atom_site_type_symbol
 _atom_site_label
 _atom_site_symmetry_multiplicity
 _atom_site_fract_x
 _atom_site_fract_y
 _atom_site_fract_z
 _atom_site_occupancy
  Ti  Ti0  1  0.641856  0.641856  0.641856  1
  Ti  Ti1  1  0.858085  0.858085  0.858085  1
  Ti  Ti2  1  0.357804  0.357804  0.357804  1
  Cu  Cu3  1  0.995579  0.995579  0.995579  1
  Cu  Cu4  1  0.499917  0.499917  0.499917  1
  P  P5  1  0.251183  0.542373  0.959134  1
  P  P6  1  0.959134  0.251183  0.542373  1
  P  P7  1  0.542373  0.959134  0.251183  1
  P  P8  1  0.463659  0.039353  0.746991  1
  P  P9  1  0.039353  0.746991  0.463659  1
  P  P10  1  0.746991  0.463659  0.039353  1
  W  W11  1  0.141692  0.141692  0.141692  1
  O  O12  1  0.125152  0.303138  0.499060  1
  O  O13  1  0.499060  0.125152  0.303138  1
  O  O14  1  0.303138  0.499060  0.125152  1
  O  O15  1  0.083847  0.729726  0.941747  1
  O  O16  1  0.198176  0.382907  0.991940  1
  O  O17  1  0.416999  0.560030  0.770663  1
  O  O18  1  0.941747  0.083847  0.729726  1
  O  O19  1  0.770663  0.416999  0.560030  1
  O  O20  1  0.625354  0.000278  0.802948  1
  O  O21  1  0.560030  0.770663  0.416999  1
  O  O22  1  0.274060  0.058015  0.912025  1
  O  O23  1  0.000278  0.802948  0.625354  1
  O  O24  1  0.991940  0.198176  0.382907  1
  O  O25  1  0.729726  0.941747  0.083847  1
  O  O26  1  0.442343  0.228789  0.582891  1
  O  O27  1  0.382907  0.991940  0.198176  1
  O  O28  1  0.228789  0.582891  0.442343  1
  O  O29  1  0.058015  0.912025  0.274060  1
  O  O30  1  0.582891  0.442343  0.228789  1
  O  O31  1  0.802948  0.625354  0.000278  1
  O  O32  1  0.912025  0.274060  0.058015  1
  O  O33  1  0.697207  0.500037  0.875041  1
  O  O34  1  0.500037  0.875041  0.697207  1
  O  O35  1  0.875041  0.697207  0.500037  1
