# generated using pymatgen
data_NaMn2O4
_symmetry_space_group_name_H-M   'P 1'
_cell_length_a   6.07245148
_cell_length_b   5.04950405
_cell_length_c   12.94560130
_cell_angle_alpha   90.00000000
_cell_angle_beta   117.99630174
_cell_angle_gamma   90.00000000
_symmetry_Int_Tables_number   1
_chemical_formula_structural   NaMn2O4
_chemical_formula_sum   'Na4 Mn8 O16'
_cell_volume   350.49742895
_cell_formula_units_Z   4
loop_
 _symmetry_equiv_pos_site_id
 _symmetry_equiv_pos_as_xyz
  1  'x, y, z'
loop_
 _atom_site_type_symbol
 _atom_site_label
 _atom_site_symmetry_multiplicity
 _atom_site_fract_x
 _atom_site_fract_y
 _atom_site_fract_z
 _atom_site_occupancy
  Na  Na0  1  0.000000  0.990962  0.750000  1
  Na  Na1  1  0.500000  0.639957  0.250000  1
  Na  Na2  1  0.500000  0.360043  0.750000  1
  Na  Na3  1  0.000000  0.009038  0.250000  1
  Mn  Mn4  1  0.250793  0.998180  0.506340  1
  Mn  Mn5  1  0.749207  0.001820  0.493660  1
  Mn  Mn6  1  0.749207  0.998180  0.993660  1
  Mn  Mn7  1  0.250793  0.001820  0.006340  1
  Mn  Mn8  1  0.000000  0.500000  0.500000  1
  Mn  Mn9  1  0.500000  0.500000  0.500000  1
  Mn  Mn10  1  0.000000  0.500000  0.000000  1
  Mn  Mn11  1  0.500000  0.500000  0.000000  1
  O  O12  1  0.086120  0.821741  0.093769  1
  O  O13  1  0.405395  0.826242  0.410226  1
  O  O14  1  0.594605  0.826242  0.089774  1
  O  O15  1  0.913880  0.821741  0.406231  1
  O  O16  1  0.325737  0.664588  0.589033  1
  O  O17  1  0.674263  0.664588  0.910967  1
  O  O18  1  0.853776  0.685727  0.585979  1
  O  O19  1  0.146224  0.685727  0.914021  1
  O  O20  1  0.853776  0.314273  0.085979  1
  O  O21  1  0.146224  0.314273  0.414021  1
  O  O22  1  0.325737  0.335412  0.089033  1
  O  O23  1  0.674263  0.335412  0.410967  1
  O  O24  1  0.913880  0.178259  0.906231  1
  O  O25  1  0.405395  0.173758  0.910226  1
  O  O26  1  0.594605  0.173758  0.589774  1
  O  O27  1  0.086120  0.178259  0.593769  1
