# generated using pymatgen
data_LiMn3(BO3)3
_symmetry_space_group_name_H-M   'P 1'
_cell_length_a   5.31386374
_cell_length_b   8.19776036
_cell_length_c   9.22963189
_cell_angle_alpha   106.24909120
_cell_angle_beta   106.14327093
_cell_angle_gamma   87.73326689
_symmetry_Int_Tables_number   1
_chemical_formula_structural   LiMn3(BO3)3
_chemical_formula_sum   'Li2 Mn6 B6 O18'
_cell_volume   370.45949362
_cell_formula_units_Z   2
loop_
 _symmetry_equiv_pos_site_id
 _symmetry_equiv_pos_as_xyz
  1  'x, y, z'
loop_
 _atom_site_type_symbol
 _atom_site_label
 _atom_site_symmetry_multiplicity
 _atom_site_fract_x
 _atom_site_fract_y
 _atom_site_fract_z
 _atom_site_occupancy
  Li  Li0  1  0.644207  0.039332  0.627661  1
  Li  Li1  1  0.312997  0.711742  0.968288  1
  Mn  Mn2  1  0.815784  0.030196  0.221339  1
  Mn  Mn3  1  0.871841  0.626166  0.119515  1
  Mn  Mn4  1  0.505025  0.297062  0.437643  1
  Mn  Mn5  1  0.467724  0.688928  0.553168  1
  Mn  Mn6  1  0.141178  0.364725  0.883785  1
  Mn  Mn7  1  0.191733  0.963274  0.779948  1
  B  B8  1  0.226549  0.138442  0.107844  1
  B  B9  1  0.440595  0.528227  0.221899  1
  B  B10  1  0.102336  0.171843  0.550612  1
  B  B11  1  0.895910  0.814695  0.448180  1
  B  B12  1  0.569478  0.481174  0.778517  1
  B  B13  1  0.772125  0.868160  0.896602  1
  O  O14  1  0.974476  0.145790  0.113503  1
  O  O15  1  0.698349  0.838656  0.024449  1
  O  O16  1  0.247752  0.581658  0.109541  1
  O  O17  1  0.437353  0.124963  0.232386  1
  O  O18  1  0.690425  0.510170  0.212581  1
  O  O19  1  0.373727  0.483296  0.341766  1
  O  O20  1  0.899383  0.195684  0.426932  1
  O  O21  1  0.948951  0.823717  0.308470  1
  O  O22  1  0.359894  0.169056  0.551506  1
  O  O23  1  0.653588  0.835507  0.465307  1
  O  O24  1  0.026371  0.146692  0.677185  1
  O  O25  1  0.113445  0.800291  0.570824  1
  O  O26  1  0.624830  0.474977  0.635948  1
  O  O27  1  0.327797  0.512559  0.796754  1
  O  O28  1  0.578951  0.907317  0.777438  1
  O  O29  1  0.783630  0.469882  0.903673  1
  O  O30  1  0.283413  0.151730  0.971552  1
  O  O31  1  0.023689  0.839580  0.886720  1
