# generated using pymatgen
data_Li4Nb2Fe3Sb3O16
_symmetry_space_group_name_H-M   'P 1'
_cell_length_a   6.32426440
_cell_length_b   6.32426440
_cell_length_c   9.99205852
_cell_angle_alpha   89.26078976
_cell_angle_beta   90.73921024
_cell_angle_gamma   120.85568824
_symmetry_Int_Tables_number   1
_chemical_formula_structural   Li4Nb2Fe3Sb3O16
_chemical_formula_sum   'Li4 Nb2 Fe3 Sb3 O16'
_cell_volume   343.04271564
_cell_formula_units_Z   1
loop_
 _symmetry_equiv_pos_site_id
 _symmetry_equiv_pos_as_xyz
  1  'x, y, z'
loop_
 _atom_site_type_symbol
 _atom_site_label
 _atom_site_symmetry_multiplicity
 _atom_site_fract_x
 _atom_site_fract_y
 _atom_site_fract_z
 _atom_site_occupancy
  Li  Li0  1  0.329882  0.670118  0.894176  1
  Li  Li1  1  0.014559  0.985441  0.982422  1
  Li  Li2  1  0.010244  0.989756  0.495881  1
  Li  Li3  1  0.665918  0.334082  0.414306  1
  Nb  Nb4  1  0.331037  0.668963  0.498336  1
  Nb  Nb5  1  0.657215  0.342785  0.978796  1
  Fe  Fe6  1  0.167956  0.832044  0.211714  1
  Fe  Fe7  1  0.837999  0.661201  0.710351  1
  Fe  Fe8  1  0.338799  0.162001  0.710351  1
  Sb  Sb9  1  0.650934  0.828592  0.213706  1
  Sb  Sb10  1  0.171408  0.349066  0.213706  1
  Sb  Sb11  1  0.829503  0.170497  0.715999  1
  O  O12  1  0.663171  0.858634  0.596337  1
  O  O13  1  0.479628  0.520372  0.395247  1
  O  O14  1  0.305111  0.694889  0.092996  1
  O  O15  1  0.012683  0.987317  0.309394  1
  O  O16  1  0.994556  0.005444  0.799845  1
  O  O17  1  0.141366  0.336829  0.596337  1
  O  O18  1  0.472208  0.952832  0.343706  1
  O  O19  1  0.047168  0.527792  0.343706  1
  O  O20  1  0.835615  0.164385  0.096927  1
  O  O21  1  0.170099  0.829901  0.593742  1
  O  O22  1  0.963973  0.457052  0.843826  1
  O  O23  1  0.542948  0.036027  0.843826  1
  O  O24  1  0.675420  0.324580  0.609856  1
  O  O25  1  0.847768  0.643560  0.080239  1
  O  O26  1  0.527911  0.472089  0.847572  1
  O  O27  1  0.356440  0.152232  0.080239  1
