# generated using pymatgen
data_Li6Co11(OF12)2
_symmetry_space_group_name_H-M   'P 1'
_cell_length_a   8.10264173
_cell_length_b   8.21026862
_cell_length_c   8.75538292
_cell_angle_alpha   107.99160818
_cell_angle_beta   106.16858152
_cell_angle_gamma   90.09063505
_symmetry_Int_Tables_number   1
_chemical_formula_structural   Li6Co11(OF12)2
_chemical_formula_sum   'Li6 Co11 O2 F24'
_cell_volume   529.60669581
_cell_formula_units_Z   1
loop_
 _symmetry_equiv_pos_site_id
 _symmetry_equiv_pos_as_xyz
  1  'x, y, z'
loop_
 _atom_site_type_symbol
 _atom_site_label
 _atom_site_symmetry_multiplicity
 _atom_site_fract_x
 _atom_site_fract_y
 _atom_site_fract_z
 _atom_site_occupancy
  Li  Li0  1  0.423763  0.092002  0.239669  1
  Li  Li1  1  0.078739  0.210646  0.455174  1
  Li  Li2  1  0.296965  0.576112  0.932798  1
  Li  Li3  1  0.696196  0.376598  0.092397  1
  Li  Li4  1  0.927658  0.809160  0.553269  1
  Li  Li5  1  0.573770  0.899304  0.743063  1
  Co  Co6  1  0.275742  0.115372  0.850912  1
  Co  Co7  1  0.866035  0.230331  0.753236  1
  Co  Co8  1  0.007415  0.005685  0.995171  1
  Co  Co9  1  0.484864  0.295614  0.687982  1
  Co  Co10  1  0.702774  0.418662  0.508002  1
  Co  Co11  1  0.142182  0.351588  0.146849  1
  Co  Co12  1  0.881536  0.619653  0.856071  1
  Co  Co13  1  0.273338  0.627933  0.557600  1
  Co  Co14  1  0.524499  0.708878  0.320919  1
  Co  Co15  1  0.128659  0.789924  0.238970  1
  Co  Co16  1  0.735411  0.868422  0.155602  1
  O  O17  1  0.230427  0.133794  0.064700  1
  O  O18  1  0.715409  0.425924  0.745268  1
  F  F19  1  0.989909  0.007231  0.753982  1
  F  F20  1  0.635002  0.084996  0.683283  1
  F  F21  1  0.620364  0.073919  0.168385  1
  F  F22  1  0.250380  0.154455  0.624189  1
  F  F23  1  0.884528  0.246526  0.529027  1
  F  F24  1  0.485103  0.292555  0.926186  1
  F  F25  1  0.109006  0.379400  0.892231  1
  F  F26  1  0.470695  0.285450  0.440850  1
  F  F27  1  0.886656  0.253264  0.019621  1
  F  F28  1  0.134366  0.402578  0.385351  1
  F  F29  1  0.664232  0.492470  0.304403  1
  F  F30  1  0.343551  0.512676  0.725683  1
  F  F31  1  0.912723  0.622708  0.635759  1
  F  F32  1  0.115398  0.757979  0.988322  1
  F  F33  1  0.274222  0.578695  0.220473  1
  F  F34  1  0.514004  0.688460  0.545134  1
  F  F35  1  0.881891  0.654617  0.109825  1
  F  F36  1  0.773784  0.859665  0.913475  1
  F  F37  1  0.518785  0.692434  0.083782  1
  F  F38  1  0.107059  0.765624  0.451704  1
  F  F39  1  0.750926  0.852373  0.386898  1
  F  F40  1  0.350339  0.874803  0.763200  1
  F  F41  1  0.365951  0.906145  0.317599  1
  F  F42  1  0.995745  0.005375  0.232987  1
