# generated using pymatgen
data_Li9Bi5O13
_symmetry_space_group_name_H-M   'P 1'
_cell_length_a   13.63360666
_cell_length_b   5.28741461
_cell_length_c   22.13283807
_cell_angle_alpha   90.00000000
_cell_angle_beta   105.59026862
_cell_angle_gamma   90.00000000
_symmetry_Int_Tables_number   1
_chemical_formula_structural   Li9Bi5O13
_chemical_formula_sum   'Li36 Bi20 O52'
_cell_volume   1536.77899924
_cell_formula_units_Z   4
loop_
 _symmetry_equiv_pos_site_id
 _symmetry_equiv_pos_as_xyz
  1  'x, y, z'
loop_
 _atom_site_type_symbol
 _atom_site_label
 _atom_site_symmetry_multiplicity
 _atom_site_fract_x
 _atom_site_fract_y
 _atom_site_fract_z
 _atom_site_occupancy
  Li  Li0  1  0.196861  0.723748  0.104384  1
  Li  Li1  1  0.270340  0.824097  0.221727  1
  Li  Li2  1  0.411955  0.825485  0.359288  1
  Li  Li3  1  0.513862  0.330138  0.321993  1
  Li  Li4  1  0.331722  0.812245  0.049189  1
  Li  Li5  1  0.668278  0.312245  0.450811  1
  Li  Li6  1  0.881610  0.669424  0.802338  1
  Li  Li7  1  0.737218  0.179739  0.579398  1
  Li  Li8  1  0.486138  0.830138  0.178007  1
  Li  Li9  1  0.879717  0.169694  0.702158  1
  Li  Li10  1  0.799012  0.829844  0.506708  1
  Li  Li11  1  0.588045  0.325485  0.140712  1
  Li  Li12  1  0.729660  0.324097  0.278273  1
  Li  Li13  1  0.200988  0.329844  0.993292  1
  Li  Li14  1  0.803139  0.223748  0.395616  1
  Li  Li15  1  0.120283  0.669694  0.797842  1
  Li  Li16  1  0.262782  0.679739  0.920602  1
  Li  Li17  1  0.118390  0.169424  0.697662  1
  Li  Li18  1  0.881610  0.830576  0.302338  1
  Li  Li19  1  0.737218  0.320261  0.079398  1
  Li  Li20  1  0.879717  0.330306  0.202158  1
  Li  Li21  1  0.196861  0.776252  0.604384  1
  Li  Li22  1  0.799012  0.670156  0.006708  1
  Li  Li23  1  0.270340  0.675903  0.721727  1
  Li  Li24  1  0.411955  0.674515  0.859288  1
  Li  Li25  1  0.200988  0.170156  0.493292  1
  Li  Li26  1  0.120283  0.830306  0.297842  1
  Li  Li27  1  0.513862  0.169862  0.821993  1
  Li  Li28  1  0.262782  0.820261  0.420602  1
  Li  Li29  1  0.118390  0.330576  0.197662  1
  Li  Li30  1  0.331722  0.687755  0.549189  1
  Li  Li31  1  0.668278  0.187755  0.950811  1
  Li  Li32  1  0.486138  0.669862  0.678007  1
  Li  Li33  1  0.588045  0.174515  0.640712  1
  Li  Li34  1  0.729660  0.175903  0.778273  1
  Li  Li35  1  0.803139  0.276252  0.895616  1
  Bi  Bi36  1  0.585471  0.756311  0.525743  1
  Bi  Bi37  1  0.347218  0.298033  0.147979  1
  Bi  Bi38  1  0.734977  0.694229  0.677929  1
  Bi  Bi39  1  0.040924  0.745488  0.959178  1
  Bi  Bi40  1  0.652782  0.798033  0.352021  1
  Bi  Bi41  1  0.023044  0.241323  0.855182  1
  Bi  Bi42  1  0.976956  0.741323  0.644818  1
  Bi  Bi43  1  0.585471  0.743689  0.025743  1
  Bi  Bi44  1  0.959076  0.245488  0.540822  1
  Bi  Bi45  1  0.734977  0.805771  0.177929  1
  Bi  Bi46  1  0.265023  0.194229  0.822071  1
  Bi  Bi47  1  0.040924  0.754512  0.459178  1
  Bi  Bi48  1  0.414529  0.256311  0.974257  1
  Bi  Bi49  1  0.023044  0.258677  0.355182  1
  Bi  Bi50  1  0.976956  0.758677  0.144818  1
  Bi  Bi51  1  0.347218  0.201967  0.647979  1
  Bi  Bi52  1  0.959076  0.254512  0.040822  1
  Bi  Bi53  1  0.265023  0.305771  0.322071  1
  Bi  Bi54  1  0.652782  0.701967  0.852021  1
  Bi  Bi55  1  0.414529  0.243689  0.474257  1
  O  O56  1  0.275330  0.213320  0.230327  1
  O  O57  1  0.417518  0.200423  0.367203  1
  O  O58  1  0.343919  0.708884  0.143557  1
  O  O59  1  0.594357  0.161456  0.522834  1
  O  O60  1  0.329645  0.196256  0.047874  1
  O  O61  1  0.737141  0.297388  0.668777  1
  O  O62  1  0.502763  0.700658  0.315825  1
  O  O63  1  0.759368  0.796608  0.588619  1
  O  O64  1  0.497237  0.200658  0.184175  1
  O  O65  1  0.863521  0.308651  0.824023  1
  O  O66  1  0.039885  0.334557  0.962675  1
  O  O67  1  0.670355  0.696256  0.452126  1
  O  O68  1  0.656081  0.208884  0.356443  1
  O  O69  1  0.896186  0.797747  0.721724  1
  O  O70  1  0.036433  0.651251  0.857633  1
  O  O71  1  0.582482  0.700423  0.132797  1
  O  O72  1  0.724670  0.713320  0.269673  1
  O  O73  1  0.809025  0.203346  0.488290  1
  O  O74  1  0.190975  0.703346  0.011710  1
  O  O75  1  0.963567  0.151251  0.642367  1
  O  O76  1  0.594357  0.338544  0.022834  1
  O  O77  1  0.103814  0.297747  0.778276  1
  O  O78  1  0.737141  0.202612  0.168777  1
  O  O79  1  0.960115  0.834557  0.537325  1
  O  O80  1  0.136479  0.808651  0.675977  1
  O  O81  1  0.240632  0.296608  0.911381  1
  O  O82  1  0.759368  0.703392  0.088619  1
  O  O83  1  0.863521  0.191349  0.324023  1
  O  O84  1  0.039885  0.165443  0.462675  1
  O  O85  1  0.262859  0.797388  0.831223  1
  O  O86  1  0.896186  0.702253  0.221724  1
  O  O87  1  0.405643  0.661456  0.977166  1
  O  O88  1  0.036433  0.848749  0.357633  1
  O  O89  1  0.809025  0.296654  0.988290  1
  O  O90  1  0.190975  0.796654  0.511710  1
  O  O91  1  0.275330  0.286680  0.730327  1
  O  O92  1  0.417518  0.299577  0.867203  1
  O  O93  1  0.963567  0.348749  0.142367  1
  O  O94  1  0.103814  0.202253  0.278276  1
  O  O95  1  0.343919  0.791116  0.643557  1
  O  O96  1  0.329645  0.303744  0.547874  1
  O  O97  1  0.960115  0.665443  0.037325  1
  O  O98  1  0.136479  0.691349  0.175977  1
  O  O99  1  0.502763  0.799342  0.815825  1
  O  O100  1  0.240632  0.203392  0.411381  1
  O  O101  1  0.497237  0.299342  0.684175  1
  O  O102  1  0.262859  0.702612  0.331223  1
  O  O103  1  0.670355  0.803744  0.952126  1
  O  O104  1  0.405643  0.838544  0.477166  1
  O  O105  1  0.656081  0.291116  0.856443  1
  O  O106  1  0.582482  0.799577  0.632797  1
  O  O107  1  0.724670  0.786680  0.769673  1
