# generated using pymatgen
data_Fe4OF7
_symmetry_space_group_name_H-M   'P 1'
_cell_length_a   5.79732677
_cell_length_b   5.79747023
_cell_length_c   10.16182559
_cell_angle_alpha   99.90584802
_cell_angle_beta   100.13848647
_cell_angle_gamma   112.31082419
_symmetry_Int_Tables_number   1
_chemical_formula_structural   Fe4OF7
_chemical_formula_sum   'Fe8 O2 F14'
_cell_volume   300.14657751
_cell_formula_units_Z   2
loop_
 _symmetry_equiv_pos_site_id
 _symmetry_equiv_pos_as_xyz
  1  'x, y, z'
loop_
 _atom_site_type_symbol
 _atom_site_label
 _atom_site_symmetry_multiplicity
 _atom_site_fract_x
 _atom_site_fract_y
 _atom_site_fract_z
 _atom_site_occupancy
  Fe  Fe0  1  0.846509  0.369272  0.744445  1
  Fe  Fe1  1  0.627626  0.133195  0.250578  1
  Fe  Fe2  1  0.748420  0.755340  0.496495  1
  Fe  Fe3  1  0.265415  0.245605  0.507879  1
  Fe  Fe4  1  0.482010  0.499368  0.000193  1
  Fe  Fe5  1  0.127038  0.608541  0.244746  1
  Fe  Fe6  1  0.372054  0.881280  0.741425  1
  Fe  Fe7  1  0.017494  0.031416  0.011501  1
  O  O8  1  0.496516  0.191322  0.662082  1
  O  O9  1  0.190786  0.382203  0.095537  1
  F  F10  1  0.950378  0.157495  0.607661  1
  F  F11  1  0.793790  0.083067  0.848113  1
  F  F12  1  0.725063  0.427738  0.148945  1
  F  F13  1  0.956540  0.661935  0.652642  1
  F  F14  1  0.288258  0.080772  0.905735  1
  F  F15  1  0.551253  0.356774  0.395369  1
  F  F16  1  0.807990  0.618488  0.904422  1
  F  F17  1  0.708695  0.912091  0.092596  1
  F  F18  1  0.450471  0.651038  0.595340  1
  F  F19  1  0.027711  0.323443  0.355782  1
  F  F20  1  0.526518  0.831614  0.346811  1
  F  F21  1  0.246207  0.567255  0.838546  1
  F  F22  1  0.221455  0.919251  0.148145  1
  F  F23  1  0.050706  0.845806  0.399680  1
