# generated using pymatgen
data_Li4Fe(PO3)6
_symmetry_space_group_name_H-M   'P 1'
_cell_length_a   7.36591708
_cell_length_b   7.36591708
_cell_length_c   13.95937286
_cell_angle_alpha   86.92791159
_cell_angle_beta   93.07208841
_cell_angle_gamma   116.18414320
_symmetry_Int_Tables_number   1
_chemical_formula_structural   Li4Fe(PO3)6
_chemical_formula_sum   'Li8 Fe2 P12 O36'
_cell_volume   678.31122734
_cell_formula_units_Z   2
loop_
 _symmetry_equiv_pos_site_id
 _symmetry_equiv_pos_as_xyz
  1  'x, y, z'
loop_
 _atom_site_type_symbol
 _atom_site_label
 _atom_site_symmetry_multiplicity
 _atom_site_fract_x
 _atom_site_fract_y
 _atom_site_fract_z
 _atom_site_occupancy
  Li  Li0  1  0.960474  0.298752  0.077260  1
  Li  Li1  1  0.701248  0.039526  0.577260  1
  Li  Li2  1  0.784210  0.443916  0.453034  1
  Li  Li3  1  0.556084  0.215790  0.953034  1
  Li  Li4  1  0.443916  0.784210  0.046966  1
  Li  Li5  1  0.215790  0.556084  0.546966  1
  Li  Li6  1  0.298752  0.960474  0.422740  1
  Li  Li7  1  0.039526  0.701248  0.922740  1
  Fe  Fe8  1  0.373686  0.373686  0.250000  1
  Fe  Fe9  1  0.626314  0.626314  0.750000  1
  P  P10  1  0.964566  0.148336  0.385792  1
  P  P11  1  0.851664  0.035434  0.885792  1
  P  P12  1  0.630208  0.093378  0.249227  1
  P  P13  1  0.906622  0.369792  0.749227  1
  P  P14  1  0.769725  0.599828  0.110801  1
  P  P15  1  0.400172  0.230275  0.610801  1
  P  P16  1  0.599828  0.769725  0.389199  1
  P  P17  1  0.230275  0.400172  0.889199  1
  P  P18  1  0.093378  0.630208  0.250773  1
  P  P19  1  0.369792  0.906622  0.750773  1
  P  P20  1  0.148336  0.964566  0.114208  1
  P  P21  1  0.035434  0.851664  0.614208  1
  O  O22  1  0.865737  0.185748  0.285579  1
  O  O23  1  0.916172  0.247334  0.465692  1
  O  O24  1  0.814252  0.134263  0.785579  1
  O  O25  1  0.752666  0.083828  0.965692  1
  O  O26  1  0.630129  0.098517  0.142516  1
  O  O27  1  0.901483  0.369871  0.642516  1
  O  O28  1  0.811413  0.496058  0.030525  1
  O  O29  1  0.523347  0.188699  0.302725  1
  O  O30  1  0.859972  0.550443  0.211669  1
  O  O31  1  0.503942  0.188587  0.530525  1
  O  O32  1  0.811301  0.476653  0.802725  1
  O  O33  1  0.449557  0.140028  0.711669  1
  O  O34  1  0.903944  0.843093  0.099351  1
  O  O35  1  0.191699  0.178688  0.133407  1
  O  O36  1  0.557894  0.566632  0.129244  1
  O  O37  1  0.156907  0.096056  0.599351  1
  O  O38  1  0.566632  0.557894  0.370756  1
  O  O39  1  0.821312  0.808301  0.633407  1
  O  O40  1  0.178688  0.191699  0.366593  1
  O  O41  1  0.433368  0.442106  0.629244  1
  O  O42  1  0.843093  0.903944  0.400649  1
  O  O43  1  0.442106  0.433368  0.870756  1
  O  O44  1  0.808301  0.821312  0.866593  1
  O  O45  1  0.096056  0.156907  0.900649  1
  O  O46  1  0.550443  0.859972  0.288331  1
  O  O47  1  0.188699  0.523347  0.197275  1
  O  O48  1  0.496058  0.811413  0.469475  1
  O  O49  1  0.140028  0.449557  0.788331  1
  O  O50  1  0.476653  0.811301  0.697275  1
  O  O51  1  0.188587  0.503942  0.969475  1
  O  O52  1  0.098517  0.630129  0.357485  1
  O  O53  1  0.369871  0.901483  0.857484  1
  O  O54  1  0.247334  0.916172  0.034308  1
  O  O55  1  0.185748  0.865737  0.214421  1
  O  O56  1  0.083828  0.752666  0.534308  1
  O  O57  1  0.134263  0.814252  0.714421  1
