# generated using pymatgen
data_Na2VAsCO7
_symmetry_space_group_name_H-M   'P 1'
_cell_length_a   5.37714800
_cell_length_b   6.73384416
_cell_length_c   9.21440532
_cell_angle_alpha   90.00000000
_cell_angle_beta   91.08894966
_cell_angle_gamma   90.00000000
_symmetry_Int_Tables_number   1
_chemical_formula_structural   Na2VAsCO7
_chemical_formula_sum   'Na4 V2 As2 C2 O14'
_cell_volume   333.58300849
_cell_formula_units_Z   2
loop_
 _symmetry_equiv_pos_site_id
 _symmetry_equiv_pos_as_xyz
  1  'x, y, z'
loop_
 _atom_site_type_symbol
 _atom_site_label
 _atom_site_symmetry_multiplicity
 _atom_site_fract_x
 _atom_site_fract_y
 _atom_site_fract_z
 _atom_site_occupancy
  Na  Na0  1  0.764004  0.499062  0.219882  1
  Na  Na1  1  0.764004  0.000938  0.219882  1
  Na  Na2  1  0.235996  0.500938  0.780118  1
  Na  Na3  1  0.235996  0.999062  0.780118  1
  V  V4  1  0.210617  0.250000  0.342629  1
  V  V5  1  0.789383  0.750000  0.657371  1
  As  As6  1  0.293465  0.750000  0.424182  1
  As  As7  1  0.706535  0.250000  0.575818  1
  C  C8  1  0.271001  0.250000  0.074449  1
  C  C9  1  0.728999  0.750000  0.925551  1
  O  O10  1  0.695970  0.750000  0.059763  1
  O  O11  1  0.050871  0.250000  0.134307  1
  O  O12  1  0.457756  0.250000  0.172111  1
  O  O13  1  0.207406  0.952343  0.321795  1
  O  O14  1  0.207406  0.547657  0.321795  1
  O  O15  1  0.855009  0.250000  0.411065  1
  O  O16  1  0.611436  0.750000  0.451691  1
  O  O17  1  0.388564  0.250000  0.548309  1
  O  O18  1  0.144991  0.750000  0.588935  1
  O  O19  1  0.792594  0.452343  0.678205  1
  O  O20  1  0.792594  0.047657  0.678205  1
  O  O21  1  0.542244  0.750000  0.827889  1
  O  O22  1  0.949129  0.750000  0.865693  1
  O  O23  1  0.304030  0.250000  0.940237  1
