# generated using pymatgen
data_LiTi2(PO4)3
_symmetry_space_group_name_H-M   'P 1'
_cell_length_a   8.64471818
_cell_length_b   8.70349188
_cell_length_c   12.03365641
_cell_angle_alpha   90.00000000
_cell_angle_beta   90.00000000
_cell_angle_gamma   90.00000000
_symmetry_Int_Tables_number   1
_chemical_formula_structural   LiTi2(PO4)3
_chemical_formula_sum   'Li4 Ti8 P12 O48'
_cell_volume   905.40309634
_cell_formula_units_Z   4
loop_
 _symmetry_equiv_pos_site_id
 _symmetry_equiv_pos_as_xyz
  1  'x, y, z'
loop_
 _atom_site_type_symbol
 _atom_site_label
 _atom_site_symmetry_multiplicity
 _atom_site_fract_x
 _atom_site_fract_y
 _atom_site_fract_z
 _atom_site_occupancy
  Li  Li0  1  0.038438  0.971481  0.679635  1
  Li  Li1  1  0.038438  0.028519  0.320365  1
  Li  Li2  1  0.961562  0.471481  0.820365  1
  Li  Li3  1  0.961562  0.528519  0.179635  1
  Ti  Ti4  1  0.499659  0.715057  0.120187  1
  Ti  Ti5  1  0.499659  0.284943  0.879813  1
  Ti  Ti6  1  0.500341  0.784943  0.620187  1
  Ti  Ti7  1  0.500341  0.215057  0.379813  1
  Ti  Ti8  1  0.997161  0.288867  0.611597  1
  Ti  Ti9  1  0.997161  0.711133  0.388403  1
  Ti  Ti10  1  0.002839  0.788867  0.888403  1
  Ti  Ti11  1  0.002839  0.211133  0.111597  1
  P  P12  1  0.708481  0.500000  0.500000  1
  P  P13  1  0.291519  0.000000  0.000000  1
  P  P14  1  0.214409  0.500000  0.000000  1
  P  P15  1  0.785591  0.000000  0.500000  1
  P  P16  1  0.643247  0.641783  0.854795  1
  P  P17  1  0.643247  0.358217  0.145205  1
  P  P18  1  0.356753  0.141783  0.645205  1
  P  P19  1  0.356753  0.858217  0.354795  1
  P  P20  1  0.146701  0.642112  0.648017  1
  P  P21  1  0.146701  0.357888  0.351983  1
  P  P22  1  0.853299  0.142112  0.851983  1
  P  P23  1  0.853299  0.857888  0.148017  1
  O  O24  1  0.690154  0.894273  0.573741  1
  O  O25  1  0.690154  0.105727  0.426259  1
  O  O26  1  0.677998  0.152025  0.845207  1
  O  O27  1  0.677998  0.847975  0.154793  1
  O  O28  1  0.608921  0.598974  0.575717  1
  O  O29  1  0.608921  0.401026  0.424283  1
  O  O30  1  0.597875  0.473645  0.828629  1
  O  O31  1  0.597875  0.526355  0.171371  1
  O  O32  1  0.588540  0.686190  0.971742  1
  O  O33  1  0.588540  0.313810  0.028258  1
  O  O34  1  0.574600  0.754668  0.769341  1
  O  O35  1  0.574600  0.245332  0.230659  1
  O  O36  1  0.425400  0.254668  0.730659  1
  O  O37  1  0.425400  0.745332  0.269341  1
  O  O38  1  0.411460  0.186190  0.528258  1
  O  O39  1  0.411460  0.813810  0.471742  1
  O  O40  1  0.402125  0.026355  0.328629  1
  O  O41  1  0.402125  0.973645  0.671371  1
  O  O42  1  0.391079  0.098974  0.924283  1
  O  O43  1  0.391079  0.901026  0.075717  1
  O  O44  1  0.322002  0.652025  0.654793  1
  O  O45  1  0.322002  0.347975  0.345207  1
  O  O46  1  0.309846  0.394273  0.926259  1
  O  O47  1  0.309846  0.605727  0.073741  1
  O  O48  1  0.184168  0.103024  0.072976  1
  O  O49  1  0.184168  0.896976  0.927024  1
  O  O50  1  0.176261  0.150786  0.653444  1
  O  O51  1  0.176261  0.849214  0.346556  1
  O  O52  1  0.101608  0.591308  0.922211  1
  O  O53  1  0.101608  0.408692  0.077789  1
  O  O54  1  0.089326  0.478972  0.679694  1
  O  O55  1  0.089326  0.521028  0.320306  1
  O  O56  1  0.088442  0.682107  0.529141  1
  O  O57  1  0.088442  0.317893  0.470859  1
  O  O58  1  0.072152  0.761537  0.727572  1
  O  O59  1  0.072152  0.238463  0.272428  1
  O  O60  1  0.927848  0.261537  0.772428  1
  O  O61  1  0.927848  0.738463  0.227572  1
  O  O62  1  0.911558  0.182107  0.970859  1
  O  O63  1  0.911558  0.817893  0.029141  1
  O  O64  1  0.910674  0.978972  0.820306  1
  O  O65  1  0.910674  0.021028  0.179694  1
  O  O66  1  0.898392  0.091308  0.577789  1
  O  O67  1  0.898392  0.908692  0.422211  1
  O  O68  1  0.823739  0.650786  0.846556  1
  O  O69  1  0.823739  0.349214  0.153444  1
  O  O70  1  0.815832  0.396976  0.572976  1
  O  O71  1  0.815832  0.603024  0.427024  1
