# generated using pymatgen
data_Li2Ti3CoO8
_symmetry_space_group_name_H-M   'P 1'
_cell_length_a   5.95391191
_cell_length_b   5.95391191
_cell_length_c   5.95391191
_cell_angle_alpha   60.28030143
_cell_angle_beta   60.28030143
_cell_angle_gamma   60.28030143
_symmetry_Int_Tables_number   1
_chemical_formula_structural   Li2Ti3CoO8
_chemical_formula_sum   'Li2 Ti3 Co1 O8'
_cell_volume   150.18916248
_cell_formula_units_Z   1
loop_
 _symmetry_equiv_pos_site_id
 _symmetry_equiv_pos_as_xyz
  1  'x, y, z'
loop_
 _atom_site_type_symbol
 _atom_site_label
 _atom_site_symmetry_multiplicity
 _atom_site_fract_x
 _atom_site_fract_y
 _atom_site_fract_z
 _atom_site_occupancy
  Li  Li0  1  0.880055  0.880055  0.880055  1
  Li  Li1  1  0.499437  0.499437  0.499437  1
  Ti  Ti2  1  0.993056  0.501485  0.501485  1
  Ti  Ti3  1  0.501485  0.501485  0.993056  1
  Ti  Ti4  1  0.501485  0.993056  0.501485  1
  Co  Co5  1  0.117417  0.117417  0.117417  1
  O  O6  1  0.740430  0.740430  0.740430  1
  O  O7  1  0.749102  0.290833  0.749102  1
  O  O8  1  0.749102  0.749102  0.290833  1
  O  O9  1  0.290833  0.749102  0.749102  1
  O  O10  1  0.713322  0.253217  0.253217  1
  O  O11  1  0.253217  0.253217  0.713322  1
  O  O12  1  0.253217  0.713322  0.253217  1
  O  O13  1  0.257841  0.257841  0.257841  1
