# generated using pymatgen
data_Li2Mn3FeO8
_symmetry_space_group_name_H-M   'P 1'
_cell_length_a   5.90335818
_cell_length_b   5.90335818
_cell_length_c   9.45122690
_cell_angle_alpha   90.00000000
_cell_angle_beta   90.00000000
_cell_angle_gamma   120.00000000
_symmetry_Int_Tables_number   1
_chemical_formula_structural   Li2Mn3FeO8
_chemical_formula_sum   'Li4 Mn6 Fe2 O16'
_cell_volume   285.24437595
_cell_formula_units_Z   2
loop_
 _symmetry_equiv_pos_site_id
 _symmetry_equiv_pos_as_xyz
  1  'x, y, z'
loop_
 _atom_site_type_symbol
 _atom_site_label
 _atom_site_symmetry_multiplicity
 _atom_site_fract_x
 _atom_site_fract_y
 _atom_site_fract_z
 _atom_site_occupancy
  Li  Li0  1  0.333333  0.666667  0.890996  1
  Li  Li1  1  0.000000  0.000000  0.997649  1
  Li  Li2  1  0.000000  0.000000  0.497649  1
  Li  Li3  1  0.666667  0.333333  0.390996  1
  Mn  Mn4  1  0.170786  0.829214  0.214916  1
  Mn  Mn5  1  0.170786  0.341572  0.214916  1
  Mn  Mn6  1  0.658428  0.829214  0.214916  1
  Mn  Mn7  1  0.341572  0.170786  0.714916  1
  Mn  Mn8  1  0.829214  0.658428  0.714916  1
  Mn  Mn9  1  0.829214  0.170786  0.714916  1
  Fe  Fe10  1  0.333333  0.666667  0.493769  1
  Fe  Fe11  1  0.666667  0.333333  0.993769  1
  O  O12  1  0.162121  0.837879  0.602699  1
  O  O13  1  0.039599  0.519800  0.336731  1
  O  O14  1  0.333333  0.666667  0.100532  1
  O  O15  1  0.000000  0.000000  0.308200  1
  O  O16  1  0.000000  0.000000  0.808200  1
  O  O17  1  0.162121  0.324242  0.602699  1
  O  O18  1  0.480200  0.960401  0.336731  1
  O  O19  1  0.480200  0.519800  0.336731  1
  O  O20  1  0.324242  0.162121  0.102699  1
  O  O21  1  0.675758  0.837879  0.602699  1
  O  O22  1  0.519800  0.480200  0.836731  1
  O  O23  1  0.519800  0.039599  0.836731  1
  O  O24  1  0.666667  0.333333  0.600532  1
  O  O25  1  0.837879  0.675758  0.102699  1
  O  O26  1  0.960401  0.480200  0.836731  1
  O  O27  1  0.837879  0.162121  0.102699  1
