# generated using pymatgen
data_SnH12Pt(N2Cl3)2
_symmetry_space_group_name_H-M   'P 1'
_cell_length_a   8.24033187
_cell_length_b   8.24033187
_cell_length_c   10.60993111
_cell_angle_alpha   90.00000000
_cell_angle_beta   90.00000000
_cell_angle_gamma   94.20566383
_symmetry_Int_Tables_number   1
_chemical_formula_structural   SnH12Pt(N2Cl3)2
_chemical_formula_sum   'Sn2 H24 Pt2 N8 Cl12'
_cell_volume   718.50689239
_cell_formula_units_Z   2
loop_
 _symmetry_equiv_pos_site_id
 _symmetry_equiv_pos_as_xyz
  1  'x, y, z'
loop_
 _atom_site_type_symbol
 _atom_site_label
 _atom_site_symmetry_multiplicity
 _atom_site_fract_x
 _atom_site_fract_y
 _atom_site_fract_z
 _atom_site_occupancy
  Sn  Sn0  1  0.000000  0.000000  0.000000  1
  Sn  Sn1  1  0.500000  0.500000  0.500000  1
  H  H2  1  0.575225  0.286823  0.831121  1
  H  H3  1  0.713177  0.424775  0.168879  1
  H  H4  1  0.213177  0.924775  0.331121  1
  H  H5  1  0.075225  0.786823  0.668879  1
  H  H6  1  0.424775  0.713177  0.168879  1
  H  H7  1  0.286823  0.575225  0.831121  1
  H  H8  1  0.786823  0.075225  0.668879  1
  H  H9  1  0.924775  0.213177  0.331121  1
  H  H10  1  0.592464  0.204409  0.972839  1
  H  H11  1  0.795591  0.407536  0.027161  1
  H  H12  1  0.295591  0.907536  0.472839  1
  H  H13  1  0.092464  0.704409  0.527161  1
  H  H14  1  0.407536  0.795591  0.027161  1
  H  H15  1  0.204409  0.592464  0.972839  1
  H  H16  1  0.704409  0.092464  0.527161  1
  H  H17  1  0.907536  0.295591  0.472839  1
  H  H18  1  0.412751  0.206780  0.906631  1
  H  H19  1  0.793220  0.587249  0.093369  1
  H  H20  1  0.293220  0.087249  0.406631  1
  H  H21  1  0.912751  0.706780  0.593369  1
  H  H22  1  0.587249  0.793220  0.093369  1
  H  H23  1  0.206780  0.412751  0.906631  1
  H  H24  1  0.706780  0.912751  0.593369  1
  H  H25  1  0.087249  0.293220  0.406631  1
  Pt  Pt26  1  0.500000  0.500000  0.000000  1
  Pt  Pt27  1  0.000000  0.000000  0.500000  1
  N  N28  1  0.521209  0.274556  0.918515  1
  N  N29  1  0.725444  0.478791  0.081485  1
  N  N30  1  0.225444  0.978791  0.418515  1
  N  N31  1  0.021209  0.774556  0.581485  1
  N  N32  1  0.478791  0.725444  0.081485  1
  N  N33  1  0.274556  0.521209  0.918515  1
  N  N34  1  0.774556  0.021209  0.581485  1
  N  N35  1  0.978791  0.225444  0.418515  1
  Cl  Cl36  1  0.764201  0.059275  0.135611  1
  Cl  Cl37  1  0.940725  0.235799  0.864389  1
  Cl  Cl38  1  0.440725  0.735799  0.635611  1
  Cl  Cl39  1  0.264201  0.559275  0.364389  1
  Cl  Cl40  1  0.235799  0.940725  0.864389  1
  Cl  Cl41  1  0.059275  0.764201  0.135611  1
  Cl  Cl42  1  0.559275  0.264201  0.364389  1
  Cl  Cl43  1  0.735799  0.440725  0.635611  1
  Cl  Cl44  1  0.818028  0.818028  0.872844  1
  Cl  Cl45  1  0.181972  0.181972  0.127156  1
  Cl  Cl46  1  0.681972  0.681972  0.372844  1
  Cl  Cl47  1  0.318028  0.318028  0.627156  1
