# generated using pymatgen
data_Li3V4(PO4)6
_symmetry_space_group_name_H-M   'P 1'
_cell_length_a   8.58966498
_cell_length_b   8.64059944
_cell_length_c   8.65681997
_cell_angle_alpha   90.44522470
_cell_angle_beta   119.08085661
_cell_angle_gamma   119.56785830
_symmetry_Int_Tables_number   1
_chemical_formula_structural   Li3V4(PO4)6
_chemical_formula_sum   'Li3 V4 P6 O24'
_cell_volume   461.74696160
_cell_formula_units_Z   1
loop_
 _symmetry_equiv_pos_site_id
 _symmetry_equiv_pos_as_xyz
  1  'x, y, z'
loop_
 _atom_site_type_symbol
 _atom_site_label
 _atom_site_symmetry_multiplicity
 _atom_site_fract_x
 _atom_site_fract_y
 _atom_site_fract_z
 _atom_site_occupancy
  Li  Li0  1  0.636125  0.891337  0.341473  1
  Li  Li1  1  0.391392  0.357141  0.052948  1
  Li  Li2  1  0.375098  0.031599  0.558368  1
  V  V3  1  0.203719  0.845655  0.071230  1
  V  V4  1  0.218893  0.362337  0.580322  1
  V  V5  1  0.795027  0.642981  0.427764  1
  V  V6  1  0.794147  0.150475  0.928639  1
  P  P7  1  0.275729  0.525715  0.240846  1
  P  P8  1  0.283297  0.751753  0.742584  1
  P  P9  1  0.000594  0.964502  0.249889  1
  P  P10  1  0.720745  0.243929  0.257202  1
  P  P11  1  0.001653  0.042620  0.754650  1
  P  P12  1  0.720959  0.469693  0.758710  1
  O  O13  1  0.317101  0.722862  0.240687  1
  O  O14  1  0.085821  0.375143  0.047792  1
  O  O15  1  0.247925  0.771069  0.900177  1
  O  O16  1  0.102101  0.729326  0.553788  1
  O  O17  1  0.476194  0.543877  0.267922  1
  O  O18  1  0.173230  0.940708  0.253459  1
  O  O19  1  0.486854  0.937214  0.781615  1
  O  O20  1  0.129874  0.007832  0.933247  1
  O  O21  1  0.865436  0.886309  0.568146  1
  O  O22  1  0.306688  0.587164  0.742159  1
  O  O23  1  0.178342  0.234614  0.766049  1
  O  O24  1  0.762234  0.517841  0.608373  1
  O  O25  1  0.247578  0.482876  0.399182  1
  O  O26  1  0.823254  0.784226  0.246906  1
  O  O27  1  0.673235  0.394577  0.252966  1
  O  O28  1  0.142291  0.122339  0.439944  1
  O  O29  1  0.889913  0.011881  0.077980  1
  O  O30  1  0.529646  0.051464  0.224241  1
  O  O31  1  0.834098  0.064897  0.757835  1
  O  O32  1  0.512227  0.449036  0.717430  1
  O  O33  1  0.919177  0.282557  0.446045  1
  O  O34  1  0.758193  0.234374  0.101539  1
  O  O35  1  0.911277  0.621666  0.951559  1
  O  O36  1  0.673585  0.271148  0.758076  1
