# generated using pymatgen
data_Ba3SiO
_symmetry_space_group_name_H-M   'P 1'
_cell_length_a   7.53670993
_cell_length_b   7.82169961
_cell_length_c   10.86420851
_cell_angle_alpha   90.00000000
_cell_angle_beta   90.00000000
_cell_angle_gamma   90.00000000
_symmetry_Int_Tables_number   1
_chemical_formula_structural   Ba3SiO
_chemical_formula_sum   'Ba12 Si4 O4'
_cell_volume   640.44380013
_cell_formula_units_Z   4
loop_
 _symmetry_equiv_pos_site_id
 _symmetry_equiv_pos_as_xyz
  1  'x, y, z'
loop_
 _atom_site_type_symbol
 _atom_site_label
 _atom_site_symmetry_multiplicity
 _atom_site_fract_x
 _atom_site_fract_y
 _atom_site_fract_z
 _atom_site_occupancy
  Ba  Ba0  1  0.079648  0.479748  0.250000  1
  Ba  Ba1  1  0.203769  0.201184  0.542016  1
  Ba  Ba2  1  0.203769  0.201184  0.957984  1
  Ba  Ba3  1  0.296231  0.701184  0.542016  1
  Ba  Ba4  1  0.296231  0.701184  0.957984  1
  Ba  Ba5  1  0.420352  0.979748  0.250000  1
  Ba  Ba6  1  0.579648  0.020252  0.750000  1
  Ba  Ba7  1  0.703769  0.298816  0.042016  1
  Ba  Ba8  1  0.703769  0.298816  0.457984  1
  Ba  Ba9  1  0.796231  0.798816  0.042016  1
  Ba  Ba10  1  0.796231  0.798816  0.457984  1
  Ba  Ba11  1  0.920352  0.520252  0.750000  1
  Si  Si12  1  0.017309  0.947048  0.750000  1
  Si  Si13  1  0.482691  0.447048  0.750000  1
  Si  Si14  1  0.517309  0.552952  0.250000  1
  Si  Si15  1  0.982691  0.052952  0.250000  1
  O  O16  1  0.000000  0.500000  0.000000  1
  O  O17  1  0.000000  0.500000  0.500000  1
  O  O18  1  0.500000  0.000000  0.000000  1
  O  O19  1  0.500000  0.000000  0.500000  1
