# generated using pymatgen
data_Li4MnV3O8
_symmetry_space_group_name_H-M   'P 1'
_cell_length_a   6.01565673
_cell_length_b   6.01565673
_cell_length_c   5.94089113
_cell_angle_alpha   60.68844639
_cell_angle_beta   119.31155361
_cell_angle_gamma   120.95924672
_symmetry_Int_Tables_number   1
_chemical_formula_structural   Li4MnV3O8
_chemical_formula_sum   'Li4 Mn1 V3 O8'
_cell_volume   152.41727819
_cell_formula_units_Z   1
loop_
 _symmetry_equiv_pos_site_id
 _symmetry_equiv_pos_as_xyz
  1  'x, y, z'
loop_
 _atom_site_type_symbol
 _atom_site_label
 _atom_site_symmetry_multiplicity
 _atom_site_fract_x
 _atom_site_fract_y
 _atom_site_fract_z
 _atom_site_occupancy
  Li  Li0  1  0.986467  0.494136  0.992764  1
  Li  Li1  1  0.494136  0.986467  0.007236  1
  Li  Li2  1  0.500000  0.500000  0.500000  1
  Li  Li3  1  0.000000  1.000000  0.500000  1
  Mn  Mn4  1  0.000000  0.000000  0.000000  1
  V  V5  1  0.500000  0.500000  0.000000  1
  V  V6  1  0.500000  0.000000  0.500000  1
  V  V7  1  1.000000  0.500000  0.500000  1
  O  O8  1  0.762053  0.739993  0.242264  1
  O  O9  1  0.260007  0.237947  0.242264  1
  O  O10  1  0.743661  0.256339  0.726900  1
  O  O11  1  0.262395  0.737605  0.750291  1
  O  O12  1  0.737605  0.262395  0.249709  1
  O  O13  1  0.256339  0.743661  0.273100  1
  O  O14  1  0.739993  0.762053  0.757736  1
  O  O15  1  0.237947  0.260007  0.757736  1
