# generated using pymatgen
data_H18RuN5(ClO)2
_symmetry_space_group_name_H-M   'P 1'
_cell_length_a   10.05615037
_cell_length_b   10.22091877
_cell_length_c   13.28338817
_cell_angle_alpha   90.00000000
_cell_angle_beta   128.08447186
_cell_angle_gamma   90.00000000
_symmetry_Int_Tables_number   1
_chemical_formula_structural   H18RuN5(ClO)2
_chemical_formula_sum   'H72 Ru4 N20 Cl8 O8'
_cell_volume   1074.63677161
_cell_formula_units_Z   4
loop_
 _symmetry_equiv_pos_site_id
 _symmetry_equiv_pos_as_xyz
  1  'x, y, z'
loop_
 _atom_site_type_symbol
 _atom_site_label
 _atom_site_symmetry_multiplicity
 _atom_site_fract_x
 _atom_site_fract_y
 _atom_site_fract_z
 _atom_site_occupancy
  H  H0  1  0.906989  0.191541  0.883865  1
  H  H1  1  0.906989  0.308459  0.383865  1
  H  H2  1  0.093011  0.808459  0.116135  1
  H  H3  1  0.093011  0.691541  0.616135  1
  H  H4  1  0.044324  0.112344  0.873591  1
  H  H5  1  0.044324  0.387656  0.373591  1
  H  H6  1  0.955676  0.887656  0.126409  1
  H  H7  1  0.955676  0.612344  0.626409  1
  H  H8  1  0.585478  0.910948  0.645714  1
  H  H9  1  0.585478  0.589052  0.145714  1
  H  H10  1  0.414522  0.089052  0.354286  1
  H  H11  1  0.414522  0.410948  0.854286  1
  H  H12  1  0.755584  0.922524  0.657374  1
  H  H13  1  0.755584  0.577476  0.157374  1
  H  H14  1  0.244416  0.077476  0.342626  1
  H  H15  1  0.244416  0.422524  0.842626  1
  H  H16  1  0.665299  0.059440  0.653454  1
  H  H17  1  0.665299  0.440560  0.153454  1
  H  H18  1  0.334701  0.940560  0.346546  1
  H  H19  1  0.334701  0.559440  0.846546  1
  H  H20  1  0.684958  0.003973  0.978037  1
  H  H21  1  0.684958  0.496027  0.478037  1
  H  H22  1  0.315042  0.996027  0.021963  1
  H  H23  1  0.315042  0.503973  0.521963  1
  H  H24  1  0.566253  0.000122  0.821047  1
  H  H25  1  0.566253  0.499878  0.321047  1
  H  H26  1  0.433747  0.999878  0.178953  1
  H  H27  1  0.433747  0.500122  0.678953  1
  H  H28  1  0.677482  0.130035  0.897615  1
  H  H29  1  0.677482  0.369965  0.397615  1
  H  H30  1  0.322518  0.869965  0.102385  1
  H  H31  1  0.322518  0.630035  0.602385  1
  H  H32  1  0.955789  0.767922  0.794509  1
  H  H33  1  0.955789  0.732078  0.294509  1
  H  H34  1  0.044211  0.232078  0.205491  1
  H  H35  1  0.044211  0.267922  0.705491  1
  H  H36  1  0.125568  0.771567  0.941698  1
  H  H37  1  0.125568  0.728433  0.441698  1
  H  H38  1  0.874432  0.228433  0.058302  1
  H  H39  1  0.874432  0.271567  0.558302  1
  H  H40  1  0.090393  0.889126  0.846580  1
  H  H41  1  0.090393  0.610874  0.346580  1
  H  H42  1  0.909607  0.110874  0.153420  1
  H  H43  1  0.909607  0.389126  0.653420  1
  H  H44  1  0.805435  0.700023  0.947143  1
  H  H45  1  0.805435  0.799977  0.447143  1
  H  H46  1  0.194565  0.299977  0.052857  1
  H  H47  1  0.194565  0.200023  0.552857  1
  H  H48  1  0.733919  0.697396  0.796742  1
  H  H49  1  0.733919  0.802604  0.296742  1
  H  H50  1  0.266081  0.302604  0.203258  1
  H  H51  1  0.266081  0.197396  0.703258  1
  H  H52  1  0.619808  0.766123  0.833414  1
  H  H53  1  0.619808  0.733877  0.333414  1
  H  H54  1  0.380192  0.233877  0.166586  1
  H  H55  1  0.380192  0.266123  0.666586  1
  H  H56  1  0.018236  0.968239  0.662053  1
  H  H57  1  0.018236  0.531761  0.162053  1
  H  H58  1  0.981764  0.031761  0.337947  1
  H  H59  1  0.981764  0.468239  0.837947  1
  H  H60  1  0.834209  0.999854  0.544268  1
  H  H61  1  0.834209  0.500146  0.044268  1
  H  H62  1  0.165791  0.000146  0.455732  1
  H  H63  1  0.165791  0.499854  0.955732  1
  H  H64  1  0.690793  0.381021  0.744634  1
  H  H65  1  0.690793  0.118979  0.244634  1
  H  H66  1  0.309207  0.618979  0.255366  1
  H  H67  1  0.309207  0.881021  0.755366  1
  H  H68  1  0.537588  0.244351  0.527849  1
  H  H69  1  0.537588  0.255649  0.027849  1
  H  H70  1  0.462412  0.755649  0.472151  1
  H  H71  1  0.462412  0.744351  0.972151  1
  Ru  Ru72  1  0.871663  0.937416  0.898396  1
  Ru  Ru73  1  0.871663  0.562584  0.398396  1
  Ru  Ru74  1  0.128337  0.062584  0.101604  1
  Ru  Ru75  1  0.128337  0.437416  0.601604  1
  N  N76  1  0.981165  0.109763  0.911840  1
  N  N77  1  0.981165  0.390237  0.411840  1
  N  N78  1  0.018835  0.890237  0.088160  1
  N  N79  1  0.018835  0.609763  0.588160  1
  N  N80  1  0.698336  0.961008  0.693687  1
  N  N81  1  0.698336  0.538992  0.193687  1
  N  N82  1  0.301664  0.038992  0.306313  1
  N  N83  1  0.301664  0.461008  0.806313  1
  N  N84  1  0.681387  0.029907  0.901197  1
  N  N85  1  0.681387  0.470093  0.401197  1
  N  N86  1  0.318613  0.970093  0.098803  1
  N  N87  1  0.318613  0.529907  0.598803  1
  N  N88  1  0.030584  0.830338  0.870497  1
  N  N89  1  0.030584  0.669662  0.370497  1
  N  N90  1  0.969416  0.169662  0.129503  1
  N  N91  1  0.969416  0.330338  0.629503  1
  N  N92  1  0.740552  0.754361  0.864080  1
  N  N93  1  0.740552  0.745639  0.364080  1
  N  N94  1  0.259448  0.245639  0.135920  1
  N  N95  1  0.259448  0.254361  0.635920  1
  Cl  Cl96  1  0.763814  0.564726  0.674865  1
  Cl  Cl97  1  0.763814  0.935274  0.174865  1
  Cl  Cl98  1  0.236186  0.435274  0.325135  1
  Cl  Cl99  1  0.236186  0.064726  0.825135  1
  Cl  Cl100  1  0.328530  0.861750  0.666452  1
  Cl  Cl101  1  0.328530  0.638250  0.166452  1
  Cl  Cl102  1  0.671470  0.138250  0.333548  1
  Cl  Cl103  1  0.671470  0.361750  0.833548  1
  O  O104  1  0.909198  0.925853  0.592776  1
  O  O105  1  0.909198  0.574147  0.092776  1
  O  O106  1  0.090802  0.074147  0.407224  1
  O  O107  1  0.090802  0.425853  0.907224  1
  O  O108  1  0.637241  0.188908  0.567866  1
  O  O109  1  0.637241  0.311092  0.067866  1
  O  O110  1  0.362759  0.811092  0.432134  1
  O  O111  1  0.362759  0.688908  0.932134  1
