# generated using pymatgen
data_NaLi5Mn2P2(CO7)2
_symmetry_space_group_name_H-M   'P 1'
_cell_length_a   8.63384122
_cell_length_b   6.68227101
_cell_length_c   9.99739141
_cell_angle_alpha   90.00000000
_cell_angle_beta   92.39478213
_cell_angle_gamma   90.00000000
_symmetry_Int_Tables_number   1
_chemical_formula_structural   NaLi5Mn2P2(CO7)2
_chemical_formula_sum   'Na2 Li10 Mn4 P4 C4 O28'
_cell_volume   576.28242771
_cell_formula_units_Z   2
loop_
 _symmetry_equiv_pos_site_id
 _symmetry_equiv_pos_as_xyz
  1  'x, y, z'
loop_
 _atom_site_type_symbol
 _atom_site_label
 _atom_site_symmetry_multiplicity
 _atom_site_fract_x
 _atom_site_fract_y
 _atom_site_fract_z
 _atom_site_occupancy
  Na  Na0  1  0.248053  0.998089  0.123678  1
  Na  Na1  1  0.751947  0.498089  0.876322  1
  Li  Li2  1  0.084285  0.255243  0.380604  1
  Li  Li3  1  0.090719  0.250395  0.875906  1
  Li  Li4  1  0.265548  0.029531  0.632479  1
  Li  Li5  1  0.266670  0.467932  0.634344  1
  Li  Li6  1  0.269676  0.475224  0.135074  1
  Li  Li7  1  0.734452  0.529531  0.367521  1
  Li  Li8  1  0.733330  0.967932  0.365656  1
  Li  Li9  1  0.730324  0.975224  0.864926  1
  Li  Li10  1  0.915715  0.755243  0.619396  1
  Li  Li11  1  0.909281  0.750395  0.124094  1
  Mn  Mn12  1  0.350772  0.746198  0.367238  1
  Mn  Mn13  1  0.353906  0.747790  0.857203  1
  Mn  Mn14  1  0.649228  0.246198  0.632762  1
  Mn  Mn15  1  0.646094  0.247790  0.142797  1
  P  P16  1  0.406240  0.249968  0.397880  1
  P  P17  1  0.408369  0.248956  0.891060  1
  P  P18  1  0.593760  0.749968  0.602120  1
  P  P19  1  0.591631  0.748956  0.108940  1
  C  C20  1  0.037850  0.749935  0.386304  1
  C  C21  1  0.043015  0.758658  0.888096  1
  C  C22  1  0.962150  0.249935  0.613696  1
  C  C23  1  0.956985  0.258658  0.111904  1
  O  O24  1  0.108180  0.248509  0.584679  1
  O  O25  1  0.098977  0.281526  0.076950  1
  O  O26  1  0.079132  0.755849  0.263356  1
  O  O27  1  0.078507  0.751897  0.763071  1
  O  O28  1  0.141607  0.745126  0.484455  1
  O  O29  1  0.151874  0.741278  0.981459  1
  O  O30  1  0.313734  0.062276  0.351498  1
  O  O31  1  0.307423  0.429570  0.343985  1
  O  O32  1  0.303228  0.067073  0.849434  1
  O  O33  1  0.318100  0.432446  0.831990  1
  O  O34  1  0.416874  0.254845  0.554796  1
  O  O35  1  0.424013  0.755174  0.649745  1
  O  O36  1  0.421987  0.267285  0.046992  1
  O  O37  1  0.425582  0.729226  0.160356  1
  O  O38  1  0.575987  0.255174  0.350255  1
  O  O39  1  0.583126  0.754845  0.445204  1
  O  O40  1  0.574418  0.229226  0.839644  1
  O  O41  1  0.578013  0.767285  0.953008  1
  O  O42  1  0.686266  0.562276  0.648502  1
  O  O43  1  0.692577  0.929570  0.656015  1
  O  O44  1  0.696772  0.567073  0.150566  1
  O  O45  1  0.681900  0.932446  0.168010  1
  O  O46  1  0.858393  0.245126  0.515545  1
  O  O47  1  0.848126  0.241278  0.018541  1
  O  O48  1  0.920868  0.255849  0.736644  1
  O  O49  1  0.921493  0.251897  0.236929  1
  O  O50  1  0.891820  0.748509  0.415321  1
  O  O51  1  0.901023  0.781526  0.923050  1
