# generated using pymatgen
data_Li3Ti3(PO4)4
_symmetry_space_group_name_H-M   'P 1'
_cell_length_a   10.17459525
_cell_length_b   10.17459525
_cell_length_c   10.71357686
_cell_angle_alpha   88.74783325
_cell_angle_beta   91.25216675
_cell_angle_gamma   143.00536856
_symmetry_Int_Tables_number   1
_chemical_formula_structural   Li3Ti3(PO4)4
_chemical_formula_sum   'Li6 Ti6 P8 O32'
_cell_volume   667.20986491
_cell_formula_units_Z   2
loop_
 _symmetry_equiv_pos_site_id
 _symmetry_equiv_pos_as_xyz
  1  'x, y, z'
loop_
 _atom_site_type_symbol
 _atom_site_label
 _atom_site_symmetry_multiplicity
 _atom_site_fract_x
 _atom_site_fract_y
 _atom_site_fract_z
 _atom_site_occupancy
  Li  Li0  1  0.929409  0.791730  0.971135  1
  Li  Li1  1  0.208270  0.070591  0.471135  1
  Li  Li2  1  0.791730  0.929409  0.528865  1
  Li  Li3  1  0.070591  0.208270  0.028865  1
  Li  Li4  1  0.409372  0.409372  0.750000  1
  Li  Li5  1  0.590628  0.590628  0.250000  1
  Ti  Ti6  1  0.675009  0.365837  0.748481  1
  Ti  Ti7  1  0.634163  0.324991  0.248481  1
  Ti  Ti8  1  0.000000  0.500000  0.500000  1
  Ti  Ti9  1  0.500000  1.000000  0.000000  1
  Ti  Ti10  1  0.365837  0.675009  0.751519  1
  Ti  Ti11  1  0.324991  0.634163  0.251519  1
  P  P12  1  0.416384  0.255979  0.991723  1
  P  P13  1  0.744021  0.583616  0.491723  1
  P  P14  1  0.216710  0.819098  0.743585  1
  P  P15  1  0.180902  0.783290  0.243585  1
  P  P16  1  0.819098  0.216710  0.756415  1
  P  P17  1  0.783290  0.180902  0.256415  1
  P  P18  1  0.255979  0.416384  0.508277  1
  P  P19  1  0.583616  0.744021  0.008277  1
  O  O20  1  0.219545  0.184422  0.961573  1
  O  O21  1  0.815578  0.780455  0.461573  1
  O  O22  1  0.624427  0.470462  0.620079  1
  O  O23  1  0.592929  0.421295  0.886662  1
  O  O24  1  0.529538  0.375573  0.120079  1
  O  O25  1  0.578705  0.407071  0.386662  1
  O  O26  1  0.344144  0.051573  0.992610  1
  O  O27  1  0.362908  0.053717  0.711900  1
  O  O28  1  0.948427  0.655856  0.492610  1
  O  O29  1  0.986754  0.679308  0.777473  1
  O  O30  1  0.946283  0.637092  0.211900  1
  O  O31  1  0.320692  0.013246  0.277473  1
  O  O32  1  0.722753  0.228721  0.862492  1
  O  O33  1  0.800176  0.308738  0.646650  1
  O  O34  1  0.771279  0.277247  0.362492  1
  O  O35  1  0.691262  0.199824  0.146650  1
  O  O36  1  0.308738  0.800176  0.853350  1
  O  O37  1  0.228721  0.722753  0.637508  1
  O  O38  1  0.199824  0.691262  0.353350  1
  O  O39  1  0.277247  0.771279  0.137508  1
  O  O40  1  0.679308  0.986754  0.722527  1
  O  O41  1  0.053717  0.362908  0.788100  1
  O  O42  1  0.013246  0.320692  0.222527  1
  O  O43  1  0.051573  0.344144  0.507390  1
  O  O44  1  0.637092  0.946283  0.288100  1
  O  O45  1  0.655856  0.948427  0.007390  1
  O  O46  1  0.421295  0.592929  0.613338  1
  O  O47  1  0.470462  0.624427  0.879921  1
  O  O48  1  0.407071  0.578705  0.113338  1
  O  O49  1  0.375573  0.529538  0.379921  1
  O  O50  1  0.184422  0.219545  0.538427  1
  O  O51  1  0.780455  0.815578  0.038427  1
