# generated using pymatgen
data_Fe2OF3
_symmetry_space_group_name_H-M   'P 1'
_cell_length_a   10.26602889
_cell_length_b   10.26602889
_cell_length_c   4.87715702
_cell_angle_alpha   88.29123530
_cell_angle_beta   91.70876470
_cell_angle_gamma   145.09554934
_symmetry_Int_Tables_number   1
_chemical_formula_structural   Fe2OF3
_chemical_formula_sum   'Fe8 O4 F12'
_cell_volume   293.97781401
_cell_formula_units_Z   4
loop_
 _symmetry_equiv_pos_site_id
 _symmetry_equiv_pos_as_xyz
  1  'x, y, z'
loop_
 _atom_site_type_symbol
 _atom_site_label
 _atom_site_symmetry_multiplicity
 _atom_site_fract_x
 _atom_site_fract_y
 _atom_site_fract_z
 _atom_site_occupancy
  Fe  Fe0  1  0.870370  0.622299  0.499841  1
  Fe  Fe1  1  0.622299  0.870370  0.500159  1
  Fe  Fe2  1  0.129630  0.377701  0.500159  1
  Fe  Fe3  1  0.377701  0.129630  0.499841  1
  Fe  Fe4  1  0.500000  0.500000  0.000000  1
  Fe  Fe5  1  0.240394  0.759606  0.966919  1
  Fe  Fe6  1  0.000000  0.000000  0.000000  1
  Fe  Fe7  1  0.759606  0.240394  0.033081  1
  O  O8  1  0.579267  0.420733  0.318239  1
  O  O9  1  0.832952  0.167048  0.333011  1
  O  O10  1  0.420733  0.579267  0.681761  1
  O  O11  1  0.167048  0.832952  0.666989  1
  F  F12  1  0.947987  0.551282  0.204734  1
  F  F13  1  0.448718  0.052013  0.204734  1
  F  F14  1  0.703569  0.807077  0.209573  1
  F  F15  1  0.192923  0.296431  0.209573  1
  F  F16  1  0.073761  0.926239  0.301398  1
  F  F17  1  0.321876  0.678124  0.293468  1
  F  F18  1  0.926239  0.073761  0.698602  1
  F  F19  1  0.678124  0.321876  0.706532  1
  F  F20  1  0.551282  0.947987  0.795266  1
  F  F21  1  0.296431  0.192923  0.790427  1
  F  F22  1  0.052013  0.448718  0.795266  1
  F  F23  1  0.807077  0.703569  0.790427  1
