# generated using pymatgen
data_Mn3(OF2)2
_symmetry_space_group_name_H-M   'P 1'
_cell_length_a   5.80901420
_cell_length_b   5.80901420
_cell_length_c   7.14321176
_cell_angle_alpha   74.43464016
_cell_angle_beta   105.56535984
_cell_angle_gamma   103.28688890
_symmetry_Int_Tables_number   1
_chemical_formula_structural   Mn3(OF2)2
_chemical_formula_sum   'Mn6 O4 F8'
_cell_volume   220.43008350
_cell_formula_units_Z   2
loop_
 _symmetry_equiv_pos_site_id
 _symmetry_equiv_pos_as_xyz
  1  'x, y, z'
loop_
 _atom_site_type_symbol
 _atom_site_label
 _atom_site_symmetry_multiplicity
 _atom_site_fract_x
 _atom_site_fract_y
 _atom_site_fract_z
 _atom_site_occupancy
  Mn  Mn0  1  0.332812  0.667188  0.836087  1
  Mn  Mn1  1  0.650588  0.349412  0.670491  1
  Mn  Mn2  1  0.349412  0.650588  0.329509  1
  Mn  Mn3  1  0.667188  0.332812  0.163913  1
  Mn  Mn4  1  0.000000  0.000000  0.500000  1
  Mn  Mn5  1  0.000000  0.000000  0.000000  1
  O  O6  1  0.429341  0.570659  0.627259  1
  O  O7  1  0.758942  0.241058  0.960731  1
  O  O8  1  0.241058  0.758942  0.039269  1
  O  O9  1  0.570659  0.429341  0.372741  1
  F  F10  1  0.978238  0.639824  0.673071  1
  F  F11  1  0.639824  0.978238  0.326929  1
  F  F12  1  0.121157  0.878843  0.305243  1
  F  F13  1  0.878843  0.121157  0.694757  1
  F  F14  1  0.021762  0.360176  0.326929  1
  F  F15  1  0.360176  0.021762  0.673071  1
  F  F16  1  0.692573  0.692573  0.000000  1
  F  F17  1  0.307427  0.307427  0.000000  1
