# generated using pymatgen
data_Li2AsPCO7
_symmetry_space_group_name_H-M   'P 1'
_cell_length_a   5.09745307
_cell_length_b   6.54174130
_cell_length_c   8.94338738
_cell_angle_alpha   90.00000000
_cell_angle_beta   93.92856431
_cell_angle_gamma   90.00000000
_symmetry_Int_Tables_number   1
_chemical_formula_structural   Li2AsPCO7
_chemical_formula_sum   'Li4 As2 P2 C2 O14'
_cell_volume   297.52739390
_cell_formula_units_Z   2
loop_
 _symmetry_equiv_pos_site_id
 _symmetry_equiv_pos_as_xyz
  1  'x, y, z'
loop_
 _atom_site_type_symbol
 _atom_site_label
 _atom_site_symmetry_multiplicity
 _atom_site_fract_x
 _atom_site_fract_y
 _atom_site_fract_z
 _atom_site_occupancy
  Li  Li0  1  0.240376  0.457856  0.731552  1
  Li  Li1  1  0.240376  0.042144  0.731552  1
  Li  Li2  1  0.759624  0.542144  0.268448  1
  Li  Li3  1  0.759624  0.957856  0.268448  1
  As  As4  1  0.820402  0.750000  0.853089  1
  As  As5  1  0.179598  0.250000  0.146911  1
  P  P6  1  0.746021  0.250000  0.895565  1
  P  P7  1  0.253979  0.750000  0.104435  1
  C  C8  1  0.724568  0.750000  0.569678  1
  C  C9  1  0.275432  0.250000  0.430322  1
  O  O10  1  0.257779  0.250000  0.569170  1
  O  O11  1  0.953084  0.750000  0.660943  1
  O  O12  1  0.514066  0.750000  0.641417  1
  O  O13  1  0.884575  0.062972  0.828225  1
  O  O14  1  0.884575  0.437028  0.828225  1
  O  O15  1  0.189873  0.750000  0.926832  1
  O  O16  1  0.449046  0.250000  0.865458  1
  O  O17  1  0.550954  0.750000  0.134542  1
  O  O18  1  0.810127  0.250000  0.073168  1
  O  O19  1  0.115425  0.562972  0.171775  1
  O  O20  1  0.115425  0.937028  0.171775  1
  O  O21  1  0.485934  0.250000  0.358583  1
  O  O22  1  0.046916  0.250000  0.339057  1
  O  O23  1  0.742221  0.750000  0.430830  1
