# generated using pymatgen
data_Nb5(AsPd)4
_symmetry_space_group_name_H-M   'P 1'
_cell_length_a   7.74665217
_cell_length_b   7.74665217
_cell_length_c   7.74665217
_cell_angle_alpha   93.48110731
_cell_angle_beta   93.48110731
_cell_angle_gamma   151.46928317
_symmetry_Int_Tables_number   1
_chemical_formula_structural   Nb5(AsPd)4
_chemical_formula_sum   'Nb5 As4 Pd4'
_cell_volume   215.19455980
_cell_formula_units_Z   1
loop_
 _symmetry_equiv_pos_site_id
 _symmetry_equiv_pos_as_xyz
  1  'x, y, z'
loop_
 _atom_site_type_symbol
 _atom_site_label
 _atom_site_symmetry_multiplicity
 _atom_site_fract_x
 _atom_site_fract_y
 _atom_site_fract_z
 _atom_site_occupancy
  Nb  Nb0  1  0.312050  0.381724  0.693774  1
  Nb  Nb1  1  0.687950  0.618276  0.306226  1
  Nb  Nb2  1  0.000000  0.000000  0.000000  1
  Nb  Nb3  1  0.381724  0.687950  0.069674  1
  Nb  Nb4  1  0.618276  0.312050  0.930326  1
  As  As5  1  0.243933  0.934064  0.177997  1
  As  As6  1  0.756067  0.065936  0.822003  1
  As  As7  1  0.065936  0.243933  0.309869  1
  As  As8  1  0.934064  0.756067  0.690131  1
  Pd  Pd9  1  0.111421  0.596192  0.707613  1
  Pd  Pd10  1  0.403808  0.111421  0.515229  1
  Pd  Pd11  1  0.888579  0.403808  0.292387  1
  Pd  Pd12  1  0.596192  0.888579  0.484771  1
