# generated using pymatgen
data_LiCu2F6
_symmetry_space_group_name_H-M   'P 1'
_cell_length_a   4.67194144
_cell_length_b   4.67194144
_cell_length_c   9.06660617
_cell_angle_alpha   90.00000000
_cell_angle_beta   90.00000000
_cell_angle_gamma   90.00000000
_symmetry_Int_Tables_number   1
_chemical_formula_structural   LiCu2F6
_chemical_formula_sum   'Li2 Cu4 F12'
_cell_volume   197.89714692
_cell_formula_units_Z   2
loop_
 _symmetry_equiv_pos_site_id
 _symmetry_equiv_pos_as_xyz
  1  'x, y, z'
loop_
 _atom_site_type_symbol
 _atom_site_label
 _atom_site_symmetry_multiplicity
 _atom_site_fract_x
 _atom_site_fract_y
 _atom_site_fract_z
 _atom_site_occupancy
  Li  Li0  1  0.500000  0.500000  0.000000  1
  Li  Li1  1  0.000000  0.000000  0.500000  1
  Cu  Cu2  1  0.500000  0.500000  0.668690  1
  Cu  Cu3  1  0.500000  0.500000  0.331310  1
  Cu  Cu4  1  0.000000  0.000000  0.831310  1
  Cu  Cu5  1  0.000000  0.000000  0.168690  1
  F  F6  1  0.689719  0.310281  0.500000  1
  F  F7  1  0.697640  0.302360  0.828517  1
  F  F8  1  0.697640  0.302360  0.171483  1
  F  F9  1  0.802360  0.802360  0.671483  1
  F  F10  1  0.802360  0.802360  0.328517  1
  F  F11  1  0.810281  0.810281  0.000000  1
  F  F12  1  0.189719  0.189719  0.000000  1
  F  F13  1  0.197640  0.197640  0.671483  1
  F  F14  1  0.197640  0.197640  0.328517  1
  F  F15  1  0.302360  0.697640  0.171483  1
  F  F16  1  0.302360  0.697640  0.828517  1
  F  F17  1  0.310281  0.689719  0.500000  1
