# generated using pymatgen
data_Li2Mn2P4H6O17
_symmetry_space_group_name_H-M   'P 1'
_cell_length_a   8.74086873
_cell_length_b   9.06539502
_cell_length_c   9.32940875
_cell_angle_alpha   116.69933205
_cell_angle_beta   100.11588843
_cell_angle_gamma   89.95595643
_symmetry_Int_Tables_number   1
_chemical_formula_structural   Li2Mn2P4H6O17
_chemical_formula_sum   'Li4 Mn4 P8 H12 O34'
_cell_volume   647.59640689
_cell_formula_units_Z   2
loop_
 _symmetry_equiv_pos_site_id
 _symmetry_equiv_pos_as_xyz
  1  'x, y, z'
loop_
 _atom_site_type_symbol
 _atom_site_label
 _atom_site_symmetry_multiplicity
 _atom_site_fract_x
 _atom_site_fract_y
 _atom_site_fract_z
 _atom_site_occupancy
  Li  Li0  1  0.245288  0.802387  0.887206  1
  Li  Li1  1  0.679216  0.264893  0.482302  1
  Li  Li2  1  0.320784  0.735107  0.517698  1
  Li  Li3  1  0.754712  0.197613  0.112794  1
  Mn  Mn4  1  0.132620  0.290843  0.753250  1
  Mn  Mn5  1  0.627501  0.779714  0.733748  1
  Mn  Mn6  1  0.372499  0.220286  0.266252  1
  Mn  Mn7  1  0.867380  0.709157  0.246750  1
  P  P8  1  0.411024  0.087577  0.856969  1
  P  P9  1  0.895293  0.587243  0.839393  1
  P  P10  1  0.429763  0.448854  0.695878  1
  P  P11  1  0.139958  0.008988  0.350121  1
  P  P12  1  0.860042  0.991012  0.649879  1
  P  P13  1  0.570237  0.551146  0.304122  1
  P  P14  1  0.104707  0.412757  0.160607  1
  P  P15  1  0.588976  0.912423  0.143031  1
  H  H16  1  0.974598  0.199568  0.951785  1
  H  H17  1  0.570496  0.289285  0.891361  1
  H  H18  1  0.656033  0.505943  0.891234  1
  H  H19  1  0.704414  0.983558  0.442894  1
  H  H20  1  0.119971  0.599444  0.604445  1
  H  H21  1  0.054315  0.758151  0.591989  1
  H  H22  1  0.945685  0.241849  0.408011  1
  H  H23  1  0.880029  0.400556  0.395555  1
  H  H24  1  0.295586  0.016442  0.557106  1
  H  H25  1  0.343967  0.494057  0.108766  1
  H  H26  1  0.429504  0.710715  0.108639  1
  H  H27  1  0.025402  0.800432  0.048215  1
  O  O28  1  0.336042  0.075223  0.985998  1
  O  O29  1  0.567259  0.209996  0.940631  1
  O  O30  1  0.307638  0.153393  0.747764  1
  O  O31  1  0.815284  0.586874  0.973651  1
  O  O32  1  0.033353  0.732601  0.927867  1
  O  O33  1  0.990524  0.129540  0.770129  1
  O  O34  1  0.555738  0.425706  0.828917  1
  O  O35  1  0.269036  0.457021  0.747456  1
  O  O36  1  0.740743  0.071313  0.559783  1
  O  O37  1  0.079193  0.156550  0.480952  1
  O  O38  1  0.959499  0.422499  0.739164  1
  O  O39  1  0.460820  0.621982  0.708305  1
  O  O40  1  0.440003  0.306514  0.531442  1
  O  O41  1  0.778566  0.614479  0.710207  1
  O  O42  1  0.148990  0.714794  0.634810  1
  O  O43  1  0.451049  0.918025  0.730909  1
  O  O44  1  0.782406  0.948619  0.763813  1
  O  O45  1  0.217594  0.051381  0.236187  1
  O  O46  1  0.548951  0.081975  0.269091  1
  O  O47  1  0.851010  0.285206  0.365190  1
  O  O48  1  0.221434  0.385521  0.289793  1
  O  O49  1  0.559997  0.693486  0.468558  1
  O  O50  1  0.539180  0.378018  0.291695  1
  O  O51  1  0.040501  0.577501  0.260836  1
  O  O52  1  0.920807  0.843450  0.519048  1
  O  O53  1  0.259257  0.928687  0.440217  1
  O  O54  1  0.730964  0.542979  0.252544  1
  O  O55  1  0.444262  0.574294  0.171083  1
  O  O56  1  0.009476  0.870460  0.229871  1
  O  O57  1  0.966647  0.267399  0.072133  1
  O  O58  1  0.184716  0.413126  0.026349  1
  O  O59  1  0.692362  0.846607  0.252236  1
  O  O60  1  0.432741  0.790004  0.059369  1
  O  O61  1  0.663958  0.924777  0.014002  1
