# generated using pymatgen
data_VO2
_symmetry_space_group_name_H-M   'P 1'
_cell_length_a   3.71982357
_cell_length_b   5.65566363
_cell_length_c   8.43431968
_cell_angle_alpha   90.00000000
_cell_angle_beta   90.00000000
_cell_angle_gamma   90.00000000
_symmetry_Int_Tables_number   1
_chemical_formula_structural   VO2
_chemical_formula_sum   'V4 O8'
_cell_volume   177.44181521
_cell_formula_units_Z   4
loop_
 _symmetry_equiv_pos_site_id
 _symmetry_equiv_pos_as_xyz
  1  'x, y, z'
loop_
 _atom_site_type_symbol
 _atom_site_label
 _atom_site_symmetry_multiplicity
 _atom_site_fract_x
 _atom_site_fract_y
 _atom_site_fract_z
 _atom_site_occupancy
  V  V0  1  0.250000  0.915785  0.368772  1
  V  V1  1  0.750000  0.084215  0.631228  1
  V  V2  1  0.250000  0.415785  0.131228  1
  V  V3  1  0.750000  0.584215  0.868772  1
  O  O4  1  0.750000  0.891294  0.441389  1
  O  O5  1  0.250000  0.087571  0.202264  1
  O  O6  1  0.750000  0.912429  0.797736  1
  O  O7  1  0.250000  0.108706  0.558611  1
  O  O8  1  0.750000  0.391294  0.058611  1
  O  O9  1  0.250000  0.587571  0.297736  1
  O  O10  1  0.750000  0.412429  0.702264  1
  O  O11  1  0.250000  0.608706  0.941389  1
