# generated using pymatgen
data_Li8NbS6
_symmetry_space_group_name_H-M   'P 1'
_cell_length_a   6.95842143
_cell_length_b   6.95842143
_cell_length_c   13.48645876
_cell_angle_alpha   90.00000000
_cell_angle_beta   90.00000000
_cell_angle_gamma   120.00000000
_symmetry_Int_Tables_number   1
_chemical_formula_structural   Li8NbS6
_chemical_formula_sum   'Li16 Nb2 S12'
_cell_volume   565.52266549
_cell_formula_units_Z   2
loop_
 _symmetry_equiv_pos_site_id
 _symmetry_equiv_pos_as_xyz
  1  'x, y, z'
loop_
 _atom_site_type_symbol
 _atom_site_label
 _atom_site_symmetry_multiplicity
 _atom_site_fract_x
 _atom_site_fract_y
 _atom_site_fract_z
 _atom_site_occupancy
  Li  Li0  1  0.680991  0.000000  0.765723  1
  Li  Li1  1  0.622612  0.000000  0.131357  1
  Li  Li2  1  0.377388  0.000000  0.631357  1
  Li  Li3  1  0.319009  0.000000  0.265723  1
  Li  Li4  1  0.333333  0.666667  0.399505  1
  Li  Li5  1  0.333333  0.666667  0.899505  1
  Li  Li6  1  0.000000  0.680991  0.765723  1
  Li  Li7  1  0.000000  0.622612  0.131357  1
  Li  Li8  1  0.000000  0.377388  0.631357  1
  Li  Li9  1  0.680991  0.680991  0.265723  1
  Li  Li10  1  0.000000  0.319009  0.265723  1
  Li  Li11  1  0.622612  0.622612  0.631357  1
  Li  Li12  1  0.666667  0.333333  0.899505  1
  Li  Li13  1  0.666667  0.333333  0.399505  1
  Li  Li14  1  0.377388  0.377388  0.131357  1
  Li  Li15  1  0.319009  0.319009  0.765723  1
  Nb  Nb16  1  0.000000  0.000000  0.998010  1
  Nb  Nb17  1  0.000000  0.000000  0.498010  1
  S  S18  1  0.678098  0.000000  0.949933  1
  S  S19  1  0.321902  0.000000  0.449933  1
  S  S20  1  0.333333  0.666667  0.215675  1
  S  S21  1  0.000000  0.000000  0.175429  1
  S  S22  1  0.000000  0.000000  0.675429  1
  S  S23  1  0.333333  0.666667  0.715675  1
  S  S24  1  0.000000  0.678098  0.949933  1
  S  S25  1  0.678098  0.678098  0.449933  1
  S  S26  1  0.000000  0.321902  0.449933  1
  S  S27  1  0.666667  0.333333  0.715675  1
  S  S28  1  0.666667  0.333333  0.215675  1
  S  S29  1  0.321902  0.321902  0.949933  1
