# generated using pymatgen
data_LiFeF4
_symmetry_space_group_name_H-M   'P 1'
_cell_length_a   5.66693408
_cell_length_b   5.66693408
_cell_length_c   5.66693408
_cell_angle_alpha   111.20356637
_cell_angle_beta   111.20356637
_cell_angle_gamma   106.05946107
_symmetry_Int_Tables_number   1
_chemical_formula_structural   LiFeF4
_chemical_formula_sum   'Li2 Fe2 F8'
_cell_volume   139.72527373
_cell_formula_units_Z   2
loop_
 _symmetry_equiv_pos_site_id
 _symmetry_equiv_pos_as_xyz
  1  'x, y, z'
loop_
 _atom_site_type_symbol
 _atom_site_label
 _atom_site_symmetry_multiplicity
 _atom_site_fract_x
 _atom_site_fract_y
 _atom_site_fract_z
 _atom_site_occupancy
  Li  Li0  1  0.500000  0.500000  0.000000  1
  Li  Li1  1  0.250000  0.750000  0.500000  1
  Fe  Fe2  1  0.750000  0.250000  0.500000  1
  Fe  Fe3  1  0.000000  0.000000  0.000000  1
  F  F4  1  0.691540  0.483372  0.791832  1
  F  F5  1  0.100293  0.308460  0.791832  1
  F  F6  1  0.516628  0.308460  0.208168  1
  F  F7  1  0.691540  0.899707  0.208168  1
  F  F8  1  0.058460  0.350293  0.291832  1
  F  F9  1  0.649707  0.941540  0.708168  1
  F  F10  1  0.233372  0.941540  0.291832  1
  F  F11  1  0.058460  0.766628  0.708168  1
