# generated using pymatgen
data_Ba2La3Ti2Cr3O15
_symmetry_space_group_name_H-M   'P 1'
_cell_length_a   14.24649881
_cell_length_b   14.24649881
_cell_length_c   3.97560635
_cell_angle_alpha   90.00000000
_cell_angle_beta   90.00000000
_cell_angle_gamma   157.15078130
_symmetry_Int_Tables_number   1
_chemical_formula_structural   Ba2La3Ti2Cr3O15
_chemical_formula_sum   'Ba2 La3 Ti2 Cr3 O15'
_cell_volume   313.32516618
_cell_formula_units_Z   1
loop_
 _symmetry_equiv_pos_site_id
 _symmetry_equiv_pos_as_xyz
  1  'x, y, z'
loop_
 _atom_site_type_symbol
 _atom_site_label
 _atom_site_symmetry_multiplicity
 _atom_site_fract_x
 _atom_site_fract_y
 _atom_site_fract_z
 _atom_site_occupancy
  Ba  Ba0  1  0.801560  0.198440  0.000000  1
  Ba  Ba1  1  0.198440  0.801560  0.000000  1
  La  La2  1  0.596676  0.403324  0.000000  1
  La  La3  1  0.000000  0.000000  0.000000  1
  La  La4  1  0.403324  0.596676  0.000000  1
  Ti  Ti5  1  0.698240  0.301760  0.500000  1
  Ti  Ti6  1  0.301760  0.698240  0.500000  1
  Cr  Cr7  1  0.500000  0.500000  0.500000  1
  Cr  Cr8  1  0.099116  0.900884  0.500000  1
  Cr  Cr9  1  0.900884  0.099116  0.500000  1
  O  O10  1  1.000000  0.500000  0.500000  1
  O  O11  1  0.411441  0.117173  0.500000  1
  O  O12  1  0.798360  0.699281  0.500000  1
  O  O13  1  0.500000  0.000000  0.500000  1
  O  O14  1  0.201640  0.300719  0.500000  1
  O  O15  1  0.882827  0.588559  0.500000  1
  O  O16  1  0.588559  0.882827  0.500000  1
  O  O17  1  0.300719  0.201640  0.500000  1
  O  O18  1  0.699281  0.798360  0.500000  1
  O  O19  1  0.117173  0.411441  0.500000  1
  O  O20  1  0.303527  0.696473  0.000000  1
  O  O21  1  0.696473  0.303527  0.000000  1
  O  O22  1  0.094515  0.905485  0.000000  1
  O  O23  1  0.500000  0.500000  0.000000  1
  O  O24  1  0.905485  0.094515  0.000000  1
