# generated using pymatgen
data_Fe3O5F
_symmetry_space_group_name_H-M   'P 1'
_cell_length_a   6.58134367
_cell_length_b   3.00234890
_cell_length_c   10.38721126
_cell_angle_alpha   90.00000000
_cell_angle_beta   108.41873943
_cell_angle_gamma   90.00000000
_symmetry_Int_Tables_number   1
_chemical_formula_structural   Fe3O5F
_chemical_formula_sum   'Fe6 O10 F2'
_cell_volume   194.73180273
_cell_formula_units_Z   2
loop_
 _symmetry_equiv_pos_site_id
 _symmetry_equiv_pos_as_xyz
  1  'x, y, z'
loop_
 _atom_site_type_symbol
 _atom_site_label
 _atom_site_symmetry_multiplicity
 _atom_site_fract_x
 _atom_site_fract_y
 _atom_site_fract_z
 _atom_site_occupancy
  Fe  Fe0  1  0.992185  0.000000  0.982748  1
  Fe  Fe1  1  0.501744  0.500000  0.001838  1
  Fe  Fe2  1  0.347867  0.000000  0.672895  1
  Fe  Fe3  1  0.173493  0.500000  0.346811  1
  Fe  Fe4  1  0.813206  0.500000  0.661522  1
  Fe  Fe5  1  0.667420  0.000000  0.333670  1
  O  O6  1  0.306739  0.000000  0.999230  1
  O  O7  1  0.693743  0.000000  0.999472  1
  O  O8  1  0.397131  0.500000  0.796537  1
  O  O9  1  0.270203  0.500000  0.547939  1
  O  O10  1  0.934378  0.500000  0.861026  1
  O  O11  1  0.637573  0.000000  0.662397  1
  O  O12  1  0.355616  0.000000  0.337278  1
  O  O13  1  0.731715  0.500000  0.460648  1
  O  O14  1  0.604105  0.500000  0.208442  1
  O  O15  1  0.981487  0.000000  0.337050  1
  F  F16  1  0.027381  0.000000  0.663400  1
  F  F17  1  0.064015  0.500000  0.127099  1
