# generated using pymatgen
data_Ba6Bi6O17
_symmetry_space_group_name_H-M   'P 1'
_cell_length_a   10.92870763
_cell_length_b   10.92870763
_cell_length_c   10.92870763
_cell_angle_alpha   146.28746356
_cell_angle_beta   133.11498586
_cell_angle_gamma   58.98266249
_symmetry_Int_Tables_number   1
_chemical_formula_structural   Ba6Bi6O17
_chemical_formula_sum   'Ba6 Bi6 O17'
_cell_volume   524.26660506
_cell_formula_units_Z   1
loop_
 _symmetry_equiv_pos_site_id
 _symmetry_equiv_pos_as_xyz
  1  'x, y, z'
loop_
 _atom_site_type_symbol
 _atom_site_label
 _atom_site_symmetry_multiplicity
 _atom_site_fract_x
 _atom_site_fract_y
 _atom_site_fract_z
 _atom_site_occupancy
  Ba  Ba0  1  0.500000  1.000000  0.500000  1
  Ba  Ba1  1  0.822393  0.322393  0.500000  1
  Ba  Ba2  1  0.668082  0.668082  0.000000  1
  Ba  Ba3  1  0.000000  0.000000  0.000000  1
  Ba  Ba4  1  0.331918  0.331918  0.000000  1
  Ba  Ba5  1  0.177607  0.677607  0.500000  1
  Bi  Bi6  1  0.248188  0.500000  0.748188  1
  Bi  Bi7  1  0.414238  0.165721  0.248517  1
  Bi  Bi8  1  0.751812  0.500000  0.251812  1
  Bi  Bi9  1  0.917204  0.165721  0.751483  1
  Bi  Bi10  1  0.082796  0.834279  0.248517  1
  Bi  Bi11  1  0.585762  0.834279  0.751483  1
  O  O12  1  0.326910  0.330457  0.491402  1
  O  O13  1  0.326910  0.835509  0.996453  1
  O  O14  1  0.667547  0.167547  0.500000  1
  O  O15  1  0.500000  0.500000  0.000000  1
  O  O16  1  0.832439  0.832439  0.000000  1
  O  O17  1  0.839055  0.330457  0.003547  1
  O  O18  1  0.839055  0.835509  0.508598  1
  O  O19  1  0.000000  0.500000  0.000000  1
  O  O20  1  0.000000  0.000000  0.500000  1
  O  O21  1  0.160945  0.164491  0.491402  1
  O  O22  1  0.160945  0.669543  0.996453  1
  O  O23  1  0.167561  0.167561  0.000000  1
  O  O24  1  0.332453  0.832453  0.500000  1
  O  O25  1  0.500000  0.500000  0.500000  1
  O  O26  1  0.673090  0.164491  0.003547  1
  O  O27  1  0.673090  0.669543  0.508598  1
  O  O28  1  0.500000  0.000000  0.000000  1
