# generated using pymatgen
data_K2AgAs
_symmetry_space_group_name_H-M   'P 1'
_cell_length_a   6.44574126
_cell_length_b   6.44574126
_cell_length_c   6.13366824
_cell_angle_alpha   90.00000000
_cell_angle_beta   90.00000000
_cell_angle_gamma   103.59111018
_symmetry_Int_Tables_number   1
_chemical_formula_structural   K2AgAs
_chemical_formula_sum   'K4 Ag2 As2'
_cell_volume   247.70293597
_cell_formula_units_Z   2
loop_
 _symmetry_equiv_pos_site_id
 _symmetry_equiv_pos_as_xyz
  1  'x, y, z'
loop_
 _atom_site_type_symbol
 _atom_site_label
 _atom_site_symmetry_multiplicity
 _atom_site_fract_x
 _atom_site_fract_y
 _atom_site_fract_z
 _atom_site_occupancy
  K  K0  1  0.029444  0.684099  0.250000  1
  K  K1  1  0.970556  0.315901  0.750000  1
  K  K2  1  0.684099  0.029444  0.250000  1
  K  K3  1  0.315901  0.970556  0.750000  1
  Ag  Ag4  1  0.500000  0.500000  0.500000  1
  Ag  Ag5  1  0.500000  0.500000  0.000000  1
  As  As6  1  0.759073  0.759073  0.750000  1
  As  As7  1  0.240927  0.240927  0.250000  1
