# generated using pymatgen
data_Tm2Sb2O7
_symmetry_space_group_name_H-M   'P 1'
_cell_length_a   7.53235581
_cell_length_b   7.53235581
_cell_length_c   7.53235581
_cell_angle_alpha   119.94901015
_cell_angle_beta   118.83791102
_cell_angle_gamma   91.05645153
_symmetry_Int_Tables_number   1
_chemical_formula_structural   Tm2Sb2O7
_chemical_formula_sum   'Tm4 Sb4 O14'
_cell_volume   304.86746198
_cell_formula_units_Z   2
loop_
 _symmetry_equiv_pos_site_id
 _symmetry_equiv_pos_as_xyz
  1  'x, y, z'
loop_
 _atom_site_type_symbol
 _atom_site_label
 _atom_site_symmetry_multiplicity
 _atom_site_fract_x
 _atom_site_fract_y
 _atom_site_fract_z
 _atom_site_occupancy
  Tm  Tm0  1  0.741828  0.000000  0.741828  1
  Tm  Tm1  1  0.238517  0.458678  0.197195  1
  Tm  Tm2  1  0.241828  0.500000  0.741828  1
  Tm  Tm3  1  0.738517  0.541322  0.779839  1
  Sb  Sb4  1  0.264808  0.000000  0.264808  1
  Sb  Sb5  1  0.233301  0.006835  0.740136  1
  Sb  Sb6  1  0.764808  0.500000  0.264808  1
  Sb  Sb7  1  0.733301  0.993165  0.226465  1
  O  O8  1  0.848354  0.914584  0.017259  1
  O  O9  1  0.602675  0.668905  0.017259  1
  O  O10  1  0.128386  0.629493  0.994149  1
  O  O11  1  0.375920  0.953471  0.559295  1
  O  O12  1  0.483121  0.997481  0.980602  1
  O  O13  1  0.105825  0.683376  0.559295  1
  O  O14  1  0.864656  0.365763  0.994149  1
  O  O15  1  0.628386  0.634237  0.498893  1
  O  O16  1  0.875920  0.316624  0.422449  1
  O  O17  1  0.983121  0.002519  0.485641  1
  O  O18  1  0.605825  0.046529  0.422449  1
  O  O19  1  0.364656  0.370507  0.498893  1
  O  O20  1  0.348354  0.331095  0.933770  1
  O  O21  1  0.102675  0.085416  0.933770  1
