# generated using pymatgen
data_Li4Cr7(PO4)6
_symmetry_space_group_name_H-M   'P 1'
_cell_length_a   9.13495894
_cell_length_b   9.13495894
_cell_length_c   6.48547754
_cell_angle_alpha   81.11467477
_cell_angle_beta   98.88532523
_cell_angle_gamma   80.03396929
_symmetry_Int_Tables_number   1
_chemical_formula_structural   Li4Cr7(PO4)6
_chemical_formula_sum   'Li4 Cr7 P6 O24'
_cell_volume   517.42397714
_cell_formula_units_Z   1
loop_
 _symmetry_equiv_pos_site_id
 _symmetry_equiv_pos_as_xyz
  1  'x, y, z'
loop_
 _atom_site_type_symbol
 _atom_site_label
 _atom_site_symmetry_multiplicity
 _atom_site_fract_x
 _atom_site_fract_y
 _atom_site_fract_z
 _atom_site_occupancy
  Li  Li0  1  0.767544  0.232456  0.504901  1
  Li  Li1  1  0.560810  0.691076  0.451751  1
  Li  Li2  1  0.308924  0.439190  0.451751  1
  Li  Li3  1  0.063982  0.936018  0.453161  1
  Cr  Cr4  1  0.979247  0.638182  0.818176  1
  Cr  Cr5  1  0.361818  0.020753  0.818176  1
  Cr  Cr6  1  0.626748  0.621661  0.010169  1
  Cr  Cr7  1  0.378339  0.373252  0.010169  1
  Cr  Cr8  1  0.011898  0.988102  0.993438  1
  Cr  Cr9  1  0.654042  0.990041  0.180743  1
  Cr  Cr10  1  0.009959  0.345958  0.180743  1
  P  P11  1  0.898771  0.717495  0.283477  1
  P  P12  1  0.282505  0.101229  0.283477  1
  P  P13  1  0.670826  0.329174  0.940076  1
  P  P14  1  0.316354  0.683646  0.096429  1
  P  P15  1  0.712624  0.914051  0.700400  1
  P  P16  1  0.085949  0.287376  0.700400  1
  O  O17  1  0.595326  0.225124  0.089891  1
  O  O18  1  0.774876  0.404674  0.089891  1
  O  O19  1  0.746866  0.253134  0.785585  1
  O  O20  1  0.957024  0.617925  0.130664  1
  O  O21  1  0.382075  0.042976  0.130664  1
  O  O22  1  0.111851  0.087245  0.232204  1
  O  O23  1  0.912755  0.888149  0.232204  1
  O  O24  1  0.720027  0.730769  0.251064  1
  O  O25  1  0.269231  0.279973  0.251064  1
  O  O26  1  0.533795  0.466205  0.838049  1
  O  O27  1  0.420219  0.579781  0.301341  1
  O  O28  1  0.118187  0.109717  0.785683  1
  O  O29  1  0.890283  0.881813  0.785683  1
  O  O30  1  0.242086  0.324441  0.678439  1
  O  O31  1  0.675559  0.757914  0.678439  1
  O  O32  1  0.685252  0.029747  0.489423  1
  O  O33  1  0.970253  0.314748  0.489423  1
  O  O34  1  0.198605  0.801395  0.151644  1
  O  O35  1  0.618362  0.980617  0.858422  1
  O  O36  1  0.019383  0.381638  0.858422  1
  O  O37  1  0.420736  0.761726  0.962236  1
  O  O38  1  0.238274  0.579264  0.962236  1
  O  O39  1  0.986583  0.652951  0.507785  1
  O  O40  1  0.347049  0.013417  0.507785  1
