# generated using pymatgen
data_SbP6(WO8)3
_symmetry_space_group_name_H-M   'P 1'
_cell_length_a   9.04807232
_cell_length_b   9.04807232
_cell_length_c   9.04807232
_cell_angle_alpha   58.61689904
_cell_angle_beta   58.61689904
_cell_angle_gamma   58.61689904
_symmetry_Int_Tables_number   1
_chemical_formula_structural   SbP6(WO8)3
_chemical_formula_sum   'Sb1 P6 W3 O24'
_cell_volume   507.22371687
_cell_formula_units_Z   1
loop_
 _symmetry_equiv_pos_site_id
 _symmetry_equiv_pos_as_xyz
  1  'x, y, z'
loop_
 _atom_site_type_symbol
 _atom_site_label
 _atom_site_symmetry_multiplicity
 _atom_site_fract_x
 _atom_site_fract_y
 _atom_site_fract_z
 _atom_site_occupancy
  Sb  Sb0  1  0.141311  0.141311  0.141311  1
  P  P1  1  0.245752  0.541866  0.961269  1
  P  P2  1  0.961269  0.245752  0.541866  1
  P  P3  1  0.541866  0.961269  0.245752  1
  P  P4  1  0.470068  0.041876  0.739038  1
  P  P5  1  0.041876  0.739038  0.470068  1
  P  P6  1  0.739038  0.470068  0.041876  1
  W  W7  1  0.856163  0.856163  0.856163  1
  W  W8  1  0.642968  0.642968  0.642968  1
  W  W9  1  0.355468  0.355468  0.355468  1
  O  O10  1  0.692317  0.515721  0.881247  1
  O  O11  1  0.515721  0.881247  0.692317  1
  O  O12  1  0.065500  0.710208  0.948792  1
  O  O13  1  0.881247  0.692317  0.515721  1
  O  O14  1  0.400004  0.596784  0.784918  1
  O  O15  1  0.236103  0.371735  0.972966  1
  O  O16  1  0.948792  0.065500  0.710208  1
  O  O17  1  0.784918  0.400004  0.596784  1
  O  O18  1  0.596784  0.784918  0.400004  1
  O  O19  1  0.634755  0.015828  0.774873  1
  O  O20  1  0.292164  0.058461  0.905884  1
  O  O21  1  0.015828  0.774873  0.634755  1
  O  O22  1  0.972966  0.236103  0.371735  1
  O  O23  1  0.710208  0.948792  0.065500  1
  O  O24  1  0.371735  0.972966  0.236103  1
  O  O25  1  0.444161  0.218378  0.567834  1
  O  O26  1  0.218378  0.567834  0.444161  1
  O  O27  1  0.058461  0.905884  0.292164  1
  O  O28  1  0.774873  0.634755  0.015828  1
  O  O29  1  0.567834  0.444161  0.218378  1
  O  O30  1  0.135070  0.272894  0.507625  1
  O  O31  1  0.905884  0.292164  0.058461  1
  O  O32  1  0.507625  0.135070  0.272894  1
  O  O33  1  0.272894  0.507625  0.135070  1
