# generated using pymatgen
data_Li2V3FeO8
_symmetry_space_group_name_H-M   'P 1'
_cell_length_a   8.41990202
_cell_length_b   8.41990202
_cell_length_c   8.52910079
_cell_angle_alpha   90.00000000
_cell_angle_beta   90.00000000
_cell_angle_gamma   90.00000000
_symmetry_Int_Tables_number   1
_chemical_formula_structural   Li2V3FeO8
_chemical_formula_sum   'Li8 V12 Fe4 O32'
_cell_volume   604.66846863
_cell_formula_units_Z   4
loop_
 _symmetry_equiv_pos_site_id
 _symmetry_equiv_pos_as_xyz
  1  'x, y, z'
loop_
 _atom_site_type_symbol
 _atom_site_label
 _atom_site_symmetry_multiplicity
 _atom_site_fract_x
 _atom_site_fract_y
 _atom_site_fract_z
 _atom_site_occupancy
  Li  Li0  1  0.251539  0.505403  0.627081  1
  Li  Li1  1  0.494597  0.748461  0.872919  1
  Li  Li2  1  0.005403  0.248461  0.877081  1
  Li  Li3  1  0.248461  0.005403  0.122919  1
  Li  Li4  1  0.748461  0.494597  0.127081  1
  Li  Li5  1  0.505403  0.251539  0.372919  1
  Li  Li6  1  0.994597  0.751539  0.377081  1
  Li  Li7  1  0.751539  0.994597  0.622919  1
  V  V8  1  0.377618  0.127661  0.749122  1
  V  V9  1  0.630023  0.369977  0.750000  1
  V  V10  1  0.872339  0.622382  0.750878  1
  V  V11  1  0.627661  0.122382  0.999122  1
  V  V12  1  0.869977  0.869977  0.000000  1
  V  V13  1  0.122382  0.627661  0.000878  1
  V  V14  1  0.622382  0.872339  0.249122  1
  V  V15  1  0.369977  0.630023  0.250000  1
  V  V16  1  0.127661  0.377618  0.250878  1
  V  V17  1  0.372339  0.877618  0.499122  1
  V  V18  1  0.130023  0.130023  0.500000  1
  V  V19  1  0.877618  0.372339  0.500878  1
  Fe  Fe20  1  0.124047  0.875953  0.750000  1
  Fe  Fe21  1  0.375953  0.375953  0.000000  1
  Fe  Fe22  1  0.875953  0.124047  0.250000  1
  Fe  Fe23  1  0.624047  0.624047  0.500000  1
  O  O24  1  0.368794  0.895634  0.735904  1
  O  O25  1  0.139724  0.112758  0.737669  1
  O  O26  1  0.874548  0.383488  0.733233  1
  O  O27  1  0.380790  0.351753  0.760964  1
  O  O28  1  0.648247  0.619210  0.739036  1
  O  O29  1  0.616512  0.125452  0.766767  1
  O  O30  1  0.887242  0.860276  0.762331  1
  O  O31  1  0.104366  0.631206  0.764096  1
  O  O32  1  0.395634  0.131206  0.985904  1
  O  O33  1  0.612758  0.360276  0.987669  1
  O  O34  1  0.883488  0.625452  0.983233  1
  O  O35  1  0.851753  0.119210  0.010964  1
  O  O36  1  0.119210  0.851753  0.989036  1
  O  O37  1  0.625452  0.883488  0.016767  1
  O  O38  1  0.360276  0.612758  0.012331  1
  O  O39  1  0.131206  0.395634  0.014096  1
  O  O40  1  0.631206  0.104366  0.235904  1
  O  O41  1  0.860276  0.887242  0.237669  1
  O  O42  1  0.125452  0.616512  0.233233  1
  O  O43  1  0.619210  0.648247  0.260964  1
  O  O44  1  0.351753  0.380790  0.239036  1
  O  O45  1  0.383488  0.874548  0.266767  1
  O  O46  1  0.112758  0.139724  0.262331  1
  O  O47  1  0.895634  0.368794  0.264096  1
  O  O48  1  0.604366  0.868794  0.485904  1
  O  O49  1  0.387242  0.639724  0.487669  1
  O  O50  1  0.116512  0.374548  0.483233  1
  O  O51  1  0.148247  0.880790  0.510964  1
  O  O52  1  0.880790  0.148247  0.489036  1
  O  O53  1  0.374548  0.116512  0.516767  1
  O  O54  1  0.639724  0.387242  0.512331  1
  O  O55  1  0.868794  0.604366  0.514096  1
