# generated using pymatgen
data_V3CrNi2(PO4)6
_symmetry_space_group_name_H-M   'P 1'
_cell_length_a   8.46686329
_cell_length_b   8.46686329
_cell_length_c   8.46686329
_cell_angle_alpha   61.02552781
_cell_angle_beta   61.02552781
_cell_angle_gamma   61.02552781
_symmetry_Int_Tables_number   1
_chemical_formula_structural   V3CrNi2(PO4)6
_chemical_formula_sum   'V3 Cr1 Ni2 P6 O24'
_cell_volume   439.10560896
_cell_formula_units_Z   1
loop_
 _symmetry_equiv_pos_site_id
 _symmetry_equiv_pos_as_xyz
  1  'x, y, z'
loop_
 _atom_site_type_symbol
 _atom_site_label
 _atom_site_symmetry_multiplicity
 _atom_site_fract_x
 _atom_site_fract_y
 _atom_site_fract_z
 _atom_site_occupancy
  V  V0  1  0.642589  0.642589  0.642589  1
  V  V1  1  0.857764  0.857764  0.857764  1
  V  V2  1  0.358249  0.358249  0.358249  1
  Cr  Cr3  1  0.141096  0.141096  0.141096  1
  Ni  Ni4  1  0.000087  0.000087  0.000087  1
  Ni  Ni5  1  0.500610  0.500610  0.500610  1
  P  P6  1  0.956316  0.249264  0.542340  1
  P  P7  1  0.542340  0.956316  0.249264  1
  P  P8  1  0.249264  0.542340  0.956316  1
  P  P9  1  0.750734  0.457381  0.043817  1
  P  P10  1  0.457381  0.043817  0.750734  1
  P  P11  1  0.043817  0.750734  0.457381  1
  O  O12  1  0.506346  0.110918  0.315833  1
  O  O13  1  0.315833  0.506346  0.110918  1
  O  O14  1  0.110918  0.315833  0.506346  1
  O  O15  1  0.939480  0.086055  0.742454  1
  O  O16  1  0.990055  0.185145  0.386909  1
  O  O17  1  0.755452  0.411811  0.563812  1
  O  O18  1  0.742454  0.939480  0.086055  1
  O  O19  1  0.563812  0.755452  0.411811  1
  O  O20  1  0.818342  0.617956  0.999442  1
  O  O21  1  0.411811  0.563812  0.755452  1
  O  O22  1  0.909773  0.259855  0.052705  1
  O  O23  1  0.617956  0.999442  0.818342  1
  O  O24  1  0.386909  0.990055  0.185145  1
  O  O25  1  0.086055  0.742454  0.939480  1
  O  O26  1  0.593796  0.445500  0.241468  1
  O  O27  1  0.185145  0.386909  0.990055  1
  O  O28  1  0.445500  0.241468  0.593796  1
  O  O29  1  0.259855  0.052705  0.909773  1
  O  O30  1  0.241468  0.593796  0.445500  1
  O  O31  1  0.999442  0.818342  0.617956  1
  O  O32  1  0.052705  0.909773  0.259855  1
  O  O33  1  0.884206  0.680503  0.501940  1
  O  O34  1  0.680503  0.501940  0.884206  1
  O  O35  1  0.501940  0.884206  0.680503  1
