# generated using pymatgen
data_Li3VF6
_symmetry_space_group_name_H-M   'P 1'
_cell_length_a   5.16825010
_cell_length_b   8.66926960
_cell_length_c   5.32398866
_cell_angle_alpha   90.00000000
_cell_angle_beta   110.86978498
_cell_angle_gamma   90.00000000
_symmetry_Int_Tables_number   1
_chemical_formula_structural   Li3VF6
_chemical_formula_sum   'Li6 V2 F12'
_cell_volume   222.89097416
_cell_formula_units_Z   2
loop_
 _symmetry_equiv_pos_site_id
 _symmetry_equiv_pos_as_xyz
  1  'x, y, z'
loop_
 _atom_site_type_symbol
 _atom_site_label
 _atom_site_symmetry_multiplicity
 _atom_site_fract_x
 _atom_site_fract_y
 _atom_site_fract_z
 _atom_site_occupancy
  Li  Li0  1  0.418783  0.163014  0.989045  1
  Li  Li1  1  0.902971  0.337756  0.894192  1
  Li  Li2  1  0.798390  0.660372  0.547025  1
  Li  Li3  1  0.201610  0.160372  0.452975  1
  Li  Li4  1  0.581217  0.663014  0.010955  1
  Li  Li5  1  0.097029  0.837756  0.105808  1
  V  V6  1  0.747620  0.998660  0.517870  1
  V  V7  1  0.252380  0.498660  0.482130  1
  F  F8  1  0.749437  0.829148  0.772644  1
  F  F9  1  0.652942  0.502254  0.723931  1
  F  F10  1  0.643634  0.162129  0.720883  1
  F  F11  1  0.205464  0.648906  0.737173  1
  F  F12  1  0.142426  0.025832  0.732094  1
  F  F13  1  0.176278  0.334073  0.703794  1
  F  F14  1  0.356366  0.662129  0.279117  1
  F  F15  1  0.347058  0.002254  0.276069  1
  F  F16  1  0.250563  0.329148  0.227356  1
  F  F17  1  0.823722  0.834073  0.296206  1
  F  F18  1  0.857574  0.525832  0.267906  1
  F  F19  1  0.794536  0.148906  0.262827  1
