# generated using pymatgen
data_Li4Fe3(OF3)2
_symmetry_space_group_name_H-M   'P 1'
_cell_length_a   5.29769333
_cell_length_b   5.31404676
_cell_length_c   6.08996097
_cell_angle_alpha   106.81265571
_cell_angle_beta   88.73062717
_cell_angle_gamma   100.92274151
_symmetry_Int_Tables_number   1
_chemical_formula_structural   Li4Fe3(OF3)2
_chemical_formula_sum   'Li4 Fe3 O2 F6'
_cell_volume   161.04689921
_cell_formula_units_Z   1
loop_
 _symmetry_equiv_pos_site_id
 _symmetry_equiv_pos_as_xyz
  1  'x, y, z'
loop_
 _atom_site_type_symbol
 _atom_site_label
 _atom_site_symmetry_multiplicity
 _atom_site_fract_x
 _atom_site_fract_y
 _atom_site_fract_z
 _atom_site_occupancy
  Li  Li0  1  0.266913  0.981377  0.374612  1
  Li  Li1  1  0.769902  0.001138  0.140850  1
  Li  Li2  1  0.230098  0.998862  0.859150  1
  Li  Li3  1  0.733087  0.018623  0.625388  1
  Fe  Fe4  1  0.502539  0.488477  0.258787  1
  Fe  Fe5  1  0.497461  0.511523  0.741213  1
  Fe  Fe6  1  0.000000  0.500000  0.500000  1
  O  O7  1  0.647311  0.269251  0.435050  1
  O  O8  1  0.352689  0.730749  0.564950  1
  F  F9  1  0.139836  0.207708  0.184617  1
  F  F10  1  0.871065  0.771903  0.327934  1
  F  F11  1  0.588784  0.249369  0.920773  1
  F  F12  1  0.411216  0.750631  0.079227  1
  F  F13  1  0.128935  0.228097  0.672066  1
  F  F14  1  0.860164  0.792292  0.815383  1
