# generated using pymatgen
data_Li2Fe3NiO8
_symmetry_space_group_name_H-M   'P 1'
_cell_length_a   5.93093158
_cell_length_b   5.93093158
_cell_length_c   5.93093158
_cell_angle_alpha   59.37598668
_cell_angle_beta   59.37598668
_cell_angle_gamma   59.37598668
_symmetry_Int_Tables_number   1
_chemical_formula_structural   Li2Fe3NiO8
_chemical_formula_sum   'Li2 Fe3 Ni1 O8'
_cell_volume   145.42581793
_cell_formula_units_Z   1
loop_
 _symmetry_equiv_pos_site_id
 _symmetry_equiv_pos_as_xyz
  1  'x, y, z'
loop_
 _atom_site_type_symbol
 _atom_site_label
 _atom_site_symmetry_multiplicity
 _atom_site_fract_x
 _atom_site_fract_y
 _atom_site_fract_z
 _atom_site_occupancy
  Li  Li0  1  0.879799  0.879799  0.879799  1
  Li  Li1  1  0.499936  0.499936  0.499936  1
  Fe  Fe2  1  0.502407  0.502407  0.993644  1
  Fe  Fe3  1  0.993644  0.502407  0.502407  1
  Fe  Fe4  1  0.502407  0.993644  0.502407  1
  Ni  Ni5  1  0.120390  0.120390  0.120390  1
  O  O6  1  0.745037  0.745037  0.745037  1
  O  O7  1  0.747164  0.293009  0.747164  1
  O  O8  1  0.293009  0.747164  0.747164  1
  O  O9  1  0.747164  0.747164  0.293009  1
  O  O10  1  0.250492  0.250492  0.712303  1
  O  O11  1  0.712303  0.250492  0.250492  1
  O  O12  1  0.250492  0.712303  0.250492  1
  O  O13  1  0.255755  0.255755  0.255755  1
