# generated using pymatgen
data_YBO3
_symmetry_space_group_name_H-M   'P 1'
_cell_length_a   3.96762257
_cell_length_b   3.96762257
_cell_length_c   8.67174697
_cell_angle_alpha   90.00000000
_cell_angle_beta   90.00000000
_cell_angle_gamma   117.37353593
_symmetry_Int_Tables_number   1
_chemical_formula_structural   YBO3
_chemical_formula_sum   'Y2 B2 O6'
_cell_volume   121.22547328
_cell_formula_units_Z   2
loop_
 _symmetry_equiv_pos_site_id
 _symmetry_equiv_pos_as_xyz
  1  'x, y, z'
loop_
 _atom_site_type_symbol
 _atom_site_label
 _atom_site_symmetry_multiplicity
 _atom_site_fract_x
 _atom_site_fract_y
 _atom_site_fract_z
 _atom_site_occupancy
  Y  Y0  1  0.052264  0.052264  0.500000  1
  Y  Y1  1  0.052264  0.052264  0.000000  1
  B  B2  1  0.501873  0.758641  0.750000  1
  B  B3  1  0.758641  0.501873  0.250000  1
  O  O4  1  0.335119  0.675780  0.604151  1
  O  O5  1  0.335119  0.675780  0.895849  1
  O  O6  1  0.893022  0.958245  0.750000  1
  O  O7  1  0.675780  0.335119  0.104151  1
  O  O8  1  0.675780  0.335119  0.395849  1
  O  O9  1  0.958245  0.893022  0.250000  1
