# generated using pymatgen
data_Li9Fe5O12
_symmetry_space_group_name_H-M   'P 1'
_cell_length_a   5.30307713
_cell_length_b   5.30307713
_cell_length_c   10.13804815
_cell_angle_alpha   88.69887665
_cell_angle_beta   91.30112335
_cell_angle_gamma   58.64548920
_symmetry_Int_Tables_number   1
_chemical_formula_structural   Li9Fe5O12
_chemical_formula_sum   'Li9 Fe5 O12'
_cell_volume   243.21063133
_cell_formula_units_Z   1
loop_
 _symmetry_equiv_pos_site_id
 _symmetry_equiv_pos_as_xyz
  1  'x, y, z'
loop_
 _atom_site_type_symbol
 _atom_site_label
 _atom_site_symmetry_multiplicity
 _atom_site_fract_x
 _atom_site_fract_y
 _atom_site_fract_z
 _atom_site_occupancy
  Li  Li0  1  0.206003  0.793997  0.268905  1
  Li  Li1  1  0.271716  0.728284  0.804206  1
  Li  Li2  1  0.187687  0.334350  0.756479  1
  Li  Li3  1  0.665650  0.812313  0.756479  1
  Li  Li4  1  0.000000  0.000000  0.000000  1
  Li  Li5  1  0.334350  0.187687  0.243521  1
  Li  Li6  1  0.812313  0.665650  0.243521  1
  Li  Li7  1  0.728284  0.271716  0.195794  1
  Li  Li8  1  0.793997  0.206003  0.731095  1
  Fe  Fe9  1  0.835191  0.835191  0.500000  1
  Fe  Fe10  1  0.500000  0.500000  0.500000  1
  Fe  Fe11  1  0.164809  0.164809  0.500000  1
  Fe  Fe12  1  0.334296  0.334296  0.000000  1
  Fe  Fe13  1  0.665704  0.665704  0.000000  1
  O  O14  1  0.169331  0.830669  0.607968  1
  O  O15  1  0.655892  0.992255  0.118774  1
  O  O16  1  0.007745  0.344108  0.118774  1
  O  O17  1  0.488669  0.843349  0.391453  1
  O  O18  1  0.156651  0.511331  0.391453  1
  O  O19  1  0.380513  0.619487  0.115961  1
  O  O20  1  0.619487  0.380513  0.884039  1
  O  O21  1  0.843349  0.488669  0.608547  1
  O  O22  1  0.511331  0.156651  0.608547  1
  O  O23  1  0.992255  0.655892  0.881226  1
  O  O24  1  0.344108  0.007745  0.881226  1
  O  O25  1  0.830669  0.169331  0.392032  1
