# generated using pymatgen
data_BiOF
_symmetry_space_group_name_H-M   'P 1'
_cell_length_a   7.66316929
_cell_length_b   10.98215619
_cell_length_c   7.91746525
_cell_angle_alpha   90.00000000
_cell_angle_beta   98.50742027
_cell_angle_gamma   90.00000000
_symmetry_Int_Tables_number   1
_chemical_formula_structural   BiOF
_chemical_formula_sum   'Bi12 O12 F12'
_cell_volume   658.98730773
_cell_formula_units_Z   12
loop_
 _symmetry_equiv_pos_site_id
 _symmetry_equiv_pos_as_xyz
  1  'x, y, z'
loop_
 _atom_site_type_symbol
 _atom_site_label
 _atom_site_symmetry_multiplicity
 _atom_site_fract_x
 _atom_site_fract_y
 _atom_site_fract_z
 _atom_site_occupancy
  Bi  Bi0  1  0.077523  0.508627  0.727059  1
  Bi  Bi1  1  0.075243  0.212314  0.017284  1
  Bi  Bi2  1  0.127533  0.193365  0.469286  1
  Bi  Bi3  1  0.372467  0.693365  0.530714  1
  Bi  Bi4  1  0.424757  0.712314  0.982716  1
  Bi  Bi5  1  0.422477  0.008627  0.272941  1
  Bi  Bi6  1  0.577523  0.991373  0.727059  1
  Bi  Bi7  1  0.575243  0.287686  0.017284  1
  Bi  Bi8  1  0.627533  0.306635  0.469286  1
  Bi  Bi9  1  0.872467  0.806635  0.530714  1
  Bi  Bi10  1  0.924757  0.787686  0.982716  1
  Bi  Bi11  1  0.922477  0.491373  0.272941  1
  O  O12  1  0.102071  0.605117  0.488123  1
  O  O13  1  0.066755  0.316213  0.248714  1
  O  O14  1  0.352372  0.589165  0.768922  1
  O  O15  1  0.147628  0.089165  0.231078  1
  O  O16  1  0.433245  0.816213  0.751286  1
  O  O17  1  0.397929  0.105117  0.511877  1
  O  O18  1  0.602071  0.894883  0.488123  1
  O  O19  1  0.566755  0.183787  0.248714  1
  O  O20  1  0.852372  0.910835  0.768922  1
  O  O21  1  0.647628  0.410835  0.231078  1
  O  O22  1  0.933245  0.683787  0.751286  1
  O  O23  1  0.897929  0.394883  0.511877  1
  F  F24  1  0.204759  0.863818  0.996624  1
  F  F25  1  0.208448  0.852214  0.430126  1
  F  F26  1  0.129383  0.622917  0.056556  1
  F  F27  1  0.370617  0.122917  0.943444  1
  F  F28  1  0.291552  0.352214  0.569874  1
  F  F29  1  0.295241  0.363818  0.003376  1
  F  F30  1  0.704759  0.636182  0.996624  1
  F  F31  1  0.708448  0.647786  0.430126  1
  F  F32  1  0.629383  0.877083  0.056556  1
  F  F33  1  0.870617  0.377083  0.943444  1
  F  F34  1  0.791552  0.147786  0.569874  1
  F  F35  1  0.795241  0.136182  0.003376  1
