# generated using pymatgen
data_Li4Mn3Fe(BO3)4
_symmetry_space_group_name_H-M   'P 1'
_cell_length_a   5.24338887
_cell_length_b   6.23634770
_cell_length_c   9.05196836
_cell_angle_alpha   105.80902439
_cell_angle_beta   91.28990448
_cell_angle_gamma   114.66248419
_symmetry_Int_Tables_number   1
_chemical_formula_structural   Li4Mn3Fe(BO3)4
_chemical_formula_sum   'Li4 Mn3 Fe1 B4 O12'
_cell_volume   255.66218543
_cell_formula_units_Z   1
loop_
 _symmetry_equiv_pos_site_id
 _symmetry_equiv_pos_as_xyz
  1  'x, y, z'
loop_
 _atom_site_type_symbol
 _atom_site_label
 _atom_site_symmetry_multiplicity
 _atom_site_fract_x
 _atom_site_fract_y
 _atom_site_fract_z
 _atom_site_occupancy
  Li  Li0  1  0.512446  0.327646  0.883434  1
  Li  Li1  1  0.013857  0.329175  0.381972  1
  Li  Li2  1  0.986045  0.671778  0.617477  1
  Li  Li3  1  0.485340  0.670359  0.118500  1
  Mn  Mn4  1  0.550068  0.765802  0.802717  1
  Mn  Mn5  1  0.949681  0.234325  0.696901  1
  Mn  Mn6  1  0.050901  0.769821  0.302728  1
  Fe  Fe7  1  0.457195  0.234995  0.198492  1
  B  B8  1  0.039238  0.739592  0.965555  1
  B  B9  1  0.463044  0.263641  0.533480  1
  B  B10  1  0.537536  0.736548  0.464268  1
  B  B11  1  0.959806  0.259480  0.035663  1
  O  O12  1  0.761513  0.702522  0.975126  1
  O  O13  1  0.123585  0.676030  0.821513  1
  O  O14  1  0.769275  0.174479  0.898227  1
  O  O15  1  0.375605  0.322905  0.677123  1
  O  O16  1  0.739146  0.297087  0.524648  1
  O  O17  1  0.270739  0.177958  0.396078  1
  O  O18  1  0.732153  0.825712  0.600910  1
  O  O19  1  0.260844  0.702389  0.473809  1
  O  O20  1  0.623526  0.674707  0.320871  1
  O  O21  1  0.234498  0.829453  0.101832  1
  O  O22  1  0.867039  0.318234  0.178222  1
  O  O23  1  0.236923  0.295362  0.030457  1
