# generated using pymatgen
data_Rb6Ti2O7
_symmetry_space_group_name_H-M   'P 1'
_cell_length_a   9.93015679
_cell_length_b   9.93015679
_cell_length_c   9.96172262
_cell_angle_alpha   90.00000000
_cell_angle_beta   90.00000000
_cell_angle_gamma   120.00000000
_symmetry_Int_Tables_number   1
_chemical_formula_structural   Rb6Ti2O7
_chemical_formula_sum   'Rb12 Ti4 O14'
_cell_volume   850.70167584
_cell_formula_units_Z   2
loop_
 _symmetry_equiv_pos_site_id
 _symmetry_equiv_pos_as_xyz
  1  'x, y, z'
loop_
 _atom_site_type_symbol
 _atom_site_label
 _atom_site_symmetry_multiplicity
 _atom_site_fract_x
 _atom_site_fract_y
 _atom_site_fract_z
 _atom_site_occupancy
  Rb  Rb0  1  0.333400  0.970923  0.373825  1
  Rb  Rb1  1  0.350236  0.962857  0.872731  1
  Rb  Rb2  1  0.029077  0.362478  0.373825  1
  Rb  Rb3  1  0.037143  0.387379  0.872731  1
  Rb  Rb4  1  0.362478  0.333400  0.626175  1
  Rb  Rb5  1  0.387379  0.350236  0.127269  1
  Rb  Rb6  1  0.612621  0.649764  0.872731  1
  Rb  Rb7  1  0.637522  0.666600  0.373825  1
  Rb  Rb8  1  0.962857  0.612621  0.127269  1
  Rb  Rb9  1  0.970923  0.637522  0.626175  1
  Rb  Rb10  1  0.649764  0.037143  0.127269  1
  Rb  Rb11  1  0.666600  0.029077  0.626175  1
  Ti  Ti12  1  0.333333  0.666667  0.180463  1
  Ti  Ti13  1  0.333333  0.666667  0.566386  1
  Ti  Ti14  1  0.666667  0.333333  0.819537  1
  Ti  Ti15  1  0.666667  0.333333  0.433614  1
  O  O16  1  0.175976  0.477947  0.621715  1
  O  O17  1  0.175181  0.478563  0.125044  1
  O  O18  1  0.303382  0.824819  0.125044  1
  O  O19  1  0.301971  0.824024  0.621715  1
  O  O20  1  0.333333  0.666667  0.373047  1
  O  O21  1  0.522053  0.698029  0.621715  1
  O  O22  1  0.521437  0.696618  0.125044  1
  O  O23  1  0.478563  0.303382  0.874956  1
  O  O24  1  0.477947  0.301971  0.378285  1
  O  O25  1  0.666667  0.333333  0.626953  1
  O  O26  1  0.698029  0.175976  0.378285  1
  O  O27  1  0.696618  0.175181  0.874956  1
  O  O28  1  0.824819  0.521437  0.874956  1
  O  O29  1  0.824024  0.522053  0.378285  1
