# generated using pymatgen
data_Ti3Fe5O12
_symmetry_space_group_name_H-M   'P 1'
_cell_length_a   5.53278837
_cell_length_b   7.57800903
_cell_length_c   10.28086105
_cell_angle_alpha   89.94873056
_cell_angle_beta   89.74808451
_cell_angle_gamma   83.52330720
_symmetry_Int_Tables_number   1
_chemical_formula_structural   Ti3Fe5O12
_chemical_formula_sum   'Ti6 Fe10 O24'
_cell_volume   428.29579218
_cell_formula_units_Z   2
loop_
 _symmetry_equiv_pos_site_id
 _symmetry_equiv_pos_as_xyz
  1  'x, y, z'
loop_
 _atom_site_type_symbol
 _atom_site_label
 _atom_site_symmetry_multiplicity
 _atom_site_fract_x
 _atom_site_fract_y
 _atom_site_fract_z
 _atom_site_occupancy
  Ti  Ti0  1  0.289971  0.142849  0.495161  1
  Ti  Ti1  1  0.797749  0.644961  0.255256  1
  Ti  Ti2  1  0.202251  0.355039  0.744744  1
  Ti  Ti3  1  0.286255  0.142809  0.999610  1
  Ti  Ti4  1  0.710029  0.857151  0.504839  1
  Ti  Ti5  1  0.713745  0.857191  0.000390  1
  Fe  Fe6  1  0.703363  0.356680  0.002766  1
  Fe  Fe7  1  0.790687  0.649693  0.750672  1
  Fe  Fe8  1  0.205270  0.849916  0.747513  1
  Fe  Fe9  1  0.296637  0.643320  0.997234  1
  Fe  Fe10  1  0.710739  0.354165  0.500583  1
  Fe  Fe11  1  0.788692  0.148652  0.749355  1
  Fe  Fe12  1  0.211308  0.851348  0.250645  1
  Fe  Fe13  1  0.289261  0.645835  0.499417  1
  Fe  Fe14  1  0.794730  0.150084  0.252487  1
  Fe  Fe15  1  0.209313  0.350307  0.249328  1
  O  O16  1  0.647360  0.598957  0.924057  1
  O  O17  1  0.008164  0.249997  0.912020  1
  O  O18  1  0.162837  0.588742  0.826384  1
  O  O19  1  0.160769  0.107993  0.670289  1
  O  O20  1  0.351553  0.909527  0.930853  1
  O  O21  1  0.515512  0.752860  0.649014  1
  O  O22  1  0.482748  0.257175  0.850612  1
  O  O23  1  0.651287  0.087147  0.567228  1
  O  O24  1  0.654923  0.606251  0.412892  1
  O  O25  1  0.846529  0.894394  0.838847  1
  O  O26  1  0.862579  0.410378  0.682764  1
  O  O27  1  0.015866  0.239532  0.401874  1
  O  O28  1  0.984134  0.760468  0.598126  1
  O  O29  1  0.137421  0.589622  0.317236  1
  O  O30  1  0.153471  0.105606  0.161153  1
  O  O31  1  0.345077  0.393749  0.587108  1
  O  O32  1  0.348713  0.912853  0.432772  1
  O  O33  1  0.517252  0.742825  0.149388  1
  O  O34  1  0.484488  0.247140  0.350986  1
  O  O35  1  0.648447  0.090473  0.069147  1
  O  O36  1  0.839231  0.892007  0.329711  1
  O  O37  1  0.837163  0.411258  0.173616  1
  O  O38  1  0.991836  0.750003  0.087980  1
  O  O39  1  0.352640  0.401043  0.075943  1
