# generated using pymatgen
data_Mn3Cu2Sn(PO4)6
_symmetry_space_group_name_H-M   'P 1'
_cell_length_a   8.60244201
_cell_length_b   8.60244201
_cell_length_c   8.60244201
_cell_angle_alpha   59.62346355
_cell_angle_beta   59.62346355
_cell_angle_gamma   59.62346355
_symmetry_Int_Tables_number   1
_chemical_formula_structural   Mn3Cu2Sn(PO4)6
_chemical_formula_sum   'Mn3 Cu2 Sn1 P6 O24'
_cell_volume   446.29087877
_cell_formula_units_Z   1
loop_
 _symmetry_equiv_pos_site_id
 _symmetry_equiv_pos_as_xyz
  1  'x, y, z'
loop_
 _atom_site_type_symbol
 _atom_site_label
 _atom_site_symmetry_multiplicity
 _atom_site_fract_x
 _atom_site_fract_y
 _atom_site_fract_z
 _atom_site_occupancy
  Mn  Mn0  1  0.856734  0.856734  0.856734  1
  Mn  Mn1  1  0.642762  0.642762  0.642762  1
  Mn  Mn2  1  0.357393  0.357393  0.357393  1
  Cu  Cu3  1  0.997556  0.997556  0.997556  1
  Cu  Cu4  1  0.500505  0.500505  0.500505  1
  Sn  Sn5  1  0.142716  0.142716  0.142716  1
  P  P6  1  0.547459  0.956541  0.252612  1
  P  P7  1  0.252612  0.547459  0.956541  1
  P  P8  1  0.956541  0.252612  0.547459  1
  P  P9  1  0.464194  0.037672  0.745029  1
  P  P10  1  0.037672  0.745029  0.464194  1
  P  P11  1  0.745029  0.464194  0.037672  1
  O  O12  1  0.690296  0.497994  0.875998  1
  O  O13  1  0.497994  0.875998  0.690296  1
  O  O14  1  0.083963  0.741331  0.940561  1
  O  O15  1  0.875998  0.690296  0.497994  1
  O  O16  1  0.199582  0.388921  0.980176  1
  O  O17  1  0.421510  0.562703  0.759694  1
  O  O18  1  0.940561  0.083963  0.741331  1
  O  O19  1  0.759694  0.421510  0.562703  1
  O  O20  1  0.619398  0.008066  0.804408  1
  O  O21  1  0.562703  0.759694  0.421510  1
  O  O22  1  0.265238  0.052356  0.911000  1
  O  O23  1  0.008066  0.804408  0.619398  1
  O  O24  1  0.980176  0.199582  0.388921  1
  O  O25  1  0.741331  0.940561  0.083963  1
  O  O26  1  0.447844  0.234745  0.579009  1
  O  O27  1  0.388921  0.980176  0.199582  1
  O  O28  1  0.234745  0.579009  0.447844  1
  O  O29  1  0.052356  0.911000  0.265238  1
  O  O30  1  0.579009  0.447844  0.234745  1
  O  O31  1  0.804408  0.619398  0.008066  1
  O  O32  1  0.120445  0.303479  0.510113  1
  O  O33  1  0.911000  0.265238  0.052356  1
  O  O34  1  0.510113  0.120445  0.303479  1
  O  O35  1  0.303479  0.510113  0.120445  1
