# generated using pymatgen
data_FeOF
_symmetry_space_group_name_H-M   'P 1'
_cell_length_a   6.13785224
_cell_length_b   9.53862648
_cell_length_c   9.54458717
_cell_angle_alpha   89.90294713
_cell_angle_beta   89.84746484
_cell_angle_gamma   89.99674784
_symmetry_Int_Tables_number   1
_chemical_formula_structural   FeOF
_chemical_formula_sum   'Fe16 O16 F16'
_cell_volume   558.80110747
_cell_formula_units_Z   16
loop_
 _symmetry_equiv_pos_site_id
 _symmetry_equiv_pos_as_xyz
  1  'x, y, z'
loop_
 _atom_site_type_symbol
 _atom_site_label
 _atom_site_symmetry_multiplicity
 _atom_site_fract_x
 _atom_site_fract_y
 _atom_site_fract_z
 _atom_site_occupancy
  Fe  Fe0  1  0.015526  0.239006  0.736577  1
  Fe  Fe1  1  0.484560  0.260432  0.764114  1
  Fe  Fe2  1  0.998962  0.261031  0.263661  1
  Fe  Fe3  1  0.498877  0.239098  0.236494  1
  Fe  Fe4  1  0.266287  0.516854  0.979878  1
  Fe  Fe5  1  0.733713  0.483146  0.020122  1
  Fe  Fe6  1  0.234941  0.487811  0.512319  1
  Fe  Fe7  1  0.765059  0.512189  0.487681  1
  Fe  Fe8  1  0.984474  0.760994  0.263423  1
  Fe  Fe9  1  0.515440  0.739568  0.235886  1
  Fe  Fe10  1  0.001038  0.738969  0.736339  1
  Fe  Fe11  1  0.501123  0.760902  0.763506  1
  Fe  Fe12  1  0.265019  0.010998  0.988807  1
  Fe  Fe13  1  0.734981  0.989002  0.011193  1
  Fe  Fe14  1  0.233779  0.019787  0.482978  1
  Fe  Fe15  1  0.766221  0.980213  0.517022  1
  O  O16  1  0.752023  0.339553  0.161508  1
  O  O17  1  0.254134  0.345668  0.654378  1
  O  O18  1  0.504375  0.403780  0.904602  1
  O  O19  1  0.000124  0.403582  0.404829  1
  O  O20  1  0.495625  0.596220  0.095398  1
  O  O21  1  0.999876  0.596418  0.595171  1
  O  O22  1  0.745866  0.654332  0.345622  1
  O  O23  1  0.247977  0.660447  0.838492  1
  O  O24  1  0.754231  0.846409  0.153310  1
  O  O25  1  0.748253  0.838528  0.660449  1
  O  O26  1  0.500426  0.903482  0.904726  1
  O  O27  1  0.004055  0.903343  0.404956  1
  O  O28  1  0.499574  0.096518  0.095274  1
  O  O29  1  0.995945  0.096657  0.595044  1
  O  O30  1  0.245769  0.153591  0.846690  1
  O  O31  1  0.251747  0.161472  0.339551  1
  F  F32  1  0.243973  0.352248  0.145848  1
  F  F33  1  0.745840  0.345970  0.653487  1
  F  F34  1  0.995780  0.405011  0.903783  1
  F  F35  1  0.499766  0.404981  0.404092  1
  F  F36  1  0.004220  0.594989  0.096217  1
  F  F37  1  0.500234  0.595019  0.595908  1
  F  F38  1  0.756027  0.647752  0.854152  1
  F  F39  1  0.254160  0.654030  0.346513  1
  F  F40  1  0.245950  0.845755  0.153838  1
  F  F41  1  0.256529  0.853485  0.647191  1
  F  F42  1  0.000528  0.904853  0.904054  1
  F  F43  1  0.495919  0.904693  0.404085  1
  F  F44  1  0.999472  0.095147  0.095946  1
  F  F45  1  0.504081  0.095307  0.595915  1
  F  F46  1  0.754050  0.154245  0.846162  1
  F  F47  1  0.743471  0.146515  0.352809  1
