# generated using pymatgen
data_LiFe2(BO3)2
_symmetry_space_group_name_H-M   'P 1'
_cell_length_a   5.28081752
_cell_length_b   9.03417895
_cell_length_c   11.28320577
_cell_angle_alpha   113.18386588
_cell_angle_beta   102.11147061
_cell_angle_gamma   89.61918211
_symmetry_Int_Tables_number   1
_chemical_formula_structural   LiFe2(BO3)2
_chemical_formula_sum   'Li4 Fe8 B8 O24'
_cell_volume   482.08302526
_cell_formula_units_Z   4
loop_
 _symmetry_equiv_pos_site_id
 _symmetry_equiv_pos_as_xyz
  1  'x, y, z'
loop_
 _atom_site_type_symbol
 _atom_site_label
 _atom_site_symmetry_multiplicity
 _atom_site_fract_x
 _atom_site_fract_y
 _atom_site_fract_z
 _atom_site_occupancy
  Li  Li0  1  0.172852  0.838703  0.657562  1
  Li  Li1  1  0.355497  0.701583  0.398782  1
  Li  Li2  1  0.604906  0.955398  0.917488  1
  Li  Li3  1  0.918455  0.563812  0.149503  1
  Fe  Fe4  1  0.406612  0.741166  0.134202  1
  Fe  Fe5  1  0.092109  0.762653  0.876124  1
  Fe  Fe6  1  0.841575  0.870219  0.387863  1
  Fe  Fe7  1  0.662106  0.641822  0.622233  1
  Fe  Fe8  1  0.348766  0.347319  0.369328  1
  Fe  Fe9  1  0.152257  0.160027  0.639320  1
  Fe  Fe10  1  0.902041  0.217769  0.132885  1
  Fe  Fe11  1  0.606508  0.284744  0.879429  1
  B  B12  1  0.636560  0.980118  0.626963  1
  B  B13  1  0.881346  0.884111  0.122092  1
  B  B14  1  0.160620  0.483454  0.626525  1
  B  B15  1  0.412175  0.407560  0.135673  1
  B  B16  1  0.859148  0.517355  0.371129  1
  B  B17  1  0.614287  0.618572  0.883824  1
  B  B18  1  0.342405  0.023070  0.381100  1
  B  B19  1  0.091184  0.096568  0.873176  1
  O  O20  1  0.112135  0.847316  0.076931  1
  O  O21  1  0.441639  0.867337  0.332588  1
  O  O22  1  0.216859  0.953301  0.860316  1
  O  O23  1  0.501722  0.837693  0.605839  1
  O  O24  1  0.886078  0.972291  0.597653  1
  O  O25  1  0.790558  0.780739  0.173962  1
  O  O26  1  0.289487  0.548891  0.143457  1
  O  O27  1  0.064457  0.639703  0.678869  1
  O  O28  1  0.711816  0.728858  0.839120  1
  O  O29  1  0.617181  0.527772  0.407377  1
  O  O30  1  0.979791  0.649207  0.367978  1
  O  O31  1  0.389308  0.661420  0.934166  1
  O  O32  1  0.646286  0.383276  0.096947  1
  O  O33  1  0.364301  0.471212  0.565448  1
  O  O34  1  0.294589  0.299696  0.171444  1
  O  O35  1  0.972483  0.370983  0.339785  1
  O  O36  1  0.737638  0.490261  0.886528  1
  O  O37  1  0.204461  0.205168  0.836610  1
  O  O38  1  0.136205  0.035415  0.442022  1
  O  O39  1  0.448828  0.145635  0.363669  1
  O  O40  1  0.051487  0.359644  0.642564  1
  O  O41  1  0.746934  0.004803  0.107002  1
  O  O42  1  0.526656  0.125464  0.669450  1
  O  O43  1  0.859786  0.117132  0.913561  1
