# generated using pymatgen
data_Li5Cr3FeO8
_symmetry_space_group_name_H-M   'P 1'
_cell_length_a   6.05770645
_cell_length_b   6.05770645
_cell_length_c   6.05770645
_cell_angle_alpha   59.39733756
_cell_angle_beta   59.39733756
_cell_angle_gamma   59.39733756
_symmetry_Int_Tables_number   1
_chemical_formula_structural   Li5Cr3FeO8
_chemical_formula_sum   'Li5 Cr3 Fe1 O8'
_cell_volume   155.02875133
_cell_formula_units_Z   1
loop_
 _symmetry_equiv_pos_site_id
 _symmetry_equiv_pos_as_xyz
  1  'x, y, z'
loop_
 _atom_site_type_symbol
 _atom_site_label
 _atom_site_symmetry_multiplicity
 _atom_site_fract_x
 _atom_site_fract_y
 _atom_site_fract_z
 _atom_site_occupancy
  Li  Li0  1  0.933058  0.933058  0.933058  1
  Li  Li1  1  0.500000  0.000000  1.000000  1
  Li  Li2  1  0.066942  0.066942  0.066942  1
  Li  Li3  1  1.000000  0.500000  1.000000  1
  Li  Li4  1  0.000000  0.000000  0.500000  1
  Cr  Cr5  1  0.500000  0.500000  0.000000  1
  Cr  Cr6  1  0.500000  0.000000  0.500000  1
  Cr  Cr7  1  1.000000  0.500000  0.500000  1
  Fe  Fe8  1  0.500000  0.500000  0.500000  1
  O  O9  1  0.742148  0.742148  0.742148  1
  O  O10  1  0.744033  0.744033  0.275729  1
  O  O11  1  0.744033  0.275729  0.744033  1
  O  O12  1  0.275729  0.744033  0.744033  1
  O  O13  1  0.724271  0.255967  0.255967  1
  O  O14  1  0.255967  0.724271  0.255967  1
  O  O15  1  0.255967  0.255967  0.724271  1
  O  O16  1  0.257852  0.257852  0.257852  1
