# generated using pymatgen
data_Li4Ti3Mn5O16
_symmetry_space_group_name_H-M   'P 1'
_cell_length_a   5.91596902
_cell_length_b   5.91596902
_cell_length_c   9.72643284
_cell_angle_alpha   87.82038574
_cell_angle_beta   92.17961426
_cell_angle_gamma   119.59763969
_symmetry_Int_Tables_number   1
_chemical_formula_structural   Li4Ti3Mn5O16
_chemical_formula_sum   'Li4 Ti3 Mn5 O16'
_cell_volume   295.70705408
_cell_formula_units_Z   1
loop_
 _symmetry_equiv_pos_site_id
 _symmetry_equiv_pos_as_xyz
  1  'x, y, z'
loop_
 _atom_site_type_symbol
 _atom_site_label
 _atom_site_symmetry_multiplicity
 _atom_site_fract_x
 _atom_site_fract_y
 _atom_site_fract_z
 _atom_site_occupancy
  Li  Li0  1  0.324893  0.675107  0.106805  1
  Li  Li1  1  0.010018  0.989982  0.004339  1
  Li  Li2  1  0.013157  0.986843  0.503925  1
  Li  Li3  1  0.662770  0.337230  0.606872  1
  Ti  Ti4  1  0.162551  0.338210  0.783499  1
  Ti  Ti5  1  0.661790  0.837449  0.783499  1
  Ti  Ti6  1  0.829696  0.170304  0.289024  1
  Mn  Mn7  1  0.333243  0.666757  0.510734  1
  Mn  Mn8  1  0.169496  0.830504  0.790353  1
  Mn  Mn9  1  0.660203  0.339798  0.013049  1
  Mn  Mn10  1  0.336398  0.174251  0.283936  1
  Mn  Mn11  1  0.825749  0.663602  0.283936  1
  O  O12  1  0.160028  0.311834  0.393435  1
  O  O13  1  0.480955  0.519045  0.667169  1
  O  O14  1  0.335438  0.664562  0.893360  1
  O  O15  1  0.003574  0.996426  0.690132  1
  O  O16  1  0.997761  0.002239  0.189469  1
  O  O17  1  0.688166  0.839972  0.393435  1
  O  O18  1  0.031379  0.505822  0.663416  1
  O  O19  1  0.494178  0.968621  0.663416  1
  O  O20  1  0.846474  0.153526  0.893126  1
  O  O21  1  0.167033  0.832967  0.391635  1
  O  O22  1  0.515512  0.049079  0.163001  1
  O  O23  1  0.950921  0.484488  0.163001  1
  O  O24  1  0.669674  0.330326  0.392967  1
  O  O25  1  0.333319  0.172335  0.902236  1
  O  O26  1  0.508320  0.491680  0.170149  1
  O  O27  1  0.827665  0.666681  0.902236  1
