# generated using pymatgen
data_LiFe2(BO3)2
_symmetry_space_group_name_H-M   'P 1'
_cell_length_a   5.24061562
_cell_length_b   9.15571663
_cell_length_c   11.32480523
_cell_angle_alpha   113.49345004
_cell_angle_beta   102.93346291
_cell_angle_gamma   89.07226942
_symmetry_Int_Tables_number   1
_chemical_formula_structural   LiFe2(BO3)2
_chemical_formula_sum   'Li4 Fe8 B8 O24'
_cell_volume   484.07234818
_cell_formula_units_Z   4
loop_
 _symmetry_equiv_pos_site_id
 _symmetry_equiv_pos_as_xyz
  1  'x, y, z'
loop_
 _atom_site_type_symbol
 _atom_site_label
 _atom_site_symmetry_multiplicity
 _atom_site_fract_x
 _atom_site_fract_y
 _atom_site_fract_z
 _atom_site_occupancy
  Li  Li0  1  0.032200  0.038565  0.406610  1
  Li  Li1  1  0.290818  0.268718  0.905642  1
  Li  Li2  1  0.482363  0.504764  0.654171  1
  Li  Li3  1  0.763170  0.750706  0.155089  1
  Fe  Fe4  1  0.016401  0.358932  0.375947  1
  Fe  Fe5  1  0.260899  0.927121  0.882446  1
  Fe  Fe6  1  0.492874  0.148592  0.631990  1
  Fe  Fe7  1  0.232058  0.563668  0.127850  1
  Fe  Fe8  1  0.775365  0.440104  0.877674  1
  Fe  Fe9  1  0.523456  0.846646  0.384691  1
  Fe  Fe10  1  0.964640  0.663286  0.630313  1
  Fe  Fe11  1  0.751365  0.068584  0.128234  1
  B  B12  1  0.021251  0.694377  0.375507  1
  B  B13  1  0.264376  0.600394  0.873693  1
  B  B14  1  0.462328  0.814227  0.634059  1
  B  B15  1  0.242182  0.887201  0.128806  1
  B  B16  1  0.529805  0.183665  0.380877  1
  B  B17  1  0.764038  0.102941  0.876411  1
  B  B18  1  0.990312  0.318130  0.625700  1
  B  B19  1  0.730479  0.403564  0.126774  1
  O  O20  1  0.027243  0.097583  0.880210  1
  O  O21  1  0.112633  0.714293  0.847194  1
  O  O22  1  0.161234  0.503920  0.927397  1
  O  O23  1  0.130396  0.185040  0.619331  1
  O  O24  1  0.085737  0.433709  0.596013  1
  O  O25  1  0.245429  0.850867  0.687782  1
  O  O26  1  0.254816  0.673232  0.329658  1
  O  O27  1  0.505375  0.577763  0.849096  1
  O  O28  1  0.614541  0.208554  0.828549  1
  O  O29  1  0.434425  0.065317  0.424234  1
  O  O30  1  0.388374  0.306188  0.385014  1
  O  O31  1  0.630895  0.014807  0.920901  1
  O  O32  1  0.359898  0.971412  0.075908  1
  O  O33  1  0.591583  0.684350  0.626136  1
  O  O34  1  0.544261  0.917813  0.579594  1
  O  O35  1  0.403144  0.779641  0.171789  1
  O  O36  1  0.459986  0.400799  0.106645  1
  O  O37  1  0.747280  0.329103  0.663053  1
  O  O38  1  0.767872  0.155220  0.344373  1
  O  O39  1  0.940430  0.596190  0.423617  1
  O  O40  1  0.875516  0.819590  0.362327  1
  O  O41  1  0.850594  0.514894  0.091914  1
  O  O42  1  0.871333  0.302366  0.170781  1
  O  O43  1  0.992295  0.898831  0.144487  1
