# generated using pymatgen
data_LiAg2F4
_symmetry_space_group_name_H-M   'P 1'
_cell_length_a   6.61998037
_cell_length_b   6.61998037
_cell_length_c   6.61998037
_cell_angle_alpha   60.00000000
_cell_angle_beta   60.00000000
_cell_angle_gamma   60.00000000
_symmetry_Int_Tables_number   1
_chemical_formula_structural   LiAg2F4
_chemical_formula_sum   'Li2 Ag4 F8'
_cell_volume   205.14224604
_cell_formula_units_Z   2
loop_
 _symmetry_equiv_pos_site_id
 _symmetry_equiv_pos_as_xyz
  1  'x, y, z'
loop_
 _atom_site_type_symbol
 _atom_site_label
 _atom_site_symmetry_multiplicity
 _atom_site_fract_x
 _atom_site_fract_y
 _atom_site_fract_z
 _atom_site_occupancy
  Li  Li0  1  0.750000  0.750000  0.750000  1
  Li  Li1  1  0.500000  0.500000  0.500000  1
  Ag  Ag2  1  0.125000  0.625000  0.125000  1
  Ag  Ag3  1  0.625000  0.125000  0.125000  1
  Ag  Ag4  1  0.125000  0.125000  0.625000  1
  Ag  Ag5  1  0.125000  0.125000  0.125000  1
  F  F6  1  0.871771  0.384686  0.871771  1
  F  F7  1  0.378229  0.378229  0.378229  1
  F  F8  1  0.871771  0.871771  0.384686  1
  F  F9  1  0.384686  0.871771  0.871771  1
  F  F10  1  0.378229  0.378229  0.865314  1
  F  F11  1  0.865314  0.378229  0.378229  1
  F  F12  1  0.871771  0.871771  0.871771  1
  F  F13  1  0.378229  0.865314  0.378229  1
