# generated using pymatgen
data_Ti2Ni(PO4)3
_symmetry_space_group_name_H-M   'P 1'
_cell_length_a   8.46932542
_cell_length_b   8.46932542
_cell_length_c   8.46932542
_cell_angle_alpha   60.90578742
_cell_angle_beta   60.90578742
_cell_angle_gamma   60.90578742
_symmetry_Int_Tables_number   1
_chemical_formula_structural   Ti2Ni(PO4)3
_chemical_formula_sum   'Ti4 Ni2 P6 O24'
_cell_volume   438.33747651
_cell_formula_units_Z   2
loop_
 _symmetry_equiv_pos_site_id
 _symmetry_equiv_pos_as_xyz
  1  'x, y, z'
loop_
 _atom_site_type_symbol
 _atom_site_label
 _atom_site_symmetry_multiplicity
 _atom_site_fract_x
 _atom_site_fract_y
 _atom_site_fract_z
 _atom_site_occupancy
  Ti  Ti0  1  0.856259  0.856259  0.856259  1
  Ti  Ti1  1  0.643741  0.643741  0.643741  1
  Ti  Ti2  1  0.356259  0.356259  0.356259  1
  Ti  Ti3  1  0.143741  0.143741  0.143741  1
  Ni  Ni4  1  0.000000  0.000000  0.000000  1
  Ni  Ni5  1  0.500000  0.500000  0.500000  1
  P  P6  1  0.545280  0.954720  0.250000  1
  P  P7  1  0.250000  0.545280  0.954720  1
  P  P8  1  0.954720  0.250000  0.545280  1
  P  P9  1  0.045280  0.750000  0.454720  1
  P  P10  1  0.750000  0.454720  0.045280  1
  P  P11  1  0.454720  0.045280  0.750000  1
  O  O12  1  0.499805  0.885683  0.681518  1
  O  O13  1  0.885683  0.681518  0.499805  1
  O  O14  1  0.742869  0.942627  0.088767  1
  O  O15  1  0.681518  0.499805  0.885683  1
  O  O16  1  0.385683  0.999805  0.181518  1
  O  O17  1  0.557373  0.757131  0.411233  1
  O  O18  1  0.088767  0.742869  0.942627  1
  O  O19  1  0.411233  0.557373  0.757131  1
  O  O20  1  0.000195  0.818482  0.614317  1
  O  O21  1  0.757131  0.411233  0.557373  1
  O  O22  1  0.057373  0.911233  0.257131  1
  O  O23  1  0.818482  0.614317  0.000195  1
  O  O24  1  0.181518  0.385683  0.999805  1
  O  O25  1  0.942627  0.088767  0.742869  1
  O  O26  1  0.242869  0.588767  0.442627  1
  O  O27  1  0.999805  0.181518  0.385683  1
  O  O28  1  0.588767  0.442627  0.242869  1
  O  O29  1  0.911233  0.257131  0.057373  1
  O  O30  1  0.442627  0.242869  0.588767  1
  O  O31  1  0.614317  0.000195  0.818482  1
  O  O32  1  0.318482  0.500195  0.114317  1
  O  O33  1  0.257131  0.057373  0.911233  1
  O  O34  1  0.114317  0.318482  0.500195  1
  O  O35  1  0.500195  0.114317  0.318482  1
