# generated using pymatgen
data_Ba2Sb2O7
_symmetry_space_group_name_H-M   'P 1'
_cell_length_a   7.77424797
_cell_length_b   7.77424797
_cell_length_c   7.77424797
_cell_angle_alpha   119.84927215
_cell_angle_beta   117.33747566
_cell_angle_gamma   92.46730573
_symmetry_Int_Tables_number   1
_chemical_formula_structural   Ba2Sb2O7
_chemical_formula_sum   'Ba4 Sb4 O14'
_cell_volume   338.77698797
_cell_formula_units_Z   2
loop_
 _symmetry_equiv_pos_site_id
 _symmetry_equiv_pos_as_xyz
  1  'x, y, z'
loop_
 _atom_site_type_symbol
 _atom_site_label
 _atom_site_symmetry_multiplicity
 _atom_site_fract_x
 _atom_site_fract_y
 _atom_site_fract_z
 _atom_site_occupancy
  Ba  Ba0  1  1.000000  1.000000  1.000000  1
  Ba  Ba1  1  0.500000  0.500000  1.000000  1
  Ba  Ba2  1  1.000000  1.000000  0.500000  1
  Ba  Ba3  1  1.000000  0.500000  0.000000  1
  Sb  Sb4  1  0.500000  1.000000  1.000000  1
  Sb  Sb5  1  0.500000  1.000000  0.500000  1
  Sb  Sb6  1  0.500000  0.500000  0.500000  1
  Sb  Sb7  1  0.000000  0.500000  0.500000  1
  O  O8  1  0.805792  0.181670  0.227429  1
  O  O9  1  0.404558  0.250000  0.154558  1
  O  O10  1  0.880562  0.588094  0.292468  1
  O  O11  1  0.795626  0.088094  0.707532  1
  O  O12  1  0.545759  0.318330  0.624122  1
  O  O13  1  0.454241  0.078363  0.772571  1
  O  O14  1  0.805792  0.578363  0.624122  1
  O  O15  1  0.194208  0.421637  0.375878  1
  O  O16  1  0.454241  0.681670  0.375878  1
  O  O17  1  0.545759  0.921637  0.227429  1
  O  O18  1  0.119438  0.411906  0.707532  1
  O  O19  1  0.204374  0.911906  0.292468  1
  O  O20  1  0.595442  0.750000  0.845442  1
  O  O21  1  0.194208  0.818330  0.772571  1
