# generated using pymatgen
data_Na5H3(CO3)4
_symmetry_space_group_name_H-M   'P 1'
_cell_length_a   3.51083577
_cell_length_b   10.13437163
_cell_length_c   15.72548630
_cell_angle_alpha   107.75884612
_cell_angle_beta   95.55280915
_cell_angle_gamma   95.14361147
_symmetry_Int_Tables_number   1
_chemical_formula_structural   Na5H3(CO3)4
_chemical_formula_sum   'Na10 H6 C8 O24'
_cell_volume   526.14470781
_cell_formula_units_Z   2
loop_
 _symmetry_equiv_pos_site_id
 _symmetry_equiv_pos_as_xyz
  1  'x, y, z'
loop_
 _atom_site_type_symbol
 _atom_site_label
 _atom_site_symmetry_multiplicity
 _atom_site_fract_x
 _atom_site_fract_y
 _atom_site_fract_z
 _atom_site_occupancy
  Na  Na0  1  0.214104  0.326677  0.951562  1
  Na  Na1  1  0.785896  0.673323  0.048438  1
  Na  Na2  1  0.187974  0.818181  0.900622  1
  Na  Na3  1  0.812026  0.181819  0.099378  1
  Na  Na4  1  0.819563  0.281678  0.720131  1
  Na  Na5  1  0.180437  0.718322  0.279869  1
  Na  Na6  1  0.572329  0.786371  0.691899  1
  Na  Na7  1  0.427671  0.213629  0.308101  1
  Na  Na8  1  0.228202  0.252155  0.522615  1
  Na  Na9  1  0.771798  0.747845  0.477385  1
  H  H10  1  0.274175  0.530152  0.749258  1
  H  H11  1  0.725825  0.469848  0.250742  1
  H  H12  1  0.500000  0.500000  0.500000  1
  H  H13  1  0.997877  0.045677  0.758677  1
  H  H14  1  0.002123  0.954323  0.241323  1
  H  H15  1  0.500000  0.000000  0.500000  1
  C  C16  1  0.583412  0.524559  0.861946  1
  C  C17  1  0.416588  0.475441  0.138054  1
  C  C18  1  0.861323  0.531184  0.623095  1
  C  C19  1  0.138677  0.468816  0.376905  1
  C  C20  1  0.761567  0.062768  0.870804  1
  C  C21  1  0.238433  0.937232  0.129196  1
  C  C22  1  0.241026  0.004729  0.618602  1
  C  C23  1  0.758974  0.995271  0.381398  1
  O  O24  1  0.713934  0.445288  0.903389  1
  O  O25  1  0.286066  0.554712  0.096611  1
  O  O26  1  0.625329  0.657094  0.890905  1
  O  O27  1  0.374671  0.342906  0.109095  1
  O  O28  1  0.379459  0.459261  0.778760  1
  O  O29  1  0.620541  0.540739  0.221240  1
  O  O30  1  0.057694  0.616559  0.696644  1
  O  O31  1  0.942306  0.383441  0.303356  1
  O  O32  1  0.819700  0.398745  0.605272  1
  O  O33  1  0.180300  0.601255  0.394728  1
  O  O34  1  0.690874  0.587994  0.565782  1
  O  O35  1  0.309126  0.412006  0.434218  1
  O  O36  1  0.694914  0.147164  0.944363  1
  O  O37  1  0.305086  0.852836  0.055637  1
  O  O38  1  0.697105  0.930230  0.846283  1
  O  O39  1  0.302895  0.069770  0.153717  1
  O  O40  1  0.925835  0.122094  0.813305  1
  O  O41  1  0.074165  0.877906  0.186695  1
  O  O42  1  0.111092  0.938394  0.670473  1
  O  O43  1  0.888908  0.061606  0.329527  1
  O  O44  1  0.261762  0.137215  0.637503  1
  O  O45  1  0.738238  0.862785  0.362497  1
  O  O46  1  0.355422  0.928524  0.542322  1
  O  O47  1  0.644578  0.071476  0.457678  1
