# generated using pymatgen
data_Mn2OF3
_symmetry_space_group_name_H-M   'P 1'
_cell_length_a   10.27272429
_cell_length_b   10.27272429
_cell_length_c   4.87083451
_cell_angle_alpha   87.78170518
_cell_angle_beta   92.21829482
_cell_angle_gamma   144.15928372
_symmetry_Int_Tables_number   1
_chemical_formula_structural   Mn2OF3
_chemical_formula_sum   'Mn8 O4 F12'
_cell_volume   300.72326277
_cell_formula_units_Z   4
loop_
 _symmetry_equiv_pos_site_id
 _symmetry_equiv_pos_as_xyz
  1  'x, y, z'
loop_
 _atom_site_type_symbol
 _atom_site_label
 _atom_site_symmetry_multiplicity
 _atom_site_fract_x
 _atom_site_fract_y
 _atom_site_fract_z
 _atom_site_occupancy
  Mn  Mn0  1  0.871098  0.620505  0.499624  1
  Mn  Mn1  1  0.379495  0.128902  0.499624  1
  Mn  Mn2  1  0.128902  0.379495  0.500376  1
  Mn  Mn3  1  0.620505  0.871098  0.500376  1
  Mn  Mn4  1  0.500000  0.500000  0.000000  1
  Mn  Mn5  1  0.241089  0.758911  0.964918  1
  Mn  Mn6  1  0.000000  0.000000  0.000000  1
  Mn  Mn7  1  0.758911  0.241089  0.035082  1
  O  O8  1  0.582241  0.417759  0.325871  1
  O  O9  1  0.833285  0.166715  0.330699  1
  O  O10  1  0.166715  0.833285  0.669301  1
  O  O11  1  0.417759  0.582241  0.674129  1
  F  F12  1  0.949022  0.550037  0.203154  1
  F  F13  1  0.449963  0.050978  0.203154  1
  F  F14  1  0.698204  0.799791  0.203434  1
  F  F15  1  0.200209  0.301796  0.203434  1
  F  F16  1  0.074604  0.925396  0.300857  1
  F  F17  1  0.320784  0.679216  0.286276  1
  F  F18  1  0.925396  0.074604  0.699143  1
  F  F19  1  0.679216  0.320784  0.713724  1
  F  F20  1  0.550037  0.949022  0.796846  1
  F  F21  1  0.301796  0.200209  0.796566  1
  F  F22  1  0.050978  0.449963  0.796846  1
  F  F23  1  0.799791  0.698204  0.796566  1
