# generated using pymatgen
data_LiMn(PO4)2
_symmetry_space_group_name_H-M   'P 1'
_cell_length_a   5.05294861
_cell_length_b   5.05294861
_cell_length_c   13.57982463
_cell_angle_alpha   82.69001569
_cell_angle_beta   97.30998431
_cell_angle_gamma   124.51461212
_symmetry_Int_Tables_number   1
_chemical_formula_structural   LiMn(PO4)2
_chemical_formula_sum   'Li2 Mn2 P4 O16'
_cell_volume   282.72647748
_cell_formula_units_Z   2
loop_
 _symmetry_equiv_pos_site_id
 _symmetry_equiv_pos_as_xyz
  1  'x, y, z'
loop_
 _atom_site_type_symbol
 _atom_site_label
 _atom_site_symmetry_multiplicity
 _atom_site_fract_x
 _atom_site_fract_y
 _atom_site_fract_z
 _atom_site_occupancy
  Li  Li0  1  0.955893  0.955893  0.250000  1
  Li  Li1  1  0.044107  0.044107  0.750000  1
  Mn  Mn2  1  0.000000  0.000000  0.000000  1
  Mn  Mn3  1  0.000000  0.000000  0.500000  1
  P  P4  1  0.676829  0.371279  0.888703  1
  P  P5  1  0.628721  0.323171  0.388703  1
  P  P6  1  0.371279  0.676829  0.611297  1
  P  P7  1  0.323171  0.628721  0.111297  1
  O  O8  1  0.868828  0.748071  0.882666  1
  O  O9  1  0.746241  0.476487  0.284782  1
  O  O10  1  0.771731  0.561834  0.470155  1
  O  O11  1  0.937622  0.294997  0.914927  1
  O  O12  1  0.705003  0.062378  0.414927  1
  O  O13  1  0.438166  0.228269  0.970155  1
  O  O14  1  0.523513  0.253759  0.784782  1
  O  O15  1  0.251929  0.131172  0.382666  1
  O  O16  1  0.748071  0.868828  0.617334  1
  O  O17  1  0.476487  0.746241  0.215218  1
  O  O18  1  0.561834  0.771731  0.029845  1
  O  O19  1  0.294997  0.937622  0.585073  1
  O  O20  1  0.062378  0.705003  0.085073  1
  O  O21  1  0.228269  0.438166  0.529845  1
  O  O22  1  0.253759  0.523513  0.715218  1
  O  O23  1  0.131172  0.251929  0.117334  1
