# generated using pymatgen
data_Mn3OF5
_symmetry_space_group_name_H-M   'P 1'
_cell_length_a   4.89029171
_cell_length_b   5.89709009
_cell_length_c   8.10158727
_cell_angle_alpha   86.74073175
_cell_angle_beta   88.38543184
_cell_angle_gamma   88.71233489
_symmetry_Int_Tables_number   1
_chemical_formula_structural   Mn3OF5
_chemical_formula_sum   'Mn6 O2 F10'
_cell_volume   233.11603973
_cell_formula_units_Z   2
loop_
 _symmetry_equiv_pos_site_id
 _symmetry_equiv_pos_as_xyz
  1  'x, y, z'
loop_
 _atom_site_type_symbol
 _atom_site_label
 _atom_site_symmetry_multiplicity
 _atom_site_fract_x
 _atom_site_fract_y
 _atom_site_fract_z
 _atom_site_occupancy
  Mn  Mn0  1  0.500000  0.500000  0.000000  1
  Mn  Mn1  1  0.517481  0.815609  0.665464  1
  Mn  Mn2  1  0.482519  0.184391  0.334536  1
  Mn  Mn3  1  0.977226  0.346971  0.678360  1
  Mn  Mn4  1  0.022774  0.653029  0.321640  1
  Mn  Mn5  1  0.000000  0.000000  0.000000  1
  O  O6  1  0.682857  0.535746  0.784197  1
  O  O7  1  0.317143  0.464254  0.215803  1
  F  F8  1  0.805230  0.369359  0.436629  1
  F  F9  1  0.802303  0.034869  0.765410  1
  F  F10  1  0.797278  0.700950  0.100306  1
  F  F11  1  0.697042  0.204606  0.096674  1
  F  F12  1  0.701322  0.874255  0.423739  1
  F  F13  1  0.298678  0.125745  0.576261  1
  F  F14  1  0.302958  0.795394  0.903326  1
  F  F15  1  0.194770  0.630641  0.563371  1
  F  F16  1  0.197697  0.965131  0.234590  1
  F  F17  1  0.202722  0.299050  0.899694  1
