# generated using pymatgen
data_NbFeO4
_symmetry_space_group_name_H-M   'P 1'
_cell_length_a   5.76810708
_cell_length_b   5.76810708
_cell_length_c   5.76810708
_cell_angle_alpha   140.16132143
_cell_angle_beta   140.16132143
_cell_angle_gamma   57.60843683
_symmetry_Int_Tables_number   1
_chemical_formula_structural   NbFeO4
_chemical_formula_sum   'Nb1 Fe1 O4'
_cell_volume   78.07911210
_cell_formula_units_Z   1
loop_
 _symmetry_equiv_pos_site_id
 _symmetry_equiv_pos_as_xyz
  1  'x, y, z'
loop_
 _atom_site_type_symbol
 _atom_site_label
 _atom_site_symmetry_multiplicity
 _atom_site_fract_x
 _atom_site_fract_y
 _atom_site_fract_z
 _atom_site_occupancy
  Nb  Nb0  1  0.000000  0.000000  0.000000  1
  Fe  Fe1  1  0.750000  0.250000  0.500000  1
  O  O2  1  0.539468  0.039468  0.500000  1
  O  O3  1  0.199729  0.199729  0.000000  1
  O  O4  1  0.960532  0.460532  0.500000  1
  O  O5  1  0.800271  0.800271  0.000000  1
