# generated using pymatgen
data_Li3CuF4
_symmetry_space_group_name_H-M   'P 1'
_cell_length_a   2.88016648
_cell_length_b   2.88016648
_cell_length_c   20.45220019
_cell_angle_alpha   90.00000000
_cell_angle_beta   90.00000000
_cell_angle_gamma   120.00000000
_symmetry_Int_Tables_number   1
_chemical_formula_structural   Li3CuF4
_chemical_formula_sum   'Li6 Cu2 F8'
_cell_volume   146.92843420
_cell_formula_units_Z   2
loop_
 _symmetry_equiv_pos_site_id
 _symmetry_equiv_pos_as_xyz
  1  'x, y, z'
loop_
 _atom_site_type_symbol
 _atom_site_label
 _atom_site_symmetry_multiplicity
 _atom_site_fract_x
 _atom_site_fract_y
 _atom_site_fract_z
 _atom_site_occupancy
  Li  Li0  1  0.000000  0.000000  0.000000  1
  Li  Li1  1  0.000000  0.000000  0.500000  1
  Li  Li2  1  0.666667  0.333333  0.384126  1
  Li  Li3  1  0.666667  0.333333  0.115874  1
  Li  Li4  1  0.333333  0.666667  0.884126  1
  Li  Li5  1  0.333333  0.666667  0.615874  1
  Cu  Cu6  1  0.666667  0.333333  0.750000  1
  Cu  Cu7  1  0.333333  0.666667  0.250000  1
  F  F8  1  0.000000  0.000000  0.671692  1
  F  F9  1  0.666667  0.333333  0.941922  1
  F  F10  1  0.666667  0.333333  0.558078  1
  F  F11  1  0.000000  0.000000  0.171692  1
  F  F12  1  0.000000  0.000000  0.828308  1
  F  F13  1  0.333333  0.666667  0.441922  1
  F  F14  1  0.000000  0.000000  0.328308  1
  F  F15  1  0.333333  0.666667  0.058078  1
