# generated using pymatgen
data_Zr(MoO4)2
_symmetry_space_group_name_H-M   'P 1'
_cell_length_a   10.35935241
_cell_length_b   10.35935241
_cell_length_c   12.07560607
_cell_angle_alpha   90.00000000
_cell_angle_beta   90.00000000
_cell_angle_gamma   120.00000000
_symmetry_Int_Tables_number   1
_chemical_formula_structural   Zr(MoO4)2
_chemical_formula_sum   'Zr6 Mo12 O48'
_cell_volume   1122.28919898
_cell_formula_units_Z   6
loop_
 _symmetry_equiv_pos_site_id
 _symmetry_equiv_pos_as_xyz
  1  'x, y, z'
loop_
 _atom_site_type_symbol
 _atom_site_label
 _atom_site_symmetry_multiplicity
 _atom_site_fract_x
 _atom_site_fract_y
 _atom_site_fract_z
 _atom_site_occupancy
  Zr  Zr0  1  0.333333  0.666667  0.985324  1
  Zr  Zr1  1  0.333333  0.666667  0.514676  1
  Zr  Zr2  1  0.666667  0.333333  0.014676  1
  Zr  Zr3  1  0.000000  0.000000  0.000000  1
  Zr  Zr4  1  0.000000  0.000000  0.500000  1
  Zr  Zr5  1  0.666667  0.333333  0.485324  1
  Mo  Mo6  1  0.337557  0.008217  0.853523  1
  Mo  Mo7  1  0.662443  0.670660  0.353523  1
  Mo  Mo8  1  0.008217  0.670660  0.146477  1
  Mo  Mo9  1  0.670660  0.662443  0.853523  1
  Mo  Mo10  1  0.329340  0.991783  0.353523  1
  Mo  Mo11  1  0.991783  0.662443  0.646477  1
  Mo  Mo12  1  0.670660  0.008217  0.646477  1
  Mo  Mo13  1  0.337557  0.329340  0.646477  1
  Mo  Mo14  1  0.991783  0.329340  0.853523  1
  Mo  Mo15  1  0.662443  0.991783  0.146477  1
  Mo  Mo16  1  0.008217  0.337557  0.353523  1
  Mo  Mo17  1  0.329340  0.337557  0.146477  1
  O  O18  1  0.654105  0.973703  0.289405  1
  O  O19  1  0.161647  0.986158  0.902816  1
  O  O20  1  0.824511  0.838353  0.902816  1
  O  O21  1  0.159200  0.655730  0.611691  1
  O  O22  1  0.654105  0.680401  0.210595  1
  O  O23  1  0.344270  0.503470  0.611691  1
  O  O24  1  0.319599  0.345895  0.289405  1
  O  O25  1  0.973703  0.319599  0.710595  1
  O  O26  1  0.840800  0.496530  0.111691  1
  O  O27  1  0.324677  0.495267  0.084895  1
  O  O28  1  0.495267  0.324677  0.584895  1
  O  O29  1  0.495267  0.170590  0.915105  1
  O  O30  1  0.026297  0.345895  0.210595  1
  O  O31  1  0.655730  0.496530  0.388309  1
  O  O32  1  0.026297  0.680401  0.289405  1
  O  O33  1  0.175489  0.161647  0.097184  1
  O  O34  1  0.170590  0.675323  0.084895  1
  O  O35  1  0.159200  0.503470  0.888309  1
  O  O36  1  0.345895  0.319599  0.789405  1
  O  O37  1  0.675323  0.170590  0.584895  1
  O  O38  1  0.170590  0.495267  0.415105  1
  O  O39  1  0.161647  0.175489  0.597184  1
  O  O40  1  0.655730  0.159200  0.111691  1
  O  O41  1  0.319599  0.973703  0.210595  1
  O  O42  1  0.824511  0.986158  0.597184  1
  O  O43  1  0.496530  0.840800  0.611691  1
  O  O44  1  0.986158  0.824511  0.097184  1
  O  O45  1  0.504733  0.829410  0.084895  1
  O  O46  1  0.838353  0.013842  0.097184  1
  O  O47  1  0.013842  0.175489  0.902816  1
  O  O48  1  0.840800  0.344270  0.388309  1
  O  O49  1  0.675323  0.504733  0.915105  1
  O  O50  1  0.504733  0.675323  0.415105  1
  O  O51  1  0.013842  0.838353  0.597184  1
  O  O52  1  0.496530  0.655730  0.888309  1
  O  O53  1  0.324677  0.829410  0.415105  1
  O  O54  1  0.503470  0.344270  0.111691  1
  O  O55  1  0.838353  0.824511  0.402816  1
  O  O56  1  0.503470  0.159200  0.388309  1
  O  O57  1  0.829410  0.504733  0.584895  1
  O  O58  1  0.829410  0.324677  0.915105  1
  O  O59  1  0.986158  0.161647  0.402816  1
  O  O60  1  0.175489  0.013842  0.402816  1
  O  O61  1  0.680401  0.026297  0.789405  1
  O  O62  1  0.344270  0.840800  0.888309  1
  O  O63  1  0.973703  0.654105  0.789405  1
  O  O64  1  0.345895  0.026297  0.710595  1
  O  O65  1  0.680401  0.654105  0.710595  1
