# generated using pymatgen
data_Zr2N2O
_symmetry_space_group_name_H-M   'P 1'
_cell_length_a   7.10033995
_cell_length_b   7.10033995
_cell_length_c   16.64631452
_cell_angle_alpha   80.02155718
_cell_angle_beta   99.97844282
_cell_angle_gamma   152.88130819
_symmetry_Int_Tables_number   1
_chemical_formula_structural   Zr2N2O
_chemical_formula_sum   'Zr12 N12 O6'
_cell_volume   376.42048781
_cell_formula_units_Z   6
loop_
 _symmetry_equiv_pos_site_id
 _symmetry_equiv_pos_as_xyz
  1  'x, y, z'
loop_
 _atom_site_type_symbol
 _atom_site_label
 _atom_site_symmetry_multiplicity
 _atom_site_fract_x
 _atom_site_fract_y
 _atom_site_fract_z
 _atom_site_occupancy
  Zr  Zr0  1  0.029073  0.970927  0.900725  1
  Zr  Zr1  1  0.030635  0.969365  0.404152  1
  Zr  Zr2  1  0.634953  0.365047  0.737908  1
  Zr  Zr3  1  0.697288  0.302712  0.568147  1
  Zr  Zr4  1  0.629746  0.370254  0.236398  1
  Zr  Zr5  1  0.307684  0.692316  0.936319  1
  Zr  Zr6  1  0.694192  0.305808  0.064454  1
  Zr  Zr7  1  0.364164  0.635836  0.760488  1
  Zr  Zr8  1  0.301832  0.698168  0.431718  1
  Zr  Zr9  1  0.370958  0.629042  0.262262  1
  Zr  Zr10  1  0.962459  0.037541  0.594732  1
  Zr  Zr11  1  0.970442  0.029558  0.095783  1
  N  N12  1  0.532882  0.467118  0.823520  1
  N  N13  1  0.171108  0.828892  0.981117  1
  N  N14  1  0.534763  0.465237  0.329624  1
  N  N15  1  0.121757  0.878243  0.645329  1
  N  N16  1  0.171454  0.828546  0.484631  1
  N  N17  1  0.127851  0.872149  0.143814  1
  N  N18  1  0.800304  0.199696  0.686288  1
  N  N19  1  0.872704  0.127296  0.862757  1
  N  N20  1  0.827985  0.172015  0.513790  1
  N  N21  1  0.873416  0.126584  0.356381  1
  N  N22  1  0.827850  0.172150  0.020971  1
  N  N23  1  0.467147  0.532853  0.172325  1
  O  O24  1  0.213642  0.786358  0.808702  1
  O  O25  1  0.208326  0.791674  0.310068  1
  O  O26  1  0.789821  0.210179  0.192062  1
  O  O27  1  0.468402  0.531598  0.670036  1
  O  O28  1  0.497148  0.502852  0.505621  1
  O  O29  1  0.500035  0.499965  0.999874  1
