# generated using pymatgen
data_V3O5F
_symmetry_space_group_name_H-M   'P 1'
_cell_length_a   6.43631875
_cell_length_b   3.06615491
_cell_length_c   10.28994646
_cell_angle_alpha   90.00000000
_cell_angle_beta   108.15144494
_cell_angle_gamma   90.00000000
_symmetry_Int_Tables_number   1
_chemical_formula_structural   V3O5F
_chemical_formula_sum   'V6 O10 F2'
_cell_volume   192.96405305
_cell_formula_units_Z   2
loop_
 _symmetry_equiv_pos_site_id
 _symmetry_equiv_pos_as_xyz
  1  'x, y, z'
loop_
 _atom_site_type_symbol
 _atom_site_label
 _atom_site_symmetry_multiplicity
 _atom_site_fract_x
 _atom_site_fract_y
 _atom_site_fract_z
 _atom_site_occupancy
  V  V0  1  0.992512  0.000000  0.983438  1
  V  V1  1  0.811636  0.500000  0.657702  1
  V  V2  1  0.500734  0.500000  0.001610  1
  V  V3  1  0.351420  0.000000  0.678202  1
  V  V4  1  0.665674  0.000000  0.330405  1
  V  V5  1  0.177465  0.500000  0.356146  1
  O  O6  1  0.937346  0.500000  0.865288  1
  O  O7  1  0.295679  0.000000  0.002230  1
  O  O8  1  0.707447  0.000000  0.000399  1
  O  O9  1  0.364192  0.000000  0.333426  1
  O  O10  1  0.402589  0.500000  0.811340  1
  O  O11  1  0.732606  0.500000  0.457479  1
  O  O12  1  0.262927  0.500000  0.536876  1
  O  O13  1  0.599216  0.500000  0.197024  1
  O  O14  1  0.632975  0.000000  0.664568  1
  O  O15  1  0.969500  0.000000  0.331370  1
  F  F16  1  0.031554  0.000000  0.664452  1
  F  F17  1  0.064529  0.500000  0.128043  1
