# generated using pymatgen
data_CoH4SeO5
_symmetry_space_group_name_H-M   'P 1'
_cell_length_a   5.94085864
_cell_length_b   11.40509276
_cell_length_c   10.00075558
_cell_angle_alpha   90.00000000
_cell_angle_beta   124.12402449
_cell_angle_gamma   90.00000000
_symmetry_Int_Tables_number   1
_chemical_formula_structural   CoH4SeO5
_chemical_formula_sum   'Co4 H16 Se4 O20'
_cell_volume   560.94397447
_cell_formula_units_Z   4
loop_
 _symmetry_equiv_pos_site_id
 _symmetry_equiv_pos_as_xyz
  1  'x, y, z'
loop_
 _atom_site_type_symbol
 _atom_site_label
 _atom_site_symmetry_multiplicity
 _atom_site_fract_x
 _atom_site_fract_y
 _atom_site_fract_z
 _atom_site_occupancy
  Co  Co0  1  0.271252  0.074682  0.094187  1
  Co  Co1  1  0.271252  0.425318  0.594187  1
  Co  Co2  1  0.728748  0.925318  0.905813  1
  Co  Co3  1  0.728748  0.574682  0.405813  1
  H  H4  1  0.250441  0.927038  0.339141  1
  H  H5  1  0.250441  0.572962  0.839141  1
  H  H6  1  0.749559  0.072962  0.660859  1
  H  H7  1  0.749559  0.427038  0.160859  1
  H  H8  1  0.375697  0.202667  0.363081  1
  H  H9  1  0.375697  0.297333  0.863081  1
  H  H10  1  0.624303  0.797333  0.636919  1
  H  H11  1  0.624303  0.702667  0.136919  1
  H  H12  1  0.603279  0.108460  0.420014  1
  H  H13  1  0.603279  0.391540  0.920014  1
  H  H14  1  0.396721  0.891540  0.579986  1
  H  H15  1  0.396721  0.608460  0.079986  1
  H  H16  1  0.027018  0.439880  0.176999  1
  H  H17  1  0.027018  0.060120  0.676999  1
  H  H18  1  0.972982  0.560120  0.823001  1
  H  H19  1  0.972982  0.939880  0.323001  1
  Se  Se20  1  0.225963  0.645796  0.352958  1
  Se  Se21  1  0.225963  0.854204  0.852958  1
  Se  Se22  1  0.774037  0.354204  0.647042  1
  Se  Se23  1  0.774037  0.145796  0.147042  1
  O  O24  1  0.150776  0.896445  0.382844  1
  O  O25  1  0.150776  0.603555  0.882844  1
  O  O26  1  0.849224  0.103555  0.617156  1
  O  O27  1  0.849224  0.396445  0.117156  1
  O  O28  1  0.869157  0.083759  0.020831  1
  O  O29  1  0.869157  0.416241  0.520831  1
  O  O30  1  0.130843  0.916241  0.979169  1
  O  O31  1  0.130843  0.583759  0.479169  1
  O  O32  1  0.562524  0.690051  0.483646  1
  O  O33  1  0.562524  0.809949  0.983646  1
  O  O34  1  0.437476  0.309949  0.516354  1
  O  O35  1  0.437476  0.190051  0.016354  1
  O  O36  1  0.416671  0.130231  0.324505  1
  O  O37  1  0.416671  0.369769  0.824505  1
  O  O38  1  0.583329  0.869769  0.675495  1
  O  O39  1  0.583329  0.630231  0.175495  1
  O  O40  1  0.699012  0.477687  0.713105  1
  O  O41  1  0.699012  0.022313  0.213105  1
  O  O42  1  0.300988  0.522313  0.286895  1
  O  O43  1  0.300988  0.977687  0.786895  1
