# generated using pymatgen
data_La2Mg3H48(NO5)12
_symmetry_space_group_name_H-M   'P 1'
_cell_length_a   13.28748389
_cell_length_b   13.28748389
_cell_length_c   13.28748389
_cell_angle_alpha   49.46804413
_cell_angle_beta   49.46804413
_cell_angle_gamma   49.46804413
_symmetry_Int_Tables_number   1
_chemical_formula_structural   La2Mg3H48(NO5)12
_chemical_formula_sum   'La2 Mg3 H48 N12 O60'
_cell_volume   1245.64643218
_cell_formula_units_Z   1
loop_
 _symmetry_equiv_pos_site_id
 _symmetry_equiv_pos_as_xyz
  1  'x, y, z'
loop_
 _atom_site_type_symbol
 _atom_site_label
 _atom_site_symmetry_multiplicity
 _atom_site_fract_x
 _atom_site_fract_y
 _atom_site_fract_z
 _atom_site_occupancy
  La  La0  1  0.249923  0.249923  0.249923  1
  La  La1  1  0.750077  0.750077  0.750077  1
  Mg  Mg2  1  0.000000  0.000000  0.000000  1
  Mg  Mg3  1  0.427940  0.427940  0.427940  1
  Mg  Mg4  1  0.572060  0.572060  0.572060  1
  H  H5  1  0.869684  0.126509  0.180895  1
  H  H6  1  0.126509  0.180895  0.869684  1
  H  H7  1  0.180895  0.869684  0.126509  1
  H  H8  1  0.130316  0.873491  0.819105  1
  H  H9  1  0.873491  0.819105  0.130316  1
  H  H10  1  0.819105  0.130316  0.873491  1
  H  H11  1  0.796452  0.020536  0.258045  1
  H  H12  1  0.020536  0.258045  0.796452  1
  H  H13  1  0.258045  0.796452  0.020536  1
  H  H14  1  0.203548  0.979464  0.741955  1
  H  H15  1  0.979464  0.741955  0.203548  1
  H  H16  1  0.741955  0.203548  0.979464  1
  H  H17  1  0.457925  0.561397  0.156075  1
  H  H18  1  0.561397  0.156075  0.457925  1
  H  H19  1  0.156075  0.457925  0.561397  1
  H  H20  1  0.542075  0.438603  0.843925  1
  H  H21  1  0.438603  0.843925  0.542075  1
  H  H22  1  0.843925  0.542075  0.438603  1
  H  H23  1  0.306031  0.548910  0.249917  1
  H  H24  1  0.548910  0.249917  0.306031  1
  H  H25  1  0.249917  0.306031  0.548910  1
  H  H26  1  0.693969  0.451090  0.750083  1
  H  H27  1  0.451090  0.750083  0.693969  1
  H  H28  1  0.750083  0.693969  0.451090  1
  H  H29  1  0.632339  0.542100  0.265591  1
  H  H30  1  0.542100  0.265591  0.632339  1
  H  H31  1  0.265591  0.632339  0.542100  1
  H  H32  1  0.367661  0.457900  0.734409  1
  H  H33  1  0.457900  0.734409  0.367661  1
  H  H34  1  0.734409  0.367661  0.457900  1
  H  H35  1  0.705811  0.396645  0.250001  1
  H  H36  1  0.396645  0.250001  0.705811  1
  H  H37  1  0.250001  0.705811  0.396645  1
  H  H38  1  0.294189  0.603355  0.749999  1
  H  H39  1  0.603355  0.749999  0.294189  1
  H  H40  1  0.749999  0.294189  0.603355  1
  H  H41  1  0.910077  0.340531  0.063654  1
  H  H42  1  0.340531  0.063654  0.910077  1
  H  H43  1  0.063654  0.910077  0.340531  1
  H  H44  1  0.089923  0.659469  0.936346  1
  H  H45  1  0.659469  0.936346  0.089923  1
  H  H46  1  0.936346  0.089923  0.659469  1
  H  H47  1  0.927187  0.246200  0.212147  1
  H  H48  1  0.246200  0.212147  0.927187  1
  H  H49  1  0.212147  0.927187  0.246200  1
  H  H50  1  0.072813  0.753800  0.787853  1
  H  H51  1  0.753800  0.787853  0.072813  1
  H  H52  1  0.787853  0.072813  0.753800  1
  N  N53  1  0.054052  0.332877  0.514808  1
  N  N54  1  0.332877  0.514808  0.054052  1
  N  N55  1  0.514808  0.054052  0.332877  1
  N  N56  1  0.945948  0.667123  0.485192  1
  N  N57  1  0.667123  0.485192  0.945948  1
  N  N58  1  0.485192  0.945948  0.667123  1
  N  N59  1  0.986669  0.453452  0.165098  1
  N  N60  1  0.453452  0.165098  0.986669  1
  N  N61  1  0.165098  0.986669  0.453452  1
  N  N62  1  0.013331  0.546548  0.834902  1
  N  N63  1  0.546548  0.834902  0.013331  1
  N  N64  1  0.834902  0.013331  0.546548  1
  O  O65  1  0.187596  0.253330  0.486849  1
  O  O66  1  0.253330  0.486849  0.187596  1
  O  O67  1  0.486849  0.187596  0.253330  1
  O  O68  1  0.812404  0.746670  0.513151  1
  O  O69  1  0.746670  0.513151  0.812404  1
  O  O70  1  0.513151  0.812404  0.746670  1
  O  O71  1  0.972093  0.363780  0.622049  1
  O  O72  1  0.363780  0.622049  0.972093  1
  O  O73  1  0.622049  0.972093  0.363780  1
  O  O74  1  0.027907  0.636220  0.377951  1
  O  O75  1  0.636220  0.377951  0.027907  1
  O  O76  1  0.377951  0.027907  0.636220  1
  O  O77  1  0.006225  0.381603  0.426230  1
  O  O78  1  0.381603  0.426230  0.006225  1
  O  O79  1  0.426230  0.006225  0.381603  1
  O  O80  1  0.993775  0.618397  0.573770  1
  O  O81  1  0.618397  0.573770  0.993775  1
  O  O82  1  0.573770  0.993775  0.618397  1
  O  O83  1  0.013679  0.319061  0.243651  1
  O  O84  1  0.319061  0.243651  0.013679  1
  O  O85  1  0.243651  0.013679  0.319061  1
  O  O86  1  0.986321  0.680939  0.756349  1
  O  O87  1  0.680939  0.756349  0.986321  1
  O  O88  1  0.756349  0.986321  0.680939  1
  O  O89  1  0.877562  0.537296  0.137349  1
  O  O90  1  0.537296  0.137349  0.877562  1
  O  O91  1  0.137349  0.877562  0.537296  1
  O  O92  1  0.122438  0.462704  0.862651  1
  O  O93  1  0.462704  0.862651  0.122438  1
  O  O94  1  0.862651  0.122438  0.462704  1
  O  O95  1  0.077877  0.497889  0.116447  1
  O  O96  1  0.497889  0.116447  0.077877  1
  O  O97  1  0.116447  0.077877  0.497889  1
  O  O98  1  0.922123  0.502111  0.883553  1
  O  O99  1  0.502111  0.883553  0.922123  1
  O  O100  1  0.883553  0.922123  0.502111  1
  O  O101  1  0.877981  0.048447  0.178652  1
  O  O102  1  0.048447  0.178652  0.877981  1
  O  O103  1  0.178652  0.877981  0.048447  1
  O  O104  1  0.122019  0.951553  0.821348  1
  O  O105  1  0.951553  0.821348  0.122019  1
  O  O106  1  0.821348  0.122019  0.951553  1
  O  O107  1  0.375326  0.555087  0.250379  1
  O  O108  1  0.555087  0.250379  0.375326  1
  O  O109  1  0.250379  0.375326  0.555087  1
  O  O110  1  0.624674  0.444913  0.749621  1
  O  O111  1  0.444913  0.749621  0.624674  1
  O  O112  1  0.749621  0.624674  0.444913  1
  O  O113  1  0.306050  0.618640  0.457336  1
  O  O114  1  0.618640  0.457336  0.306050  1
  O  O115  1  0.457336  0.306050  0.618640  1
  O  O116  1  0.693950  0.381360  0.542664  1
  O  O117  1  0.381360  0.542664  0.693950  1
  O  O118  1  0.542664  0.693950  0.381360  1
  O  O119  1  0.875253  0.273490  0.164102  1
  O  O120  1  0.273490  0.164102  0.875253  1
  O  O121  1  0.164102  0.875253  0.273490  1
  O  O122  1  0.124747  0.726510  0.835898  1
  O  O123  1  0.726510  0.835898  0.124747  1
  O  O124  1  0.835898  0.124747  0.726510  1
