# generated using pymatgen
data_LiV4O5F7
_symmetry_space_group_name_H-M   'P 1'
_cell_length_a   5.14683815
_cell_length_b   5.33954749
_cell_length_c   7.58296126
_cell_angle_alpha   86.83283527
_cell_angle_beta   89.47336063
_cell_angle_gamma   87.85469113
_symmetry_Int_Tables_number   1
_chemical_formula_structural   LiV4O5F7
_chemical_formula_sum   'Li1 V4 O5 F7'
_cell_volume   207.92388460
_cell_formula_units_Z   1
loop_
 _symmetry_equiv_pos_site_id
 _symmetry_equiv_pos_as_xyz
  1  'x, y, z'
loop_
 _atom_site_type_symbol
 _atom_site_label
 _atom_site_symmetry_multiplicity
 _atom_site_fract_x
 _atom_site_fract_y
 _atom_site_fract_z
 _atom_site_occupancy
  Li  Li0  1  0.493254  0.083159  0.801899  1
  V  V1  1  0.012080  0.973178  0.502326  1
  V  V2  1  0.475145  0.468504  0.499078  1
  V  V3  1  0.484732  0.516572  0.026189  1
  V  V4  1  0.995096  0.004669  0.004071  1
  O  O5  1  0.206769  0.714020  0.541979  1
  O  O6  1  0.298320  0.207887  0.552414  1
  O  O7  1  0.293378  0.818953  0.943264  1
  O  O8  1  0.411664  0.496797  0.246601  1
  O  O9  1  0.718142  0.206414  0.025073  1
  F  F10  1  0.103050  0.011634  0.251595  1
  F  F11  1  0.211885  0.305837  0.938146  1
  F  F12  1  0.589370  0.484851  0.746852  1
  F  F13  1  0.699110  0.783946  0.456945  1
  F  F14  1  0.803750  0.286322  0.449297  1
  F  F15  1  0.802870  0.698007  0.051676  1
  F  F16  1  0.869953  0.994625  0.742601  1
