# generated using pymatgen
data_Ba2YI7
_symmetry_space_group_name_H-M   'P 1'
_cell_length_a   8.38660183
_cell_length_b   18.83387489
_cell_length_c   15.63044694
_cell_angle_alpha   90.00000000
_cell_angle_beta   119.15231737
_cell_angle_gamma   90.00000000
_symmetry_Int_Tables_number   1
_chemical_formula_structural   Ba2YI7
_chemical_formula_sum   'Ba8 Y4 I28'
_cell_volume   2156.12719655
_cell_formula_units_Z   4
loop_
 _symmetry_equiv_pos_site_id
 _symmetry_equiv_pos_as_xyz
  1  'x, y, z'
loop_
 _atom_site_type_symbol
 _atom_site_label
 _atom_site_symmetry_multiplicity
 _atom_site_fract_x
 _atom_site_fract_y
 _atom_site_fract_z
 _atom_site_occupancy
  Ba  Ba0  1  0.991354  0.474375  0.813242  1
  Ba  Ba1  1  0.210689  0.229987  0.967718  1
  Ba  Ba2  1  0.789311  0.729987  0.532282  1
  Ba  Ba3  1  0.008646  0.974375  0.686758  1
  Ba  Ba4  1  0.991354  0.025625  0.313242  1
  Ba  Ba5  1  0.210689  0.270013  0.467718  1
  Ba  Ba6  1  0.789311  0.770013  0.032282  1
  Ba  Ba7  1  0.008646  0.525625  0.186758  1
  Y  Y8  1  0.582007  0.159318  0.351243  1
  Y  Y9  1  0.417993  0.659318  0.148757  1
  Y  Y10  1  0.582007  0.340682  0.851243  1
  Y  Y11  1  0.417993  0.840682  0.648757  1
  I  I12  1  0.805543  0.289757  0.757456  1
  I  I13  1  0.595609  0.301386  0.441143  1
  I  I14  1  0.584675  0.896409  0.525041  1
  I  I15  1  0.449418  0.514601  0.238298  1
  I  I16  1  0.207182  0.189160  0.183761  1
  I  I17  1  0.032624  0.615988  0.978902  1
  I  I18  1  0.068677  0.067080  0.880608  1
  I  I19  1  0.931323  0.567080  0.619392  1
  I  I20  1  0.967376  0.115988  0.521098  1
  I  I21  1  0.792818  0.689160  0.316239  1
  I  I22  1  0.415325  0.396409  0.974959  1
  I  I23  1  0.550582  0.014601  0.261702  1
  I  I24  1  0.194457  0.789757  0.742544  1
  I  I25  1  0.404391  0.801386  0.058857  1
  I  I26  1  0.595609  0.198614  0.941143  1
  I  I27  1  0.805543  0.210243  0.257456  1
  I  I28  1  0.449418  0.985399  0.738298  1
  I  I29  1  0.584675  0.603591  0.025041  1
  I  I30  1  0.207182  0.310840  0.683761  1
  I  I31  1  0.032624  0.884012  0.478902  1
  I  I32  1  0.068677  0.432920  0.380608  1
  I  I33  1  0.931323  0.932920  0.119392  1
  I  I34  1  0.967376  0.384012  0.021098  1
  I  I35  1  0.792818  0.810840  0.816239  1
  I  I36  1  0.550582  0.485399  0.761702  1
  I  I37  1  0.415325  0.103591  0.474959  1
  I  I38  1  0.404391  0.698614  0.558857  1
  I  I39  1  0.194457  0.710243  0.242544  1
