# generated using pymatgen
data_Li3V4(OF3)3
_symmetry_space_group_name_H-M   'P 1'
_cell_length_a   10.38874790
_cell_length_b   10.40781434
_cell_length_c   11.09478548
_cell_angle_alpha   62.37298628
_cell_angle_beta   62.30875044
_cell_angle_gamma   60.40593392
_symmetry_Int_Tables_number   1
_chemical_formula_structural   Li3V4(OF3)3
_chemical_formula_sum   'Li12 V16 O12 F36'
_cell_volume   879.87331558
_cell_formula_units_Z   4
loop_
 _symmetry_equiv_pos_site_id
 _symmetry_equiv_pos_as_xyz
  1  'x, y, z'
loop_
 _atom_site_type_symbol
 _atom_site_label
 _atom_site_symmetry_multiplicity
 _atom_site_fract_x
 _atom_site_fract_y
 _atom_site_fract_z
 _atom_site_occupancy
  Li  Li0  1  0.375808  0.379487  0.368063  1
  Li  Li1  1  0.601495  0.611337  0.187652  1
  Li  Li2  1  0.370069  0.876793  0.880763  1
  Li  Li3  1  0.608238  0.104997  0.693677  1
  Li  Li4  1  0.145141  0.641253  0.057380  1
  Li  Li5  1  0.882007  0.373297  0.366798  1
  Li  Li6  1  0.876378  0.878511  0.369508  1
  Li  Li7  1  0.144235  0.139772  0.558866  1
  Li  Li8  1  0.873214  0.374364  0.881387  1
  Li  Li9  1  0.106057  0.607258  0.692290  1
  Li  Li10  1  0.642351  0.143534  0.058812  1
  Li  Li11  1  0.638819  0.645916  0.562042  1
  V  V12  1  0.257637  0.742736  0.257019  1
  V  V13  1  0.260728  0.237795  0.757838  1
  V  V14  1  0.015950  0.488069  0.494037  1
  V  V15  1  0.764344  0.234302  0.254724  1
  V  V16  1  0.996660  0.015324  0.483186  1
  V  V17  1  0.235091  0.251254  0.261341  1
  V  V18  1  0.013319  0.987742  0.993462  1
  V  V19  1  0.759918  0.739493  0.755244  1
  V  V20  1  0.993541  0.516185  0.986936  1
  V  V21  1  0.233817  0.755835  0.760955  1
  V  V22  1  0.511927  0.990149  0.493276  1
  V  V23  1  0.492287  0.516691  0.488342  1
  V  V24  1  0.732917  0.757816  0.261171  1
  V  V25  1  0.512198  0.490002  0.993768  1
  V  V26  1  0.491755  0.017837  0.990071  1
  V  V27  1  0.734167  0.255159  0.763501  1
  O  O28  1  0.381871  0.563867  0.364258  1
  O  O29  1  0.378349  0.063010  0.868904  1
  O  O30  1  0.871828  0.061379  0.375057  1
  O  O31  1  0.189082  0.371868  0.379140  1
  O  O32  1  0.059934  0.190276  0.384847  1
  O  O33  1  0.878442  0.564109  0.865684  1
  O  O34  1  0.187603  0.873047  0.878293  1
  O  O35  1  0.076088  0.673606  0.875433  1
  O  O36  1  0.688369  0.870084  0.382764  1
  O  O37  1  0.577607  0.672489  0.376313  1
  O  O38  1  0.688201  0.372291  0.881912  1
  O  O39  1  0.576440  0.174231  0.875077  1
  F  F40  1  0.446475  0.809972  0.117787  1
  F  F41  1  0.312270  0.624305  0.121974  1
  F  F42  1  0.448350  0.308032  0.617947  1
  F  F43  1  0.941560  0.800238  0.131085  1
  F  F44  1  0.800703  0.631650  0.126443  1
  F  F45  1  0.311780  0.125101  0.620767  1
  F  F46  1  0.623141  0.437987  0.132046  1
  F  F47  1  0.869278  0.553664  0.385803  1
  F  F48  1  0.695924  0.381061  0.364700  1
  F  F49  1  0.558742  0.192392  0.373424  1
  F  F50  1  0.942829  0.305406  0.629558  1
  F  F51  1  0.931407  0.322921  0.117642  1
  F  F52  1  0.803193  0.140184  0.618809  1
  F  F53  1  0.106554  0.447288  0.133748  1
  F  F54  1  0.624489  0.939161  0.628590  1
  F  F55  1  0.811591  0.121056  0.121611  1
  F  F56  1  0.865250  0.065841  0.889443  1
  F  F57  1  0.682397  0.886446  0.860269  1
  F  F58  1  0.557291  0.692931  0.874613  1
  F  F59  1  0.946473  0.808447  0.617567  1
  F  F60  1  0.442947  0.305309  0.133740  1
  F  F61  1  0.115348  0.946340  0.624407  1
  F  F62  1  0.313480  0.136849  0.125406  1
  F  F63  1  0.812281  0.625091  0.617940  1
  F  F64  1  0.125243  0.924903  0.129262  1
  F  F65  1  0.362408  0.063532  0.391719  1
  F  F66  1  0.187958  0.876203  0.369949  1
  F  F67  1  0.056780  0.690388  0.376680  1
  F  F68  1  0.442205  0.803670  0.630887  1
  F  F69  1  0.302157  0.634125  0.622897  1
  F  F70  1  0.616768  0.947911  0.127269  1
  F  F71  1  0.128846  0.438900  0.627385  1
  F  F72  1  0.364037  0.565925  0.890149  1
  F  F73  1  0.184363  0.387152  0.859498  1
  F  F74  1  0.058123  0.192118  0.874211  1
  F  F75  1  0.620222  0.447304  0.623588  1
