# generated using pymatgen
data_Li3VO3F
_symmetry_space_group_name_H-M   'P 1'
_cell_length_a   5.86081013
_cell_length_b   5.86081013
_cell_length_c   9.44597231
_cell_angle_alpha   71.05569459
_cell_angle_beta   108.94430541
_cell_angle_gamma   92.77108467
_symmetry_Int_Tables_number   1
_chemical_formula_structural   Li3VO3F
_chemical_formula_sum   'Li12 V4 O12 F4'
_cell_volume   289.67261255
_cell_formula_units_Z   4
loop_
 _symmetry_equiv_pos_site_id
 _symmetry_equiv_pos_as_xyz
  1  'x, y, z'
loop_
 _atom_site_type_symbol
 _atom_site_label
 _atom_site_symmetry_multiplicity
 _atom_site_fract_x
 _atom_site_fract_y
 _atom_site_fract_z
 _atom_site_occupancy
  Li  Li0  1  0.552716  0.693992  0.861591  1
  Li  Li1  1  0.306008  0.447284  0.361591  1
  Li  Li2  1  0.187917  0.063771  0.624570  1
  Li  Li3  1  0.562106  0.174258  0.878054  1
  Li  Li4  1  0.174258  0.562106  0.621946  1
  Li  Li5  1  0.063771  0.187917  0.875430  1
  Li  Li6  1  0.936229  0.812083  0.124570  1
  Li  Li7  1  0.825742  0.437894  0.378054  1
  Li  Li8  1  0.437894  0.825742  0.121946  1
  Li  Li9  1  0.812083  0.936229  0.375430  1
  Li  Li10  1  0.693992  0.552716  0.638409  1
  Li  Li11  1  0.447284  0.306008  0.138409  1
  V  V12  1  0.060095  0.706400  0.878076  1
  V  V13  1  0.293600  0.939905  0.378076  1
  V  V14  1  0.706400  0.060095  0.621924  1
  V  V15  1  0.939905  0.293600  0.121924  1
  O  O16  1  0.814367  0.929676  0.860090  1
  O  O17  1  0.070324  0.185633  0.360090  1
  O  O18  1  0.300316  0.910777  0.881595  1
  O  O19  1  0.840614  0.441893  0.885983  1
  O  O20  1  0.089223  0.699684  0.381595  1
  O  O21  1  0.558107  0.159386  0.385983  1
  O  O22  1  0.441893  0.840614  0.614017  1
  O  O23  1  0.910777  0.300316  0.618405  1
  O  O24  1  0.159386  0.558107  0.114017  1
  O  O25  1  0.699684  0.089223  0.118405  1
  O  O26  1  0.929676  0.814367  0.639910  1
  O  O27  1  0.185633  0.070324  0.139910  1
  F  F28  1  0.444993  0.306232  0.632616  1
  F  F29  1  0.693768  0.555007  0.132616  1
  F  F30  1  0.306232  0.444993  0.867384  1
  F  F31  1  0.555007  0.693768  0.367384  1
