# generated using pymatgen
data_LiNi2(PO4)2
_symmetry_space_group_name_H-M   'P 1'
_cell_length_a   8.43747339
_cell_length_b   5.05317372
_cell_length_c   16.60288288
_cell_angle_alpha   90.00000000
_cell_angle_beta   99.33858938
_cell_angle_gamma   90.00000000
_symmetry_Int_Tables_number   1
_chemical_formula_structural   LiNi2(PO4)2
_chemical_formula_sum   'Li4 Ni8 P8 O32'
_cell_volume   698.49903445
_cell_formula_units_Z   4
loop_
 _symmetry_equiv_pos_site_id
 _symmetry_equiv_pos_as_xyz
  1  'x, y, z'
loop_
 _atom_site_type_symbol
 _atom_site_label
 _atom_site_symmetry_multiplicity
 _atom_site_fract_x
 _atom_site_fract_y
 _atom_site_fract_z
 _atom_site_occupancy
  Li  Li0  1  0.008423  0.329629  0.748138  1
  Li  Li1  1  0.008423  0.670371  0.248138  1
  Li  Li2  1  0.611452  0.832941  0.505631  1
  Li  Li3  1  0.611452  0.167059  0.005631  1
  Ni  Ni4  1  0.364452  0.331291  0.875418  1
  Ni  Ni5  1  0.364452  0.668709  0.375418  1
  Ni  Ni6  1  0.471066  0.190900  0.635859  1
  Ni  Ni7  1  0.471066  0.809100  0.135859  1
  Ni  Ni8  1  0.875341  0.692205  0.881598  1
  Ni  Ni9  1  0.875341  0.307795  0.381598  1
  Ni  Ni10  1  0.973296  0.823561  0.626630  1
  Ni  Ni11  1  0.973296  0.176439  0.126630  1
  P  P12  1  0.180607  0.819840  0.811801  1
  P  P13  1  0.180607  0.180160  0.311801  1
  P  P14  1  0.293367  0.693809  0.566974  1
  P  P15  1  0.293367  0.306191  0.066974  1
  P  P16  1  0.685892  0.193163  0.817711  1
  P  P17  1  0.685892  0.806837  0.317711  1
  P  P18  1  0.789467  0.317952  0.567347  1
  P  P19  1  0.789467  0.682048  0.067347  1
  O  O20  1  0.091620  0.749863  0.885886  1
  O  O21  1  0.072285  0.705835  0.734774  1
  O  O22  1  0.116652  0.775227  0.548555  1
  O  O23  1  0.193450  0.124486  0.802978  1
  O  O24  1  0.091620  0.250137  0.385886  1
  O  O25  1  0.072285  0.294165  0.234774  1
  O  O26  1  0.381019  0.271158  0.993142  1
  O  O27  1  0.297647  0.398029  0.596750  1
  O  O28  1  0.116652  0.224773  0.048555  1
  O  O29  1  0.346365  0.689946  0.831525  1
  O  O30  1  0.193450  0.875514  0.302978  1
  O  O31  1  0.390580  0.852655  0.639997  1
  O  O32  1  0.381019  0.728842  0.493142  1
  O  O33  1  0.297647  0.601971  0.096750  1
  O  O34  1  0.346365  0.310054  0.331525  1
  O  O35  1  0.597468  0.244965  0.890439  1
  O  O36  1  0.578118  0.279689  0.738190  1
  O  O37  1  0.390580  0.147345  0.139997  1
  O  O38  1  0.620011  0.183338  0.562599  1
  O  O39  1  0.732360  0.896879  0.810827  1
  O  O40  1  0.597468  0.755035  0.390439  1
  O  O41  1  0.578118  0.720311  0.238190  1
  O  O42  1  0.846028  0.763899  0.987234  1
  O  O43  1  0.774690  0.620483  0.576426  1
  O  O44  1  0.620011  0.816662  0.062599  1
  O  O45  1  0.846577  0.356059  0.830009  1
  O  O46  1  0.732360  0.103121  0.310827  1
  O  O47  1  0.907617  0.196993  0.639872  1
  O  O48  1  0.846028  0.236101  0.487234  1
  O  O49  1  0.774690  0.379517  0.076426  1
  O  O50  1  0.846577  0.643941  0.330009  1
  O  O51  1  0.907617  0.803007  0.139872  1
