# generated using pymatgen
data_V4OF11
_symmetry_space_group_name_H-M   'P 1'
_cell_length_a   5.24219567
_cell_length_b   5.45391984
_cell_length_c   9.11634718
_cell_angle_alpha   106.67793523
_cell_angle_beta   89.57596115
_cell_angle_gamma   118.35888642
_symmetry_Int_Tables_number   1
_chemical_formula_structural   V4OF11
_chemical_formula_sum   'V4 O1 F11'
_cell_volume   217.12832303
_cell_formula_units_Z   1
loop_
 _symmetry_equiv_pos_site_id
 _symmetry_equiv_pos_as_xyz
  1  'x, y, z'
loop_
 _atom_site_type_symbol
 _atom_site_label
 _atom_site_symmetry_multiplicity
 _atom_site_fract_x
 _atom_site_fract_y
 _atom_site_fract_z
 _atom_site_occupancy
  V  V0  1  0.245756  0.755065  0.752561  1
  V  V1  1  0.498687  0.501183  0.500642  1
  V  V2  1  0.751566  0.248847  0.247625  1
  V  V3  1  0.006028  0.994787  0.985489  1
  O  O4  1  0.078796  0.918150  0.841657  1
  F  F5  1  0.072908  0.321786  0.425435  1
  F  F6  1  0.019114  0.370468  0.875021  1
  F  F7  1  0.475367  0.127037  0.624689  1
  F  F8  1  0.578354  0.825472  0.926978  1
  F  F9  1  0.574555  0.424007  0.324206  1
  F  F10  1  0.422583  0.577597  0.677694  1
  F  F11  1  0.421733  0.178632  0.073723  1
  F  F12  1  0.524412  0.874609  0.374802  1
  F  F13  1  0.979131  0.630811  0.128362  1
  F  F14  1  0.925049  0.074260  0.166326  1
  F  F15  1  0.925964  0.677288  0.574790  1
