# generated using pymatgen
data_LiNbTe2WO12
_symmetry_space_group_name_H-M   'P 1'
_cell_length_a   5.19726981
_cell_length_b   5.38150942
_cell_length_c   7.49491581
_cell_angle_alpha   92.97707146
_cell_angle_beta   90.24409116
_cell_angle_gamma   90.02242653
_symmetry_Int_Tables_number   1
_chemical_formula_structural   LiNbTe2WO12
_chemical_formula_sum   'Li1 Nb1 Te2 W1 O12'
_cell_volume   209.34162124
_cell_formula_units_Z   1
loop_
 _symmetry_equiv_pos_site_id
 _symmetry_equiv_pos_as_xyz
  1  'x, y, z'
loop_
 _atom_site_type_symbol
 _atom_site_label
 _atom_site_symmetry_multiplicity
 _atom_site_fract_x
 _atom_site_fract_y
 _atom_site_fract_z
 _atom_site_occupancy
  Li  Li0  1  0.000960  0.476968  0.758565  1
  Nb  Nb1  1  0.496185  0.505265  0.486102  1
  Te  Te2  1  0.502193  0.510050  0.994707  1
  Te  Te3  1  0.996146  0.004760  0.496842  1
  W  W4  1  0.004761  0.010667  0.001565  1
  O  O5  1  0.297735  0.195201  0.446399  1
  O  O6  1  0.097795  0.006781  0.751059  1
  O  O7  1  0.300928  0.809113  0.051154  1
  O  O8  1  0.187194  0.703053  0.450677  1
  O  O9  1  0.806795  0.700766  0.935235  1
  O  O10  1  0.380015  0.506914  0.755358  1
  O  O11  1  0.607346  0.507195  0.238217  1
  O  O12  1  0.201204  0.309789  0.047872  1
  O  O13  1  0.816398  0.310487  0.555731  1
  O  O14  1  0.707601  0.212459  0.942089  1
  O  O15  1  0.893161  0.008278  0.244531  1
  O  O16  1  0.703582  0.807857  0.551094  1
