# generated using pymatgen
data_Mn2V3Cu(PO4)6
_symmetry_space_group_name_H-M   'P 1'
_cell_length_a   8.60926368
_cell_length_b   8.60926368
_cell_length_c   8.60926368
_cell_angle_alpha   60.27008257
_cell_angle_beta   60.27008257
_cell_angle_gamma   60.27008257
_symmetry_Int_Tables_number   1
_chemical_formula_structural   Mn2V3Cu(PO4)6
_chemical_formula_sum   'Mn2 V3 Cu1 P6 O24'
_cell_volume   453.97272690
_cell_formula_units_Z   1
loop_
 _symmetry_equiv_pos_site_id
 _symmetry_equiv_pos_as_xyz
  1  'x, y, z'
loop_
 _atom_site_type_symbol
 _atom_site_label
 _atom_site_symmetry_multiplicity
 _atom_site_fract_x
 _atom_site_fract_y
 _atom_site_fract_z
 _atom_site_occupancy
  Mn  Mn0  1  0.004167  0.004167  0.004167  1
  Mn  Mn1  1  0.500657  0.500657  0.500657  1
  V  V2  1  0.644944  0.644944  0.644944  1
  V  V3  1  0.856940  0.856940  0.856940  1
  V  V4  1  0.354623  0.354623  0.354623  1
  Cu  Cu5  1  0.145664  0.145664  0.145664  1
  P  P6  1  0.956982  0.248349  0.541547  1
  P  P7  1  0.541547  0.956982  0.248349  1
  P  P8  1  0.248349  0.541547  0.956982  1
  P  P9  1  0.748604  0.459208  0.041508  1
  P  P10  1  0.459208  0.041508  0.748604  1
  P  P11  1  0.041508  0.748604  0.459208  1
  O  O12  1  0.505064  0.121348  0.304640  1
  O  O13  1  0.304640  0.505064  0.121348  1
  O  O14  1  0.121348  0.304640  0.505064  1
  O  O15  1  0.940767  0.085047  0.738473  1
  O  O16  1  0.980198  0.196970  0.387301  1
  O  O17  1  0.763138  0.415663  0.568475  1
  O  O18  1  0.738473  0.940767  0.085047  1
  O  O19  1  0.568475  0.763138  0.415663  1
  O  O20  1  0.805642  0.622143  0.004145  1
  O  O21  1  0.415663  0.568475  0.763138  1
  O  O22  1  0.907713  0.268639  0.051095  1
  O  O23  1  0.622143  0.004145  0.805642  1
  O  O24  1  0.387301  0.980198  0.196970  1
  O  O25  1  0.085047  0.738473  0.940767  1
  O  O26  1  0.580474  0.446928  0.233757  1
  O  O27  1  0.196970  0.387301  0.980198  1
  O  O28  1  0.446928  0.233757  0.580474  1
  O  O29  1  0.268639  0.051095  0.907713  1
  O  O30  1  0.233757  0.580474  0.446928  1
  O  O31  1  0.004145  0.805642  0.622143  1
  O  O32  1  0.051095  0.907713  0.268639  1
  O  O33  1  0.882217  0.681200  0.505772  1
  O  O34  1  0.681200  0.505772  0.882217  1
  O  O35  1  0.505772  0.882217  0.681200  1
