# generated using pymatgen
data_GaBiO3
_symmetry_space_group_name_H-M   'P 1'
_cell_length_a   5.64157231
_cell_length_b   5.64157231
_cell_length_c   5.64157231
_cell_angle_alpha   59.33723615
_cell_angle_beta   59.33723615
_cell_angle_gamma   59.33723615
_symmetry_Int_Tables_number   1
_chemical_formula_structural   GaBiO3
_chemical_formula_sum   'Ga2 Bi2 O6'
_cell_volume   125.04979500
_cell_formula_units_Z   2
loop_
 _symmetry_equiv_pos_site_id
 _symmetry_equiv_pos_as_xyz
  1  'x, y, z'
loop_
 _atom_site_type_symbol
 _atom_site_label
 _atom_site_symmetry_multiplicity
 _atom_site_fract_x
 _atom_site_fract_y
 _atom_site_fract_z
 _atom_site_occupancy
  Ga  Ga0  1  0.510944  0.510944  0.510944  1
  Ga  Ga1  1  0.010944  0.010944  0.010944  1
  Bi  Bi2  1  0.786431  0.786431  0.786431  1
  Bi  Bi3  1  0.286431  0.286431  0.286431  1
  O  O4  1  0.182386  0.726109  0.321233  1
  O  O5  1  0.321233  0.182386  0.726109  1
  O  O6  1  0.726109  0.321233  0.182386  1
  O  O7  1  0.226109  0.682386  0.821233  1
  O  O8  1  0.682386  0.821233  0.226109  1
  O  O9  1  0.821233  0.226109  0.682386  1
