# generated using pymatgen
data_Ho3Sb5O12
_symmetry_space_group_name_H-M   'P 1'
_cell_length_a   9.42759202
_cell_length_b   9.42759202
_cell_length_c   9.42759202
_cell_angle_alpha   109.47122063
_cell_angle_beta   109.47122063
_cell_angle_gamma   109.47122063
_symmetry_Int_Tables_number   1
_chemical_formula_structural   Ho3Sb5O12
_chemical_formula_sum   'Ho6 Sb10 O24'
_cell_volume   645.03079545
_cell_formula_units_Z   2
loop_
 _symmetry_equiv_pos_site_id
 _symmetry_equiv_pos_as_xyz
  1  'x, y, z'
loop_
 _atom_site_type_symbol
 _atom_site_label
 _atom_site_symmetry_multiplicity
 _atom_site_fract_x
 _atom_site_fract_y
 _atom_site_fract_z
 _atom_site_occupancy
  Ho  Ho0  1  0.750000  0.250000  0.500000  1
  Ho  Ho1  1  0.750000  0.500000  0.250000  1
  Ho  Ho2  1  0.500000  0.250000  0.750000  1
  Ho  Ho3  1  0.500000  0.750000  0.250000  1
  Ho  Ho4  1  0.250000  0.750000  0.500000  1
  Ho  Ho5  1  0.250000  0.500000  0.750000  1
  Sb  Sb6  1  0.515561  0.000000  0.000000  1
  Sb  Sb7  1  0.283994  0.000000  0.283994  1
  Sb  Sb8  1  0.283994  0.283994  0.000000  1
  Sb  Sb9  1  0.716006  1.000000  0.716006  1
  Sb  Sb10  1  0.716006  0.716006  0.000000  1
  Sb  Sb11  1  0.000000  0.515561  0.000000  1
  Sb  Sb12  1  0.000000  0.000000  0.515561  1
  Sb  Sb13  1  0.484439  0.484439  0.484439  1
  Sb  Sb14  1  0.000000  0.283994  0.283994  1
  Sb  Sb15  1  0.000000  0.716006  0.716006  1
  O  O16  1  0.479918  0.000000  0.201846  1
  O  O17  1  0.479918  0.201847  0.000000  1
  O  O18  1  0.702875  0.500875  0.000000  1
  O  O19  1  0.702875  0.000000  0.500875  1
  O  O20  1  0.798000  0.297125  0.297125  1
  O  O21  1  0.499125  0.499125  0.202000  1
  O  O22  1  0.499125  0.202000  0.499125  1
  O  O23  1  0.500875  0.702875  1.000000  1
  O  O24  1  0.500875  0.000000  0.702875  1
  O  O25  1  0.721929  0.520082  0.520082  1
  O  O26  1  0.798153  0.278071  0.798153  1
  O  O27  1  0.798154  0.798154  0.278071  1
  O  O28  1  0.201847  0.479918  1.000000  1
  O  O29  1  0.201847  0.000000  0.479918  1
  O  O30  1  0.520082  0.721929  0.520082  1
  O  O31  1  0.520082  0.520082  0.721929  1
  O  O32  1  0.000000  0.479918  0.201846  1
  O  O33  1  0.000000  0.201847  0.479918  1
  O  O34  1  0.297125  0.798000  0.297125  1
  O  O35  1  0.297125  0.297125  0.798000  1
  O  O36  1  0.202000  0.499125  0.499125  1
  O  O37  1  0.000000  0.702875  0.500875  1
  O  O38  1  0.000000  0.500875  0.702875  1
  O  O39  1  0.278071  0.798154  0.798154  1
