# generated using pymatgen
data_NaGa5O8
_symmetry_space_group_name_H-M   'P 1'
_cell_length_a   11.72820842
_cell_length_b   11.72820842
_cell_length_c   11.72820842
_cell_angle_alpha   29.63941183
_cell_angle_beta   29.63941183
_cell_angle_gamma   29.63941183
_symmetry_Int_Tables_number   1
_chemical_formula_structural   NaGa5O8
_chemical_formula_sum   'Na2 Ga10 O16'
_cell_volume   349.29598726
_cell_formula_units_Z   2
loop_
 _symmetry_equiv_pos_site_id
 _symmetry_equiv_pos_as_xyz
  1  'x, y, z'
loop_
 _atom_site_type_symbol
 _atom_site_label
 _atom_site_symmetry_multiplicity
 _atom_site_fract_x
 _atom_site_fract_y
 _atom_site_fract_z
 _atom_site_occupancy
  Na  Na0  1  0.345319  0.345319  0.345319  1
  Na  Na1  1  0.825401  0.825401  0.825401  1
  Ga  Ga2  1  0.092862  0.092862  0.587491  1
  Ga  Ga3  1  0.004428  0.004428  0.004428  1
  Ga  Ga4  1  0.092862  0.587491  0.092862  1
  Ga  Ga5  1  0.587491  0.092862  0.092862  1
  Ga  Ga6  1  0.652738  0.652738  0.652738  1
  Ga  Ga7  1  0.431227  0.431227  0.431227  1
  Ga  Ga8  1  0.556769  0.556769  0.556769  1
  Ga  Ga9  1  0.397635  0.915549  0.915549  1
  Ga  Ga10  1  0.915549  0.397635  0.915549  1
  Ga  Ga11  1  0.915549  0.915549  0.397635  1
  O  O12  1  0.283951  0.283951  0.283951  1
  O  O13  1  0.107045  0.107045  0.107045  1
  O  O14  1  0.281204  0.805771  0.805771  1
  O  O15  1  0.190908  0.190908  0.741426  1
  O  O16  1  0.387894  0.387894  0.901388  1
  O  O17  1  0.092611  0.613751  0.613751  1
  O  O18  1  0.613751  0.092611  0.613751  1
  O  O19  1  0.805771  0.281204  0.805771  1
  O  O20  1  0.190908  0.741426  0.190908  1
  O  O21  1  0.387894  0.901388  0.387894  1
  O  O22  1  0.901388  0.387894  0.387894  1
  O  O23  1  0.613751  0.613751  0.092611  1
  O  O24  1  0.741426  0.190908  0.190908  1
  O  O25  1  0.805771  0.805771  0.281204  1
  O  O26  1  0.898690  0.898690  0.898690  1
  O  O27  1  0.708165  0.708165  0.708165  1
