# generated using pymatgen
data_Al2CrO5
_symmetry_space_group_name_H-M   'P 1'
_cell_length_a   5.05733615
_cell_length_b   5.05733615
_cell_length_c   9.59654260
_cell_angle_alpha   90.00000000
_cell_angle_beta   90.00000000
_cell_angle_gamma   138.27948295
_symmetry_Int_Tables_number   1
_chemical_formula_structural   Al2CrO5
_chemical_formula_sum   'Al4 Cr2 O10'
_cell_volume   163.34467475
_cell_formula_units_Z   2
loop_
 _symmetry_equiv_pos_site_id
 _symmetry_equiv_pos_as_xyz
  1  'x, y, z'
loop_
 _atom_site_type_symbol
 _atom_site_label
 _atom_site_symmetry_multiplicity
 _atom_site_fract_x
 _atom_site_fract_y
 _atom_site_fract_z
 _atom_site_occupancy
  Al  Al0  1  0.860068  0.139932  0.559262  1
  Al  Al1  1  0.860068  0.139932  0.940738  1
  Al  Al2  1  0.139932  0.860068  0.059262  1
  Al  Al3  1  0.139932  0.860068  0.440738  1
  Cr  Cr4  1  0.816322  0.183678  0.250000  1
  Cr  Cr5  1  0.183678  0.816322  0.750000  1
  O  O6  1  0.953151  0.046849  0.115221  1
  O  O7  1  0.687755  0.312245  0.428326  1
  O  O8  1  0.953151  0.046849  0.384779  1
  O  O9  1  0.687755  0.312245  0.071674  1
  O  O10  1  0.760456  0.239544  0.750000  1
  O  O11  1  0.239544  0.760456  0.250000  1
  O  O12  1  0.312245  0.687755  0.928326  1
  O  O13  1  0.312245  0.687755  0.571674  1
  O  O14  1  0.046849  0.953151  0.615221  1
  O  O15  1  0.046849  0.953151  0.884779  1
