# generated using pymatgen
data_Ti13(Fe5O14)3
_symmetry_space_group_name_H-M   'P 1'
_cell_length_a   8.91016840
_cell_length_b   9.17742381
_cell_length_c   9.96179576
_cell_angle_alpha   104.51312385
_cell_angle_beta   98.36347169
_cell_angle_gamma   99.27678763
_symmetry_Int_Tables_number   1
_chemical_formula_structural   Ti13(Fe5O14)3
_chemical_formula_sum   'Ti13 Fe15 O42'
_cell_volume   763.42554502
_cell_formula_units_Z   1
loop_
 _symmetry_equiv_pos_site_id
 _symmetry_equiv_pos_as_xyz
  1  'x, y, z'
loop_
 _atom_site_type_symbol
 _atom_site_label
 _atom_site_symmetry_multiplicity
 _atom_site_fract_x
 _atom_site_fract_y
 _atom_site_fract_z
 _atom_site_occupancy
  Ti  Ti0  1  0.016808  0.937381  0.185238  1
  Ti  Ti1  1  0.734139  0.794572  0.614769  1
  Ti  Ti2  1  0.692209  0.920699  0.241363  1
  Ti  Ti3  1  0.406999  0.773744  0.667767  1
  Ti  Ti4  1  0.879787  0.369926  0.903451  1
  Ti  Ti5  1  0.838935  0.490989  0.527594  1
  Ti  Ti6  1  0.123209  0.636622  0.099337  1
  Ti  Ti7  1  0.452414  0.651647  0.043345  1
  Ti  Ti8  1  0.551646  0.347427  0.957370  1
  Ti  Ti9  1  0.305310  0.078965  0.757705  1
  Ti  Ti10  1  0.591523  0.223115  0.330245  1
  Ti  Ti11  1  0.978082  0.061084  0.811908  1
  Ti  Ti12  1  0.262570  0.205161  0.385076  1
  Fe  Fe13  1  0.048919  0.842736  0.454595  1
  Fe  Fe14  1  0.764606  0.706282  0.883404  1
  Fe  Fe15  1  0.092034  0.725921  0.830383  1
  Fe  Fe16  1  0.378778  0.869565  0.402696  1
  Fe  Fe17  1  0.334264  0.988057  0.026740  1
  Fe  Fe18  1  0.164634  0.510535  0.473527  1
  Fe  Fe19  1  0.192247  0.420302  0.740451  1
  Fe  Fe20  1  0.809665  0.580621  0.258307  1
  Fe  Fe21  1  0.519636  0.436210  0.686820  1
  Fe  Fe22  1  0.474937  0.564556  0.316787  1
  Fe  Fe23  1  0.947290  0.149305  0.543331  1
  Fe  Fe24  1  0.234406  0.295194  0.118280  1
  Fe  Fe25  1  0.909395  0.279808  0.173521  1
  Fe  Fe26  1  0.659457  0.007874  0.970646  1
  Fe  Fe27  1  0.624974  0.135506  0.600055  1
  O  O28  1  0.140233  0.958353  0.846971  1
  O  O29  1  0.440704  0.940288  0.841165  1
  O  O30  1  0.807327  0.929405  0.832184  1
  O  O31  1  0.909905  0.930489  0.599755  1
  O  O32  1  0.272058  0.920382  0.592981  1
  O  O33  1  0.576104  0.902869  0.583498  1
  O  O34  1  0.856470  0.819398  0.272471  1
  O  O35  1  0.570771  0.676311  0.705680  1
  O  O36  1  0.867920  0.652611  0.695725  1
  O  O37  1  0.158169  0.795812  0.263679  1
  O  O38  1  0.235867  0.642834  0.690195  1
  O  O39  1  0.518447  0.783733  0.256815  1
  O  O40  1  0.346737  0.652659  0.455929  1
  O  O41  1  0.052722  0.503633  0.881066  1
  O  O42  1  0.623614  0.786107  0.022196  1
  O  O43  1  0.698604  0.632523  0.448354  1
  O  O44  1  0.986336  0.774580  0.020635  1
  O  O45  1  0.415635  0.487502  0.878317  1
  O  O46  1  0.994133  0.613318  0.437773  1
  O  O47  1  0.714342  0.465879  0.865783  1
  O  O48  1  0.287363  0.749777  0.011685  1
  O  O49  1  0.717953  0.248229  0.995551  1
  O  O50  1  0.280712  0.520327  0.130354  1
  O  O51  1  0.998461  0.386904  0.560769  1
  O  O52  1  0.302291  0.365003  0.553143  1
  O  O53  1  0.027784  0.230116  0.983708  1
  O  O54  1  0.584439  0.511860  0.124085  1
  O  O55  1  0.662253  0.351196  0.543771  1
  O  O56  1  0.947951  0.501830  0.116680  1
  O  O57  1  0.371630  0.220124  0.982257  1
  O  O58  1  0.481177  0.215530  0.746253  1
  O  O59  1  0.763149  0.358740  0.312523  1
  O  O60  1  0.130070  0.337798  0.293412  1
  O  O61  1  0.845034  0.205222  0.739968  1
  O  O62  1  0.141455  0.179363  0.721019  1
  O  O63  1  0.424611  0.322044  0.288082  1
  O  O64  1  0.425862  0.103226  0.417790  1
  O  O65  1  0.732641  0.081597  0.408818  1
  O  O66  1  0.091768  0.065575  0.399120  1
  O  O67  1  0.195112  0.074810  0.162632  1
  O  O68  1  0.557079  0.059975  0.163821  1
  O  O69  1  0.856229  0.038259  0.148679  1
