# generated using pymatgen
data_LiP5W3O19
_symmetry_space_group_name_H-M   'P 1'
_cell_length_a   8.77771355
_cell_length_b   8.77771355
_cell_length_c   6.55686458
_cell_angle_alpha   81.19642080
_cell_angle_beta   98.80357920
_cell_angle_gamma   66.24249400
_symmetry_Int_Tables_number   1
_chemical_formula_structural   LiP5W3O19
_chemical_formula_sum   'Li1 P5 W3 O19'
_cell_volume   443.87588861
_cell_formula_units_Z   1
loop_
 _symmetry_equiv_pos_site_id
 _symmetry_equiv_pos_as_xyz
  1  'x, y, z'
loop_
 _atom_site_type_symbol
 _atom_site_label
 _atom_site_symmetry_multiplicity
 _atom_site_fract_x
 _atom_site_fract_y
 _atom_site_fract_z
 _atom_site_occupancy
  Li  Li0  1  0.094640  0.905360  0.533525  1
  P  P1  1  0.677087  0.322913  0.304360  1
  P  P2  1  0.606852  0.689512  0.727991  1
  P  P3  1  0.310488  0.393148  0.727991  1
  P  P4  1  0.812250  0.814991  0.996210  1
  P  P5  1  0.185009  0.187750  0.996210  1
  W  W6  1  0.762363  0.237637  0.841478  1
  W  W7  1  0.493849  0.757776  0.179788  1
  W  W8  1  0.242224  0.506150  0.179788  1
  O  O9  1  0.782031  0.217969  0.160055  1
  O  O10  1  0.781351  0.218649  0.535903  1
  O  O11  1  0.322468  0.012924  0.116732  1
  O  O12  1  0.987076  0.677532  0.116732  1
  O  O13  1  0.675884  0.500553  0.265933  1
  O  O14  1  0.499447  0.324116  0.265933  1
  O  O15  1  0.504978  0.293780  0.776102  1
  O  O16  1  0.706220  0.495022  0.776102  1
  O  O17  1  0.684014  0.837105  0.135675  1
  O  O18  1  0.162895  0.315986  0.135675  1
  O  O19  1  0.243574  0.249765  0.789443  1
  O  O20  1  0.750235  0.756426  0.789443  1
  O  O21  1  0.522943  0.775052  0.495067  1
  O  O22  1  0.224948  0.477057  0.495067  1
  O  O23  1  0.325325  0.674675  0.195300  1
  O  O24  1  0.021867  0.174861  0.903768  1
  O  O25  1  0.825139  0.978133  0.903768  1
  O  O26  1  0.469261  0.755300  0.853749  1
  O  O27  1  0.244700  0.530739  0.853749  1
