# generated using pymatgen
data_Li24Ti5Cr7O36
_symmetry_space_group_name_H-M   'P 1'
_cell_length_a   5.04865391
_cell_length_b   5.06000122
_cell_length_c   28.93585701
_cell_angle_alpha   89.69597319
_cell_angle_beta   89.72273803
_cell_angle_gamma   60.08248158
_symmetry_Int_Tables_number   1
_chemical_formula_structural   Li24Ti5Cr7O36
_chemical_formula_sum   'Li24 Ti5 Cr7 O36'
_cell_volume   640.68721705
_cell_formula_units_Z   1
loop_
 _symmetry_equiv_pos_site_id
 _symmetry_equiv_pos_as_xyz
  1  'x, y, z'
loop_
 _atom_site_type_symbol
 _atom_site_label
 _atom_site_symmetry_multiplicity
 _atom_site_fract_x
 _atom_site_fract_y
 _atom_site_fract_z
 _atom_site_occupancy
  Li  Li0  1  0.491690  0.169591  0.333261  1
  Li  Li1  1  0.498639  0.168441  0.083413  1
  Li  Li2  1  0.178850  0.491137  0.166547  1
  Li  Li3  1  0.496751  0.836322  0.666683  1
  Li  Li4  1  0.501880  0.834323  0.416628  1
  Li  Li5  1  0.492441  0.835453  0.166765  1
  Li  Li6  1  0.183336  0.162057  0.499922  1
  Li  Li7  1  0.496712  0.500184  0.000151  1
  Li  Li8  1  0.498534  0.498001  0.750007  1
  Li  Li9  1  0.489202  0.503762  0.499928  1
  Li  Li10  1  0.824181  0.834887  0.000290  1
  Li  Li11  1  0.175426  0.820890  0.833151  1
  Li  Li12  1  0.499851  0.166832  0.833346  1
  Li  Li13  1  0.180746  0.825801  0.333119  1
  Li  Li14  1  0.825161  0.506172  0.333428  1
  Li  Li15  1  0.181802  0.497539  0.666759  1
  Li  Li16  1  0.820684  0.167105  0.666679  1
  Li  Li17  1  0.824686  0.177206  0.166725  1
  Li  Li18  1  0.180287  0.163363  0.000180  1
  Li  Li19  1  0.500848  0.499930  0.249956  1
  Li  Li20  1  0.824506  0.834871  0.499939  1
  Li  Li21  1  0.496676  0.168918  0.583294  1
  Li  Li22  1  0.824898  0.512031  0.833571  1
  Li  Li23  1  0.501691  0.835420  0.916756  1
  Ti  Ti24  1  0.831406  0.835455  0.249940  1
  Ti  Ti25  1  0.838527  0.496415  0.583463  1
  Ti  Ti26  1  0.832985  0.164014  0.916398  1
  Ti  Ti27  1  0.832197  0.164036  0.416425  1
  Ti  Ti28  1  0.166888  0.169566  0.750199  1
  Cr  Cr29  1  0.163458  0.167086  0.249918  1
  Cr  Cr30  1  0.162085  0.836171  0.583158  1
  Cr  Cr31  1  0.830378  0.505391  0.083467  1
  Cr  Cr32  1  0.167179  0.502110  0.917163  1
  Cr  Cr33  1  0.832793  0.831180  0.749711  1
  Cr  Cr34  1  0.163270  0.833352  0.083264  1
  Cr  Cr35  1  0.166457  0.502259  0.416775  1
  O  O36  1  0.499769  0.144456  0.211142  1
  O  O37  1  0.493753  0.860387  0.288156  1
  O  O38  1  0.495722  0.810954  0.545357  1
  O  O39  1  0.145845  0.524839  0.045731  1
  O  O40  1  0.145936  0.495650  0.287064  1
  O  O41  1  0.495217  0.526626  0.621377  1
  O  O42  1  0.860049  0.802669  0.120800  1
  O  O43  1  0.492257  0.478998  0.878670  1
  O  O44  1  0.146142  0.193542  0.379438  1
  O  O45  1  0.142845  0.169449  0.621502  1
  O  O46  1  0.138047  0.170116  0.120554  1
  O  O47  1  0.859820  0.495428  0.212339  1
  O  O48  1  0.504285  0.185824  0.955972  1
  O  O49  1  0.859998  0.477594  0.454081  1
  O  O50  1  0.140470  0.855367  0.712700  1
  O  O51  1  0.146155  0.859913  0.212291  1
  O  O52  1  0.148563  0.822829  0.954302  1
  O  O53  1  0.147827  0.823155  0.453947  1
  O  O54  1  0.863029  0.157844  0.545597  1
  O  O55  1  0.865352  0.163805  0.046079  1
  O  O56  1  0.854276  0.139954  0.787287  1
  O  O57  1  0.857205  0.142827  0.287690  1
  O  O58  1  0.144193  0.520132  0.545241  1
  O  O59  1  0.506382  0.800704  0.045365  1
  O  O60  1  0.147532  0.496055  0.787946  1
  O  O61  1  0.852889  0.837098  0.878903  1
  O  O62  1  0.853938  0.836720  0.378455  1
  O  O63  1  0.862340  0.812782  0.620803  1
  O  O64  1  0.492760  0.529963  0.121646  1
  O  O65  1  0.145830  0.193426  0.879488  1
  O  O66  1  0.492418  0.479171  0.378377  1
  O  O67  1  0.852719  0.510651  0.712419  1
  O  O68  1  0.860946  0.477169  0.954226  1
  O  O69  1  0.503470  0.185667  0.455488  1
  O  O70  1  0.496918  0.147160  0.711059  1
  O  O71  1  0.508005  0.853801  0.788128  1
