# generated using pymatgen
data_Sb3P6WO24
_symmetry_space_group_name_H-M   'P 1'
_cell_length_a   9.17194734
_cell_length_b   9.17194734
_cell_length_c   9.17194734
_cell_angle_alpha   57.61686256
_cell_angle_beta   57.61686256
_cell_angle_gamma   57.61686256
_symmetry_Int_Tables_number   1
_chemical_formula_structural   Sb3P6WO24
_chemical_formula_sum   'Sb3 P6 W1 O24'
_cell_volume   515.70773349
_cell_formula_units_Z   1
loop_
 _symmetry_equiv_pos_site_id
 _symmetry_equiv_pos_as_xyz
  1  'x, y, z'
loop_
 _atom_site_type_symbol
 _atom_site_label
 _atom_site_symmetry_multiplicity
 _atom_site_fract_x
 _atom_site_fract_y
 _atom_site_fract_z
 _atom_site_occupancy
  Sb  Sb0  1  0.859603  0.859603  0.859603  1
  Sb  Sb1  1  0.641876  0.641876  0.641876  1
  Sb  Sb2  1  0.355265  0.355265  0.355265  1
  P  P3  1  0.273349  0.521910  0.957777  1
  P  P4  1  0.957777  0.273349  0.521910  1
  P  P5  1  0.521910  0.957777  0.273349  1
  P  P6  1  0.454450  0.046334  0.745172  1
  P  P7  1  0.046334  0.745172  0.454450  1
  P  P8  1  0.745172  0.454450  0.046334  1
  W  W9  1  0.144849  0.144849  0.144849  1
  O  O10  1  0.739260  0.459198  0.880096  1
  O  O11  1  0.459198  0.880096  0.739260  1
  O  O12  1  0.115799  0.701625  0.928666  1
  O  O13  1  0.880096  0.739260  0.459198  1
  O  O14  1  0.452012  0.509400  0.788134  1
  O  O15  1  0.221700  0.357778  0.008493  1
  O  O16  1  0.928666  0.115799  0.701625  1
  O  O17  1  0.788134  0.452012  0.509400  1
  O  O18  1  0.509400  0.788134  0.452012  1
  O  O19  1  0.626476  0.032137  0.744207  1
  O  O20  1  0.290237  0.072083  0.933468  1
  O  O21  1  0.032137  0.744207  0.626476  1
  O  O22  1  0.008493  0.221700  0.357778  1
  O  O23  1  0.701625  0.928666  0.115799  1
  O  O24  1  0.357778  0.008493  0.221700  1
  O  O25  1  0.386221  0.233802  0.596556  1
  O  O26  1  0.233802  0.596556  0.386221  1
  O  O27  1  0.072083  0.933468  0.290237  1
  O  O28  1  0.744207  0.626476  0.032137  1
  O  O29  1  0.596556  0.386221  0.233802  1
  O  O30  1  0.117813  0.316081  0.488170  1
  O  O31  1  0.933468  0.290237  0.072083  1
  O  O32  1  0.488170  0.117813  0.316081  1
  O  O33  1  0.316081  0.488170  0.117813  1
