# generated using pymatgen
data_Li2Mn3O7
_symmetry_space_group_name_H-M   'P 1'
_cell_length_a   6.11152941
_cell_length_b   6.48037817
_cell_length_c   7.63826036
_cell_angle_alpha   103.76847409
_cell_angle_beta   111.66799576
_cell_angle_gamma   105.41302404
_symmetry_Int_Tables_number   1
_chemical_formula_structural   Li2Mn3O7
_chemical_formula_sum   'Li4 Mn6 O14'
_cell_volume   251.22835559
_cell_formula_units_Z   2
loop_
 _symmetry_equiv_pos_site_id
 _symmetry_equiv_pos_as_xyz
  1  'x, y, z'
loop_
 _atom_site_type_symbol
 _atom_site_label
 _atom_site_symmetry_multiplicity
 _atom_site_fract_x
 _atom_site_fract_y
 _atom_site_fract_z
 _atom_site_occupancy
  Li  Li0  1  0.211578  0.844786  0.530682  1
  Li  Li1  1  0.766126  0.268485  0.915823  1
  Li  Li2  1  0.233874  0.731515  0.084177  1
  Li  Li3  1  0.788422  0.155214  0.469318  1
  Mn  Mn4  1  0.580820  0.577803  0.359211  1
  Mn  Mn5  1  0.858279  0.856184  0.778806  1
  Mn  Mn6  1  0.717184  0.722719  0.077575  1
  Mn  Mn7  1  0.282816  0.277281  0.922425  1
  Mn  Mn8  1  0.141721  0.143816  0.221194  1
  Mn  Mn9  1  0.419180  0.422197  0.640789  1
  O  O10  1  0.500355  0.706261  0.575298  1
  O  O11  1  0.647276  0.443848  0.136796  1
  O  O12  1  0.913417  0.706684  0.568976  1
  O  O13  1  0.211061  0.005675  0.991119  1
  O  O14  1  0.216395  0.416345  0.144894  1
  O  O15  1  0.072509  0.859528  0.256240  1
  O  O16  1  0.389287  0.171768  0.727903  1
  O  O17  1  0.610713  0.828232  0.272097  1
  O  O18  1  0.927491  0.140472  0.743760  1
  O  O19  1  0.783605  0.583655  0.855106  1
  O  O20  1  0.788939  0.994325  0.008881  1
  O  O21  1  0.086583  0.293316  0.431024  1
  O  O22  1  0.352724  0.556152  0.863204  1
  O  O23  1  0.499645  0.293739  0.424702  1
