# generated using pymatgen
data_Li2Mn2F7
_symmetry_space_group_name_H-M   'P 1'
_cell_length_a   5.42735726
_cell_length_b   5.42735726
_cell_length_c   9.82232861
_cell_angle_alpha   84.12321177
_cell_angle_beta   95.87678823
_cell_angle_gamma   71.83890307
_symmetry_Int_Tables_number   1
_chemical_formula_structural   Li2Mn2F7
_chemical_formula_sum   'Li4 Mn4 F14'
_cell_volume   270.69571872
_cell_formula_units_Z   2
loop_
 _symmetry_equiv_pos_site_id
 _symmetry_equiv_pos_as_xyz
  1  'x, y, z'
loop_
 _atom_site_type_symbol
 _atom_site_label
 _atom_site_symmetry_multiplicity
 _atom_site_fract_x
 _atom_site_fract_y
 _atom_site_fract_z
 _atom_site_occupancy
  Li  Li0  1  0.812566  0.249594  0.293010  1
  Li  Li1  1  0.750406  0.187434  0.793010  1
  Li  Li2  1  0.249594  0.812566  0.206990  1
  Li  Li3  1  0.187434  0.750406  0.706990  1
  Mn  Mn4  1  0.697020  0.703931  0.964167  1
  Mn  Mn5  1  0.703931  0.697020  0.535833  1
  Mn  Mn6  1  0.296069  0.302980  0.464167  1
  Mn  Mn7  1  0.302980  0.296069  0.035833  1
  F  F8  1  0.665174  0.045880  0.428528  1
  F  F9  1  0.885819  0.504786  0.386487  1
  F  F10  1  0.599199  0.369872  0.126124  1
  F  F11  1  0.954120  0.334826  0.928528  1
  F  F12  1  0.164259  0.164259  0.250000  1
  F  F13  1  0.495214  0.114181  0.886487  1
  F  F14  1  0.630128  0.400801  0.626124  1
  F  F15  1  0.369872  0.599199  0.373876  1
  F  F16  1  0.504786  0.885819  0.113513  1
  F  F17  1  0.835741  0.835741  0.750000  1
  F  F18  1  0.045880  0.665174  0.071472  1
  F  F19  1  0.400801  0.630128  0.873876  1
  F  F20  1  0.114181  0.495214  0.613513  1
  F  F21  1  0.334826  0.954120  0.571472  1
