# generated using pymatgen
data_AgGeO3
_symmetry_space_group_name_H-M   'P 1'
_cell_length_a   3.17038319
_cell_length_b   5.15847473
_cell_length_c   9.30865234
_cell_angle_alpha   90.00000000
_cell_angle_beta   90.00000000
_cell_angle_gamma   90.00000000
_symmetry_Int_Tables_number   1
_chemical_formula_structural   AgGeO3
_chemical_formula_sum   'Ag2 Ge2 O6'
_cell_volume   152.23687965
_cell_formula_units_Z   2
loop_
 _symmetry_equiv_pos_site_id
 _symmetry_equiv_pos_as_xyz
  1  'x, y, z'
loop_
 _atom_site_type_symbol
 _atom_site_label
 _atom_site_symmetry_multiplicity
 _atom_site_fract_x
 _atom_site_fract_y
 _atom_site_fract_z
 _atom_site_occupancy
  Ag  Ag0  1  0.500000  0.503362  0.001717  1
  Ag  Ag1  1  0.500000  0.496638  0.501717  1
  Ge  Ge2  1  0.000000  0.909157  0.752175  1
  Ge  Ge3  1  0.000000  0.090843  0.252175  1
  O  O4  1  0.000000  0.713926  0.594595  1
  O  O5  1  0.000000  0.721899  0.911435  1
  O  O6  1  0.500000  0.912966  0.247762  1
  O  O7  1  0.500000  0.087034  0.747762  1
  O  O8  1  0.000000  0.278101  0.411435  1
  O  O9  1  0.000000  0.286074  0.094595  1
