# generated using pymatgen
data_Y2Hg2O5
_symmetry_space_group_name_H-M   'P 1'
_cell_length_a   3.57498269
_cell_length_b   11.86287588
_cell_length_c   13.40216006
_cell_angle_alpha   90.00000000
_cell_angle_beta   90.00000000
_cell_angle_gamma   90.00000000
_symmetry_Int_Tables_number   1
_chemical_formula_structural   Y2Hg2O5
_chemical_formula_sum   'Y8 Hg8 O20'
_cell_volume   568.37992462
_cell_formula_units_Z   4
loop_
 _symmetry_equiv_pos_site_id
 _symmetry_equiv_pos_as_xyz
  1  'x, y, z'
loop_
 _atom_site_type_symbol
 _atom_site_label
 _atom_site_symmetry_multiplicity
 _atom_site_fract_x
 _atom_site_fract_y
 _atom_site_fract_z
 _atom_site_occupancy
  Y  Y0  1  0.235921  0.031395  0.669757  1
  Y  Y1  1  0.239568  0.218910  0.002182  1
  Y  Y2  1  0.739568  0.281090  0.502182  1
  Y  Y3  1  0.735921  0.468605  0.169757  1
  Y  Y4  1  0.264079  0.531395  0.669757  1
  Y  Y5  1  0.260432  0.718910  0.002182  1
  Y  Y6  1  0.760432  0.781090  0.502182  1
  Y  Y7  1  0.764079  0.968605  0.169757  1
  Hg  Hg8  1  0.300002  0.003476  0.400834  1
  Hg  Hg9  1  0.199615  0.246104  0.271361  1
  Hg  Hg10  1  0.699615  0.253896  0.771361  1
  Hg  Hg11  1  0.800002  0.496524  0.900834  1
  Hg  Hg12  1  0.199998  0.503476  0.400834  1
  Hg  Hg13  1  0.300385  0.746104  0.271361  1
  Hg  Hg14  1  0.800385  0.753896  0.771361  1
  Hg  Hg15  1  0.699998  0.996524  0.900834  1
  O  O16  1  0.260877  0.062832  0.232948  1
  O  O17  1  0.746267  0.099964  0.046075  1
  O  O18  1  0.237728  0.125344  0.835970  1
  O  O19  1  0.738018  0.149958  0.626207  1
  O  O20  1  0.241772  0.186888  0.439527  1
  O  O21  1  0.741772  0.313112  0.939527  1
  O  O22  1  0.238018  0.350042  0.126207  1
  O  O23  1  0.737728  0.374656  0.335970  1
  O  O24  1  0.246267  0.400036  0.546075  1
  O  O25  1  0.760877  0.437168  0.732948  1
  O  O26  1  0.239123  0.562832  0.232948  1
  O  O27  1  0.753733  0.599964  0.046075  1
  O  O28  1  0.262272  0.625344  0.835970  1
  O  O29  1  0.761982  0.649958  0.626207  1
  O  O30  1  0.258228  0.686888  0.439527  1
  O  O31  1  0.758228  0.813112  0.939527  1
  O  O32  1  0.261982  0.850042  0.126207  1
  O  O33  1  0.762272  0.874656  0.335970  1
  O  O34  1  0.253733  0.900036  0.546075  1
  O  O35  1  0.739123  0.937168  0.732948  1
