# generated using pymatgen
data_Fe2H13C6NCl2O11
_symmetry_space_group_name_H-M   'P 1'
_cell_length_a   8.89536311
_cell_length_b   8.89536311
_cell_length_c   12.64788139
_cell_angle_alpha   79.80688674
_cell_angle_beta   100.19311326
_cell_angle_gamma   63.45894351
_symmetry_Int_Tables_number   1
_chemical_formula_structural   Fe2H13C6NCl2O11
_chemical_formula_sum   'Fe4 H26 C12 N2 Cl4 O22'
_cell_volume   843.11458990
_cell_formula_units_Z   2
loop_
 _symmetry_equiv_pos_site_id
 _symmetry_equiv_pos_as_xyz
  1  'x, y, z'
loop_
 _atom_site_type_symbol
 _atom_site_label
 _atom_site_symmetry_multiplicity
 _atom_site_fract_x
 _atom_site_fract_y
 _atom_site_fract_z
 _atom_site_occupancy
  Fe  Fe0  1  0.076417  0.336889  0.165403  1
  Fe  Fe1  1  0.663111  0.923583  0.665403  1
  Fe  Fe2  1  0.022824  0.071661  0.391888  1
  Fe  Fe3  1  0.928339  0.977176  0.891888  1
  H  H4  1  0.934818  0.392444  0.319461  1
  H  H5  1  0.607556  0.065182  0.819461  1
  H  H6  1  0.441369  0.807099  0.326938  1
  H  H7  1  0.192901  0.558631  0.826938  1
  H  H8  1  0.460911  0.859314  0.199120  1
  H  H9  1  0.140686  0.539089  0.699120  1
  H  H10  1  0.636901  0.696019  0.302452  1
  H  H11  1  0.303981  0.363099  0.802452  1
  H  H12  1  0.875868  0.500097  0.652818  1
  H  H13  1  0.499903  0.124132  0.152818  1
  H  H14  1  0.996399  0.344995  0.611106  1
  H  H15  1  0.655005  0.003601  0.111106  1
  H  H16  1  0.901093  0.671632  0.327911  1
  H  H17  1  0.328368  0.098907  0.827911  1
  H  H18  1  0.889926  0.575577  0.444513  1
  H  H19  1  0.424423  0.110074  0.944513  1
  H  H20  1  0.304622  0.689141  0.220122  1
  H  H21  1  0.310859  0.695378  0.720122  1
  H  H22  1  0.505256  0.514256  0.317598  1
  H  H23  1  0.485744  0.494744  0.817598  1
  H  H24  1  0.472418  0.470872  0.126080  1
  H  H25  1  0.529128  0.527582  0.626080  1
  H  H26  1  0.657335  0.497873  0.168039  1
  H  H27  1  0.502127  0.342665  0.668039  1
  H  H28  1  0.458501  0.675881  0.068823  1
  H  H29  1  0.324119  0.541499  0.568823  1
  C  C30  1  0.898753  0.231538  0.006542  1
  C  C31  1  0.768462  0.101247  0.506542  1
  C  C32  1  0.087164  0.077035  0.060919  1
  C  C33  1  0.922965  0.912836  0.560919  1
  C  C34  1  0.933946  0.702871  0.059375  1
  C  C35  1  0.297129  0.066054  0.559375  1
  C  C36  1  0.056876  0.608668  0.992840  1
  C  C37  1  0.391332  0.943124  0.492840  1
  C  C38  1  0.448160  0.624584  0.240854  1
  C  C39  1  0.375416  0.551840  0.740854  1
  C  C40  1  0.513584  0.564797  0.144999  1
  C  C41  1  0.435203  0.486416  0.644999  1
  N  N42  1  0.499986  0.754929  0.268606  1
  N  N43  1  0.245071  0.500014  0.768606  1
  Cl  Cl44  1  0.342752  0.273097  0.274209  1
  Cl  Cl45  1  0.726903  0.657248  0.774209  1
  Cl  Cl46  1  0.944773  0.943848  0.268430  1
  Cl  Cl47  1  0.056152  0.055227  0.768430  1
  O  O48  1  0.977109  0.291007  0.288162  1
  O  O49  1  0.708993  0.022891  0.788162  1
  O  O50  1  0.857750  0.363126  0.043089  1
  O  O51  1  0.636874  0.142250  0.543089  1
  O  O52  1  0.185391  0.095800  0.137717  1
  O  O53  1  0.904200  0.814609  0.637717  1
  O  O54  1  0.802029  0.211584  0.929524  1
  O  O55  1  0.788416  0.197971  0.429524  1
  O  O56  1  0.131719  0.943719  0.025957  1
  O  O57  1  0.056281  0.868281  0.525957  1
  O  O58  1  0.851970  0.868305  0.027324  1
  O  O59  1  0.131695  0.148030  0.527324  1
  O  O60  1  0.074436  0.706316  0.914444  1
  O  O61  1  0.293684  0.925564  0.414444  1
  O  O62  1  0.131882  0.443598  0.020726  1
  O  O63  1  0.556402  0.868118  0.520726  1
  O  O64  1  0.926886  0.604065  0.142238  1
  O  O65  1  0.395935  0.073114  0.642238  1
  O  O66  1  0.956184  0.468828  0.606100  1
  O  O67  1  0.531172  0.043816  0.106100  1
  O  O68  1  0.856800  0.597902  0.361943  1
  O  O69  1  0.402098  0.143200  0.861943  1
