# generated using pymatgen
data_Mn2Si2O7
_symmetry_space_group_name_H-M   'P 1'
_cell_length_a   4.96733148
_cell_length_b   4.96733148
_cell_length_c   12.49607789
_cell_angle_alpha   90.00000000
_cell_angle_beta   90.00000000
_cell_angle_gamma   115.25276292
_symmetry_Int_Tables_number   1
_chemical_formula_structural   Mn2Si2O7
_chemical_formula_sum   'Mn4 Si4 O14'
_cell_volume   278.86702560
_cell_formula_units_Z   2
loop_
 _symmetry_equiv_pos_site_id
 _symmetry_equiv_pos_as_xyz
  1  'x, y, z'
loop_
 _atom_site_type_symbol
 _atom_site_label
 _atom_site_symmetry_multiplicity
 _atom_site_fract_x
 _atom_site_fract_y
 _atom_site_fract_z
 _atom_site_occupancy
  Mn  Mn0  1  0.000000  0.000000  0.000000  1
  Mn  Mn1  1  0.000000  0.000000  0.500000  1
  Mn  Mn2  1  0.035489  0.964511  0.250000  1
  Mn  Mn3  1  0.964511  0.035489  0.750000  1
  Si  Si4  1  0.664931  0.335069  0.132839  1
  Si  Si5  1  0.664931  0.335069  0.367161  1
  Si  Si6  1  0.335069  0.664931  0.632839  1
  Si  Si7  1  0.335069  0.664931  0.867161  1
  O  O8  1  0.298068  0.194853  0.135525  1
  O  O9  1  0.298068  0.194853  0.364475  1
  O  O10  1  0.194853  0.298068  0.635525  1
  O  O11  1  0.194853  0.298068  0.864475  1
  O  O12  1  0.765362  0.234638  0.250000  1
  O  O13  1  0.234638  0.765362  0.750000  1
  O  O14  1  0.215239  0.784761  0.534702  1
  O  O15  1  0.215239  0.784761  0.965298  1
  O  O16  1  0.784761  0.215239  0.034702  1
  O  O17  1  0.784761  0.215239  0.465298  1
  O  O18  1  0.701932  0.805147  0.864475  1
  O  O19  1  0.701932  0.805147  0.635525  1
  O  O20  1  0.805147  0.701932  0.135525  1
  O  O21  1  0.805147  0.701932  0.364475  1
