# generated using pymatgen
data_Li4Fe5Sb3O16
_symmetry_space_group_name_H-M   'P 1'
_cell_length_a   6.15803992
_cell_length_b   6.15803992
_cell_length_c   9.81265263
_cell_angle_alpha   89.33874843
_cell_angle_beta   90.66125157
_cell_angle_gamma   120.41141379
_symmetry_Int_Tables_number   1
_chemical_formula_structural   Li4Fe5Sb3O16
_chemical_formula_sum   'Li4 Fe5 Sb3 O16'
_cell_volume   320.88412757
_cell_formula_units_Z   1
loop_
 _symmetry_equiv_pos_site_id
 _symmetry_equiv_pos_as_xyz
  1  'x, y, z'
loop_
 _atom_site_type_symbol
 _atom_site_label
 _atom_site_symmetry_multiplicity
 _atom_site_fract_x
 _atom_site_fract_y
 _atom_site_fract_z
 _atom_site_occupancy
  Li  Li0  1  0.662032  0.337968  0.882122  1
  Li  Li1  1  0.990297  0.009703  0.991167  1
  Li  Li2  1  0.991817  0.008183  0.502449  1
  Li  Li3  1  0.325366  0.674634  0.396490  1
  Fe  Fe4  1  0.676829  0.323171  0.501239  1
  Fe  Fe5  1  0.832795  0.167205  0.217012  1
  Fe  Fe6  1  0.345886  0.654114  0.987413  1
  Fe  Fe7  1  0.173983  0.343793  0.716482  1
  Fe  Fe8  1  0.656207  0.826017  0.716482  1
  Sb  Sb9  1  0.338464  0.169139  0.216508  1
  Sb  Sb10  1  0.830861  0.661536  0.216508  1
  Sb  Sb11  1  0.171492  0.828508  0.713430  1
  O  O12  1  0.324260  0.154113  0.597613  1
  O  O13  1  0.513715  0.486285  0.337167  1
  O  O14  1  0.659130  0.340870  0.102418  1
  O  O15  1  0.008426  0.991574  0.320752  1
  O  O16  1  0.003622  0.996378  0.807221  1
  O  O17  1  0.845887  0.675740  0.597613  1
  O  O18  1  0.503839  0.042740  0.341655  1
  O  O19  1  0.957260  0.496161  0.341655  1
  O  O20  1  0.159108  0.840892  0.105610  1
  O  O21  1  0.836249  0.163751  0.597225  1
  O  O22  1  0.031070  0.520047  0.832490  1
  O  O23  1  0.479953  0.968930  0.832490  1
  O  O24  1  0.330150  0.669850  0.601469  1
  O  O25  1  0.171985  0.309515  0.103747  1
  O  O26  1  0.483581  0.516419  0.828658  1
  O  O27  1  0.690485  0.828015  0.103747  1
