# generated using pymatgen
data_Mn3(PO4)2
_symmetry_space_group_name_H-M   'P 1'
_cell_length_a   6.34730704
_cell_length_b   11.62096409
_cell_length_c   9.00104873
_cell_angle_alpha   90.00000000
_cell_angle_beta   99.27635709
_cell_angle_gamma   90.00000000
_symmetry_Int_Tables_number   1
_chemical_formula_structural   Mn3(PO4)2
_chemical_formula_sum   'Mn12 P8 O32'
_cell_volume   655.25108528
_cell_formula_units_Z   4
loop_
 _symmetry_equiv_pos_site_id
 _symmetry_equiv_pos_as_xyz
  1  'x, y, z'
loop_
 _atom_site_type_symbol
 _atom_site_label
 _atom_site_symmetry_multiplicity
 _atom_site_fract_x
 _atom_site_fract_y
 _atom_site_fract_z
 _atom_site_occupancy
  Mn  Mn0  1  0.362539  0.383343  0.933189  1
  Mn  Mn1  1  0.862539  0.116657  0.933189  1
  Mn  Mn2  1  0.333472  0.076928  0.725607  1
  Mn  Mn3  1  0.833472  0.423072  0.725607  1
  Mn  Mn4  1  0.377633  0.693399  0.635607  1
  Mn  Mn5  1  0.877633  0.806601  0.635607  1
  Mn  Mn6  1  0.122367  0.193399  0.364393  1
  Mn  Mn7  1  0.622367  0.306601  0.364393  1
  Mn  Mn8  1  0.166528  0.576928  0.274393  1
  Mn  Mn9  1  0.666528  0.923072  0.274393  1
  Mn  Mn10  1  0.137461  0.883343  0.066811  1
  Mn  Mn11  1  0.637461  0.616657  0.066811  1
  P  P12  1  0.111764  0.636543  0.908405  1
  P  P13  1  0.611764  0.863457  0.908405  1
  P  P14  1  0.306749  0.412399  0.604525  1
  P  P15  1  0.806749  0.087601  0.604525  1
  P  P16  1  0.193251  0.912399  0.395475  1
  P  P17  1  0.693251  0.587601  0.395475  1
  P  P18  1  0.388236  0.136543  0.091595  1
  P  P19  1  0.888236  0.363457  0.091595  1
  O  O20  1  0.396663  0.203388  0.942309  1
  O  O21  1  0.324181  0.565531  0.927708  1
  O  O22  1  0.896663  0.296612  0.942309  1
  O  O23  1  0.824181  0.934469  0.927708  1
  O  O24  1  0.407400  0.936137  0.869980  1
  O  O25  1  0.907400  0.563863  0.869980  1
  O  O26  1  0.127564  0.722924  0.777433  1
  O  O27  1  0.013061  0.085946  0.724984  1
  O  O28  1  0.627564  0.777076  0.777433  1
  O  O29  1  0.133442  0.373834  0.698012  1
  O  O30  1  0.513061  0.414054  0.724984  1
  O  O31  1  0.633442  0.126166  0.698012  1
  O  O32  1  0.260421  0.533643  0.532426  1
  O  O33  1  0.171295  0.822173  0.519353  1
  O  O34  1  0.760421  0.966357  0.532426  1
  O  O35  1  0.328705  0.322173  0.480647  1
  O  O36  1  0.671295  0.677827  0.519353  1
  O  O37  1  0.239579  0.033643  0.467574  1
  O  O38  1  0.828705  0.177827  0.480647  1
  O  O39  1  0.739579  0.466357  0.467574  1
  O  O40  1  0.366558  0.873834  0.301988  1
  O  O41  1  0.486939  0.585946  0.275016  1
  O  O42  1  0.866558  0.626166  0.301988  1
  O  O43  1  0.372436  0.222924  0.222567  1
  O  O44  1  0.986939  0.914054  0.275016  1
  O  O45  1  0.872436  0.277076  0.222567  1
  O  O46  1  0.092600  0.436137  0.130020  1
  O  O47  1  0.592600  0.063863  0.130020  1
  O  O48  1  0.175819  0.065531  0.072292  1
  O  O49  1  0.103337  0.703388  0.057691  1
  O  O50  1  0.675819  0.434469  0.072292  1
  O  O51  1  0.603337  0.796612  0.057691  1
