# generated using pymatgen
data_V(TeO3)4
_symmetry_space_group_name_H-M   'P 1'
_cell_length_a   5.14656287
_cell_length_b   5.85785707
_cell_length_c   8.10174684
_cell_angle_alpha   79.76332887
_cell_angle_beta   88.87546766
_cell_angle_gamma   87.89011888
_symmetry_Int_Tables_number   1
_chemical_formula_structural   V(TeO3)4
_chemical_formula_sum   'V1 Te4 O12'
_cell_volume   240.17791982
_cell_formula_units_Z   1
loop_
 _symmetry_equiv_pos_site_id
 _symmetry_equiv_pos_as_xyz
  1  'x, y, z'
loop_
 _atom_site_type_symbol
 _atom_site_label
 _atom_site_symmetry_multiplicity
 _atom_site_fract_x
 _atom_site_fract_y
 _atom_site_fract_z
 _atom_site_occupancy
  V  V0  1  0.986672  0.634562  0.292866  1
  Te  Te1  1  0.025322  0.963163  0.971298  1
  Te  Te2  1  0.483395  0.474377  0.499946  1
  Te  Te3  1  0.031699  0.024046  0.524407  1
  Te  Te4  1  0.493944  0.430294  0.954545  1
  O  O5  1  0.681222  0.743469  0.401162  1
  O  O6  1  0.871248  0.989727  0.741072  1
  O  O7  1  0.707368  0.130402  0.022327  1
  O  O8  1  0.800796  0.324785  0.420950  1
  O  O9  1  0.179490  0.273737  0.916117  1
  O  O10  1  0.621670  0.483982  0.720778  1
  O  O11  1  0.300088  0.453457  0.289514  1
  O  O12  1  0.870286  0.655535  0.073088  1
  O  O13  1  0.169606  0.651744  0.533969  1
  O  O14  1  0.313251  0.793604  0.898088  1
  O  O15  1  0.117544  0.927853  0.211263  1
  O  O16  1  0.346402  0.163864  0.587908  1
