# generated using pymatgen
data_Li4Mn3OF8
_symmetry_space_group_name_H-M   'P 1'
_cell_length_a   5.19491700
_cell_length_b   10.50760504
_cell_length_c   10.58325851
_cell_angle_alpha   82.09637546
_cell_angle_beta   89.57520716
_cell_angle_gamma   88.94205036
_symmetry_Int_Tables_number   1
_chemical_formula_structural   Li4Mn3OF8
_chemical_formula_sum   'Li12 Mn9 O3 F24'
_cell_volume   572.10701371
_cell_formula_units_Z   3
loop_
 _symmetry_equiv_pos_site_id
 _symmetry_equiv_pos_as_xyz
  1  'x, y, z'
loop_
 _atom_site_type_symbol
 _atom_site_label
 _atom_site_symmetry_multiplicity
 _atom_site_fract_x
 _atom_site_fract_y
 _atom_site_fract_z
 _atom_site_occupancy
  Li  Li0  1  0.499545  0.791084  0.003864  1
  Li  Li1  1  0.495012  0.990401  0.202897  1
  Li  Li2  1  0.429333  0.870316  0.464823  1
  Li  Li3  1  0.421258  0.540980  0.130354  1
  Li  Li4  1  0.380653  0.610116  0.388623  1
  Li  Li5  1  0.470368  0.733429  0.729973  1
  Li  Li6  1  0.468711  0.267651  0.267330  1
  Li  Li7  1  0.384738  0.381442  0.618459  1
  Li  Li8  1  0.437918  0.468563  0.869433  1
  Li  Li9  1  0.442532  0.128349  0.534470  1
  Li  Li10  1  0.505253  0.208203  0.992213  1
  Li  Li11  1  0.505716  0.011626  0.796091  1
  Mn  Mn12  1  0.987965  0.795545  0.250730  1
  Mn  Mn13  1  0.962208  0.905115  0.665951  1
  Mn  Mn14  1  0.954548  0.340057  0.097809  1
  Mn  Mn15  1  0.930546  0.617132  0.595553  1
  Mn  Mn16  1  0.002194  0.000504  0.011189  1
  Mn  Mn17  1  0.907734  0.388648  0.396176  1
  Mn  Mn18  1  0.954202  0.661920  0.895734  1
  Mn  Mn19  1  0.972801  0.092413  0.320645  1
  Mn  Mn20  1  0.953609  0.244364  0.759164  1
  O  O21  1  0.138813  0.974739  0.196732  1
  O  O22  1  0.110660  0.280076  0.273599  1
  O  O23  1  0.114562  0.724578  0.721345  1
  F  F24  1  0.684080  0.882455  0.107681  1
  F  F25  1  0.141644  0.802394  0.999395  1
  F  F26  1  0.686092  0.939745  0.352277  1
  F  F27  1  0.666455  0.633174  0.031713  1
  F  F28  1  0.191326  0.001566  0.501054  1
  F  F29  1  0.178549  0.752415  0.433137  1
  F  F30  1  0.204891  0.627216  0.232134  1
  F  F31  1  0.736499  0.587177  0.415530  1
  F  F32  1  0.649462  0.421317  0.221097  1
  F  F33  1  0.662209  0.788588  0.582167  1
  F  F34  1  0.193572  0.488400  0.496333  1
  F  F35  1  0.636493  0.842411  0.837267  1
  F  F36  1  0.637275  0.158867  0.157013  1
  F  F37  1  0.664813  0.215259  0.414051  1
  F  F38  1  0.662853  0.580304  0.768344  1
  F  F39  1  0.744315  0.372057  0.616231  1
  F  F40  1  0.197538  0.403153  0.767364  1
  F  F41  1  0.209916  0.228294  0.608404  1
  F  F42  1  0.184945  0.499072  0.002519  1
  F  F43  1  0.694177  0.055880  0.647368  1
  F  F44  1  0.690160  0.357189  0.947919  1
  F  F45  1  0.148409  0.202610  0.979252  1
  F  F46  1  0.147161  0.019581  0.809051  1
  F  F47  1  0.701524  0.113630  0.889546  1
