# generated using pymatgen
data_Li5Co5(CuO6)2
_symmetry_space_group_name_H-M   'P 1'
_cell_length_a   5.01716143
_cell_length_b   5.01716143
_cell_length_c   9.54342903
_cell_angle_alpha   85.37732493
_cell_angle_beta   94.62267507
_cell_angle_gamma   61.89722847
_symmetry_Int_Tables_number   1
_chemical_formula_structural   Li5Co5(CuO6)2
_chemical_formula_sum   'Li5 Co5 Cu2 O12'
_cell_volume   209.28631940
_cell_formula_units_Z   1
loop_
 _symmetry_equiv_pos_site_id
 _symmetry_equiv_pos_as_xyz
  1  'x, y, z'
loop_
 _atom_site_type_symbol
 _atom_site_label
 _atom_site_symmetry_multiplicity
 _atom_site_fract_x
 _atom_site_fract_y
 _atom_site_fract_z
 _atom_site_occupancy
  Li  Li0  1  0.338212  0.825152  0.758258  1
  Li  Li1  1  0.155647  0.677593  0.242828  1
  Li  Li2  1  0.825152  0.338212  0.241742  1
  Li  Li3  1  0.677593  0.155647  0.757172  1
  Li  Li4  1  0.081535  0.081535  0.000000  1
  Co  Co5  1  0.920182  0.920182  0.500000  1
  Co  Co6  1  0.487658  0.999999  0.242849  1
  Co  Co7  1  0.999999  0.487658  0.757151  1
  Co  Co8  1  0.586908  0.586908  0.500000  1
  Co  Co9  1  0.413745  0.413745  0.000000  1
  Cu  Cu10  1  0.745632  0.745632  0.000000  1
  Cu  Cu11  1  0.254060  0.254060  0.500000  1
  O  O12  1  0.678430  0.830940  0.624218  1
  O  O13  1  0.233764  0.940064  0.389731  1
  O  O14  1  0.466658  0.693987  0.117921  1
  O  O15  1  0.830940  0.678430  0.375782  1
  O  O16  1  0.693987  0.466658  0.882079  1
  O  O17  1  0.053744  0.749099  0.884483  1
  O  O18  1  0.275921  0.569797  0.605131  1
  O  O19  1  0.940064  0.233764  0.610269  1
  O  O20  1  0.174470  0.341647  0.134263  1
  O  O21  1  0.569797  0.275921  0.394869  1
  O  O22  1  0.749099  0.053744  0.115517  1
  O  O23  1  0.341647  0.174470  0.865737  1
