# generated using pymatgen
data_V(PO3)3
_symmetry_space_group_name_H-M   'P 1'
_cell_length_a   9.42668123
_cell_length_b   9.43119243
_cell_length_c   9.67667046
_cell_angle_alpha   109.33486825
_cell_angle_beta   104.33726598
_cell_angle_gamma   108.84794333
_symmetry_Int_Tables_number   1
_chemical_formula_structural   V(PO3)3
_chemical_formula_sum   'V4 P12 O36'
_cell_volume   705.09184899
_cell_formula_units_Z   4
loop_
 _symmetry_equiv_pos_site_id
 _symmetry_equiv_pos_as_xyz
  1  'x, y, z'
loop_
 _atom_site_type_symbol
 _atom_site_label
 _atom_site_symmetry_multiplicity
 _atom_site_fract_x
 _atom_site_fract_y
 _atom_site_fract_z
 _atom_site_occupancy
  V  V0  1  0.100329  0.300320  0.210097  1
  V  V1  1  0.255189  0.774567  0.724439  1
  V  V2  1  0.899671  0.699680  0.789903  1
  V  V3  1  0.744811  0.225433  0.275561  1
  P  P4  1  0.484330  0.843740  0.099467  1
  P  P5  1  0.188266  0.095629  0.921735  1
  P  P6  1  0.697162  0.566327  0.404958  1
  P  P7  1  0.302838  0.433673  0.595042  1
  P  P8  1  0.061866  0.796723  0.167808  1
  P  P9  1  0.938134  0.203277  0.832192  1
  P  P10  1  0.811734  0.904371  0.078265  1
  P  P11  1  0.000133  0.609508  0.350291  1
  P  P12  1  0.999867  0.390492  0.649709  1
  P  P13  1  0.427341  0.666338  0.303513  1
  P  P14  1  0.572659  0.333662  0.696487  1
  P  P15  1  0.515670  0.156260  0.900533  1
  O  O16  1  0.750839  0.671064  0.581218  1
  O  O17  1  0.154866  0.359176  0.645009  1
  O  O18  1  0.903625  0.834082  0.178412  1
  O  O19  1  0.854255  0.262144  0.499209  1
  O  O20  1  0.964934  0.275609  0.007476  1
  O  O21  1  0.216824  0.933717  0.290380  1
  O  O22  1  0.436440  0.408735  0.704499  1
  O  O23  1  0.593172  0.303004  0.857712  1
  O  O24  1  0.629440  0.806643  0.056042  1
  O  O25  1  0.877203  0.094911  0.185049  1
  O  O26  1  0.732079  0.488235  0.755899  1
  O  O27  1  0.036608  0.573467  0.686044  1
  O  O28  1  0.009185  0.628351  0.196794  1
  O  O29  1  0.963392  0.426533  0.313956  1
  O  O30  1  0.352948  0.619162  0.651863  1
  O  O31  1  0.647052  0.380838  0.348137  1
  O  O32  1  0.035066  0.724391  0.992524  1
  O  O33  1  0.122797  0.905089  0.814951  1
  O  O34  1  0.515030  0.183843  0.549260  1
  O  O35  1  0.641819  0.190221  0.052408  1
  O  O36  1  0.845134  0.640824  0.354991  1
  O  O37  1  0.484970  0.816157  0.450740  1
  O  O38  1  0.370560  0.193357  0.943958  1
  O  O39  1  0.358181  0.809779  0.947592  1
  O  O40  1  0.783176  0.066283  0.709620  1
  O  O41  1  0.249161  0.328936  0.418782  1
  O  O42  1  0.438925  0.984560  0.763782  1
  O  O43  1  0.561075  0.015440  0.236218  1
  O  O44  1  0.176995  0.139334  0.081063  1
  O  O45  1  0.823005  0.860666  0.918937  1
  O  O46  1  0.267921  0.511765  0.244101  1
  O  O47  1  0.990815  0.371649  0.803206  1
  O  O48  1  0.563560  0.591265  0.295501  1
  O  O49  1  0.406828  0.696996  0.142288  1
  O  O50  1  0.145745  0.737856  0.500791  1
  O  O51  1  0.096375  0.165918  0.821588  1
