# generated using pymatgen
data_Na4P3H3O11
_symmetry_space_group_name_H-M   'P 1'
_cell_length_a   6.95621786
_cell_length_b   11.96465956
_cell_length_c   12.08497584
_cell_angle_alpha   90.00000000
_cell_angle_beta   90.00000000
_cell_angle_gamma   90.00000000
_symmetry_Int_Tables_number   1
_chemical_formula_structural   Na4P3H3O11
_chemical_formula_sum   'Na16 P12 H12 O44'
_cell_volume   1005.81777761
_cell_formula_units_Z   4
loop_
 _symmetry_equiv_pos_site_id
 _symmetry_equiv_pos_as_xyz
  1  'x, y, z'
loop_
 _atom_site_type_symbol
 _atom_site_label
 _atom_site_symmetry_multiplicity
 _atom_site_fract_x
 _atom_site_fract_y
 _atom_site_fract_z
 _atom_site_occupancy
  Na  Na0  1  0.813667  0.995774  0.191470  1
  Na  Na1  1  0.813667  0.495774  0.808530  1
  Na  Na2  1  0.790893  0.685018  0.092217  1
  Na  Na3  1  0.790893  0.185018  0.907783  1
  Na  Na4  1  0.709107  0.185018  0.407783  1
  Na  Na5  1  0.709107  0.685018  0.592217  1
  Na  Na6  1  0.686333  0.995774  0.691470  1
  Na  Na7  1  0.686333  0.495774  0.308530  1
  Na  Na8  1  0.313667  0.004226  0.308530  1
  Na  Na9  1  0.313667  0.504226  0.691470  1
  Na  Na10  1  0.290893  0.814982  0.592217  1
  Na  Na11  1  0.290893  0.314982  0.407783  1
  Na  Na12  1  0.209107  0.814982  0.092217  1
  Na  Na13  1  0.209107  0.314982  0.907783  1
  Na  Na14  1  0.186333  0.504226  0.191470  1
  Na  Na15  1  0.186333  0.004226  0.808530  1
  P  P16  1  0.000000  0.750000  0.338124  1
  P  P17  1  0.000000  0.250000  0.661876  1
  P  P18  1  0.791123  0.402842  0.063775  1
  P  P19  1  0.791123  0.902842  0.936225  1
  P  P20  1  0.708877  0.902842  0.436225  1
  P  P21  1  0.708877  0.402842  0.563775  1
  P  P22  1  0.500000  0.750000  0.838124  1
  P  P23  1  0.500000  0.250000  0.161876  1
  P  P24  1  0.291123  0.597158  0.436225  1
  P  P25  1  0.291123  0.097158  0.563775  1
  P  P26  1  0.208877  0.097158  0.063775  1
  P  P27  1  0.208877  0.597158  0.936225  1
  H  H28  1  0.000000  0.000000  0.500000  1
  H  H29  1  0.000000  0.500000  0.500000  1
  H  H30  1  0.972080  0.812227  0.732330  1
  H  H31  1  0.972080  0.312227  0.267670  1
  H  H32  1  0.527920  0.812227  0.232330  1
  H  H33  1  0.527920  0.312227  0.767670  1
  H  H34  1  0.500000  0.000000  0.000000  1
  H  H35  1  0.500000  0.500000  0.000000  1
  H  H36  1  0.472080  0.187773  0.767670  1
  H  H37  1  0.472080  0.687773  0.232330  1
  H  H38  1  0.027920  0.187773  0.267670  1
  H  H39  1  0.027920  0.687773  0.732330  1
  O  O40  1  0.000000  0.750000  0.680150  1
  O  O41  1  0.000000  0.250000  0.319850  1
  O  O42  1  0.922773  0.650914  0.275075  1
  O  O43  1  0.922773  0.150914  0.724925  1
  O  O44  1  0.905992  0.879033  0.039573  1
  O  O45  1  0.905992  0.379033  0.960427  1
  O  O46  1  0.897092  0.414025  0.173787  1
  O  O47  1  0.897092  0.914025  0.826213  1
  O  O48  1  0.849250  0.004464  0.449827  1
  O  O49  1  0.849250  0.504464  0.550173  1
  O  O50  1  0.841882  0.789541  0.428035  1
  O  O51  1  0.841882  0.289541  0.571965  1
  O  O52  1  0.658118  0.289541  0.071965  1
  O  O53  1  0.658118  0.789541  0.928035  1
  O  O54  1  0.650750  0.504464  0.050173  1
  O  O55  1  0.650750  0.004464  0.949827  1
  O  O56  1  0.602908  0.914025  0.326213  1
  O  O57  1  0.602908  0.414025  0.673787  1
  O  O58  1  0.594008  0.879033  0.539573  1
  O  O59  1  0.594008  0.379033  0.460427  1
  O  O60  1  0.577227  0.150914  0.224925  1
  O  O61  1  0.577227  0.650914  0.775075  1
  O  O62  1  0.500000  0.750000  0.180150  1
  O  O63  1  0.500000  0.250000  0.819850  1
  O  O64  1  0.422773  0.349086  0.224925  1
  O  O65  1  0.422773  0.849086  0.775075  1
  O  O66  1  0.405992  0.620967  0.539573  1
  O  O67  1  0.405992  0.120967  0.460427  1
  O  O68  1  0.397092  0.585975  0.326213  1
  O  O69  1  0.397092  0.085975  0.673787  1
  O  O70  1  0.349250  0.995536  0.050173  1
  O  O71  1  0.349250  0.495536  0.949827  1
  O  O72  1  0.341882  0.210459  0.071965  1
  O  O73  1  0.341882  0.710459  0.928035  1
  O  O74  1  0.158118  0.710459  0.428035  1
  O  O75  1  0.158118  0.210459  0.571965  1
  O  O76  1  0.150750  0.995536  0.550173  1
  O  O77  1  0.150750  0.495536  0.449827  1
  O  O78  1  0.102908  0.085975  0.173787  1
  O  O79  1  0.102908  0.585975  0.826213  1
  O  O80  1  0.094008  0.620967  0.039573  1
  O  O81  1  0.094008  0.120967  0.960427  1
  O  O82  1  0.077227  0.849086  0.275075  1
  O  O83  1  0.077227  0.349086  0.724925  1
