# generated using pymatgen
data_CaH3NO5
_symmetry_space_group_name_H-M   'P 1'
_cell_length_a   8.88723929
_cell_length_b   14.18236165
_cell_length_c   14.64183398
_cell_angle_alpha   90.00000000
_cell_angle_beta   90.00000000
_cell_angle_gamma   90.00000000
_symmetry_Int_Tables_number   1
_chemical_formula_structural   CaH3NO5
_chemical_formula_sum   'Ca16 H48 N16 O80'
_cell_volume   1845.48664879
_cell_formula_units_Z   16
loop_
 _symmetry_equiv_pos_site_id
 _symmetry_equiv_pos_as_xyz
  1  'x, y, z'
loop_
 _atom_site_type_symbol
 _atom_site_label
 _atom_site_symmetry_multiplicity
 _atom_site_fract_x
 _atom_site_fract_y
 _atom_site_fract_z
 _atom_site_occupancy
  Ca  Ca0  1  0.485735  0.268387  0.053032  1
  Ca  Ca1  1  0.014265  0.768387  0.946968  1
  Ca  Ca2  1  0.985735  0.731613  0.446968  1
  Ca  Ca3  1  0.514265  0.231613  0.553032  1
  Ca  Ca4  1  0.514265  0.731613  0.946968  1
  Ca  Ca5  1  0.985735  0.231613  0.053032  1
  Ca  Ca6  1  0.014265  0.268387  0.553032  1
  Ca  Ca7  1  0.485735  0.768387  0.446968  1
  Ca  Ca8  1  0.486837  0.271189  0.801348  1
  Ca  Ca9  1  0.013163  0.771189  0.198652  1
  Ca  Ca10  1  0.986837  0.728811  0.698652  1
  Ca  Ca11  1  0.513163  0.228811  0.301348  1
  Ca  Ca12  1  0.513163  0.728811  0.198652  1
  Ca  Ca13  1  0.986837  0.228811  0.801348  1
  Ca  Ca14  1  0.013163  0.271189  0.301348  1
  Ca  Ca15  1  0.486837  0.771189  0.698652  1
  H  H16  1  0.591572  0.403738  0.191119  1
  H  H17  1  0.908428  0.903738  0.808881  1
  H  H18  1  0.091572  0.596262  0.308881  1
  H  H19  1  0.408428  0.096262  0.691119  1
  H  H20  1  0.408428  0.596262  0.808881  1
  H  H21  1  0.091572  0.096262  0.191119  1
  H  H22  1  0.908428  0.403738  0.691119  1
  H  H23  1  0.591572  0.903738  0.308881  1
  H  H24  1  0.740182  0.333542  0.179651  1
  H  H25  1  0.759818  0.833542  0.820349  1
  H  H26  1  0.240182  0.666458  0.320349  1
  H  H27  1  0.259818  0.166458  0.679651  1
  H  H28  1  0.259818  0.666458  0.820349  1
  H  H29  1  0.240182  0.166458  0.179651  1
  H  H30  1  0.759818  0.333542  0.679651  1
  H  H31  1  0.740182  0.833542  0.320349  1
  H  H32  1  0.415222  0.101533  0.162222  1
  H  H33  1  0.084778  0.601533  0.837778  1
  H  H34  1  0.915222  0.898467  0.337778  1
  H  H35  1  0.584778  0.398467  0.662222  1
  H  H36  1  0.584778  0.898467  0.837778  1
  H  H37  1  0.915222  0.398467  0.162222  1
  H  H38  1  0.084778  0.101533  0.662222  1
  H  H39  1  0.415222  0.601533  0.337778  1
  H  H40  1  0.429038  0.115353  0.925221  1
  H  H41  1  0.070962  0.615353  0.074779  1
  H  H42  1  0.929038  0.884647  0.574779  1
  H  H43  1  0.570962  0.384647  0.425221  1
  H  H44  1  0.570962  0.884647  0.074779  1
  H  H45  1  0.929038  0.384647  0.925221  1
  H  H46  1  0.070962  0.115353  0.425221  1
  H  H47  1  0.429038  0.615353  0.574779  1
  H  H48  1  0.604038  0.410327  0.927850  1
  H  H49  1  0.895962  0.910327  0.072150  1
  H  H50  1  0.104038  0.589673  0.572150  1
  H  H51  1  0.395962  0.089673  0.427850  1
  H  H52  1  0.395962  0.589673  0.072150  1
  H  H53  1  0.104038  0.089673  0.927850  1
  H  H54  1  0.895962  0.410327  0.427850  1
  H  H55  1  0.604038  0.910327  0.572150  1
  H  H56  1  0.756010  0.331024  0.925805  1
  H  H57  1  0.743990  0.831024  0.074195  1
  H  H58  1  0.256010  0.668976  0.574195  1
  H  H59  1  0.243990  0.168976  0.425805  1
  H  H60  1  0.243990  0.668976  0.074195  1
  H  H61  1  0.256010  0.168976  0.925805  1
  H  H62  1  0.743990  0.331024  0.425805  1
  H  H63  1  0.756010  0.831024  0.574195  1
  N  N64  1  0.737798  0.088108  0.055202  1
  N  N65  1  0.762202  0.588108  0.944798  1
  N  N66  1  0.237798  0.911892  0.444798  1
  N  N67  1  0.262202  0.411892  0.555202  1
  N  N68  1  0.262202  0.911892  0.944798  1
  N  N69  1  0.237798  0.411892  0.055202  1
  N  N70  1  0.762202  0.088108  0.555202  1
  N  N71  1  0.737798  0.588108  0.444798  1
  N  N72  1  0.730498  0.090527  0.810213  1
  N  N73  1  0.769502  0.590527  0.189787  1
  N  N74  1  0.230498  0.909473  0.689787  1
  N  N75  1  0.269502  0.409473  0.310213  1
  N  N76  1  0.269502  0.909473  0.189787  1
  N  N77  1  0.230498  0.409473  0.810213  1
  N  N78  1  0.769502  0.090527  0.310213  1
  N  N79  1  0.730498  0.590527  0.689787  1
  O  O80  1  0.872249  0.058571  0.062905  1
  O  O81  1  0.627751  0.558571  0.937095  1
  O  O82  1  0.372249  0.941429  0.437095  1
  O  O83  1  0.127751  0.441429  0.562905  1
  O  O84  1  0.127751  0.941429  0.937095  1
  O  O85  1  0.372249  0.441429  0.062905  1
  O  O86  1  0.627751  0.058571  0.562905  1
  O  O87  1  0.872249  0.558571  0.437095  1
  O  O88  1  0.626817  0.035689  0.054305  1
  O  O89  1  0.873183  0.535689  0.945695  1
  O  O90  1  0.126817  0.964311  0.445695  1
  O  O91  1  0.373183  0.464311  0.554305  1
  O  O92  1  0.373183  0.964311  0.945695  1
  O  O93  1  0.126817  0.464311  0.054305  1
  O  O94  1  0.873183  0.035689  0.554305  1
  O  O95  1  0.626817  0.535689  0.445695  1
  O  O96  1  0.721188  0.178869  0.047683  1
  O  O97  1  0.778812  0.678869  0.952317  1
  O  O98  1  0.221188  0.821131  0.452317  1
  O  O99  1  0.278812  0.321131  0.547683  1
  O  O100  1  0.278812  0.821131  0.952317  1
  O  O101  1  0.221188  0.321131  0.047683  1
  O  O102  1  0.778812  0.178869  0.547683  1
  O  O103  1  0.721188  0.678869  0.452317  1
  O  O104  1  0.862337  0.056117  0.813672  1
  O  O105  1  0.637663  0.556117  0.186328  1
  O  O106  1  0.362337  0.943883  0.686328  1
  O  O107  1  0.137663  0.443883  0.313672  1
  O  O108  1  0.137663  0.943883  0.186328  1
  O  O109  1  0.362337  0.443883  0.813672  1
  O  O110  1  0.637663  0.056117  0.313672  1
  O  O111  1  0.862337  0.556117  0.686328  1
  O  O112  1  0.614413  0.043024  0.819238  1
  O  O113  1  0.885587  0.543024  0.180762  1
  O  O114  1  0.114413  0.956976  0.680762  1
  O  O115  1  0.385587  0.456976  0.319238  1
  O  O116  1  0.385587  0.956976  0.180762  1
  O  O117  1  0.114413  0.456976  0.819238  1
  O  O118  1  0.885587  0.043024  0.319238  1
  O  O119  1  0.614413  0.543024  0.680762  1
  O  O120  1  0.720982  0.180815  0.796575  1
  O  O121  1  0.779018  0.680815  0.203425  1
  O  O122  1  0.220982  0.819185  0.703425  1
  O  O123  1  0.279018  0.319185  0.296575  1
  O  O124  1  0.279018  0.819185  0.203425  1
  O  O125  1  0.220982  0.319185  0.796575  1
  O  O126  1  0.779018  0.180815  0.296575  1
  O  O127  1  0.720982  0.680815  0.703425  1
  O  O128  1  0.615594  0.336529  0.184870  1
  O  O129  1  0.884406  0.836529  0.815130  1
  O  O130  1  0.115594  0.663471  0.315130  1
  O  O131  1  0.384406  0.163471  0.684870  1
  O  O132  1  0.384406  0.663471  0.815130  1
  O  O133  1  0.115594  0.163471  0.184870  1
  O  O134  1  0.884406  0.336529  0.684870  1
  O  O135  1  0.615594  0.836529  0.315130  1
  O  O136  1  0.395080  0.168882  0.171099  1
  O  O137  1  0.104920  0.668882  0.828901  1
  O  O138  1  0.895080  0.831118  0.328901  1
  O  O139  1  0.604920  0.331118  0.671099  1
  O  O140  1  0.604920  0.831118  0.828901  1
  O  O141  1  0.895080  0.331118  0.171099  1
  O  O142  1  0.104920  0.168882  0.671099  1
  O  O143  1  0.395080  0.668882  0.328901  1
  O  O144  1  0.389920  0.179861  0.926126  1
  O  O145  1  0.110080  0.679861  0.073874  1
  O  O146  1  0.889920  0.820139  0.573874  1
  O  O147  1  0.610080  0.320139  0.426126  1
  O  O148  1  0.610080  0.820139  0.073874  1
  O  O149  1  0.889920  0.320139  0.926126  1
  O  O150  1  0.110080  0.179861  0.426126  1
  O  O151  1  0.389920  0.679861  0.573874  1
  O  O152  1  0.616102  0.341655  0.925874  1
  O  O153  1  0.883898  0.841655  0.074126  1
  O  O154  1  0.116102  0.658345  0.574126  1
  O  O155  1  0.383898  0.158345  0.425874  1
  O  O156  1  0.383898  0.658345  0.074126  1
  O  O157  1  0.116102  0.158345  0.925874  1
  O  O158  1  0.883898  0.341655  0.425874  1
  O  O159  1  0.616102  0.841655  0.574126  1
