# generated using pymatgen
data_K2InH2Cl5O
_symmetry_space_group_name_H-M   'P 1'
_cell_length_a   7.34490911
_cell_length_b   10.05580702
_cell_length_c   14.15542927
_cell_angle_alpha   90.00000000
_cell_angle_beta   90.00000000
_cell_angle_gamma   90.00000000
_symmetry_Int_Tables_number   1
_chemical_formula_structural   K2InH2Cl5O
_chemical_formula_sum   'K8 In4 H8 Cl20 O4'
_cell_volume   1045.50568893
_cell_formula_units_Z   4
loop_
 _symmetry_equiv_pos_site_id
 _symmetry_equiv_pos_as_xyz
  1  'x, y, z'
loop_
 _atom_site_type_symbol
 _atom_site_label
 _atom_site_symmetry_multiplicity
 _atom_site_fract_x
 _atom_site_fract_y
 _atom_site_fract_z
 _atom_site_occupancy
  K  K0  1  0.641004  0.999723  0.147475  1
  K  K1  1  0.641004  0.500277  0.147475  1
  K  K2  1  0.141004  0.000277  0.352525  1
  K  K3  1  0.141004  0.499723  0.352525  1
  K  K4  1  0.858996  0.500277  0.647475  1
  K  K5  1  0.858996  0.999723  0.647475  1
  K  K6  1  0.358996  0.000277  0.852525  1
  K  K7  1  0.358996  0.499723  0.852525  1
  In  In8  1  0.186795  0.750000  0.113357  1
  In  In9  1  0.686795  0.250000  0.386643  1
  In  In10  1  0.313205  0.750000  0.613357  1
  In  In11  1  0.813205  0.250000  0.886643  1
  H  H12  1  0.042860  0.170190  0.047243  1
  H  H13  1  0.042860  0.329810  0.047243  1
  H  H14  1  0.542860  0.829810  0.452757  1
  H  H15  1  0.542860  0.670190  0.452757  1
  H  H16  1  0.457140  0.329810  0.547243  1
  H  H17  1  0.457140  0.170190  0.547243  1
  H  H18  1  0.957140  0.829810  0.952757  1
  H  H19  1  0.957140  0.670190  0.952757  1
  Cl  Cl20  1  0.458341  0.750000  0.002417  1
  Cl  Cl21  1  0.184615  0.001362  0.105977  1
  Cl  Cl22  1  0.184615  0.498638  0.105977  1
  Cl  Cl23  1  0.909984  0.750000  0.217763  1
  Cl  Cl24  1  0.894814  0.250000  0.243980  1
  Cl  Cl25  1  0.394814  0.750000  0.256020  1
  Cl  Cl26  1  0.409984  0.250000  0.282237  1
  Cl  Cl27  1  0.684615  0.501362  0.394023  1
  Cl  Cl28  1  0.684615  0.998638  0.394023  1
  Cl  Cl29  1  0.958341  0.250000  0.497583  1
  Cl  Cl30  1  0.041659  0.750000  0.502417  1
  Cl  Cl31  1  0.315385  0.001362  0.605977  1
  Cl  Cl32  1  0.315385  0.498638  0.605977  1
  Cl  Cl33  1  0.590016  0.750000  0.717763  1
  Cl  Cl34  1  0.605186  0.250000  0.743980  1
  Cl  Cl35  1  0.105186  0.750000  0.756020  1
  Cl  Cl36  1  0.090016  0.250000  0.782237  1
  Cl  Cl37  1  0.815385  0.501362  0.894023  1
  Cl  Cl38  1  0.815385  0.998638  0.894023  1
  Cl  Cl39  1  0.541659  0.250000  0.997583  1
  O  O40  1  0.003553  0.250000  0.011997  1
  O  O41  1  0.503553  0.750000  0.488003  1
  O  O42  1  0.496447  0.250000  0.511997  1
  O  O43  1  0.996447  0.750000  0.988003  1
