# generated using pymatgen
data_YHO2
_symmetry_space_group_name_H-M   'P 1'
_cell_length_a   3.55812886
_cell_length_b   4.92174341
_cell_length_c   11.21878116
_cell_angle_alpha   90.00000000
_cell_angle_beta   90.00000000
_cell_angle_gamma   90.00000000
_symmetry_Int_Tables_number   1
_chemical_formula_structural   YHO2
_chemical_formula_sum   'Y4 H4 O8'
_cell_volume   196.46550879
_cell_formula_units_Z   4
loop_
 _symmetry_equiv_pos_site_id
 _symmetry_equiv_pos_as_xyz
  1  'x, y, z'
loop_
 _atom_site_type_symbol
 _atom_site_label
 _atom_site_symmetry_multiplicity
 _atom_site_fract_x
 _atom_site_fract_y
 _atom_site_fract_z
 _atom_site_occupancy
  Y  Y0  1  0.250000  0.061303  0.855737  1
  Y  Y1  1  0.250000  0.438697  0.355737  1
  Y  Y2  1  0.750000  0.561303  0.644263  1
  Y  Y3  1  0.750000  0.938697  0.144263  1
  H  H4  1  0.250000  0.100725  0.587466  1
  H  H5  1  0.250000  0.399275  0.087466  1
  H  H6  1  0.750000  0.600725  0.912534  1
  H  H7  1  0.750000  0.899275  0.412534  1
  O  O8  1  0.250000  0.208425  0.058508  1
  O  O9  1  0.750000  0.191918  0.307703  1
  O  O10  1  0.750000  0.308082  0.807703  1
  O  O11  1  0.250000  0.291575  0.558508  1
  O  O12  1  0.750000  0.708425  0.441492  1
  O  O13  1  0.250000  0.691918  0.192297  1
  O  O14  1  0.250000  0.808082  0.692297  1
  O  O15  1  0.750000  0.791575  0.941492  1
