# generated using pymatgen
data_CaH12(IO6)2
_symmetry_space_group_name_H-M   'P 1'
_cell_length_a   13.80171486
_cell_length_b   12.00346015
_cell_length_c   8.16883332
_cell_angle_alpha   84.05092703
_cell_angle_beta   59.88544469
_cell_angle_gamma   36.06362828
_symmetry_Int_Tables_number   1
_chemical_formula_structural   CaH12(IO6)2
_chemical_formula_sum   'Ca2 H24 I4 O24'
_cell_volume   554.93385599
_cell_formula_units_Z   2
loop_
 _symmetry_equiv_pos_site_id
 _symmetry_equiv_pos_as_xyz
  1  'x, y, z'
loop_
 _atom_site_type_symbol
 _atom_site_label
 _atom_site_symmetry_multiplicity
 _atom_site_fract_x
 _atom_site_fract_y
 _atom_site_fract_z
 _atom_site_occupancy
  Ca  Ca0  1  0.067140  0.432860  0.432860  1
  Ca  Ca1  1  0.817140  0.182860  0.182860  1
  H  H2  1  0.168502  0.071228  0.878036  1
  H  H3  1  0.908968  0.647637  0.192083  1
  H  H4  1  0.272237  0.646162  0.857454  1
  H  H5  1  0.691807  0.861444  0.458741  1
  H  H6  1  0.149505  0.050890  0.082091  1
  H  H7  1  0.328603  0.695598  0.917027  1
  H  H8  1  0.332973  0.191229  0.921397  1
  H  H9  1  0.167909  0.532485  0.100495  1
  H  H10  1  0.791259  0.261993  0.558193  1
  H  H11  1  0.392546  0.025852  0.977763  1
  H  H12  1  0.057917  0.998688  0.341032  1
  H  H13  1  0.371964  0.367766  0.081498  1
  H  H14  1  0.178772  0.081498  0.367766  1
  H  H15  1  0.602363  0.341032  0.998688  1
  H  H16  1  0.603838  0.977763  0.025852  1
  H  H17  1  0.388556  0.558193  0.261993  1
  H  H18  1  0.199110  0.100495  0.532485  1
  H  H19  1  0.554402  0.921397  0.191229  1
  H  H20  1  0.058771  0.917027  0.695598  1
  H  H21  1  0.717515  0.082091  0.050890  1
  H  H22  1  0.988007  0.458741  0.861444  1
  H  H23  1  0.224148  0.857454  0.646162  1
  H  H24  1  0.251312  0.192083  0.647637  1
  H  H25  1  0.882234  0.878036  0.071228  1
  I  I26  1  0.657156  0.622783  0.373790  1
  I  I27  1  0.876210  0.903728  0.592844  1
  I  I28  1  0.627217  0.592844  0.903728  1
  I  I29  1  0.346272  0.373790  0.622783  1
  O  O30  1  0.086323  0.600885  0.943006  1
  O  O31  1  0.467976  0.400017  0.579007  1
  O  O32  1  0.054203  0.141925  0.047303  1
  O  O33  1  0.524264  0.120821  0.634512  1
  O  O34  1  0.815785  0.695608  0.352747  1
  O  O35  1  0.201490  0.754168  0.988901  1
  O  O36  1  0.261099  0.194559  0.048510  1
  O  O37  1  0.897253  0.114140  0.434215  1
  O  O38  1  0.615488  0.529596  0.725736  1
  O  O39  1  0.202697  0.493431  0.195797  1
  O  O40  1  0.670993  0.697000  0.782024  1
  O  O41  1  0.306994  0.880214  0.163677  1
  O  O42  1  0.649115  0.163677  0.880214  1
  O  O43  1  0.849983  0.782024  0.697000  1
  O  O44  1  0.108075  0.195797  0.493431  1
  O  O45  1  0.129179  0.725736  0.529596  1
  O  O46  1  0.554392  0.434215  0.114140  1
  O  O47  1  0.495832  0.048510  0.194559  1
  O  O48  1  0.055441  0.988901  0.754168  1
  O  O49  1  0.135860  0.352747  0.695608  1
  O  O50  1  0.720404  0.634512  0.120821  1
  O  O51  1  0.756569  0.047303  0.141925  1
  O  O52  1  0.553000  0.579007  0.400017  1
  O  O53  1  0.369786  0.943006  0.600885  1
