# generated using pymatgen
data_Li3Fe3OF7
_symmetry_space_group_name_H-M   'P 1'
_cell_length_a   5.18893379
_cell_length_b   3.11863896
_cell_length_c   10.25965345
_cell_angle_alpha   90.00000000
_cell_angle_beta   90.22927950
_cell_angle_gamma   90.00000000
_symmetry_Int_Tables_number   1
_chemical_formula_structural   Li3Fe3OF7
_chemical_formula_sum   'Li3 Fe3 O1 F7'
_cell_volume   166.02460045
_cell_formula_units_Z   1
loop_
 _symmetry_equiv_pos_site_id
 _symmetry_equiv_pos_as_xyz
  1  'x, y, z'
loop_
 _atom_site_type_symbol
 _atom_site_label
 _atom_site_symmetry_multiplicity
 _atom_site_fract_x
 _atom_site_fract_y
 _atom_site_fract_z
 _atom_site_occupancy
  Li  Li0  1  0.611703  0.000000  0.956643  1
  Li  Li1  1  0.524837  0.000000  0.642972  1
  Li  Li2  1  0.053720  0.500000  0.552501  1
  Fe  Fe3  1  0.977201  0.000000  0.128472  1
  Fe  Fe4  1  0.478766  0.500000  0.364883  1
  Fe  Fe5  1  0.034465  0.500000  0.863884  1
  O  O6  1  0.817858  0.500000  0.024039  1
  F  F7  1  0.789150  0.000000  0.780814  1
  F  F8  1  0.696341  0.500000  0.536589  1
  F  F9  1  0.679301  0.000000  0.282541  1
  F  F10  1  0.268550  0.500000  0.704692  1
  F  F11  1  0.257198  0.000000  0.472065  1
  F  F12  1  0.259814  0.000000  0.958387  1
  F  F13  1  0.176935  0.500000  0.231519  1
