# generated using pymatgen
data_LiVP2O7
_symmetry_space_group_name_H-M   'P 1'
_cell_length_a   6.46063205
_cell_length_b   9.33179299
_cell_length_c   10.62864949
_cell_angle_alpha   114.76725648
_cell_angle_beta   85.89362630
_cell_angle_gamma   106.94610834
_symmetry_Int_Tables_number   1
_chemical_formula_structural   LiVP2O7
_chemical_formula_sum   'Li4 V4 P8 O28'
_cell_volume   555.64569057
_cell_formula_units_Z   4
loop_
 _symmetry_equiv_pos_site_id
 _symmetry_equiv_pos_as_xyz
  1  'x, y, z'
loop_
 _atom_site_type_symbol
 _atom_site_label
 _atom_site_symmetry_multiplicity
 _atom_site_fract_x
 _atom_site_fract_y
 _atom_site_fract_z
 _atom_site_occupancy
  Li  Li0  1  0.120330  0.079543  0.085944  1
  Li  Li1  1  0.570907  0.510211  0.973786  1
  Li  Li2  1  0.962645  0.862067  0.515790  1
  Li  Li3  1  0.651395  0.066116  0.598665  1
  V  V4  1  0.720785  0.096314  0.227261  1
  V  V5  1  0.632201  0.495223  0.248972  1
  V  V6  1  0.352997  0.495140  0.739574  1
  V  V7  1  0.283651  0.895413  0.780708  1
  P  P8  1  0.118038  0.443729  0.294626  1
  P  P9  1  0.925608  0.805656  0.204402  1
  P  P10  1  0.310504  0.800536  0.044454  1
  P  P11  1  0.413956  0.697536  0.534881  1
  P  P12  1  0.077045  0.174006  0.795948  1
  P  P13  1  0.880069  0.550502  0.699225  1
  P  P14  1  0.582621  0.303351  0.462946  1
  P  P15  1  0.698443  0.189436  0.957078  1
  O  O16  1  0.360923  0.859951  0.567760  1
  O  O17  1  0.928112  0.271643  0.910316  1
  O  O18  1  0.607876  0.333936  0.040774  1
  O  O19  1  0.390114  0.655914  0.944094  1
  O  O20  1  0.947603  0.516985  0.275882  1
  O  O21  1  0.571347  0.294800  0.312289  1
  O  O22  1  0.712470  0.661868  0.168134  1
  O  O23  1  0.387374  0.336646  0.543954  1
  O  O24  1  0.789210  0.458683  0.537935  1
  O  O25  1  0.736444  0.097117  0.038286  1
  O  O26  1  0.563727  0.070905  0.819377  1
  O  O27  1  0.282519  0.307887  0.799506  1
  O  O28  1  0.018278  0.874797  0.349266  1
  O  O29  1  0.132314  0.066372  0.859930  1
  O  O30  1  0.266438  0.906572  0.976987  1
  O  O31  1  0.023551  0.262712  0.270361  1
  O  O32  1  0.037759  0.465592  0.718377  1
  O  O33  1  0.209702  0.543717  0.456136  1
  O  O34  1  0.615535  0.676029  0.453513  1
  O  O35  1  0.899409  0.937230  0.159312  1
  O  O36  1  0.318382  0.464590  0.210660  1
  O  O37  1  0.945329  0.071854  0.658271  1
  O  O38  1  0.453347  0.912768  0.178097  1
  O  O39  1  0.422935  0.697207  0.682311  1
  O  O40  1  0.678609  0.525565  0.782710  1
  O  O41  1  0.083653  0.716299  0.091125  1
  O  O42  1  0.990579  0.726694  0.717341  1
  O  O43  1  0.641499  0.146556  0.441462  1
