# generated using pymatgen
data_Na3SiH5O6
_symmetry_space_group_name_H-M   'P 1'
_cell_length_a   6.16233947
_cell_length_b   10.55657699
_cell_length_c   18.90402219
_cell_angle_alpha   90.00000000
_cell_angle_beta   90.00000000
_cell_angle_gamma   90.00000000
_symmetry_Int_Tables_number   1
_chemical_formula_structural   Na3SiH5O6
_chemical_formula_sum   'Na24 Si8 H40 O48'
_cell_volume   1229.76734529
_cell_formula_units_Z   8
loop_
 _symmetry_equiv_pos_site_id
 _symmetry_equiv_pos_as_xyz
  1  'x, y, z'
loop_
 _atom_site_type_symbol
 _atom_site_label
 _atom_site_symmetry_multiplicity
 _atom_site_fract_x
 _atom_site_fract_y
 _atom_site_fract_z
 _atom_site_occupancy
  Na  Na0  1  0.782219  0.507390  0.182877  1
  Na  Na1  1  0.217781  0.007390  0.317123  1
  Na  Na2  1  0.717781  0.492610  0.682877  1
  Na  Na3  1  0.282219  0.992610  0.817123  1
  Na  Na4  1  0.217781  0.492610  0.817123  1
  Na  Na5  1  0.782219  0.992610  0.682877  1
  Na  Na6  1  0.282219  0.507390  0.317123  1
  Na  Na7  1  0.717781  0.007390  0.182877  1
  Na  Na8  1  0.969128  0.784635  0.109136  1
  Na  Na9  1  0.030872  0.284635  0.390864  1
  Na  Na10  1  0.530872  0.215365  0.609136  1
  Na  Na11  1  0.469128  0.715365  0.890864  1
  Na  Na12  1  0.030872  0.215365  0.890864  1
  Na  Na13  1  0.969128  0.715365  0.609136  1
  Na  Na14  1  0.469128  0.784635  0.390864  1
  Na  Na15  1  0.530872  0.284635  0.109136  1
  Na  Na16  1  0.261867  0.450220  0.985263  1
  Na  Na17  1  0.738133  0.950220  0.514737  1
  Na  Na18  1  0.238133  0.549780  0.485263  1
  Na  Na19  1  0.761867  0.049780  0.014737  1
  Na  Na20  1  0.738133  0.549780  0.014737  1
  Na  Na21  1  0.261867  0.049780  0.485263  1
  Na  Na22  1  0.761867  0.450220  0.514737  1
  Na  Na23  1  0.238133  0.950220  0.985263  1
  Si  Si24  1  0.271914  0.570760  0.128885  1
  Si  Si25  1  0.728086  0.070760  0.371115  1
  Si  Si26  1  0.228086  0.429240  0.628885  1
  Si  Si27  1  0.771914  0.929240  0.871115  1
  Si  Si28  1  0.728086  0.429240  0.871115  1
  Si  Si29  1  0.271914  0.929240  0.628885  1
  Si  Si30  1  0.771914  0.570760  0.371115  1
  Si  Si31  1  0.228086  0.070760  0.128885  1
  H  H32  1  0.181954  0.390709  0.186786  1
  H  H33  1  0.818046  0.890709  0.313214  1
  H  H34  1  0.318046  0.609291  0.686786  1
  H  H35  1  0.681954  0.109291  0.813214  1
  H  H36  1  0.818046  0.609291  0.813214  1
  H  H37  1  0.181954  0.109291  0.686786  1
  H  H38  1  0.681954  0.390709  0.313214  1
  H  H39  1  0.318046  0.890709  0.186786  1
  H  H40  1  0.113977  0.667038  0.007090  1
  H  H41  1  0.886023  0.167038  0.492910  1
  H  H42  1  0.386023  0.332962  0.507090  1
  H  H43  1  0.613977  0.832962  0.992910  1
  H  H44  1  0.886023  0.332962  0.992910  1
  H  H45  1  0.113977  0.832962  0.507090  1
  H  H46  1  0.613977  0.667038  0.492910  1
  H  H47  1  0.386023  0.167038  0.007090  1
  H  H48  1  0.528581  0.765848  0.066391  1
  H  H49  1  0.471419  0.265848  0.433609  1
  H  H50  1  0.971419  0.234152  0.566391  1
  H  H51  1  0.028581  0.734152  0.933609  1
  H  H52  1  0.471419  0.234152  0.933609  1
  H  H53  1  0.528581  0.734152  0.566391  1
  H  H54  1  0.028581  0.765848  0.433609  1
  H  H55  1  0.971419  0.265848  0.066391  1
  H  H56  1  0.567722  0.731231  0.188746  1
  H  H57  1  0.432278  0.231231  0.311254  1
  H  H58  1  0.932278  0.268769  0.688746  1
  H  H59  1  0.067722  0.768769  0.811254  1
  H  H60  1  0.432278  0.268769  0.811254  1
  H  H61  1  0.567722  0.768769  0.688746  1
  H  H62  1  0.067722  0.731231  0.311254  1
  H  H63  1  0.932278  0.231231  0.188746  1
  H  H64  1  0.247808  0.731787  0.247306  1
  H  H65  1  0.752192  0.231787  0.252694  1
  H  H66  1  0.252192  0.268213  0.747306  1
  H  H67  1  0.747808  0.768213  0.752694  1
  H  H68  1  0.752192  0.268213  0.752694  1
  H  H69  1  0.247808  0.768213  0.747306  1
  H  H70  1  0.747808  0.731787  0.252694  1
  H  H71  1  0.252192  0.231787  0.247306  1
  O  O72  1  0.483336  0.497385  0.098002  1
  O  O73  1  0.516664  0.997385  0.401998  1
  O  O74  1  0.016664  0.502615  0.598002  1
  O  O75  1  0.983336  0.002615  0.901998  1
  O  O76  1  0.516664  0.502615  0.901998  1
  O  O77  1  0.483336  0.002615  0.598002  1
  O  O78  1  0.983336  0.497385  0.401998  1
  O  O79  1  0.016664  0.997385  0.098002  1
  O  O80  1  0.319380  0.713060  0.161222  1
  O  O81  1  0.680620  0.213060  0.338778  1
  O  O82  1  0.180620  0.286940  0.661222  1
  O  O83  1  0.819380  0.786940  0.838778  1
  O  O84  1  0.680620  0.286940  0.838778  1
  O  O85  1  0.319380  0.786940  0.661222  1
  O  O86  1  0.819380  0.713060  0.338778  1
  O  O87  1  0.180620  0.213060  0.161222  1
  O  O88  1  0.072028  0.578714  0.071338  1
  O  O89  1  0.927972  0.078714  0.428662  1
  O  O90  1  0.427972  0.421286  0.571338  1
  O  O91  1  0.572028  0.921286  0.928662  1
  O  O92  1  0.927972  0.421286  0.928662  1
  O  O93  1  0.072028  0.921286  0.571338  1
  O  O94  1  0.572028  0.578714  0.428662  1
  O  O95  1  0.427972  0.078714  0.071338  1
  O  O96  1  0.171895  0.482026  0.198100  1
  O  O97  1  0.828105  0.982026  0.301900  1
  O  O98  1  0.328105  0.517974  0.698100  1
  O  O99  1  0.671895  0.017974  0.801900  1
  O  O100  1  0.828105  0.517974  0.801900  1
  O  O101  1  0.171895  0.017974  0.698100  1
  O  O102  1  0.671895  0.482026  0.301900  1
  O  O103  1  0.328105  0.982026  0.198100  1
  O  O104  1  0.650986  0.770086  0.033304  1
  O  O105  1  0.349014  0.270086  0.466696  1
  O  O106  1  0.849014  0.229914  0.533304  1
  O  O107  1  0.150986  0.729914  0.966696  1
  O  O108  1  0.349014  0.229914  0.966696  1
  O  O109  1  0.650986  0.729914  0.533304  1
  O  O110  1  0.150986  0.770086  0.466696  1
  O  O111  1  0.849014  0.270086  0.033304  1
  O  O112  1  0.727364  0.744435  0.200293  1
  O  O113  1  0.272636  0.244435  0.299707  1
  O  O114  1  0.772636  0.255565  0.700293  1
  O  O115  1  0.227364  0.755565  0.799707  1
  O  O116  1  0.272636  0.255565  0.799707  1
  O  O117  1  0.727364  0.755565  0.700293  1
  O  O118  1  0.227364  0.744435  0.299707  1
  O  O119  1  0.772636  0.244435  0.200293  1
