# generated using pymatgen
data_Li7Ti11O24
_symmetry_space_group_name_H-M   'P 1'
_cell_length_a   10.31279502
_cell_length_b   10.31279502
_cell_length_c   8.43597937
_cell_angle_alpha   66.00305979
_cell_angle_beta   113.99694021
_cell_angle_gamma   146.36769806
_symmetry_Int_Tables_number   1
_chemical_formula_structural   Li7Ti11O24
_chemical_formula_sum   'Li7 Ti11 O24'
_cell_volume   449.84509336
_cell_formula_units_Z   1
loop_
 _symmetry_equiv_pos_site_id
 _symmetry_equiv_pos_as_xyz
  1  'x, y, z'
loop_
 _atom_site_type_symbol
 _atom_site_label
 _atom_site_symmetry_multiplicity
 _atom_site_fract_x
 _atom_site_fract_y
 _atom_site_fract_z
 _atom_site_occupancy
  Li  Li0  1  0.083660  0.916340  0.205366  1
  Li  Li1  1  0.751234  0.248766  0.876153  1
  Li  Li2  1  0.248766  0.751234  0.123847  1
  Li  Li3  1  0.581880  0.418120  0.458157  1
  Li  Li4  1  0.418120  0.581880  0.541843  1
  Li  Li5  1  0.916340  0.083660  0.794634  1
  Li  Li6  1  0.500000  0.500000  0.000000  1
  Ti  Ti7  1  0.337626  0.662374  0.834478  1
  Ti  Ti8  1  0.166612  0.833388  0.667949  1
  Ti  Ti9  1  0.663520  0.825391  0.161713  1
  Ti  Ti10  1  0.174609  0.336480  0.161713  1
  Ti  Ti11  1  0.833388  0.166612  0.332051  1
  Ti  Ti12  1  0.000000  0.000000  0.500000  1
  Ti  Ti13  1  0.662374  0.337626  0.165522  1
  Ti  Ti14  1  0.825391  0.663520  0.838287  1
  Ti  Ti15  1  0.500000  1.000000  0.500000  1
  Ti  Ti16  1  0.336480  0.174609  0.838287  1
  Ti  Ti17  1  0.000000  0.500000  0.500000  1
  O  O18  1  0.674182  0.325818  0.412238  1
  O  O19  1  0.175298  0.824702  0.437256  1
  O  O20  1  0.472447  0.972921  0.736929  1
  O  O21  1  0.027079  0.527553  0.736929  1
  O  O22  1  0.644175  0.820905  0.928793  1
  O  O23  1  0.179095  0.355825  0.928793  1
  O  O24  1  0.341759  0.658241  0.079732  1
  O  O25  1  0.488588  0.511412  0.238185  1
  O  O26  1  0.157613  0.842387  0.892609  1
  O  O27  1  0.992193  0.007807  0.253227  1
  O  O28  1  0.842387  0.157613  0.107391  1
  O  O29  1  0.658241  0.341759  0.920268  1
  O  O30  1  0.140038  0.306339  0.403787  1
  O  O31  1  0.693661  0.859962  0.403787  1
  O  O32  1  0.972921  0.472447  0.263071  1
  O  O33  1  0.859962  0.693661  0.596213  1
  O  O34  1  0.527553  0.027079  0.263071  1
  O  O35  1  0.306339  0.140038  0.596213  1
  O  O36  1  0.007807  0.992193  0.746773  1
  O  O37  1  0.824702  0.175298  0.562744  1
  O  O38  1  0.511412  0.488588  0.761815  1
  O  O39  1  0.325818  0.674182  0.587762  1
  O  O40  1  0.820905  0.644175  0.071207  1
  O  O41  1  0.355825  0.179095  0.071207  1
