# generated using pymatgen
data_BaY3Br11
_symmetry_space_group_name_H-M   'P 1'
_cell_length_a   5.66029191
_cell_length_b   10.88951725
_cell_length_c   20.44134019
_cell_angle_alpha   90.00000000
_cell_angle_beta   90.00000000
_cell_angle_gamma   90.00000000
_symmetry_Int_Tables_number   1
_chemical_formula_structural   BaY3Br11
_chemical_formula_sum   'Ba2 Y6 Br22'
_cell_volume   1259.96018672
_cell_formula_units_Z   2
loop_
 _symmetry_equiv_pos_site_id
 _symmetry_equiv_pos_as_xyz
  1  'x, y, z'
loop_
 _atom_site_type_symbol
 _atom_site_label
 _atom_site_symmetry_multiplicity
 _atom_site_fract_x
 _atom_site_fract_y
 _atom_site_fract_z
 _atom_site_occupancy
  Ba  Ba0  1  0.000000  0.250000  0.010008  1
  Ba  Ba1  1  0.000000  0.750000  0.989992  1
  Y  Y2  1  0.000000  0.501279  0.236652  1
  Y  Y3  1  0.000000  0.998721  0.236652  1
  Y  Y4  1  0.000000  0.500000  0.500000  1
  Y  Y5  1  0.000000  0.000000  0.500000  1
  Y  Y6  1  0.000000  0.498721  0.763348  1
  Y  Y7  1  0.000000  0.001279  0.763348  1
  Br  Br8  1  0.500000  0.250000  0.062613  1
  Br  Br9  1  0.000000  0.535166  0.100887  1
  Br  Br10  1  0.000000  0.964834  0.100887  1
  Br  Br11  1  0.000000  0.250000  0.202702  1
  Br  Br12  1  0.500000  0.502048  0.238742  1
  Br  Br13  1  0.500000  0.997952  0.238742  1
  Br  Br14  1  0.000000  0.750000  0.273079  1
  Br  Br15  1  0.000000  0.427342  0.368497  1
  Br  Br16  1  0.000000  0.072658  0.368497  1
  Br  Br17  1  0.000000  0.750000  0.463257  1
  Br  Br18  1  0.500000  0.500000  0.500000  1
  Br  Br19  1  0.500000  0.000000  0.500000  1
  Br  Br20  1  0.000000  0.250000  0.536743  1
  Br  Br21  1  0.000000  0.572658  0.631503  1
  Br  Br22  1  0.000000  0.927342  0.631503  1
  Br  Br23  1  0.000000  0.250000  0.726921  1
  Br  Br24  1  0.500000  0.497952  0.761258  1
  Br  Br25  1  0.500000  0.002048  0.761258  1
  Br  Br26  1  0.000000  0.750000  0.797298  1
  Br  Br27  1  0.000000  0.464834  0.899113  1
  Br  Br28  1  0.000000  0.035166  0.899113  1
  Br  Br29  1  0.500000  0.750000  0.937387  1
