# generated using pymatgen
data_Cs3LaO3
_symmetry_space_group_name_H-M   'P 1'
_cell_length_a   7.80062795
_cell_length_b   7.80062795
_cell_length_c   7.83448545
_cell_angle_alpha   85.28075882
_cell_angle_beta   94.71924118
_cell_angle_gamma   63.54426526
_symmetry_Int_Tables_number   1
_chemical_formula_structural   Cs3LaO3
_chemical_formula_sum   'Cs6 La2 O6'
_cell_volume   421.56112651
_cell_formula_units_Z   2
loop_
 _symmetry_equiv_pos_site_id
 _symmetry_equiv_pos_as_xyz
  1  'x, y, z'
loop_
 _atom_site_type_symbol
 _atom_site_label
 _atom_site_symmetry_multiplicity
 _atom_site_fract_x
 _atom_site_fract_y
 _atom_site_fract_z
 _atom_site_occupancy
  Cs  Cs0  1  0.645602  0.354398  0.351471  1
  Cs  Cs1  1  0.787716  0.787716  0.500000  1
  Cs  Cs2  1  0.212284  0.212284  0.500000  1
  Cs  Cs3  1  0.741975  0.741975  0.000000  1
  Cs  Cs4  1  0.258025  0.258025  0.000000  1
  Cs  Cs5  1  0.354398  0.645602  0.648529  1
  La  La6  1  0.818692  0.181308  0.846295  1
  La  La7  1  0.181308  0.818692  0.153705  1
  O  O8  1  0.898032  0.101968  0.146687  1
  O  O9  1  0.546856  0.174168  0.731216  1
  O  O10  1  0.825832  0.453144  0.731216  1
  O  O11  1  0.453144  0.825832  0.268784  1
  O  O12  1  0.174168  0.546856  0.268784  1
  O  O13  1  0.101968  0.898032  0.853313  1
