# generated using pymatgen
data_V3O5F
_symmetry_space_group_name_H-M   'P 1'
_cell_length_a   5.52092510
_cell_length_b   5.52092510
_cell_length_c   7.32959302
_cell_angle_alpha   70.12253383
_cell_angle_beta   109.87746617
_cell_angle_gamma   108.16323608
_symmetry_Int_Tables_number   1
_chemical_formula_structural   V3O5F
_chemical_formula_sum   'V6 O10 F2'
_cell_volume   192.66342987
_cell_formula_units_Z   2
loop_
 _symmetry_equiv_pos_site_id
 _symmetry_equiv_pos_as_xyz
  1  'x, y, z'
loop_
 _atom_site_type_symbol
 _atom_site_label
 _atom_site_symmetry_multiplicity
 _atom_site_fract_x
 _atom_site_fract_y
 _atom_site_fract_z
 _atom_site_occupancy
  V  V0  1  0.673906  0.326094  0.153484  1
  V  V1  1  0.319430  0.680570  0.328674  1
  V  V2  1  0.656006  0.343994  0.681983  1
  V  V3  1  0.338220  0.661780  0.840359  1
  V  V4  1  0.999645  0.000355  0.484916  1
  V  V5  1  0.011988  0.988012  0.012591  1
  O  O6  1  0.637887  0.960048  0.340704  1
  O  O7  1  0.961041  0.631437  0.665809  1
  O  O8  1  0.237802  0.762198  0.034688  1
  O  O9  1  0.096908  0.903092  0.303392  1
  O  O10  1  0.772066  0.227934  0.962030  1
  O  O11  1  0.432665  0.567335  0.631140  1
  O  O12  1  0.696582  0.705904  0.993364  1
  O  O13  1  0.039952  0.362113  0.340704  1
  O  O14  1  0.368563  0.038959  0.665809  1
  O  O15  1  0.294096  0.303418  0.993364  1
  F  F16  1  0.564257  0.435743  0.367007  1
  F  F17  1  0.898988  0.101012  0.699982  1
