# generated using pymatgen
data_LiMn2(BO3)2
_symmetry_space_group_name_H-M   'P 1'
_cell_length_a   5.30123115
_cell_length_b   5.79378652
_cell_length_c   8.17209369
_cell_angle_alpha   79.64439650
_cell_angle_beta   89.96115527
_cell_angle_gamma   89.83424886
_symmetry_Int_Tables_number   1
_chemical_formula_structural   LiMn2(BO3)2
_chemical_formula_sum   'Li2 Mn4 B4 O12'
_cell_volume   246.90978214
_cell_formula_units_Z   2
loop_
 _symmetry_equiv_pos_site_id
 _symmetry_equiv_pos_as_xyz
  1  'x, y, z'
loop_
 _atom_site_type_symbol
 _atom_site_label
 _atom_site_symmetry_multiplicity
 _atom_site_fract_x
 _atom_site_fract_y
 _atom_site_fract_z
 _atom_site_occupancy
  Li  Li0  1  0.339471  0.054559  0.264931  1
  Li  Li1  1  0.660529  0.945441  0.735069  1
  Mn  Mn2  1  0.178281  0.188013  0.568586  1
  Mn  Mn3  1  0.298201  0.345017  0.916735  1
  Mn  Mn4  1  0.701799  0.654983  0.083265  1
  Mn  Mn5  1  0.821719  0.811987  0.431414  1
  B  B6  1  0.825099  0.153691  0.097084  1
  B  B7  1  0.670822  0.326126  0.412182  1
  B  B8  1  0.329178  0.673874  0.587818  1
  B  B9  1  0.174901  0.846309  0.902916  1
  O  O10  1  0.081453  0.163900  0.105537  1
  O  O11  1  0.310255  0.041982  0.815420  1
  O  O12  1  0.801899  0.145095  0.515414  1
  O  O13  1  0.419596  0.310214  0.385840  1
  O  O14  1  0.806207  0.516798  0.326777  1
  O  O15  1  0.322777  0.662729  0.984847  1
  O  O16  1  0.677223  0.337271  0.015153  1
  O  O17  1  0.193793  0.483202  0.673223  1
  O  O18  1  0.580404  0.689786  0.614160  1
  O  O19  1  0.198101  0.854905  0.484586  1
  O  O20  1  0.689745  0.958018  0.184580  1
  O  O21  1  0.918547  0.836100  0.894463  1
