# generated using pymatgen
data_RbVH24(SO10)2
_symmetry_space_group_name_H-M   'P 1'
_cell_length_a   12.40314643
_cell_length_b   12.40314643
_cell_length_c   12.40314643
_cell_angle_alpha   90.00000000
_cell_angle_beta   90.00000000
_cell_angle_gamma   90.00000000
_symmetry_Int_Tables_number   1
_chemical_formula_structural   RbVH24(SO10)2
_chemical_formula_sum   'Rb4 V4 H96 S8 O80'
_cell_volume   1908.07575354
_cell_formula_units_Z   4
loop_
 _symmetry_equiv_pos_site_id
 _symmetry_equiv_pos_as_xyz
  1  'x, y, z'
loop_
 _atom_site_type_symbol
 _atom_site_label
 _atom_site_symmetry_multiplicity
 _atom_site_fract_x
 _atom_site_fract_y
 _atom_site_fract_z
 _atom_site_occupancy
  Rb  Rb0  1  0.000000  0.000000  0.500000  1
  Rb  Rb1  1  0.000000  0.500000  0.000000  1
  Rb  Rb2  1  0.500000  0.000000  0.000000  1
  Rb  Rb3  1  0.500000  0.500000  0.500000  1
  V  V4  1  0.500000  0.500000  0.000000  1
  V  V5  1  0.500000  0.000000  0.500000  1
  V  V6  1  0.000000  0.500000  0.500000  1
  V  V7  1  0.000000  0.000000  0.000000  1
  H  H8  1  0.220207  0.517211  0.220745  1
  H  H9  1  0.779793  0.017211  0.279255  1
  H  H10  1  0.279793  0.482789  0.720745  1
  H  H11  1  0.720207  0.982789  0.779255  1
  H  H12  1  0.220745  0.220207  0.517211  1
  H  H13  1  0.279255  0.779793  0.017211  1
  H  H14  1  0.720745  0.279793  0.482789  1
  H  H15  1  0.779255  0.720207  0.982789  1
  H  H16  1  0.517211  0.220745  0.220207  1
  H  H17  1  0.017211  0.279255  0.779793  1
  H  H18  1  0.482789  0.720745  0.279793  1
  H  H19  1  0.982789  0.779255  0.720207  1
  H  H20  1  0.779793  0.482789  0.779255  1
  H  H21  1  0.220207  0.982789  0.720745  1
  H  H22  1  0.720207  0.517211  0.279255  1
  H  H23  1  0.279793  0.017211  0.220745  1
  H  H24  1  0.779255  0.779793  0.482789  1
  H  H25  1  0.720745  0.220207  0.982789  1
  H  H26  1  0.279255  0.720207  0.517211  1
  H  H27  1  0.220745  0.279793  0.017211  1
  H  H28  1  0.482789  0.779255  0.779793  1
  H  H29  1  0.982789  0.720745  0.220207  1
  H  H30  1  0.517211  0.279255  0.720207  1
  H  H31  1  0.017211  0.220745  0.279793  1
  H  H32  1  0.163002  0.627556  0.205471  1
  H  H33  1  0.836998  0.127556  0.294529  1
  H  H34  1  0.336998  0.372444  0.705471  1
  H  H35  1  0.663002  0.872444  0.794529  1
  H  H36  1  0.205471  0.163002  0.627556  1
  H  H37  1  0.294529  0.836998  0.127556  1
  H  H38  1  0.705471  0.336998  0.372444  1
  H  H39  1  0.794529  0.663002  0.872444  1
  H  H40  1  0.627556  0.205471  0.163002  1
  H  H41  1  0.127556  0.294529  0.836998  1
  H  H42  1  0.372444  0.705471  0.336998  1
  H  H43  1  0.872444  0.794529  0.663002  1
  H  H44  1  0.836998  0.372444  0.794529  1
  H  H45  1  0.163002  0.872444  0.705471  1
  H  H46  1  0.663002  0.627556  0.294529  1
  H  H47  1  0.336998  0.127556  0.205471  1
  H  H48  1  0.794529  0.836998  0.372444  1
  H  H49  1  0.705471  0.163002  0.872444  1
  H  H50  1  0.294529  0.663002  0.627556  1
  H  H51  1  0.205471  0.336998  0.127556  1
  H  H52  1  0.372444  0.794529  0.836998  1
  H  H53  1  0.872444  0.705471  0.163002  1
  H  H54  1  0.627556  0.294529  0.663002  1
  H  H55  1  0.127556  0.205471  0.336998  1
  H  H56  1  0.482625  0.711654  0.937908  1
  H  H57  1  0.517375  0.211654  0.562092  1
  H  H58  1  0.017375  0.288346  0.437908  1
  H  H59  1  0.982625  0.788346  0.062092  1
  H  H60  1  0.937908  0.482625  0.711654  1
  H  H61  1  0.562092  0.517375  0.211654  1
  H  H62  1  0.437908  0.017375  0.288346  1
  H  H63  1  0.062092  0.982625  0.788346  1
  H  H64  1  0.711654  0.937908  0.482625  1
  H  H65  1  0.211654  0.562092  0.517375  1
  H  H66  1  0.288346  0.437908  0.017375  1
  H  H67  1  0.788346  0.062092  0.982625  1
  H  H68  1  0.517375  0.288346  0.062092  1
  H  H69  1  0.482625  0.788346  0.437908  1
  H  H70  1  0.982625  0.711654  0.562092  1
  H  H71  1  0.017375  0.211654  0.937908  1
  H  H72  1  0.062092  0.517375  0.288346  1
  H  H73  1  0.437908  0.482625  0.788346  1
  H  H74  1  0.562092  0.982625  0.711654  1
  H  H75  1  0.937908  0.017375  0.211654  1
  H  H76  1  0.288346  0.062092  0.517375  1
  H  H77  1  0.788346  0.437908  0.482625  1
  H  H78  1  0.711654  0.562092  0.982625  1
  H  H79  1  0.211654  0.937908  0.017375  1
  H  H80  1  0.525168  0.706820  0.063758  1
  H  H81  1  0.474832  0.206819  0.436242  1
  H  H82  1  0.974832  0.293180  0.563758  1
  H  H83  1  0.025168  0.793180  0.936242  1
  H  H84  1  0.063758  0.525168  0.706820  1
  H  H85  1  0.436242  0.474832  0.206819  1
  H  H86  1  0.563758  0.974832  0.293180  1
  H  H87  1  0.936242  0.025168  0.793180  1
  H  H88  1  0.706820  0.063758  0.525168  1
  H  H89  1  0.206819  0.436242  0.474832  1
  H  H90  1  0.293180  0.563758  0.974832  1
  H  H91  1  0.793180  0.936242  0.025168  1
  H  H92  1  0.474832  0.293180  0.936242  1
  H  H93  1  0.525168  0.793180  0.563758  1
  H  H94  1  0.025168  0.706820  0.436242  1
  H  H95  1  0.974832  0.206819  0.063758  1
  H  H96  1  0.936242  0.474832  0.293180  1
  H  H97  1  0.563758  0.525168  0.793180  1
  H  H98  1  0.436242  0.025168  0.706820  1
  H  H99  1  0.063758  0.974832  0.206819  1
  H  H100  1  0.293180  0.936242  0.474832  1
  H  H101  1  0.793180  0.563758  0.525168  1
  H  H102  1  0.706820  0.436242  0.025168  1
  H  H103  1  0.206819  0.063758  0.974832  1
  S  S104  1  0.172077  0.827923  0.327923  1
  S  S105  1  0.827923  0.327923  0.172077  1
  S  S106  1  0.327923  0.172077  0.827923  1
  S  S107  1  0.672077  0.672077  0.672077  1
  S  S108  1  0.827923  0.172077  0.672077  1
  S  S109  1  0.172077  0.672077  0.827923  1
  S  S110  1  0.672077  0.827923  0.172077  1
  S  S111  1  0.327923  0.327923  0.327923  1
  O  O112  1  0.241294  0.758706  0.258706  1
  O  O113  1  0.758706  0.258706  0.241294  1
  O  O114  1  0.258706  0.241294  0.758706  1
  O  O115  1  0.741294  0.741294  0.741294  1
  O  O116  1  0.758706  0.241294  0.741294  1
  O  O117  1  0.241294  0.741294  0.758706  1
  O  O118  1  0.741294  0.758706  0.241294  1
  O  O119  1  0.258706  0.258706  0.258706  1
  O  O120  1  0.060399  0.781904  0.334821  1
  O  O121  1  0.939601  0.281904  0.165179  1
  O  O122  1  0.439601  0.218096  0.834821  1
  O  O123  1  0.560399  0.718096  0.665179  1
  O  O124  1  0.334821  0.060399  0.781904  1
  O  O125  1  0.165179  0.939601  0.281904  1
  O  O126  1  0.834821  0.439601  0.218096  1
  O  O127  1  0.665179  0.560399  0.718096  1
  O  O128  1  0.781904  0.334821  0.060399  1
  O  O129  1  0.281904  0.165179  0.939601  1
  O  O130  1  0.218096  0.834821  0.439601  1
  O  O131  1  0.718096  0.665179  0.560399  1
  O  O132  1  0.939601  0.218096  0.665179  1
  O  O133  1  0.060399  0.718096  0.834821  1
  O  O134  1  0.560399  0.781904  0.165179  1
  O  O135  1  0.439601  0.281904  0.334821  1
  O  O136  1  0.665179  0.939601  0.218096  1
  O  O137  1  0.834821  0.060399  0.718096  1
  O  O138  1  0.165179  0.560399  0.781904  1
  O  O139  1  0.334821  0.439601  0.281904  1
  O  O140  1  0.218096  0.665179  0.939601  1
  O  O141  1  0.718096  0.834821  0.060399  1
  O  O142  1  0.781904  0.165179  0.560399  1
  O  O143  1  0.281904  0.334821  0.439601  1
  O  O144  1  0.150981  0.549779  0.198542  1
  O  O145  1  0.849019  0.049779  0.301458  1
  O  O146  1  0.349019  0.450221  0.698542  1
  O  O147  1  0.650981  0.950221  0.801458  1
  O  O148  1  0.198542  0.150981  0.549779  1
  O  O149  1  0.301458  0.849019  0.049779  1
  O  O150  1  0.698542  0.349019  0.450221  1
  O  O151  1  0.801458  0.650981  0.950221  1
  O  O152  1  0.549779  0.198542  0.150981  1
  O  O153  1  0.049779  0.301458  0.849019  1
  O  O154  1  0.450221  0.698542  0.349019  1
  O  O155  1  0.950221  0.801458  0.650981  1
  O  O156  1  0.849019  0.450221  0.801458  1
  O  O157  1  0.150981  0.950221  0.698542  1
  O  O158  1  0.650981  0.549779  0.301458  1
  O  O159  1  0.349019  0.049779  0.198542  1
  O  O160  1  0.801458  0.849019  0.450221  1
  O  O161  1  0.698542  0.150981  0.950221  1
  O  O162  1  0.301458  0.650981  0.549779  1
  O  O163  1  0.198542  0.349019  0.049779  1
  O  O164  1  0.450221  0.801458  0.849019  1
  O  O165  1  0.950221  0.698542  0.150981  1
  O  O166  1  0.549779  0.301458  0.650981  1
  O  O167  1  0.049779  0.198542  0.349019  1
  O  O168  1  0.500846  0.662567  0.000708  1
  O  O169  1  0.499154  0.162567  0.499292  1
  O  O170  1  0.999154  0.337433  0.500708  1
  O  O171  1  0.000846  0.837433  0.999292  1
  O  O172  1  0.000708  0.500846  0.662567  1
  O  O173  1  0.499292  0.499154  0.162567  1
  O  O174  1  0.500708  0.999154  0.337433  1
  O  O175  1  0.999292  0.000846  0.837433  1
  O  O176  1  0.662567  0.000708  0.500846  1
  O  O177  1  0.162567  0.499292  0.499154  1
  O  O178  1  0.337433  0.500708  0.999154  1
  O  O179  1  0.837433  0.999292  0.000846  1
  O  O180  1  0.499154  0.337433  0.999292  1
  O  O181  1  0.500846  0.837433  0.500708  1
  O  O182  1  0.000846  0.662567  0.499292  1
  O  O183  1  0.999154  0.162567  0.000708  1
  O  O184  1  0.999292  0.499154  0.337433  1
  O  O185  1  0.500708  0.500846  0.837433  1
  O  O186  1  0.499292  0.000846  0.662567  1
  O  O187  1  0.000708  0.999154  0.162567  1
  O  O188  1  0.337433  0.999292  0.499154  1
  O  O189  1  0.837433  0.500708  0.500846  1
  O  O190  1  0.662567  0.499292  0.000846  1
  O  O191  1  0.162567  0.000708  0.999154  1
