# generated using pymatgen
data_Li4V3Cr3(SnO8)2
_symmetry_space_group_name_H-M   'P 1'
_cell_length_a   5.94751462
_cell_length_b   5.98976849
_cell_length_c   9.77152799
_cell_angle_alpha   89.80318236
_cell_angle_beta   89.66325056
_cell_angle_gamma   60.32701126
_symmetry_Int_Tables_number   1
_chemical_formula_structural   Li4V3Cr3(SnO8)2
_chemical_formula_sum   'Li4 V3 Cr3 Sn2 O16'
_cell_volume   302.44941969
_cell_formula_units_Z   1
loop_
 _symmetry_equiv_pos_site_id
 _symmetry_equiv_pos_as_xyz
  1  'x, y, z'
loop_
 _atom_site_type_symbol
 _atom_site_label
 _atom_site_symmetry_multiplicity
 _atom_site_fract_x
 _atom_site_fract_y
 _atom_site_fract_z
 _atom_site_occupancy
  Li  Li0  1  0.672518  0.667487  0.104636  1
  Li  Li1  1  0.997873  0.998807  0.006799  1
  Li  Li2  1  0.994725  0.001462  0.505537  1
  Li  Li3  1  0.336891  0.335225  0.605830  1
  V  V4  1  0.653640  0.173786  0.281403  1
  V  V5  1  0.828045  0.828327  0.781772  1
  V  V6  1  0.171574  0.659460  0.287257  1
  Cr  Cr7  1  0.830785  0.339269  0.785853  1
  Cr  Cr8  1  0.339148  0.830786  0.786250  1
  Cr  Cr9  1  0.166827  0.170873  0.286282  1
  Sn  Sn10  1  0.663117  0.667129  0.508145  1
  Sn  Sn11  1  0.330676  0.331895  0.006815  1
  O  O12  1  0.835078  0.322597  0.400879  1
  O  O13  1  0.517699  0.519552  0.663954  1
  O  O14  1  0.676980  0.675858  0.891318  1
  O  O15  1  0.993194  0.994115  0.692614  1
  O  O16  1  0.983746  0.009997  0.193064  1
  O  O17  1  0.316508  0.839525  0.401195  1
  O  O18  1  0.966927  0.523548  0.661723  1
  O  O19  1  0.521955  0.967590  0.662667  1
  O  O20  1  0.158774  0.157568  0.900915  1
  O  O21  1  0.835402  0.840828  0.399732  1
  O  O22  1  0.485427  0.033361  0.162751  1
  O  O23  1  0.036955  0.482241  0.161478  1
  O  O24  1  0.353729  0.317813  0.394292  1
  O  O25  1  0.679331  0.156570  0.899731  1
  O  O26  1  0.495005  0.474360  0.158577  1
  O  O27  1  0.157770  0.679672  0.900696  1
