# generated using pymatgen
data_Li2Mn3(BO3)3
_symmetry_space_group_name_H-M   'P 1'
_cell_length_a   5.22815375
_cell_length_b   6.14799029
_cell_length_c   11.99016161
_cell_angle_alpha   84.17619125
_cell_angle_beta   78.74787890
_cell_angle_gamma   86.59314019
_symmetry_Int_Tables_number   1
_chemical_formula_structural   Li2Mn3(BO3)3
_chemical_formula_sum   'Li4 Mn6 B6 O18'
_cell_volume   375.72620496
_cell_formula_units_Z   2
loop_
 _symmetry_equiv_pos_site_id
 _symmetry_equiv_pos_as_xyz
  1  'x, y, z'
loop_
 _atom_site_type_symbol
 _atom_site_label
 _atom_site_symmetry_multiplicity
 _atom_site_fract_x
 _atom_site_fract_y
 _atom_site_fract_z
 _atom_site_occupancy
  Li  Li0  1  0.041524  0.411744  0.098958  1
  Li  Li1  1  0.371555  0.765841  0.423696  1
  Li  Li2  1  0.962778  0.591666  0.897919  1
  Li  Li3  1  0.693265  0.100988  0.756461  1
  Mn  Mn4  1  0.597479  0.249867  0.999796  1
  Mn  Mn5  1  0.947039  0.576518  0.325091  1
  Mn  Mn6  1  0.269450  0.912319  0.661203  1
  Mn  Mn7  1  0.742693  0.088158  0.334697  1
  Mn  Mn8  1  0.067342  0.423095  0.664752  1
  Mn  Mn9  1  0.396671  0.769101  0.008905  1
  B  B10  1  0.840029  0.836526  0.115110  1
  B  B11  1  0.484129  0.477836  0.224360  1
  B  B12  1  0.820594  0.806639  0.554082  1
  B  B13  1  0.179994  0.186248  0.445141  1
  B  B14  1  0.515598  0.538121  0.781740  1
  B  B15  1  0.157656  0.148930  0.884176  1
  O  O16  1  0.613901  0.942113  0.094360  1
  O  O17  1  0.998781  0.721101  0.033803  1
  O  O18  1  0.396964  0.449469  0.125362  1
  O  O19  1  0.903234  0.844902  0.223747  1
  O  O20  1  0.331749  0.577374  0.312896  1
  O  O21  1  0.742966  0.407995  0.232853  1
  O  O22  1  0.078674  0.738553  0.565092  1
  O  O23  1  0.743645  0.777625  0.452354  1
  O  O24  1  0.661350  0.906013  0.641294  1
  O  O25  1  0.342437  0.073636  0.367929  1
  O  O26  1  0.214270  0.181796  0.559077  1
  O  O27  1  0.950642  0.296448  0.419464  1
  O  O28  1  0.263170  0.626835  0.762690  1
  O  O29  1  0.663169  0.414769  0.703865  1
  O  O30  1  0.067320  0.108806  0.785801  1
  O  O31  1  0.588477  0.567145  0.884517  1
  O  O32  1  0.008285  0.273792  0.964133  1
  O  O33  1  0.407383  0.072682  0.896351  1
