# generated using pymatgen
data_Cs3B6H12Se4Br
_symmetry_space_group_name_H-M   'P 1'
_cell_length_a   11.01499147
_cell_length_b   11.01499147
_cell_length_c   9.04026149
_cell_angle_alpha   90.00000000
_cell_angle_beta   90.00000000
_cell_angle_gamma   120.00000000
_symmetry_Int_Tables_number   1
_chemical_formula_structural   Cs3B6H12Se4Br
_chemical_formula_sum   'Cs6 B12 H24 Se8 Br2'
_cell_volume   949.90452093
_cell_formula_units_Z   2
loop_
 _symmetry_equiv_pos_site_id
 _symmetry_equiv_pos_as_xyz
  1  'x, y, z'
loop_
 _atom_site_type_symbol
 _atom_site_label
 _atom_site_symmetry_multiplicity
 _atom_site_fract_x
 _atom_site_fract_y
 _atom_site_fract_z
 _atom_site_occupancy
  Cs  Cs0  1  0.693314  0.846657  0.750279  1
  Cs  Cs1  1  0.153343  0.846657  0.750279  1
  Cs  Cs2  1  0.153343  0.306686  0.750279  1
  Cs  Cs3  1  0.306686  0.153343  0.250279  1
  Cs  Cs4  1  0.846657  0.153343  0.250279  1
  Cs  Cs5  1  0.846657  0.693314  0.250279  1
  B  B6  1  0.766788  0.233212  0.888525  1
  B  B7  1  0.766788  0.533575  0.888525  1
  B  B8  1  0.466425  0.233212  0.888525  1
  B  B9  1  0.233212  0.766788  0.388525  1
  B  B10  1  0.233212  0.466425  0.388525  1
  B  B11  1  0.533575  0.766788  0.388525  1
  B  B12  1  0.567660  0.432340  0.583337  1
  B  B13  1  0.567660  0.135320  0.583337  1
  B  B14  1  0.864680  0.432340  0.583337  1
  B  B15  1  0.432340  0.567660  0.083337  1
  B  B16  1  0.432340  0.864680  0.083337  1
  B  B17  1  0.135320  0.567660  0.083337  1
  H  H18  1  0.702899  0.112449  0.929517  1
  H  H19  1  0.887551  0.590450  0.929517  1
  H  H20  1  0.409550  0.297101  0.929517  1
  H  H21  1  0.887551  0.297101  0.929517  1
  H  H22  1  0.409550  0.112449  0.929517  1
  H  H23  1  0.702899  0.590450  0.929517  1
  H  H24  1  0.297101  0.887551  0.429517  1
  H  H25  1  0.112449  0.409550  0.429517  1
  H  H26  1  0.590450  0.702899  0.429517  1
  H  H27  1  0.112449  0.702899  0.429517  1
  H  H28  1  0.590450  0.887551  0.429517  1
  H  H29  1  0.297101  0.409550  0.429517  1
  H  H30  1  0.506543  0.493457  0.620539  1
  H  H31  1  0.506543  0.013085  0.620539  1
  H  H32  1  0.986915  0.493457  0.620539  1
  H  H33  1  0.493457  0.506543  0.120539  1
  H  H34  1  0.493457  0.986915  0.120539  1
  H  H35  1  0.013085  0.506543  0.120539  1
  H  H36  1  0.577575  0.422425  0.451050  1
  H  H37  1  0.577575  0.155151  0.451050  1
  H  H38  1  0.844849  0.422425  0.451050  1
  H  H39  1  0.422425  0.577575  0.951050  1
  H  H40  1  0.422425  0.844849  0.951050  1
  H  H41  1  0.155151  0.577575  0.951050  1
  Se  Se42  1  0.771808  0.228192  0.660259  1
  Se  Se43  1  0.771808  0.543617  0.660259  1
  Se  Se44  1  0.456383  0.228192  0.660259  1
  Se  Se45  1  0.228192  0.771808  0.160259  1
  Se  Se46  1  0.228192  0.456383  0.160259  1
  Se  Se47  1  0.543617  0.771808  0.160259  1
  Se  Se48  1  0.666667  0.333333  0.977920  1
  Se  Se49  1  0.333333  0.666667  0.477920  1
  Br  Br50  1  0.000000  0.000000  0.495859  1
  Br  Br51  1  0.000000  0.000000  0.995859  1
