# generated using pymatgen
data_CaZrSi2O7
_symmetry_space_group_name_H-M   'P 1'
_cell_length_a   5.59458431
_cell_length_b   5.59458431
_cell_length_c   4.74677721
_cell_angle_alpha   82.77736105
_cell_angle_beta   97.22263895
_cell_angle_gamma   76.32373956
_symmetry_Int_Tables_number   1
_chemical_formula_structural   CaZrSi2O7
_chemical_formula_sum   'Ca1 Zr1 Si2 O7'
_cell_volume   141.33872596
_cell_formula_units_Z   1
loop_
 _symmetry_equiv_pos_site_id
 _symmetry_equiv_pos_as_xyz
  1  'x, y, z'
loop_
 _atom_site_type_symbol
 _atom_site_label
 _atom_site_symmetry_multiplicity
 _atom_site_fract_x
 _atom_site_fract_y
 _atom_site_fract_z
 _atom_site_occupancy
  Ca  Ca0  1  0.295407  0.295407  0.500000  1
  Zr  Zr1  1  0.684471  0.684471  0.500000  1
  Si  Si2  1  0.794973  0.219684  0.083296  1
  Si  Si3  1  0.219684  0.794973  0.916704  1
  O  O4  1  0.883704  0.408193  0.290712  1
  O  O5  1  0.408193  0.883704  0.709288  1
  O  O6  1  0.656269  0.036563  0.263555  1
  O  O7  1  0.036563  0.656269  0.736445  1
  O  O8  1  0.058501  0.058501  0.000000  1
  O  O9  1  0.376758  0.624877  0.217469  1
  O  O10  1  0.624877  0.376758  0.782531  1
