# generated using pymatgen
data_Li3Ti(PO4)2
_symmetry_space_group_name_H-M   'P 1'
_cell_length_a   4.98165826
_cell_length_b   4.98165826
_cell_length_c   6.25105821
_cell_angle_alpha   89.60363869
_cell_angle_beta   90.39636131
_cell_angle_gamma   113.02282726
_symmetry_Int_Tables_number   1
_chemical_formula_structural   Li3Ti(PO4)2
_chemical_formula_sum   'Li3 Ti1 P2 O8'
_cell_volume   142.77069143
_cell_formula_units_Z   1
loop_
 _symmetry_equiv_pos_site_id
 _symmetry_equiv_pos_as_xyz
  1  'x, y, z'
loop_
 _atom_site_type_symbol
 _atom_site_label
 _atom_site_symmetry_multiplicity
 _atom_site_fract_x
 _atom_site_fract_y
 _atom_site_fract_z
 _atom_site_occupancy
  Li  Li0  1  0.329575  0.670425  0.778087  1
  Li  Li1  1  0.000000  0.000000  0.000000  1
  Li  Li2  1  0.670425  0.329575  0.221913  1
  Ti  Ti3  1  0.000000  0.000000  0.500000  1
  P  P4  1  0.349891  0.650109  0.267485  1
  P  P5  1  0.650109  0.349891  0.732515  1
  O  O6  1  0.757155  0.242845  0.933304  1
  O  O7  1  0.755678  0.244322  0.528607  1
  O  O8  1  0.689160  0.756365  0.271712  1
  O  O9  1  0.243635  0.310840  0.271712  1
  O  O10  1  0.756365  0.689160  0.728288  1
  O  O11  1  0.310840  0.243635  0.728288  1
  O  O12  1  0.244322  0.755678  0.471393  1
  O  O13  1  0.242845  0.757155  0.066696  1
