# generated using pymatgen
data_Li2MnSi3O8
_symmetry_space_group_name_H-M   'P 1'
_cell_length_a   6.36199782
_cell_length_b   8.62356569
_cell_length_c   6.71192721
_cell_angle_alpha   90.00000000
_cell_angle_beta   105.30319358
_cell_angle_gamma   90.00000000
_symmetry_Int_Tables_number   1
_chemical_formula_structural   Li2MnSi3O8
_chemical_formula_sum   'Li4 Mn2 Si6 O16'
_cell_volume   355.18048242
_cell_formula_units_Z   2
loop_
 _symmetry_equiv_pos_site_id
 _symmetry_equiv_pos_as_xyz
  1  'x, y, z'
loop_
 _atom_site_type_symbol
 _atom_site_label
 _atom_site_symmetry_multiplicity
 _atom_site_fract_x
 _atom_site_fract_y
 _atom_site_fract_z
 _atom_site_occupancy
  Li  Li0  1  0.846278  0.678713  0.221554  1
  Li  Li1  1  0.580778  0.164073  0.495039  1
  Li  Li2  1  0.419222  0.664073  0.504961  1
  Li  Li3  1  0.153722  0.178713  0.778446  1
  Mn  Mn4  1  0.045624  0.002264  0.401382  1
  Mn  Mn5  1  0.954376  0.502264  0.598618  1
  Si  Si6  1  0.419129  0.492860  0.010499  1
  Si  Si7  1  0.247960  0.807041  0.103433  1
  Si  Si8  1  0.159135  0.336723  0.267260  1
  Si  Si9  1  0.840865  0.836723  0.732740  1
  Si  Si10  1  0.752040  0.307041  0.896567  1
  Si  Si11  1  0.580871  0.992860  0.989501  1
  O  O12  1  0.989517  0.259475  0.053437  1
  O  O13  1  0.328976  0.965868  0.007011  1
  O  O14  1  0.432117  0.670937  0.105163  1
  O  O15  1  0.748406  0.968743  0.207963  1
  O  O16  1  0.384500  0.375901  0.194271  1
  O  O17  1  0.231541  0.823247  0.337609  1
  O  O18  1  0.060012  0.496022  0.332825  1
  O  O19  1  0.229165  0.202984  0.444340  1
  O  O20  1  0.770835  0.702984  0.555660  1
  O  O21  1  0.939988  0.996022  0.667175  1
  O  O22  1  0.768459  0.323247  0.662391  1
  O  O23  1  0.615500  0.875901  0.805729  1
  O  O24  1  0.251594  0.468743  0.792037  1
  O  O25  1  0.567883  0.170937  0.894837  1
  O  O26  1  0.671024  0.465868  0.992989  1
  O  O27  1  0.010483  0.759475  0.946563  1
