# generated using pymatgen
data_Li3Co4O4F3
_symmetry_space_group_name_H-M   'P 1'
_cell_length_a   15.07856266
_cell_length_b   15.07856266
_cell_length_c   15.07856266
_cell_angle_alpha   168.69159426
_cell_angle_beta   168.69159426
_cell_angle_gamma   16.01867527
_symmetry_Int_Tables_number   1
_chemical_formula_structural   Li3Co4O4F3
_chemical_formula_sum   'Li3 Co4 O4 F3'
_cell_volume   131.81653445
_cell_formula_units_Z   1
loop_
 _symmetry_equiv_pos_site_id
 _symmetry_equiv_pos_as_xyz
  1  'x, y, z'
loop_
 _atom_site_type_symbol
 _atom_site_label
 _atom_site_symmetry_multiplicity
 _atom_site_fract_x
 _atom_site_fract_y
 _atom_site_fract_z
 _atom_site_occupancy
  Li  Li0  1  0.568706  0.568706  0.000000  1
  Li  Li1  1  0.431294  0.431294  0.000000  1
  Li  Li2  1  0.000000  0.000000  0.000000  1
  Co  Co3  1  0.140810  0.140810  0.000000  1
  Co  Co4  1  0.718286  0.718286  0.000000  1
  Co  Co5  1  0.281714  0.281714  0.000000  1
  Co  Co6  1  0.859190  0.859190  0.000000  1
  O  O7  1  0.641256  0.641256  0.000000  1
  O  O8  1  0.212844  0.212844  0.000000  1
  O  O9  1  0.787156  0.787156  0.000000  1
  O  O10  1  0.358744  0.358744  0.000000  1
  F  F11  1  0.066532  0.066532  0.000000  1
  F  F12  1  0.933468  0.933468  0.000000  1
  F  F13  1  0.500000  0.500000  0.000000  1
