# generated using pymatgen
data_Li6Mn(OF)3
_symmetry_space_group_name_H-M   'P 1'
_cell_length_a   5.14164872
_cell_length_b   5.14907241
_cell_length_c   10.38249406
_cell_angle_alpha   98.99811437
_cell_angle_beta   100.91248568
_cell_angle_gamma   100.23036439
_symmetry_Int_Tables_number   1
_chemical_formula_structural   Li6Mn(OF)3
_chemical_formula_sum   'Li12 Mn2 O6 F6'
_cell_volume   260.42578072
_cell_formula_units_Z   2
loop_
 _symmetry_equiv_pos_site_id
 _symmetry_equiv_pos_as_xyz
  1  'x, y, z'
loop_
 _atom_site_type_symbol
 _atom_site_label
 _atom_site_symmetry_multiplicity
 _atom_site_fract_x
 _atom_site_fract_y
 _atom_site_fract_z
 _atom_site_occupancy
  Li  Li0  1  0.094611  0.613003  0.645817  1
  Li  Li1  1  0.107228  0.549928  0.132371  1
  Li  Li2  1  0.387528  0.697434  0.954453  1
  Li  Li3  1  0.410013  0.711070  0.459916  1
  Li  Li4  1  0.697636  0.918153  0.709137  1
  Li  Li5  1  0.736892  0.912100  0.216530  1
  Li  Li6  1  0.265701  0.091711  0.790710  1
  Li  Li7  1  0.310127  0.087731  0.299484  1
  Li  Li8  1  0.559394  0.245895  0.543947  1
  Li  Li9  1  0.592142  0.286378  0.043672  1
  Li  Li10  1  0.915968  0.437147  0.860724  1
  Li  Li11  1  0.924567  0.377294  0.338317  1
  Mn  Mn12  1  0.014327  0.028724  0.499950  1
  Mn  Mn13  1  0.013815  0.019929  0.998541  1
  O  O14  1  0.057376  0.794892  0.841787  1
  O  O15  1  0.322373  0.943027  0.609498  1
  O  O16  1  0.227253  0.334573  0.463148  1
  O  O17  1  0.226937  0.338604  0.971134  1
  O  O18  1  0.683498  0.067616  0.391370  1
  O  O19  1  0.928668  0.204100  0.154648  1
  F  F20  1  0.072200  0.742923  0.311281  1
  F  F21  1  0.361932  0.890307  0.124940  1
  F  F22  1  0.775778  0.692606  0.547758  1
  F  F23  1  0.772016  0.661298  0.030698  1
  F  F24  1  0.635209  0.094866  0.877561  1
  F  F25  1  0.906809  0.258690  0.682608  1
