# generated using pymatgen
data_Ca2Ti6N2O11
_symmetry_space_group_name_H-M   'P 1'
_cell_length_a   7.64547286
_cell_length_b   7.64547286
_cell_length_c   9.39857034
_cell_angle_alpha   80.56721767
_cell_angle_beta   99.43278233
_cell_angle_gamma   151.18846147
_symmetry_Int_Tables_number   1
_chemical_formula_structural   Ca2Ti6N2O11
_chemical_formula_sum   'Ca2 Ti6 N2 O11'
_cell_volume   260.94346331
_cell_formula_units_Z   1
loop_
 _symmetry_equiv_pos_site_id
 _symmetry_equiv_pos_as_xyz
  1  'x, y, z'
loop_
 _atom_site_type_symbol
 _atom_site_label
 _atom_site_symmetry_multiplicity
 _atom_site_fract_x
 _atom_site_fract_y
 _atom_site_fract_z
 _atom_site_occupancy
  Ca  Ca0  1  0.559596  0.440404  0.741990  1
  Ca  Ca1  1  0.458556  0.541444  0.201149  1
  Ti  Ti2  1  0.121991  0.878009  0.078072  1
  Ti  Ti3  1  0.157460  0.842540  0.434907  1
  Ti  Ti4  1  0.243166  0.756834  0.771900  1
  Ti  Ti5  1  0.773294  0.226706  0.246862  1
  Ti  Ti6  1  0.835030  0.164970  0.579233  1
  Ti  Ti7  1  0.877413  0.122587  0.903476  1
  N  N8  1  0.759584  0.240416  0.746461  1
  N  N9  1  0.354045  0.645955  0.908290  1
  O  O10  1  0.058373  0.941627  0.293253  1
  O  O11  1  0.115442  0.884558  0.605434  1
  O  O12  1  0.148073  0.851927  0.891158  1
  O  O13  1  0.640840  0.359160  0.112875  1
  O  O14  1  0.696682  0.303318  0.427314  1
  O  O15  1  0.239180  0.760820  0.245174  1
  O  O16  1  0.301238  0.698762  0.572074  1
  O  O17  1  0.844860  0.155140  0.111115  1
  O  O18  1  0.874397  0.125603  0.395632  1
  O  O19  1  0.940432  0.059568  0.717871  1
  O  O20  1  0.000350  0.999650  0.015758  1
