# generated using pymatgen
data_Li3MnF5
_symmetry_space_group_name_H-M   'P 1'
_cell_length_a   6.61451665
_cell_length_b   7.97965075
_cell_length_c   8.25880848
_cell_angle_alpha   90.00000000
_cell_angle_beta   90.00000000
_cell_angle_gamma   90.00000000
_symmetry_Int_Tables_number   1
_chemical_formula_structural   Li3MnF5
_chemical_formula_sum   'Li12 Mn4 F20'
_cell_volume   435.91257024
_cell_formula_units_Z   4
loop_
 _symmetry_equiv_pos_site_id
 _symmetry_equiv_pos_as_xyz
  1  'x, y, z'
loop_
 _atom_site_type_symbol
 _atom_site_label
 _atom_site_symmetry_multiplicity
 _atom_site_fract_x
 _atom_site_fract_y
 _atom_site_fract_z
 _atom_site_occupancy
  Li  Li0  1  0.985318  0.578405  0.270112  1
  Li  Li1  1  0.985318  0.921595  0.270112  1
  Li  Li2  1  0.210445  0.750000  0.031300  1
  Li  Li3  1  0.289555  0.250000  0.531300  1
  Li  Li4  1  0.514682  0.078405  0.770112  1
  Li  Li5  1  0.514682  0.421595  0.770112  1
  Li  Li6  1  0.485318  0.921595  0.229888  1
  Li  Li7  1  0.485318  0.578405  0.229888  1
  Li  Li8  1  0.710445  0.750000  0.468700  1
  Li  Li9  1  0.789555  0.250000  0.968700  1
  Li  Li10  1  0.014682  0.078405  0.729888  1
  Li  Li11  1  0.014682  0.421595  0.729888  1
  Mn  Mn12  1  0.270778  0.750000  0.602897  1
  Mn  Mn13  1  0.229222  0.250000  0.102897  1
  Mn  Mn14  1  0.770778  0.750000  0.897103  1
  Mn  Mn15  1  0.729222  0.250000  0.397103  1
  F  F16  1  0.991622  0.250000  0.551646  1
  F  F17  1  0.088494  0.750000  0.817804  1
  F  F18  1  0.070132  0.250000  0.881114  1
  F  F19  1  0.225034  0.985182  0.152112  1
  F  F20  1  0.225034  0.514818  0.152112  1
  F  F21  1  0.274966  0.485182  0.652112  1
  F  F22  1  0.274966  0.014818  0.652112  1
  F  F23  1  0.429868  0.750000  0.381114  1
  F  F24  1  0.411506  0.250000  0.317804  1
  F  F25  1  0.508378  0.750000  0.051646  1
  F  F26  1  0.491622  0.250000  0.948354  1
  F  F27  1  0.588494  0.750000  0.682196  1
  F  F28  1  0.570132  0.250000  0.618886  1
  F  F29  1  0.725034  0.985182  0.347888  1
  F  F30  1  0.725034  0.514818  0.347888  1
  F  F31  1  0.774966  0.014818  0.847888  1
  F  F32  1  0.774966  0.485182  0.847888  1
  F  F33  1  0.929868  0.750000  0.118886  1
  F  F34  1  0.911506  0.250000  0.182196  1
  F  F35  1  0.008378  0.750000  0.448354  1
