# generated using pymatgen
data_Dy2Cu2O5
_symmetry_space_group_name_H-M   'P 1'
_cell_length_a   6.26829495
_cell_length_b   7.19793830
_cell_length_c   11.21290685
_cell_angle_alpha   90.00000000
_cell_angle_beta   90.00000000
_cell_angle_gamma   90.00000000
_symmetry_Int_Tables_number   1
_chemical_formula_structural   Dy2Cu2O5
_chemical_formula_sum   'Dy8 Cu8 O20'
_cell_volume   505.91290491
_cell_formula_units_Z   4
loop_
 _symmetry_equiv_pos_site_id
 _symmetry_equiv_pos_as_xyz
  1  'x, y, z'
loop_
 _atom_site_type_symbol
 _atom_site_label
 _atom_site_symmetry_multiplicity
 _atom_site_fract_x
 _atom_site_fract_y
 _atom_site_fract_z
 _atom_site_occupancy
  Dy  Dy0  1  0.750059  0.119436  0.522737  1
  Dy  Dy1  1  0.750059  0.119436  0.977263  1
  Dy  Dy2  1  0.749941  0.619436  0.022737  1
  Dy  Dy3  1  0.749941  0.619436  0.477263  1
  Dy  Dy4  1  0.250059  0.380564  0.522737  1
  Dy  Dy5  1  0.250059  0.380564  0.977263  1
  Dy  Dy6  1  0.249941  0.880564  0.022737  1
  Dy  Dy7  1  0.249941  0.880564  0.477263  1
  Cu  Cu8  1  0.927831  0.851124  0.250000  1
  Cu  Cu9  1  0.913400  0.372179  0.250000  1
  Cu  Cu10  1  0.586600  0.872179  0.750000  1
  Cu  Cu11  1  0.572169  0.351124  0.750000  1
  Cu  Cu12  1  0.427831  0.648876  0.250000  1
  Cu  Cu13  1  0.413400  0.127821  0.250000  1
  Cu  Cu14  1  0.086600  0.627821  0.750000  1
  Cu  Cu15  1  0.072169  0.148876  0.750000  1
  O  O16  1  0.930872  0.356210  0.085527  1
  O  O17  1  0.930872  0.356210  0.414473  1
  O  O18  1  0.902492  0.887115  0.087976  1
  O  O19  1  0.902492  0.887115  0.412024  1
  O  O20  1  0.746345  0.619109  0.250000  1
  O  O21  1  0.753655  0.119109  0.750000  1
  O  O22  1  0.597508  0.387115  0.912024  1
  O  O23  1  0.597508  0.387115  0.587976  1
  O  O24  1  0.569128  0.856210  0.914473  1
  O  O25  1  0.569128  0.856210  0.585527  1
  O  O26  1  0.430872  0.143790  0.085527  1
  O  O27  1  0.430872  0.143790  0.414473  1
  O  O28  1  0.402492  0.612885  0.087976  1
  O  O29  1  0.402492  0.612885  0.412024  1
  O  O30  1  0.246345  0.880891  0.250000  1
  O  O31  1  0.253655  0.380891  0.750000  1
  O  O32  1  0.097508  0.112885  0.587976  1
  O  O33  1  0.097508  0.112885  0.912024  1
  O  O34  1  0.069128  0.643790  0.585527  1
  O  O35  1  0.069128  0.643790  0.914473  1
