# generated using pymatgen
data_Mn3Co3(TeO8)2
_symmetry_space_group_name_H-M   'P 1'
_cell_length_a   5.93076753
_cell_length_b   5.97421560
_cell_length_c   9.27570498
_cell_angle_alpha   91.80316883
_cell_angle_beta   89.16206226
_cell_angle_gamma   119.75354843
_symmetry_Int_Tables_number   1
_chemical_formula_structural   Mn3Co3(TeO8)2
_chemical_formula_sum   'Mn3 Co3 Te2 O16'
_cell_volume   285.18530624
_cell_formula_units_Z   1
loop_
 _symmetry_equiv_pos_site_id
 _symmetry_equiv_pos_as_xyz
  1  'x, y, z'
loop_
 _atom_site_type_symbol
 _atom_site_label
 _atom_site_symmetry_multiplicity
 _atom_site_fract_x
 _atom_site_fract_y
 _atom_site_fract_z
 _atom_site_occupancy
  Mn  Mn0  1  0.169746  0.826935  0.792021  1
  Mn  Mn1  1  0.828715  0.658099  0.289121  1
  Mn  Mn2  1  0.332614  0.166626  0.295497  1
  Co  Co3  1  0.663146  0.829203  0.786428  1
  Co  Co4  1  0.170849  0.337676  0.784281  1
  Co  Co5  1  0.826333  0.165056  0.280663  1
  Te  Te6  1  0.330082  0.661647  0.511619  1
  Te  Te7  1  0.670689  0.335000  0.010677  1
  O  O8  1  0.652949  0.823454  0.402976  1
  O  O9  1  0.478205  0.521851  0.649234  1
  O  O10  1  0.334347  0.670016  0.889903  1
  O  O11  1  0.001797  0.994644  0.704063  1
  O  O12  1  0.996210  0.992327  0.203359  1
  O  O13  1  0.166575  0.339163  0.405761  1
  O  O14  1  0.465442  0.956850  0.657373  1
  O  O15  1  0.039494  0.530447  0.658540  1
  O  O16  1  0.836308  0.172995  0.909740  1
  O  O17  1  0.161974  0.809477  0.401935  1
  O  O18  1  0.961720  0.489674  0.157264  1
  O  O19  1  0.518998  0.049873  0.150838  1
  O  O20  1  0.667416  0.340774  0.388720  1
  O  O21  1  0.837437  0.653865  0.901044  1
  O  O22  1  0.542556  0.505096  0.150927  1
  O  O23  1  0.346600  0.169450  0.902292  1
