# generated using pymatgen
data_Li3MnPCO7
_symmetry_space_group_name_H-M   'P 1'
_cell_length_a   4.91102921
_cell_length_b   6.51824221
_cell_length_c   8.61467092
_cell_angle_alpha   90.00000000
_cell_angle_beta   94.35299830
_cell_angle_gamma   90.00000000
_symmetry_Int_Tables_number   1
_chemical_formula_structural   Li3MnPCO7
_chemical_formula_sum   'Li6 Mn2 P2 C2 O14'
_cell_volume   274.97113519
_cell_formula_units_Z   2
loop_
 _symmetry_equiv_pos_site_id
 _symmetry_equiv_pos_as_xyz
  1  'x, y, z'
loop_
 _atom_site_type_symbol
 _atom_site_label
 _atom_site_symmetry_multiplicity
 _atom_site_fract_x
 _atom_site_fract_y
 _atom_site_fract_z
 _atom_site_occupancy
  Li  Li0  1  0.775336  0.264725  0.894404  1
  Li  Li1  1  0.235164  0.485975  0.711079  1
  Li  Li2  1  0.776550  0.737206  0.643801  1
  Li  Li3  1  0.223450  0.237206  0.356199  1
  Li  Li4  1  0.764836  0.985975  0.288921  1
  Li  Li5  1  0.224664  0.764725  0.105596  1
  Mn  Mn6  1  0.256334  0.998864  0.734861  1
  Mn  Mn7  1  0.743666  0.498864  0.265139  1
  P  P8  1  0.720484  0.248405  0.593211  1
  P  P9  1  0.279516  0.748405  0.406789  1
  C  C10  1  0.705811  0.759614  0.957124  1
  C  C11  1  0.294189  0.259614  0.042876  1
  O  O12  1  0.958304  0.762788  0.931541  1
  O  O13  1  0.368773  0.247700  0.898466  1
  O  O14  1  0.515127  0.764576  0.843946  1
  O  O15  1  0.826056  0.057153  0.689126  1
  O  O16  1  0.825187  0.435721  0.690077  1
  O  O17  1  0.182188  0.746215  0.573958  1
  O  O18  1  0.400717  0.241058  0.580382  1
  O  O19  1  0.599283  0.741058  0.419618  1
  O  O20  1  0.817812  0.246215  0.426042  1
  O  O21  1  0.174813  0.935721  0.309923  1
  O  O22  1  0.173944  0.557153  0.310874  1
  O  O23  1  0.484873  0.264576  0.156054  1
  O  O24  1  0.631227  0.747700  0.101534  1
  O  O25  1  0.041696  0.262788  0.068459  1
