# generated using pymatgen
data_Na3MnSiBO7
_symmetry_space_group_name_H-M   'P 1'
_cell_length_a   5.28217366
_cell_length_b   6.47240381
_cell_length_c   8.96012624
_cell_angle_alpha   90.00000000
_cell_angle_beta   92.44150594
_cell_angle_gamma   90.00000000
_symmetry_Int_Tables_number   1
_chemical_formula_structural   Na3MnSiBO7
_chemical_formula_sum   'Na6 Mn2 Si2 B2 O14'
_cell_volume   306.05395148
_cell_formula_units_Z   2
loop_
 _symmetry_equiv_pos_site_id
 _symmetry_equiv_pos_as_xyz
  1  'x, y, z'
loop_
 _atom_site_type_symbol
 _atom_site_label
 _atom_site_symmetry_multiplicity
 _atom_site_fract_x
 _atom_site_fract_y
 _atom_site_fract_z
 _atom_site_occupancy
  Na  Na0  1  0.235626  0.750000  0.582788  1
  Na  Na1  1  0.746283  0.990173  0.762333  1
  Na  Na2  1  0.746283  0.509827  0.762333  1
  Na  Na3  1  0.253717  0.490173  0.237667  1
  Na  Na4  1  0.253717  0.009827  0.237667  1
  Na  Na5  1  0.764374  0.250000  0.417212  1
  Mn  Mn6  1  0.215933  0.250000  0.834783  1
  Mn  Mn7  1  0.784067  0.750000  0.165217  1
  Si  Si8  1  0.279518  0.750000  0.929287  1
  Si  Si9  1  0.720482  0.250000  0.070713  1
  B  B10  1  0.272805  0.250000  0.568220  1
  B  B11  1  0.727195  0.750000  0.431780  1
  O  O12  1  0.691915  0.750000  0.578466  1
  O  O13  1  0.037060  0.250000  0.634914  1
  O  O14  1  0.467297  0.250000  0.680837  1
  O  O15  1  0.214323  0.947951  0.817496  1
  O  O16  1  0.214323  0.552049  0.817496  1
  O  O17  1  0.585701  0.750000  0.978369  1
  O  O18  1  0.888131  0.250000  0.922780  1
  O  O19  1  0.111869  0.750000  0.077220  1
  O  O20  1  0.414299  0.250000  0.021631  1
  O  O21  1  0.785677  0.447951  0.182504  1
  O  O22  1  0.785677  0.052049  0.182504  1
  O  O23  1  0.532703  0.750000  0.319163  1
  O  O24  1  0.962940  0.750000  0.365086  1
  O  O25  1  0.308085  0.250000  0.421534  1
