# generated using pymatgen
data_LiVFe(P2O7)2
_symmetry_space_group_name_H-M   'P 1'
_cell_length_a   7.16116941
_cell_length_b   8.09056266
_cell_length_c   13.70531698
_cell_angle_alpha   89.82000449
_cell_angle_beta   82.75926667
_cell_angle_gamma   89.93725925
_symmetry_Int_Tables_number   1
_chemical_formula_structural   LiVFe(P2O7)2
_chemical_formula_sum   'Li3 V3 Fe3 P12 O42'
_cell_volume   787.72073214
_cell_formula_units_Z   3
loop_
 _symmetry_equiv_pos_site_id
 _symmetry_equiv_pos_as_xyz
  1  'x, y, z'
loop_
 _atom_site_type_symbol
 _atom_site_label
 _atom_site_symmetry_multiplicity
 _atom_site_fract_x
 _atom_site_fract_y
 _atom_site_fract_z
 _atom_site_occupancy
  Li  Li0  1  0.160310  0.864041  0.166346  1
  Li  Li1  1  0.825895  0.864142  0.500411  1
  Li  Li2  1  0.839587  0.361236  0.832205  1
  V  V3  1  0.117729  0.494363  0.162777  1
  V  V4  1  0.782309  0.495210  0.494867  1
  V  V5  1  0.443221  0.507032  0.829167  1
  Fe  Fe6  1  0.561393  0.010016  0.170599  1
  Fe  Fe7  1  0.230782  0.008381  0.505904  1
  Fe  Fe8  1  0.886043  0.994040  0.837989  1
  P  P9  1  0.869466  0.779311  0.043754  1
  P  P10  1  0.478481  0.677673  0.041431  1
  P  P11  1  0.795866  0.284303  0.288795  1
  P  P12  1  0.183743  0.179204  0.294033  1
  P  P13  1  0.536313  0.780535  0.375610  1
  P  P14  1  0.145788  0.679040  0.374868  1
  P  P15  1  0.849380  0.181066  0.626672  1
  P  P16  1  0.461817  0.285658  0.624107  1
  P  P17  1  0.816010  0.681657  0.706522  1
  P  P18  1  0.205328  0.781780  0.709873  1
  P  P19  1  0.520348  0.177638  0.959099  1
  P  P20  1  0.132268  0.284083  0.955882  1
  O  O21  1  0.696439  0.647789  0.052987  1
  O  O22  1  0.813660  0.932021  0.106475  1
  O  O23  1  0.538474  0.179395  0.068019  1
  O  O24  1  0.420330  0.846910  0.084150  1
  O  O25  1  0.371130  0.536932  0.098273  1
  O  O26  1  0.868101  0.436396  0.227609  1
  O  O27  1  0.083619  0.332061  0.064938  1
  O  O28  1  0.962641  0.148795  0.283214  1
  O  O29  1  0.028391  0.685400  0.086561  1
  O  O30  1  0.633288  0.192512  0.254541  1
  O  O31  1  0.588176  0.823577  0.267857  1
  O  O32  1  0.281672  0.040446  0.231359  1
  O  O33  1  0.232144  0.350844  0.247955  1
  O  O34  1  0.131032  0.674868  0.262925  1
  O  O35  1  0.749015  0.334668  0.397734  1
  O  O36  1  0.696019  0.686546  0.418113  1
  O  O37  1  0.363571  0.648638  0.386377  1
  O  O38  1  0.480995  0.931935  0.439947  1
  O  O39  1  0.208345  0.177201  0.401700  1
  O  O40  1  0.948344  0.040575  0.566706  1
  O  O41  1  0.898814  0.351745  0.580151  1
  O  O42  1  0.087521  0.847878  0.418909  1
  O  O43  1  0.037829  0.537588  0.430193  1
  O  O44  1  0.796461  0.673307  0.595353  1
  O  O45  1  0.534566  0.436309  0.561422  1
  O  O46  1  0.629126  0.149781  0.617463  1
  O  O47  1  0.299477  0.193391  0.589674  1
  O  O48  1  0.256329  0.825363  0.601825  1
  O  O49  1  0.874957  0.184616  0.735259  1
  O  O50  1  0.761607  0.851195  0.746941  1
  O  O51  1  0.712778  0.539457  0.765931  1
  O  O52  1  0.417871  0.339146  0.732491  1
  O  O53  1  0.363009  0.680985  0.747805  1
  O  O54  1  0.966361  0.200091  0.917401  1
  O  O55  1  0.032779  0.646233  0.718333  1
  O  O56  1  0.924449  0.818604  0.935700  1
  O  O57  1  0.140532  0.930425  0.773352  1
  O  O58  1  0.624659  0.040206  0.900557  1
  O  O59  1  0.571682  0.348092  0.910080  1
  O  O60  1  0.462633  0.665272  0.930356  1
  O  O61  1  0.194635  0.438127  0.893425  1
  O  O62  1  0.297837  0.150229  0.948366  1
