# generated using pymatgen
data_Li3V(SO4)3
_symmetry_space_group_name_H-M   'P 1'
_cell_length_a   8.13329346
_cell_length_b   8.13329346
_cell_length_c   8.13329346
_cell_angle_alpha   106.93746159
_cell_angle_beta   106.93746159
_cell_angle_gamma   106.93746159
_symmetry_Int_Tables_number   1
_chemical_formula_structural   Li3V(SO4)3
_chemical_formula_sum   'Li6 V2 S6 O24'
_cell_volume   448.83134333
_cell_formula_units_Z   2
loop_
 _symmetry_equiv_pos_site_id
 _symmetry_equiv_pos_as_xyz
  1  'x, y, z'
loop_
 _atom_site_type_symbol
 _atom_site_label
 _atom_site_symmetry_multiplicity
 _atom_site_fract_x
 _atom_site_fract_y
 _atom_site_fract_z
 _atom_site_occupancy
  Li  Li0  1  0.402121  0.847906  0.227679  1
  Li  Li1  1  0.772321  0.597879  0.152094  1
  Li  Li2  1  0.152094  0.772321  0.597879  1
  Li  Li3  1  0.847906  0.227679  0.402121  1
  Li  Li4  1  0.227679  0.402121  0.847906  1
  Li  Li5  1  0.597879  0.152094  0.772321  1
  V  V6  1  0.000000  0.000000  0.000000  1
  V  V7  1  0.500000  0.500000  0.500000  1
  S  S8  1  0.764498  0.906710  0.543569  1
  S  S9  1  0.093290  0.456431  0.235502  1
  S  S10  1  0.456431  0.235502  0.093290  1
  S  S11  1  0.543569  0.764498  0.906710  1
  S  S12  1  0.906710  0.543569  0.764498  1
  S  S13  1  0.235502  0.093290  0.456431  1
  O  O14  1  0.753850  0.872176  0.021013  1
  O  O15  1  0.127824  0.978987  0.246150  1
  O  O16  1  0.461832  0.709223  0.032322  1
  O  O17  1  0.290777  0.967678  0.538168  1
  O  O18  1  0.183561  0.539310  0.130422  1
  O  O19  1  0.869578  0.816439  0.460690  1
  O  O20  1  0.579880  0.762861  0.513981  1
  O  O21  1  0.967678  0.538168  0.290777  1
  O  O22  1  0.486019  0.420120  0.237139  1
  O  O23  1  0.978987  0.246150  0.127824  1
  O  O24  1  0.237139  0.486019  0.420120  1
  O  O25  1  0.460690  0.869578  0.816439  1
  O  O26  1  0.539310  0.130422  0.183561  1
  O  O27  1  0.762861  0.513981  0.579880  1
  O  O28  1  0.021013  0.753850  0.872176  1
  O  O29  1  0.513981  0.579880  0.762861  1
  O  O30  1  0.032322  0.461832  0.709223  1
  O  O31  1  0.420120  0.237139  0.486019  1
  O  O32  1  0.130422  0.183561  0.539310  1
  O  O33  1  0.816439  0.460690  0.869578  1
  O  O34  1  0.709223  0.032322  0.461832  1
  O  O35  1  0.538168  0.290777  0.967678  1
  O  O36  1  0.872176  0.021013  0.753850  1
  O  O37  1  0.246150  0.127824  0.978987  1
