# generated using pymatgen
data_Li5(NiO2)4
_symmetry_space_group_name_H-M   'P 1'
_cell_length_a   8.38222801
_cell_length_b   8.38222801
_cell_length_c   8.38222801
_cell_angle_alpha   90.00000000
_cell_angle_beta   90.00000000
_cell_angle_gamma   90.00000000
_symmetry_Int_Tables_number   1
_chemical_formula_structural   Li5(NiO2)4
_chemical_formula_sum   'Li20 Ni16 O32'
_cell_volume   588.94997898
_cell_formula_units_Z   4
loop_
 _symmetry_equiv_pos_site_id
 _symmetry_equiv_pos_as_xyz
  1  'x, y, z'
loop_
 _atom_site_type_symbol
 _atom_site_label
 _atom_site_symmetry_multiplicity
 _atom_site_fract_x
 _atom_site_fract_y
 _atom_site_fract_z
 _atom_site_occupancy
  Li  Li0  1  0.803176  0.303176  0.196824  1
  Li  Li1  1  0.139336  0.625000  0.110664  1
  Li  Li2  1  0.389336  0.860664  0.125000  1
  Li  Li3  1  0.625000  0.110664  0.139336  1
  Li  Li4  1  0.946824  0.446824  0.053176  1
  Li  Li5  1  0.446824  0.053176  0.946824  1
  Li  Li6  1  0.125000  0.389336  0.860664  1
  Li  Li7  1  0.889336  0.639336  0.875000  1
  Li  Li8  1  0.639336  0.875000  0.889336  1
  Li  Li9  1  0.303176  0.196824  0.803176  1
  Li  Li10  1  0.696824  0.696824  0.696824  1
  Li  Li11  1  0.360664  0.375000  0.610664  1
  Li  Li12  1  0.110664  0.139336  0.625000  1
  Li  Li13  1  0.875000  0.889336  0.639336  1
  Li  Li14  1  0.553176  0.553176  0.553176  1
  Li  Li15  1  0.053176  0.946824  0.446824  1
  Li  Li16  1  0.375000  0.610664  0.360664  1
  Li  Li17  1  0.610664  0.360664  0.375000  1
  Li  Li18  1  0.860664  0.125000  0.389336  1
  Li  Li19  1  0.196824  0.803176  0.303176  1
  Ni  Ni20  1  0.125000  0.125000  0.125000  1
  Ni  Ni21  1  0.625000  0.375000  0.875000  1
  Ni  Ni22  1  0.375000  0.875000  0.625000  1
  Ni  Ni23  1  0.875000  0.625000  0.375000  1
  Ni  Ni24  1  0.375000  0.375942  0.125942  1
  Ni  Ni25  1  0.624058  0.625942  0.125000  1
  Ni  Ni26  1  0.874058  0.875000  0.124058  1
  Ni  Ni27  1  0.374058  0.625000  0.875942  1
  Ni  Ni28  1  0.124058  0.874058  0.875000  1
  Ni  Ni29  1  0.875000  0.124058  0.874058  1
  Ni  Ni30  1  0.125000  0.624058  0.625942  1
  Ni  Ni31  1  0.875942  0.374058  0.625000  1
  Ni  Ni32  1  0.625942  0.125000  0.624058  1
  Ni  Ni33  1  0.125942  0.375000  0.375942  1
  Ni  Ni34  1  0.375942  0.125942  0.375000  1
  Ni  Ni35  1  0.625000  0.875942  0.374058  1
  O  O36  1  0.136752  0.365231  0.131753  1
  O  O37  1  0.365231  0.131753  0.136752  1
  O  O38  1  0.627934  0.872066  0.127934  1
  O  O39  1  0.613248  0.381753  0.115231  1
  O  O40  1  0.868247  0.636752  0.134769  1
  O  O41  1  0.377934  0.622066  0.122066  1
  O  O42  1  0.118247  0.884769  0.113248  1
  O  O43  1  0.884769  0.113248  0.118247  1
  O  O44  1  0.384769  0.386752  0.881753  1
  O  O45  1  0.618247  0.615231  0.886752  1
  O  O46  1  0.877934  0.877934  0.877934  1
  O  O47  1  0.368247  0.863248  0.865231  1
  O  O48  1  0.113248  0.118247  0.884769  1
  O  O49  1  0.127934  0.627934  0.872066  1
  O  O50  1  0.865231  0.368247  0.863248  1
  O  O51  1  0.636752  0.134769  0.868247  1
  O  O52  1  0.363248  0.634769  0.631753  1
  O  O53  1  0.134769  0.868247  0.636752  1
  O  O54  1  0.872066  0.127934  0.627934  1
  O  O55  1  0.886752  0.618247  0.615231  1
  O  O56  1  0.631753  0.363248  0.634769  1
  O  O57  1  0.122066  0.377934  0.622066  1
  O  O58  1  0.381753  0.115231  0.613248  1
  O  O59  1  0.615231  0.886752  0.618247  1
  O  O60  1  0.115231  0.613248  0.381753  1
  O  O61  1  0.881753  0.384769  0.386752  1
  O  O62  1  0.622066  0.122066  0.377934  1
  O  O63  1  0.131753  0.136752  0.365231  1
  O  O64  1  0.386752  0.881753  0.384769  1
  O  O65  1  0.372066  0.372066  0.372066  1
  O  O66  1  0.634769  0.631753  0.363248  1
  O  O67  1  0.863248  0.865231  0.368247  1
