# generated using pymatgen
data_LiVPO4
_symmetry_space_group_name_H-M   'P 1'
_cell_length_a   5.56350043
_cell_length_b   8.48212377
_cell_length_c   18.91778568
_cell_angle_alpha   90.00000000
_cell_angle_beta   90.00000000
_cell_angle_gamma   90.00000000
_symmetry_Int_Tables_number   1
_chemical_formula_structural   LiVPO4
_chemical_formula_sum   'Li12 V12 P12 O48'
_cell_volume   892.73596723
_cell_formula_units_Z   12
loop_
 _symmetry_equiv_pos_site_id
 _symmetry_equiv_pos_as_xyz
  1  'x, y, z'
loop_
 _atom_site_type_symbol
 _atom_site_label
 _atom_site_symmetry_multiplicity
 _atom_site_fract_x
 _atom_site_fract_y
 _atom_site_fract_z
 _atom_site_occupancy
  Li  Li0  1  0.253920  0.080652  0.919635  1
  Li  Li1  1  0.720139  0.582500  0.913499  1
  Li  Li2  1  0.231070  0.417776  0.753168  1
  Li  Li3  1  0.731070  0.917776  0.746832  1
  Li  Li4  1  0.220139  0.082500  0.586501  1
  Li  Li5  1  0.753920  0.580652  0.580365  1
  Li  Li6  1  0.253920  0.419348  0.419635  1
  Li  Li7  1  0.720139  0.917500  0.413499  1
  Li  Li8  1  0.231070  0.082224  0.253168  1
  Li  Li9  1  0.731070  0.582224  0.246832  1
  Li  Li10  1  0.220139  0.417500  0.086501  1
  Li  Li11  1  0.753920  0.919348  0.080365  1
  V  V12  1  0.235037  0.747958  0.999813  1
  V  V13  1  0.736000  0.248066  0.833572  1
  V  V14  1  0.237481  0.751316  0.833162  1
  V  V15  1  0.737481  0.251316  0.666838  1
  V  V16  1  0.236000  0.748066  0.666428  1
  V  V17  1  0.735037  0.247958  0.500187  1
  V  V18  1  0.235037  0.752042  0.499813  1
  V  V19  1  0.736000  0.251934  0.333572  1
  V  V20  1  0.237481  0.748684  0.333162  1
  V  V21  1  0.737481  0.248684  0.166838  1
  V  V22  1  0.236000  0.751934  0.166428  1
  V  V23  1  0.735037  0.252042  0.000187  1
  P  P24  1  0.232167  0.396663  0.918619  1
  P  P25  1  0.738699  0.897189  0.914914  1
  P  P26  1  0.237292  0.102455  0.751712  1
  P  P27  1  0.737292  0.602455  0.748288  1
  P  P28  1  0.238699  0.397189  0.585086  1
  P  P29  1  0.732167  0.896663  0.581381  1
  P  P30  1  0.232167  0.103337  0.418619  1
  P  P31  1  0.738699  0.602811  0.414914  1
  P  P32  1  0.237292  0.397545  0.251712  1
  P  P33  1  0.737292  0.897545  0.248288  1
  P  P34  1  0.238699  0.102811  0.085086  1
  P  P35  1  0.732167  0.603337  0.081381  1
  O  O36  1  0.230266  0.494826  0.986653  1
  O  O37  1  0.738181  0.000605  0.981400  1
  O  O38  1  0.961444  0.781688  0.915910  1
  O  O39  1  0.511515  0.784215  0.916036  1
  O  O40  1  0.458725  0.283178  0.917707  1
  O  O41  1  0.008829  0.281784  0.917267  1
  O  O42  1  0.234654  0.500164  0.852186  1
  O  O43  1  0.738696  0.995265  0.846922  1
  O  O44  1  0.239643  0.003985  0.819607  1
  O  O45  1  0.732607  0.499382  0.814858  1
  O  O46  1  0.963657  0.715309  0.749767  1
  O  O47  1  0.513823  0.718095  0.748789  1
  O  O48  1  0.013823  0.218095  0.751211  1
  O  O49  1  0.463657  0.215309  0.750233  1
  O  O50  1  0.232607  0.999382  0.685142  1
  O  O51  1  0.739643  0.503985  0.680393  1
  O  O52  1  0.238696  0.495265  0.653078  1
  O  O53  1  0.734654  0.000164  0.647814  1
  O  O54  1  0.508829  0.781784  0.582733  1
  O  O55  1  0.958725  0.783178  0.582293  1
  O  O56  1  0.011515  0.284215  0.583964  1
  O  O57  1  0.461444  0.281688  0.584090  1
  O  O58  1  0.238181  0.500605  0.518600  1
  O  O59  1  0.730266  0.994826  0.513347  1
  O  O60  1  0.230266  0.005174  0.486653  1
  O  O61  1  0.738181  0.499395  0.481400  1
  O  O62  1  0.961444  0.718312  0.415910  1
  O  O63  1  0.511515  0.715785  0.416036  1
  O  O64  1  0.458725  0.216822  0.417707  1
  O  O65  1  0.008829  0.218216  0.417267  1
  O  O66  1  0.234654  0.999836  0.352186  1
  O  O67  1  0.738696  0.504735  0.346922  1
  O  O68  1  0.239643  0.496015  0.319607  1
  O  O69  1  0.732607  0.000618  0.314858  1
  O  O70  1  0.963657  0.784691  0.249767  1
  O  O71  1  0.513823  0.781905  0.248789  1
  O  O72  1  0.013823  0.281905  0.251211  1
  O  O73  1  0.463657  0.284691  0.250233  1
  O  O74  1  0.232607  0.500618  0.185142  1
  O  O75  1  0.739643  0.996015  0.180393  1
  O  O76  1  0.238696  0.004735  0.153078  1
  O  O77  1  0.734654  0.499836  0.147814  1
  O  O78  1  0.508829  0.718216  0.082733  1
  O  O79  1  0.958725  0.716822  0.082293  1
  O  O80  1  0.011515  0.215785  0.083964  1
  O  O81  1  0.461444  0.218312  0.084090  1
  O  O82  1  0.238181  0.999395  0.018600  1
  O  O83  1  0.730266  0.505174  0.013347  1
