# generated using pymatgen
data_Li3Ti2CuO6
_symmetry_space_group_name_H-M   'P 1'
_cell_length_a   6.75498299
_cell_length_b   6.75498299
_cell_length_c   6.01210948
_cell_angle_alpha   76.91387045
_cell_angle_beta   103.08612955
_cell_angle_gamma   154.76823855
_symmetry_Int_Tables_number   1
_chemical_formula_structural   Li3Ti2CuO6
_chemical_formula_sum   'Li3 Ti2 Cu1 O6'
_cell_volume   113.75102167
_cell_formula_units_Z   1
loop_
 _symmetry_equiv_pos_site_id
 _symmetry_equiv_pos_as_xyz
  1  'x, y, z'
loop_
 _atom_site_type_symbol
 _atom_site_label
 _atom_site_symmetry_multiplicity
 _atom_site_fract_x
 _atom_site_fract_y
 _atom_site_fract_z
 _atom_site_occupancy
  Li  Li0  1  0.000000  0.000000  0.000000  1
  Li  Li1  1  0.336728  0.663272  0.668239  1
  Li  Li2  1  0.663272  0.336728  0.331761  1
  Ti  Ti3  1  0.344659  0.655341  0.179221  1
  Ti  Ti4  1  0.655341  0.344659  0.820779  1
  Cu  Cu5  1  1.000000  0.000000  0.500000  1
  O  O6  1  0.822299  0.177701  0.385091  1
  O  O7  1  0.171590  0.828410  0.058230  1
  O  O8  1  0.177701  0.822299  0.614909  1
  O  O9  1  0.511714  0.488286  0.768263  1
  O  O10  1  0.488286  0.511714  0.231737  1
  O  O11  1  0.828410  0.171590  0.941770  1
