# generated using pymatgen
data_Li2Cr(SiO3)2
_symmetry_space_group_name_H-M   'P 1'
_cell_length_a   7.02806618
_cell_length_b   10.12839031
_cell_length_c   10.28575130
_cell_angle_alpha   90.00000000
_cell_angle_beta   90.00000000
_cell_angle_gamma   90.00000000
_symmetry_Int_Tables_number   1
_chemical_formula_structural   Li2Cr(SiO3)2
_chemical_formula_sum   'Li12 Cr6 Si12 O36'
_cell_volume   732.17060800
_cell_formula_units_Z   6
loop_
 _symmetry_equiv_pos_site_id
 _symmetry_equiv_pos_as_xyz
  1  'x, y, z'
loop_
 _atom_site_type_symbol
 _atom_site_label
 _atom_site_symmetry_multiplicity
 _atom_site_fract_x
 _atom_site_fract_y
 _atom_site_fract_z
 _atom_site_occupancy
  Li  Li0  1  0.505139  0.496944  0.000000  1
  Li  Li1  1  0.266708  0.264246  0.000000  1
  Li  Li2  1  0.700952  0.543047  0.792536  1
  Li  Li3  1  0.230319  0.492578  0.767504  1
  Li  Li4  1  0.769681  0.992578  0.732496  1
  Li  Li5  1  0.299048  0.043047  0.707464  1
  Li  Li6  1  0.733292  0.764246  0.500000  1
  Li  Li7  1  0.494861  0.996944  0.500000  1
  Li  Li8  1  0.299048  0.043047  0.292536  1
  Li  Li9  1  0.769681  0.992578  0.267504  1
  Li  Li10  1  0.230319  0.492578  0.232496  1
  Li  Li11  1  0.700952  0.543047  0.207464  1
  Cr  Cr12  1  0.014566  0.000360  0.000000  1
  Cr  Cr13  1  0.751552  0.755555  0.000000  1
  Cr  Cr14  1  0.261003  0.747253  0.000000  1
  Cr  Cr15  1  0.985434  0.500360  0.500000  1
  Cr  Cr16  1  0.738997  0.247253  0.500000  1
  Cr  Cr17  1  0.248448  0.255555  0.500000  1
  Si  Si18  1  0.011201  0.454733  0.000000  1
  Si  Si19  1  0.489574  0.050856  0.000000  1
  Si  Si20  1  0.982901  0.239143  0.770632  1
  Si  Si21  1  0.525880  0.263175  0.774696  1
  Si  Si22  1  0.474120  0.763175  0.725304  1
  Si  Si23  1  0.017099  0.739143  0.729368  1
  Si  Si24  1  0.510426  0.550856  0.500000  1
  Si  Si25  1  0.988799  0.954733  0.500000  1
  Si  Si26  1  0.017099  0.739143  0.270632  1
  Si  Si27  1  0.474120  0.763175  0.274696  1
  Si  Si28  1  0.525880  0.263175  0.225304  1
  Si  Si29  1  0.982901  0.239143  0.229368  1
  O  O30  1  0.706626  0.999967  0.000000  1
  O  O31  1  0.798683  0.510985  0.000000  1
  O  O32  1  0.311604  0.946039  0.000000  1
  O  O33  1  0.194249  0.552874  0.000000  1
  O  O34  1  0.433290  0.153381  0.878091  1
  O  O35  1  0.064638  0.351261  0.876279  1
  O  O36  1  0.970113  0.797161  0.872520  1
  O  O37  1  0.541354  0.711042  0.867721  1
  O  O38  1  0.476754  0.411450  0.818546  1
  O  O39  1  0.055266  0.091534  0.805303  1
  O  O40  1  0.752456  0.230321  0.783018  1
  O  O41  1  0.247544  0.730321  0.716982  1
  O  O42  1  0.944734  0.591534  0.694697  1
  O  O43  1  0.523246  0.911450  0.681454  1
  O  O44  1  0.458646  0.211042  0.632279  1
  O  O45  1  0.029887  0.297161  0.627480  1
  O  O46  1  0.935362  0.851261  0.623721  1
  O  O47  1  0.566710  0.653381  0.621909  1
  O  O48  1  0.293374  0.499967  0.500000  1
  O  O49  1  0.688396  0.446039  0.500000  1
  O  O50  1  0.201317  0.010985  0.500000  1
  O  O51  1  0.805751  0.052874  0.500000  1
  O  O52  1  0.566710  0.653381  0.378091  1
  O  O53  1  0.935362  0.851261  0.376279  1
  O  O54  1  0.029887  0.297161  0.372520  1
  O  O55  1  0.458646  0.211042  0.367721  1
  O  O56  1  0.523246  0.911450  0.318546  1
  O  O57  1  0.944734  0.591534  0.305303  1
  O  O58  1  0.247544  0.730321  0.283018  1
  O  O59  1  0.752456  0.230321  0.216982  1
  O  O60  1  0.055266  0.091534  0.194697  1
  O  O61  1  0.476754  0.411450  0.181454  1
  O  O62  1  0.541354  0.711042  0.132279  1
  O  O63  1  0.970113  0.797161  0.127480  1
  O  O64  1  0.064638  0.351261  0.123721  1
  O  O65  1  0.433290  0.153381  0.121909  1
