# generated using pymatgen
data_Li2CoBO4
_symmetry_space_group_name_H-M   'P 1'
_cell_length_a   5.00254898
_cell_length_b   5.79388056
_cell_length_c   10.34494683
_cell_angle_alpha   90.00000000
_cell_angle_beta   90.00000000
_cell_angle_gamma   90.00000000
_symmetry_Int_Tables_number   1
_chemical_formula_structural   Li2CoBO4
_chemical_formula_sum   'Li8 Co4 B4 O16'
_cell_volume   299.83971111
_cell_formula_units_Z   4
loop_
 _symmetry_equiv_pos_site_id
 _symmetry_equiv_pos_as_xyz
  1  'x, y, z'
loop_
 _atom_site_type_symbol
 _atom_site_label
 _atom_site_symmetry_multiplicity
 _atom_site_fract_x
 _atom_site_fract_y
 _atom_site_fract_z
 _atom_site_occupancy
  Li  Li0  1  0.175913  0.503495  0.666550  1
  Li  Li1  1  0.324087  0.503495  0.166550  1
  Li  Li2  1  0.175913  0.996505  0.666550  1
  Li  Li3  1  0.324087  0.996505  0.166550  1
  Li  Li4  1  0.675913  0.003495  0.833450  1
  Li  Li5  1  0.824087  0.003495  0.333450  1
  Li  Li6  1  0.824087  0.496505  0.333450  1
  Li  Li7  1  0.675913  0.496505  0.833450  1
  Co  Co8  1  0.681114  0.750000  0.582269  1
  Co  Co9  1  0.818886  0.750000  0.082269  1
  Co  Co10  1  0.181114  0.250000  0.917731  1
  Co  Co11  1  0.318886  0.250000  0.417731  1
  B  B12  1  0.165010  0.750000  0.915386  1
  B  B13  1  0.334990  0.750000  0.415386  1
  B  B14  1  0.665010  0.250000  0.584614  1
  B  B15  1  0.834990  0.250000  0.084614  1
  O  O16  1  0.281962  0.537741  0.853927  1
  O  O17  1  0.218038  0.537741  0.353927  1
  O  O18  1  0.869349  0.750000  0.900378  1
  O  O19  1  0.297987  0.750000  0.558001  1
  O  O20  1  0.202013  0.750000  0.058001  1
  O  O21  1  0.630651  0.750000  0.400378  1
  O  O22  1  0.281962  0.962259  0.853927  1
  O  O23  1  0.218038  0.962259  0.353927  1
  O  O24  1  0.718038  0.037741  0.146073  1
  O  O25  1  0.781962  0.037741  0.646073  1
  O  O26  1  0.797987  0.250000  0.941999  1
  O  O27  1  0.369349  0.250000  0.599622  1
  O  O28  1  0.702013  0.250000  0.441999  1
  O  O29  1  0.130651  0.250000  0.099622  1
  O  O30  1  0.781962  0.462259  0.646073  1
  O  O31  1  0.718038  0.462259  0.146073  1
