# generated using pymatgen
data_K3CoPCO7
_symmetry_space_group_name_H-M   'P 1'
_cell_length_a   5.63801406
_cell_length_b   6.85915649
_cell_length_c   9.74411134
_cell_angle_alpha   90.00000000
_cell_angle_beta   90.10935212
_cell_angle_gamma   90.00000000
_symmetry_Int_Tables_number   1
_chemical_formula_structural   K3CoPCO7
_chemical_formula_sum   'K6 Co2 P2 C2 O14'
_cell_volume   376.82378922
_cell_formula_units_Z   2
loop_
 _symmetry_equiv_pos_site_id
 _symmetry_equiv_pos_as_xyz
  1  'x, y, z'
loop_
 _atom_site_type_symbol
 _atom_site_label
 _atom_site_symmetry_multiplicity
 _atom_site_fract_x
 _atom_site_fract_y
 _atom_site_fract_z
 _atom_site_occupancy
  K  K0  1  0.239744  0.750000  0.076384  1
  K  K1  1  0.745731  0.987177  0.276957  1
  K  K2  1  0.745731  0.512823  0.276957  1
  K  K3  1  0.254269  0.487177  0.723043  1
  K  K4  1  0.254269  0.012823  0.723043  1
  K  K5  1  0.760256  0.250000  0.923616  1
  Co  Co6  1  0.233451  0.250000  0.355773  1
  Co  Co7  1  0.766549  0.750000  0.644227  1
  P  P8  1  0.279631  0.750000  0.425335  1
  P  P9  1  0.720369  0.250000  0.574665  1
  C  C10  1  0.261905  0.250000  0.085971  1
  C  C11  1  0.738095  0.750000  0.914029  1
  O  O12  1  0.740702  0.750000  0.046522  1
  O  O13  1  0.062970  0.250000  0.156530  1
  O  O14  1  0.459669  0.250000  0.155466  1
  O  O15  1  0.241800  0.933689  0.332206  1
  O  O16  1  0.241800  0.566311  0.332206  1
  O  O17  1  0.545152  0.750000  0.476635  1
  O  O18  1  0.892012  0.250000  0.451890  1
  O  O19  1  0.107988  0.750000  0.548110  1
  O  O20  1  0.454848  0.250000  0.523365  1
  O  O21  1  0.758200  0.433689  0.667794  1
  O  O22  1  0.758200  0.066311  0.667794  1
  O  O23  1  0.540331  0.750000  0.844534  1
  O  O24  1  0.937030  0.750000  0.843470  1
  O  O25  1  0.259298  0.250000  0.953478  1
