# generated using pymatgen
data_Li2Mn4OF8
_symmetry_space_group_name_H-M   'P 1'
_cell_length_a   8.27541880
_cell_length_b   10.09071044
_cell_length_c   10.46824564
_cell_angle_alpha   66.76277871
_cell_angle_beta   89.49596187
_cell_angle_gamma   89.35450871
_symmetry_Int_Tables_number   1
_chemical_formula_structural   Li2Mn4OF8
_chemical_formula_sum   'Li8 Mn16 O4 F32'
_cell_volume   803.17767993
_cell_formula_units_Z   4
loop_
 _symmetry_equiv_pos_site_id
 _symmetry_equiv_pos_as_xyz
  1  'x, y, z'
loop_
 _atom_site_type_symbol
 _atom_site_label
 _atom_site_symmetry_multiplicity
 _atom_site_fract_x
 _atom_site_fract_y
 _atom_site_fract_z
 _atom_site_occupancy
  Li  Li0  1  0.534583  0.773441  0.716251  1
  Li  Li1  1  0.027690  0.721764  0.766652  1
  Li  Li2  1  0.936489  0.897723  0.261557  1
  Li  Li3  1  0.537922  0.415133  0.773839  1
  Li  Li4  1  0.467833  0.593486  0.239678  1
  Li  Li5  1  0.023093  0.066560  0.722517  1
  Li  Li6  1  0.968245  0.255719  0.210483  1
  Li  Li7  1  0.473020  0.223545  0.286211  1
  Mn  Mn8  1  0.760608  0.841195  0.927360  1
  Mn  Mn9  1  0.775934  0.955030  0.485996  1
  Mn  Mn10  1  0.516680  0.924772  0.191399  1
  Mn  Mn11  1  0.702120  0.505456  0.032999  1
  Mn  Mn12  1  0.277180  0.698156  0.493266  1
  Mn  Mn13  1  0.638678  0.686068  0.446930  1
  Mn  Mn14  1  0.182855  0.821463  0.027103  1
  Mn  Mn15  1  0.971348  0.430231  0.673478  1
  Mn  Mn16  1  0.043126  0.550625  0.304329  1
  Mn  Mn17  1  0.843320  0.183986  0.967821  1
  Mn  Mn18  1  0.357688  0.306649  0.543175  1
  Mn  Mn19  1  0.755825  0.309578  0.462125  1
  Mn  Mn20  1  0.309848  0.500993  0.992142  1
  Mn  Mn21  1  0.460450  0.031575  0.824954  1
  Mn  Mn22  1  0.179891  0.013072  0.490883  1
  Mn  Mn23  1  0.238181  0.162300  0.032550  1
  O  O24  1  0.616055  0.919739  0.765739  1
  O  O25  1  0.719308  0.893253  0.325390  1
  O  O26  1  0.339545  0.979277  0.011550  1
  O  O27  1  0.426226  0.728699  0.326918  1
  F  F28  1  0.984012  0.950501  0.908459  1
  F  F29  1  0.992707  0.921115  0.646229  1
  F  F30  1  0.209542  0.711729  0.890486  1
  F  F31  1  0.358322  0.852766  0.573817  1
  F  F32  1  0.879116  0.650885  0.920959  1
  F  F33  1  0.719703  0.739565  0.615097  1
  F  F34  1  0.093732  0.860150  0.408802  1
  F  F35  1  0.527038  0.586394  0.872896  1
  F  F36  1  0.100040  0.604149  0.670797  1
  F  F37  1  0.995339  0.760802  0.183925  1
  F  F38  1  0.463515  0.551089  0.607048  1
  F  F39  1  0.766804  0.383530  0.805612  1
  F  F40  1  0.380572  0.339446  0.913099  1
  F  F41  1  0.845342  0.530500  0.468887  1
  F  F42  1  0.168021  0.462527  0.495883  1
  F  F43  1  0.646451  0.675605  0.103984  1
  F  F44  1  0.242635  0.590150  0.167730  1
  F  F45  1  0.541576  0.428090  0.406395  1
  F  F46  1  0.062485  0.256872  0.853356  1
  F  F47  1  0.526390  0.251341  0.699164  1
  F  F48  1  0.884856  0.414422  0.269296  1
  F  F49  1  0.681951  0.020277  0.999157  1
  F  F50  1  0.491035  0.415668  0.151071  1
  F  F51  1  0.913061  0.243962  0.625305  1
  F  F52  1  0.246852  0.104483  0.676426  1
  F  F53  1  0.289215  0.218849  0.401679  1
  F  F54  1  0.139708  0.343061  0.088621  1
  F  F55  1  0.630679  0.147453  0.435591  1
  F  F56  1  0.779446  0.292624  0.094608  1
  F  F57  1  0.958555  0.125148  0.397993  1
  F  F58  1  0.389504  0.098405  0.214068  1
  F  F59  1  0.008056  0.078960  0.130262  1
