# generated using pymatgen
data_Li4Mn3(SnO5)2
_symmetry_space_group_name_H-M   'P 1'
_cell_length_a   6.64368711
_cell_length_b   8.25232166
_cell_length_c   8.35386304
_cell_angle_alpha   95.25345214
_cell_angle_beta   88.26785536
_cell_angle_gamma   113.28710853
_symmetry_Int_Tables_number   1
_chemical_formula_structural   Li4Mn3(SnO5)2
_chemical_formula_sum   'Li8 Mn6 Sn4 O20'
_cell_volume   418.92006210
_cell_formula_units_Z   2
loop_
 _symmetry_equiv_pos_site_id
 _symmetry_equiv_pos_as_xyz
  1  'x, y, z'
loop_
 _atom_site_type_symbol
 _atom_site_label
 _atom_site_symmetry_multiplicity
 _atom_site_fract_x
 _atom_site_fract_y
 _atom_site_fract_z
 _atom_site_occupancy
  Li  Li0  1  0.898425  0.218425  0.310072  1
  Li  Li1  1  0.191876  0.603600  0.396124  1
  Li  Li2  1  0.743375  0.519867  0.239176  1
  Li  Li3  1  0.256625  0.480133  0.760824  1
  Li  Li4  1  0.808124  0.396400  0.603876  1
  Li  Li5  1  0.101575  0.781575  0.689928  1
  Li  Li6  1  0.692958  0.612517  0.911783  1
  Li  Li7  1  0.307042  0.387483  0.088217  1
  Mn  Mn8  1  0.033902  0.897441  0.340918  1
  Mn  Mn9  1  0.966098  0.102559  0.659082  1
  Mn  Mn10  1  0.500000  0.000000  0.500000  1
  Mn  Mn11  1  0.000000  0.000000  0.000000  1
  Mn  Mn12  1  0.541913  0.895800  0.844423  1
  Mn  Mn13  1  0.458087  0.104200  0.155577  1
  Sn  Sn14  1  0.646229  0.695378  0.540944  1
  Sn  Sn15  1  0.353771  0.304622  0.459056  1
  Sn  Sn16  1  0.158448  0.693898  0.046897  1
  Sn  Sn17  1  0.841552  0.306102  0.953103  1
  O  O18  1  0.219395  0.058059  0.565032  1
  O  O19  1  0.067337  0.324280  0.540400  1
  O  O20  1  0.932663  0.675720  0.459600  1
  O  O21  1  0.612801  0.232107  0.393282  1
  O  O22  1  0.463062  0.533570  0.343970  1
  O  O23  1  0.780605  0.941941  0.434968  1
  O  O24  1  0.102610  0.237919  0.890639  1
  O  O25  1  0.306723  0.866701  0.259982  1
  O  O26  1  0.964473  0.539040  0.840445  1
  O  O27  1  0.693277  0.133299  0.740018  1
  O  O28  1  0.813625  0.855883  0.760239  1
  O  O29  1  0.536938  0.466430  0.656030  1
  O  O30  1  0.186375  0.144117  0.239761  1
  O  O31  1  0.387199  0.767893  0.606718  1
  O  O32  1  0.723885  0.070857  0.074733  1
  O  O33  1  0.035527  0.460960  0.159555  1
  O  O34  1  0.897390  0.762081  0.109361  1
  O  O35  1  0.573852  0.332834  0.059443  1
  O  O36  1  0.426148  0.667166  0.940557  1
  O  O37  1  0.276115  0.929143  0.925267  1
