# generated using pymatgen
data_CaPbI4
_symmetry_space_group_name_H-M   'P 1'
_cell_length_a   4.62131823
_cell_length_b   15.25645270
_cell_length_c   16.05104285
_cell_angle_alpha   90.00000000
_cell_angle_beta   90.00000000
_cell_angle_gamma   90.00000000
_symmetry_Int_Tables_number   1
_chemical_formula_structural   CaPbI4
_chemical_formula_sum   'Ca4 Pb4 I16'
_cell_volume   1131.67754096
_cell_formula_units_Z   4
loop_
 _symmetry_equiv_pos_site_id
 _symmetry_equiv_pos_as_xyz
  1  'x, y, z'
loop_
 _atom_site_type_symbol
 _atom_site_label
 _atom_site_symmetry_multiplicity
 _atom_site_fract_x
 _atom_site_fract_y
 _atom_site_fract_z
 _atom_site_occupancy
  Ca  Ca0  1  0.500000  0.998216  0.016339  1
  Ca  Ca1  1  0.500000  0.505714  0.231474  1
  Ca  Ca2  1  0.000000  0.498216  0.983661  1
  Ca  Ca3  1  0.000000  0.005714  0.768526  1
  Pb  Pb4  1  0.500000  0.000660  0.519225  1
  Pb  Pb5  1  0.500000  0.505868  0.734667  1
  Pb  Pb6  1  0.000000  0.500660  0.480775  1
  Pb  Pb7  1  0.000000  0.005868  0.265333  1
  I  I8  1  0.500000  0.881337  0.348834  1
  I  I9  1  0.500000  0.614730  0.063516  1
  I  I10  1  0.500000  0.889099  0.848517  1
  I  I11  1  0.500000  0.625371  0.563550  1
  I  I12  1  0.500000  0.382304  0.390294  1
  I  I13  1  0.500000  0.123251  0.174204  1
  I  I14  1  0.500000  0.121435  0.688485  1
  I  I15  1  0.500000  0.383201  0.902187  1
  I  I16  1  0.000000  0.883201  0.097813  1
  I  I17  1  0.000000  0.621435  0.311515  1
  I  I18  1  0.000000  0.882304  0.609706  1
  I  I19  1  0.000000  0.114730  0.936484  1
  I  I20  1  0.000000  0.389099  0.151483  1
  I  I21  1  0.000000  0.125371  0.436450  1
  I  I22  1  0.000000  0.381337  0.651166  1
  I  I23  1  0.000000  0.623251  0.825796  1
