# generated using pymatgen
data_Li5Mn2Cu5O12
_symmetry_space_group_name_H-M   'P 1'
_cell_length_a   5.04979256
_cell_length_b   5.04979256
_cell_length_c   9.62414019
_cell_angle_alpha   88.89238899
_cell_angle_beta   91.10761101
_cell_angle_gamma   65.89822599
_symmetry_Int_Tables_number   1
_chemical_formula_structural   Li5Mn2Cu5O12
_chemical_formula_sum   'Li5 Mn2 Cu5 O12'
_cell_volume   223.88264879
_cell_formula_units_Z   1
loop_
 _symmetry_equiv_pos_site_id
 _symmetry_equiv_pos_as_xyz
  1  'x, y, z'
loop_
 _atom_site_type_symbol
 _atom_site_label
 _atom_site_symmetry_multiplicity
 _atom_site_fract_x
 _atom_site_fract_y
 _atom_site_fract_z
 _atom_site_occupancy
  Li  Li0  1  0.838027  0.330108  0.743693  1
  Li  Li1  1  0.674807  0.150726  0.256418  1
  Li  Li2  1  0.330108  0.838027  0.256307  1
  Li  Li3  1  0.150726  0.674807  0.743582  1
  Li  Li4  1  0.084525  0.084525  0.500000  1
  Mn  Mn5  1  0.753859  0.753859  0.500000  1
  Mn  Mn6  1  0.251945  0.251945  0.000000  1
  Cu  Cu7  1  0.919671  0.919671  0.000000  1
  Cu  Cu8  1  0.003303  0.491502  0.252880  1
  Cu  Cu9  1  0.491502  0.003303  0.747120  1
  Cu  Cu10  1  0.582614  0.582614  0.000000  1
  Cu  Cu11  1  0.415207  0.415207  0.500000  1
  O  O12  1  0.008759  0.794974  0.366644  1
  O  O13  1  0.794974  0.008759  0.633356  1
  O  O14  1  0.923340  0.578240  0.903480  1
  O  O15  1  0.578240  0.923340  0.096520  1
  O  O16  1  0.692858  0.482078  0.376942  1
  O  O17  1  0.482078  0.692858  0.623058  1
  O  O18  1  0.511340  0.309557  0.872880  1
  O  O19  1  0.309557  0.511340  0.127120  1
  O  O20  1  0.432730  0.081379  0.403787  1
  O  O21  1  0.081379  0.432730  0.596213  1
  O  O22  1  0.191523  0.996930  0.870162  1
  O  O23  1  0.996930  0.191523  0.129838  1
