# generated using pymatgen
data_Li8Ti7Nb6O30
_symmetry_space_group_name_H-M   'P 1'
_cell_length_a   5.19581128
_cell_length_b   5.19581128
_cell_length_c   24.34257307
_cell_angle_alpha   90.00000000
_cell_angle_beta   90.00000000
_cell_angle_gamma   120.00000000
_symmetry_Int_Tables_number   1
_chemical_formula_structural   Li8Ti7Nb6O30
_chemical_formula_sum   'Li8 Ti7 Nb6 O30'
_cell_volume   569.12000402
_cell_formula_units_Z   1
loop_
 _symmetry_equiv_pos_site_id
 _symmetry_equiv_pos_as_xyz
  1  'x, y, z'
loop_
 _atom_site_type_symbol
 _atom_site_label
 _atom_site_symmetry_multiplicity
 _atom_site_fract_x
 _atom_site_fract_y
 _atom_site_fract_z
 _atom_site_occupancy
  Li  Li0  1  0.666667  0.333333  0.077510  1
  Li  Li1  1  0.666667  0.333333  0.371266  1
  Li  Li2  1  0.666667  0.333333  0.630883  1
  Li  Li3  1  0.666667  0.333333  0.921699  1
  Li  Li4  1  0.000000  0.000000  0.794407  1
  Li  Li5  1  0.000000  0.000000  0.527832  1
  Li  Li6  1  0.333333  0.666667  0.207525  1
  Li  Li7  1  0.333333  0.666667  0.472458  1
  Ti  Ti8  1  0.000000  0.000000  0.290571  1
  Ti  Ti9  1  0.000000  0.000000  0.894252  1
  Ti  Ti10  1  0.000000  0.000000  0.011004  1
  Ti  Ti11  1  0.000000  0.000000  0.690395  1
  Ti  Ti12  1  0.333333  0.666667  0.983088  1
  Ti  Ti13  1  0.333333  0.666667  0.712078  1
  Ti  Ti14  1  0.333333  0.666667  0.310487  1
  Nb  Nb15  1  0.000000  0.000000  0.404622  1
  Nb  Nb16  1  0.666667  0.333333  0.203770  1
  Nb  Nb17  1  0.666667  0.333333  0.500173  1
  Nb  Nb18  1  0.666667  0.333333  0.801331  1
  Nb  Nb19  1  0.333333  0.666667  0.105065  1
  Nb  Nb20  1  0.333333  0.666667  0.595664  1
  O  O21  1  0.588144  0.003789  0.151881  1
  O  O22  1  0.675159  0.967577  0.347802  1
  O  O23  1  0.676983  0.000519  0.746016  1
  O  O24  1  0.959770  0.292682  0.450847  1
  O  O25  1  0.648831  0.696062  0.045516  1
  O  O26  1  0.047230  0.351169  0.045516  1
  O  O27  1  0.707318  0.667087  0.450847  1
  O  O28  1  0.999481  0.676464  0.746016  1
  O  O29  1  0.292418  0.324841  0.347802  1
  O  O30  1  0.996211  0.584355  0.151881  1
  O  O31  1  0.323536  0.323017  0.746016  1
  O  O32  1  0.032423  0.707582  0.347802  1
  O  O33  1  0.001499  0.626639  0.549295  1
  O  O34  1  0.415645  0.411856  0.151881  1
  O  O35  1  0.031103  0.716715  0.951314  1
  O  O36  1  0.303938  0.952770  0.045516  1
  O  O37  1  0.916402  0.248932  0.848315  1
  O  O38  1  0.332913  0.040230  0.450847  1
  O  O39  1  0.297627  0.955296  0.652662  1
  O  O40  1  0.010173  0.345925  0.254324  1
  O  O41  1  0.332530  0.083598  0.848315  1
  O  O42  1  0.044704  0.342332  0.652662  1
  O  O43  1  0.335752  0.989827  0.254324  1
  O  O44  1  0.625140  0.998501  0.549295  1
  O  O45  1  0.283285  0.314388  0.951314  1
  O  O46  1  0.685612  0.968897  0.951314  1
  O  O47  1  0.373361  0.374860  0.549295  1
  O  O48  1  0.654075  0.664248  0.254324  1
  O  O49  1  0.657668  0.702373  0.652662  1
  O  O50  1  0.751068  0.667470  0.848315  1
