# generated using pymatgen
data_CoSi
_symmetry_space_group_name_H-M   'P 1'
_cell_length_a   4.43319800
_cell_length_b   4.43319800
_cell_length_c   4.43319800
_cell_angle_alpha   90.00000000
_cell_angle_beta   90.00000000
_cell_angle_gamma   90.00000000
_symmetry_Int_Tables_number   1
_chemical_formula_structural   CoSi
_chemical_formula_sum   'Co4 Si4'
_cell_volume   87.12672424
_cell_formula_units_Z   4
loop_
 _symmetry_equiv_pos_site_id
 _symmetry_equiv_pos_as_xyz
  1  'x, y, z'
loop_
 _atom_site_type_symbol
 _atom_site_label
 _atom_site_symmetry_multiplicity
 _atom_site_fract_x
 _atom_site_fract_y
 _atom_site_fract_z
 _atom_site_occupancy
  Co  Co0  1  0.854900  0.645100  0.354900  1
  Co  Co1  1  0.645100  0.354900  0.854900  1
  Co  Co2  1  0.354900  0.854900  0.645100  1
  Co  Co3  1  0.145100  0.145100  0.145100  1
  Si  Si4  1  0.156804  0.343196  0.656804  1
  Si  Si5  1  0.343196  0.656804  0.156804  1
  Si  Si6  1  0.656804  0.156804  0.343196  1
  Si  Si7  1  0.843196  0.843196  0.843196  1
