# generated using pymatgen
data_LiMnF4
_symmetry_space_group_name_H-M   'P 1'
_cell_length_a   4.56374292
_cell_length_b   5.35001433
_cell_length_c   11.56462017
_cell_angle_alpha   90.00000000
_cell_angle_beta   90.00000000
_cell_angle_gamma   90.00000000
_symmetry_Int_Tables_number   1
_chemical_formula_structural   LiMnF4
_chemical_formula_sum   'Li4 Mn4 F16'
_cell_volume   282.36280723
_cell_formula_units_Z   4
loop_
 _symmetry_equiv_pos_site_id
 _symmetry_equiv_pos_as_xyz
  1  'x, y, z'
loop_
 _atom_site_type_symbol
 _atom_site_label
 _atom_site_symmetry_multiplicity
 _atom_site_fract_x
 _atom_site_fract_y
 _atom_site_fract_z
 _atom_site_occupancy
  Li  Li0  1  0.000000  0.250000  0.325556  1
  Li  Li1  1  0.000000  0.750000  0.674444  1
  Li  Li2  1  0.500000  0.750000  0.174444  1
  Li  Li3  1  0.500000  0.250000  0.825556  1
  Mn  Mn4  1  0.000000  0.250000  0.071662  1
  Mn  Mn5  1  0.000000  0.750000  0.928338  1
  Mn  Mn6  1  0.500000  0.750000  0.428338  1
  Mn  Mn7  1  0.500000  0.250000  0.571662  1
  F  F8  1  0.764310  0.899112  0.048224  1
  F  F9  1  0.764310  0.399112  0.951776  1
  F  F10  1  0.775079  0.401595  0.186168  1
  F  F11  1  0.775079  0.901595  0.813832  1
  F  F12  1  0.724921  0.901595  0.313832  1
  F  F13  1  0.724921  0.401595  0.686168  1
  F  F14  1  0.735690  0.899112  0.548224  1
  F  F15  1  0.735690  0.399112  0.451776  1
  F  F16  1  0.264310  0.100888  0.451776  1
  F  F17  1  0.264310  0.600888  0.548224  1
  F  F18  1  0.275079  0.098405  0.686168  1
  F  F19  1  0.275079  0.598405  0.313832  1
  F  F20  1  0.224921  0.098405  0.186168  1
  F  F21  1  0.224921  0.598405  0.813832  1
  F  F22  1  0.235690  0.600888  0.048224  1
  F  F23  1  0.235690  0.100888  0.951776  1
