# generated using pymatgen
data_Li2VO2F3
_symmetry_space_group_name_H-M   'P 1'
_cell_length_a   5.39889390
_cell_length_b   7.16661896
_cell_length_c   9.46095111
_cell_angle_alpha   90.00000000
_cell_angle_beta   90.00000000
_cell_angle_gamma   90.00000000
_symmetry_Int_Tables_number   1
_chemical_formula_structural   Li2VO2F3
_chemical_formula_sum   'Li8 V4 O8 F12'
_cell_volume   366.06137373
_cell_formula_units_Z   4
loop_
 _symmetry_equiv_pos_site_id
 _symmetry_equiv_pos_as_xyz
  1  'x, y, z'
loop_
 _atom_site_type_symbol
 _atom_site_label
 _atom_site_symmetry_multiplicity
 _atom_site_fract_x
 _atom_site_fract_y
 _atom_site_fract_z
 _atom_site_occupancy
  Li  Li0  1  0.250000  0.031979  0.272955  1
  Li  Li1  1  0.750000  0.858720  0.434686  1
  Li  Li2  1  0.250000  0.641280  0.934686  1
  Li  Li3  1  0.750000  0.468021  0.772955  1
  Li  Li4  1  0.250000  0.531979  0.227045  1
  Li  Li5  1  0.750000  0.358720  0.065314  1
  Li  Li6  1  0.250000  0.141280  0.565314  1
  Li  Li7  1  0.750000  0.968021  0.727045  1
  V  V8  1  0.750000  0.785301  0.057014  1
  V  V9  1  0.250000  0.714699  0.557014  1
  V  V10  1  0.750000  0.285301  0.442986  1
  V  V11  1  0.250000  0.214699  0.942986  1
  O  O12  1  0.492057  0.855777  0.586095  1
  O  O13  1  0.007943  0.855777  0.586095  1
  O  O14  1  0.992057  0.644223  0.086095  1
  O  O15  1  0.507943  0.644223  0.086095  1
  O  O16  1  0.492057  0.355777  0.913905  1
  O  O17  1  0.007943  0.355777  0.913905  1
  O  O18  1  0.992057  0.144223  0.413905  1
  O  O19  1  0.507943  0.144223  0.413905  1
  F  F20  1  0.000000  0.000000  0.000000  1
  F  F21  1  0.500000  0.000000  0.000000  1
  F  F22  1  0.750000  0.892908  0.237267  1
  F  F23  1  0.250000  0.754574  0.351412  1
  F  F24  1  0.750000  0.745426  0.851412  1
  F  F25  1  0.250000  0.607092  0.737267  1
  F  F26  1  0.000000  0.500000  0.500000  1
  F  F27  1  0.500000  0.500000  0.500000  1
  F  F28  1  0.750000  0.392908  0.262733  1
  F  F29  1  0.250000  0.254574  0.148588  1
  F  F30  1  0.750000  0.245426  0.648588  1
  F  F31  1  0.250000  0.107092  0.762733  1
