# generated using pymatgen
data_Li2Mn3NbO8
_symmetry_space_group_name_H-M   'P 1'
_cell_length_a   6.15885764
_cell_length_b   6.15885764
_cell_length_c   6.15885764
_cell_angle_alpha   58.59613848
_cell_angle_beta   58.59613848
_cell_angle_gamma   58.59613848
_symmetry_Int_Tables_number   1
_chemical_formula_structural   Li2Mn3NbO8
_chemical_formula_sum   'Li2 Mn3 Nb1 O8'
_cell_volume   159.88851469
_cell_formula_units_Z   1
loop_
 _symmetry_equiv_pos_site_id
 _symmetry_equiv_pos_as_xyz
  1  'x, y, z'
loop_
 _atom_site_type_symbol
 _atom_site_label
 _atom_site_symmetry_multiplicity
 _atom_site_fract_x
 _atom_site_fract_y
 _atom_site_fract_z
 _atom_site_occupancy
  Li  Li0  1  0.874163  0.874163  0.874163  1
  Li  Li1  1  0.125837  0.125837  0.125837  1
  Mn  Mn2  1  0.500000  0.500000  1.000000  1
  Mn  Mn3  1  0.000000  0.500000  0.500000  1
  Mn  Mn4  1  0.500000  0.000000  0.500000  1
  Nb  Nb5  1  0.500000  0.500000  0.500000  1
  O  O6  1  0.726869  0.726869  0.726869  1
  O  O7  1  0.734626  0.274830  0.734626  1
  O  O8  1  0.274830  0.734626  0.734626  1
  O  O9  1  0.734626  0.734626  0.274830  1
  O  O10  1  0.265374  0.265374  0.725170  1
  O  O11  1  0.725170  0.265374  0.265374  1
  O  O12  1  0.265374  0.725170  0.265374  1
  O  O13  1  0.273131  0.273131  0.273131  1
