# generated using pymatgen
data_LiFe2(BO3)2
_symmetry_space_group_name_H-M   'P 1'
_cell_length_a   5.27942657
_cell_length_b   9.05528920
_cell_length_c   11.39546080
_cell_angle_alpha   113.22936834
_cell_angle_beta   102.28251675
_cell_angle_gamma   90.36344735
_symmetry_Int_Tables_number   1
_chemical_formula_structural   LiFe2(BO3)2
_chemical_formula_sum   'Li4 Fe8 B8 O24'
_cell_volume   486.68036822
_cell_formula_units_Z   4
loop_
 _symmetry_equiv_pos_site_id
 _symmetry_equiv_pos_as_xyz
  1  'x, y, z'
loop_
 _atom_site_type_symbol
 _atom_site_label
 _atom_site_symmetry_multiplicity
 _atom_site_fract_x
 _atom_site_fract_y
 _atom_site_fract_z
 _atom_site_occupancy
  Li  Li0  1  0.731103  0.391181  0.126011  1
  Li  Li1  1  0.514022  0.847756  0.337640  1
  Li  Li2  1  0.734580  0.084745  0.840829  1
  Li  Li3  1  0.224346  0.583714  0.832999  1
  Fe  Fe4  1  0.992576  0.972836  0.620097  1
  Fe  Fe5  1  0.734214  0.048328  0.119256  1
  Fe  Fe6  1  0.504526  0.519048  0.368218  1
  Fe  Fe7  1  0.748943  0.433359  0.871921  1
  Fe  Fe8  1  0.225970  0.560265  0.113417  1
  Fe  Fe9  1  0.489179  0.470537  0.620224  1
  Fe  Fe10  1  0.036122  0.031644  0.369321  1
  Fe  Fe11  1  0.250128  0.931820  0.873739  1
  B  B12  1  0.984199  0.309797  0.626610  1
  B  B13  1  0.733769  0.726567  0.126798  1
  B  B14  1  0.536655  0.182455  0.368943  1
  B  B15  1  0.759009  0.766621  0.869719  1
  B  B16  1  0.483733  0.807141  0.622644  1
  B  B17  1  0.230845  0.224463  0.121152  1
  B  B18  1  0.003666  0.687445  0.369583  1
  B  B19  1  0.263659  0.269091  0.871375  1
  O  O20  1  0.967549  0.213552  0.112863  1
  O  O21  1  0.886558  0.870197  0.153388  1
  O  O22  1  0.837397  0.578635  0.080162  1
  O  O23  1  0.838875  0.553665  0.340132  1
  O  O24  1  0.918353  0.841919  0.420084  1
  O  O25  1  0.750139  0.161544  0.312755  1
  O  O26  1  0.749373  0.341842  0.665264  1
  O  O27  1  0.493829  0.737104  0.151653  1
  O  O28  1  0.372731  0.379815  0.170598  1
  O  O29  1  0.541385  0.646177  0.565477  1
  O  O30  1  0.660158  0.932277  0.647279  1
  O  O31  1  0.365780  0.091095  0.076982  1
  O  O32  1  0.655565  0.916921  0.915851  1
  O  O33  1  0.407872  0.058974  0.376983  1
  O  O34  1  0.459145  0.340915  0.421456  1
  O  O35  1  0.587199  0.624647  0.823193  1
  O  O36  1  0.529480  0.265132  0.889228  1
  O  O37  1  0.255085  0.675356  0.343941  1
  O  O38  1  0.249904  0.837617  0.660316  1
  O  O39  1  0.042965  0.152071  0.574306  1
  O  O40  1  0.154458  0.434738  0.643410  1
  O  O41  1  0.155412  0.416177  0.904679  1
  O  O42  1  0.097891  0.124128  0.823736  1
  O  O43  1  0.014393  0.757513  0.866890  1
