# generated using pymatgen
data_Na2GeH12S2O7
_symmetry_space_group_name_H-M   'P 1'
_cell_length_a   10.80787574
_cell_length_b   13.93373546
_cell_length_c   14.13237899
_cell_angle_alpha   90.00000000
_cell_angle_beta   90.00000000
_cell_angle_gamma   90.00000000
_symmetry_Int_Tables_number   1
_chemical_formula_structural   Na2GeH12S2O7
_chemical_formula_sum   'Na16 Ge8 H96 S16 O56'
_cell_volume   2128.25263264
_cell_formula_units_Z   8
loop_
 _symmetry_equiv_pos_site_id
 _symmetry_equiv_pos_as_xyz
  1  'x, y, z'
loop_
 _atom_site_type_symbol
 _atom_site_label
 _atom_site_symmetry_multiplicity
 _atom_site_fract_x
 _atom_site_fract_y
 _atom_site_fract_z
 _atom_site_occupancy
  Na  Na0  1  0.000000  0.500000  0.500000  1
  Na  Na1  1  0.500000  0.000000  0.000000  1
  Na  Na2  1  0.500000  0.000000  0.500000  1
  Na  Na3  1  0.000000  0.500000  0.000000  1
  Na  Na4  1  0.499158  0.513637  0.876590  1
  Na  Na5  1  0.000842  0.986363  0.376590  1
  Na  Na6  1  0.999158  0.986363  0.123410  1
  Na  Na7  1  0.500842  0.513637  0.623410  1
  Na  Na8  1  0.500842  0.486363  0.123410  1
  Na  Na9  1  0.999158  0.013637  0.623410  1
  Na  Na10  1  0.000842  0.013637  0.876590  1
  Na  Na11  1  0.499158  0.486363  0.376590  1
  Na  Na12  1  0.000000  0.448274  0.750000  1
  Na  Na13  1  0.500000  0.051726  0.250000  1
  Na  Na14  1  0.000000  0.551726  0.250000  1
  Na  Na15  1  0.500000  0.948274  0.750000  1
  Ge  Ge16  1  0.188375  0.647976  0.855849  1
  Ge  Ge17  1  0.311625  0.852024  0.355849  1
  Ge  Ge18  1  0.688375  0.852024  0.144151  1
  Ge  Ge19  1  0.811625  0.647976  0.644151  1
  Ge  Ge20  1  0.811625  0.352024  0.144151  1
  Ge  Ge21  1  0.688375  0.147976  0.644151  1
  Ge  Ge22  1  0.311625  0.147976  0.855849  1
  Ge  Ge23  1  0.188375  0.352024  0.355849  1
  H  H24  1  0.967241  0.631326  0.842406  1
  H  H25  1  0.532759  0.868674  0.342406  1
  H  H26  1  0.467241  0.868674  0.157594  1
  H  H27  1  0.032759  0.631326  0.657594  1
  H  H28  1  0.032759  0.368674  0.157594  1
  H  H29  1  0.467241  0.131326  0.657594  1
  H  H30  1  0.532759  0.131326  0.842406  1
  H  H31  1  0.967241  0.368674  0.342406  1
  H  H32  1  0.258571  0.491162  0.819251  1
  H  H33  1  0.241429  0.008838  0.319251  1
  H  H34  1  0.758571  0.008838  0.180749  1
  H  H35  1  0.741429  0.491162  0.680749  1
  H  H36  1  0.741429  0.508838  0.180749  1
  H  H37  1  0.758571  0.991162  0.680749  1
  H  H38  1  0.241429  0.991162  0.819251  1
  H  H39  1  0.258571  0.508838  0.319251  1
  H  H40  1  0.549465  0.819871  0.927695  1
  H  H41  1  0.950535  0.680129  0.427695  1
  H  H42  1  0.049465  0.680129  0.072305  1
  H  H43  1  0.450535  0.819871  0.572305  1
  H  H44  1  0.450535  0.180129  0.072305  1
  H  H45  1  0.049465  0.319871  0.572305  1
  H  H46  1  0.950535  0.319871  0.927695  1
  H  H47  1  0.549465  0.180129  0.427695  1
  H  H48  1  0.404564  0.819514  0.918137  1
  H  H49  1  0.095436  0.680486  0.418137  1
  H  H50  1  0.904564  0.680486  0.081863  1
  H  H51  1  0.595436  0.819514  0.581863  1
  H  H52  1  0.595436  0.180486  0.081863  1
  H  H53  1  0.904564  0.319514  0.581863  1
  H  H54  1  0.095436  0.319514  0.918137  1
  H  H55  1  0.404564  0.180486  0.418137  1
  H  H56  1  0.554506  0.664554  0.023741  1
  H  H57  1  0.945494  0.835446  0.523741  1
  H  H58  1  0.054506  0.835446  0.976259  1
  H  H59  1  0.445494  0.664554  0.476259  1
  H  H60  1  0.445494  0.335446  0.976259  1
  H  H61  1  0.054506  0.164554  0.476259  1
  H  H62  1  0.945494  0.164554  0.023741  1
  H  H63  1  0.554506  0.335446  0.523741  1
  H  H64  1  0.410096  0.653014  0.012044  1
  H  H65  1  0.089904  0.846986  0.512044  1
  H  H66  1  0.910096  0.846986  0.987956  1
  H  H67  1  0.589904  0.653014  0.487956  1
  H  H68  1  0.589904  0.346986  0.987956  1
  H  H69  1  0.910096  0.153014  0.487956  1
  H  H70  1  0.089904  0.153014  0.012044  1
  H  H71  1  0.410096  0.346986  0.512044  1
  H  H72  1  0.225176  0.453259  0.657019  1
  H  H73  1  0.274824  0.046741  0.157019  1
  H  H74  1  0.725176  0.046741  0.342981  1
  H  H75  1  0.774824  0.453259  0.842981  1
  H  H76  1  0.774824  0.546741  0.342981  1
  H  H77  1  0.725176  0.953259  0.842981  1
  H  H78  1  0.274824  0.953259  0.657019  1
  H  H79  1  0.225176  0.546741  0.157019  1
  H  H80  1  0.228734  0.356783  0.718916  1
  H  H81  1  0.271266  0.143217  0.218916  1
  H  H82  1  0.728734  0.143217  0.281084  1
  H  H83  1  0.771266  0.356783  0.781084  1
  H  H84  1  0.771266  0.643217  0.281084  1
  H  H85  1  0.728734  0.856783  0.781084  1
  H  H86  1  0.271266  0.856783  0.718916  1
  H  H87  1  0.228734  0.643217  0.218916  1
  H  H88  1  0.246305  0.408816  0.065761  1
  H  H89  1  0.253695  0.091184  0.565761  1
  H  H90  1  0.746305  0.091184  0.934239  1
  H  H91  1  0.753695  0.408816  0.434239  1
  H  H92  1  0.753695  0.591184  0.934239  1
  H  H93  1  0.746305  0.908816  0.434239  1
  H  H94  1  0.253695  0.908816  0.065761  1
  H  H95  1  0.246305  0.591184  0.565761  1
  H  H96  1  0.262154  0.491977  0.987834  1
  H  H97  1  0.237846  0.008023  0.487834  1
  H  H98  1  0.762154  0.008023  0.012166  1
  H  H99  1  0.737846  0.491977  0.512166  1
  H  H100  1  0.737846  0.508023  0.012166  1
  H  H101  1  0.762154  0.991977  0.512166  1
  H  H102  1  0.237846  0.991977  0.987834  1
  H  H103  1  0.262154  0.508023  0.487834  1
  H  H104  1  0.426500  0.670119  0.743170  1
  H  H105  1  0.073500  0.829881  0.243170  1
  H  H106  1  0.926500  0.829881  0.256830  1
  H  H107  1  0.573500  0.670119  0.756830  1
  H  H108  1  0.573500  0.329881  0.256830  1
  H  H109  1  0.926500  0.170119  0.756830  1
  H  H110  1  0.073500  0.170119  0.743170  1
  H  H111  1  0.426500  0.329881  0.243170  1
  H  H112  1  0.070306  0.847589  0.742564  1
  H  H113  1  0.429694  0.652411  0.242564  1
  H  H114  1  0.570306  0.652411  0.257436  1
  H  H115  1  0.929694  0.847589  0.757436  1
  H  H116  1  0.929694  0.152411  0.257436  1
  H  H117  1  0.570306  0.347589  0.757436  1
  H  H118  1  0.429694  0.347589  0.742564  1
  H  H119  1  0.070306  0.152411  0.242564  1
  S  S120  1  0.212267  0.707474  0.714135  1
  S  S121  1  0.287733  0.792526  0.214135  1
  S  S122  1  0.712267  0.792526  0.285865  1
  S  S123  1  0.787733  0.707474  0.785865  1
  S  S124  1  0.787733  0.292526  0.285865  1
  S  S125  1  0.712267  0.207474  0.785865  1
  S  S126  1  0.287733  0.207474  0.714135  1
  S  S127  1  0.212267  0.292526  0.214135  1
  S  S128  1  0.224302  0.736737  0.979699  1
  S  S129  1  0.275698  0.763263  0.479699  1
  S  S130  1  0.724302  0.763263  0.020301  1
  S  S131  1  0.775698  0.736737  0.520301  1
  S  S132  1  0.775698  0.263263  0.020301  1
  S  S133  1  0.724302  0.236737  0.520301  1
  S  S134  1  0.275698  0.236737  0.979699  1
  S  S135  1  0.224302  0.263263  0.479699  1
  O  O136  1  0.035648  0.588967  0.863135  1
  O  O137  1  0.464352  0.911033  0.363135  1
  O  O138  1  0.535648  0.911033  0.136865  1
  O  O139  1  0.964352  0.588967  0.636865  1
  O  O140  1  0.964352  0.411033  0.136865  1
  O  O141  1  0.535648  0.088967  0.636865  1
  O  O142  1  0.464352  0.088967  0.863135  1
  O  O143  1  0.035648  0.411033  0.363135  1
  O  O144  1  0.278857  0.535982  0.872545  1
  O  O145  1  0.221143  0.964018  0.372545  1
  O  O146  1  0.778857  0.964018  0.127455  1
  O  O147  1  0.721143  0.535982  0.627455  1
  O  O148  1  0.721143  0.464018  0.127455  1
  O  O149  1  0.778857  0.035982  0.627455  1
  O  O150  1  0.221143  0.035982  0.872545  1
  O  O151  1  0.278857  0.464018  0.372545  1
  O  O152  1  0.479214  0.856708  0.901293  1
  O  O153  1  0.020786  0.643292  0.401293  1
  O  O154  1  0.979214  0.643292  0.098707  1
  O  O155  1  0.520786  0.856708  0.598707  1
  O  O156  1  0.520786  0.143292  0.098707  1
  O  O157  1  0.979214  0.356708  0.598707  1
  O  O158  1  0.020786  0.356708  0.901293  1
  O  O159  1  0.479214  0.143292  0.401293  1
  O  O160  1  0.488356  0.616200  0.013910  1
  O  O161  1  0.011644  0.883800  0.513910  1
  O  O162  1  0.988356  0.883800  0.986090  1
  O  O163  1  0.511644  0.616200  0.486090  1
  O  O164  1  0.511644  0.383800  0.986090  1
  O  O165  1  0.988356  0.116200  0.486090  1
  O  O166  1  0.011644  0.116200  0.013910  1
  O  O167  1  0.488356  0.383800  0.513910  1
  O  O168  1  0.209297  0.426514  0.721243  1
  O  O169  1  0.290703  0.073486  0.221243  1
  O  O170  1  0.709297  0.073486  0.278757  1
  O  O171  1  0.790703  0.426514  0.778757  1
  O  O172  1  0.790703  0.573486  0.278757  1
  O  O173  1  0.709297  0.926514  0.778757  1
  O  O174  1  0.290703  0.926514  0.721243  1
  O  O175  1  0.209297  0.573486  0.221243  1
  O  O176  1  0.243654  0.478629  0.055859  1
  O  O177  1  0.256346  0.021371  0.555859  1
  O  O178  1  0.743654  0.021371  0.944141  1
  O  O179  1  0.756346  0.478629  0.444141  1
  O  O180  1  0.756346  0.521371  0.944141  1
  O  O181  1  0.743654  0.978629  0.444141  1
  O  O182  1  0.256346  0.978629  0.055859  1
  O  O183  1  0.243654  0.521371  0.555859  1
  O  O184  1  0.500000  0.628596  0.750000  1
  O  O185  1  0.000000  0.871404  0.250000  1
  O  O186  1  0.500000  0.371404  0.250000  1
  O  O187  1  0.000000  0.128596  0.750000  1
  O  O188  1  0.000000  0.892039  0.750000  1
  O  O189  1  0.500000  0.607961  0.250000  1
  O  O190  1  0.000000  0.107961  0.250000  1
  O  O191  1  0.500000  0.392039  0.750000  1
