# generated using pymatgen
data_CrH20S2(NO7)2
_symmetry_space_group_name_H-M   'P 1'
_cell_length_a   6.13612198
_cell_length_b   12.89838705
_cell_length_c   9.54288723
_cell_angle_alpha   90.00000000
_cell_angle_beta   107.13146759
_cell_angle_gamma   90.00000000
_symmetry_Int_Tables_number   1
_chemical_formula_structural   CrH20S2(NO7)2
_chemical_formula_sum   'Cr2 H40 S4 N4 O28'
_cell_volume   721.77125626
_cell_formula_units_Z   2
loop_
 _symmetry_equiv_pos_site_id
 _symmetry_equiv_pos_as_xyz
  1  'x, y, z'
loop_
 _atom_site_type_symbol
 _atom_site_label
 _atom_site_symmetry_multiplicity
 _atom_site_fract_x
 _atom_site_fract_y
 _atom_site_fract_z
 _atom_site_occupancy
  Cr  Cr0  1  0.000000  0.500000  0.500000  1
  Cr  Cr1  1  0.000000  0.000000  0.000000  1
  H  H2  1  0.769472  0.153776  0.456676  1
  H  H3  1  0.230528  0.653776  0.043324  1
  H  H4  1  0.230528  0.846224  0.543324  1
  H  H5  1  0.769472  0.346224  0.956676  1
  H  H6  1  0.578677  0.193699  0.294806  1
  H  H7  1  0.421323  0.693699  0.205194  1
  H  H8  1  0.421323  0.806301  0.705194  1
  H  H9  1  0.578677  0.306301  0.794806  1
  H  H10  1  0.487237  0.123307  0.416379  1
  H  H11  1  0.512763  0.623307  0.083621  1
  H  H12  1  0.512763  0.876693  0.583621  1
  H  H13  1  0.487237  0.376693  0.916379  1
  H  H14  1  0.649132  0.066856  0.322910  1
  H  H15  1  0.350868  0.566856  0.177090  1
  H  H16  1  0.350868  0.933144  0.677090  1
  H  H17  1  0.649132  0.433144  0.822910  1
  H  H18  1  0.662700  0.406776  0.293052  1
  H  H19  1  0.337300  0.906776  0.206948  1
  H  H20  1  0.337300  0.593224  0.706948  1
  H  H21  1  0.662700  0.093224  0.793052  1
  H  H22  1  0.897173  0.374804  0.259576  1
  H  H23  1  0.102827  0.874804  0.240424  1
  H  H24  1  0.102827  0.625196  0.740424  1
  H  H25  1  0.897173  0.125196  0.759576  1
  H  H26  1  0.046521  0.393000  0.785641  1
  H  H27  1  0.953479  0.893000  0.714359  1
  H  H28  1  0.953479  0.607000  0.214359  1
  H  H29  1  0.046521  0.107000  0.285641  1
  H  H30  1  0.973248  0.309326  0.660674  1
  H  H31  1  0.026752  0.809326  0.839326  1
  H  H32  1  0.026752  0.690674  0.339326  1
  H  H33  1  0.973248  0.190674  0.160674  1
  H  H34  1  0.658195  0.568876  0.586877  1
  H  H35  1  0.341805  0.068876  0.913123  1
  H  H36  1  0.341805  0.431124  0.413123  1
  H  H37  1  0.658195  0.931124  0.086877  1
  H  H38  1  0.675351  0.644991  0.457605  1
  H  H39  1  0.324649  0.144991  0.042395  1
  H  H40  1  0.324649  0.355009  0.542395  1
  H  H41  1  0.675351  0.855009  0.957605  1
  S  S42  1  0.251593  0.356951  0.111071  1
  S  S43  1  0.748407  0.856951  0.388929  1
  S  S44  1  0.748407  0.643049  0.888929  1
  S  S45  1  0.251593  0.143049  0.611071  1
  N  N46  1  0.622538  0.135486  0.372951  1
  N  N47  1  0.377462  0.635486  0.127049  1
  N  N48  1  0.377462  0.864514  0.627049  1
  N  N49  1  0.622538  0.364514  0.872951  1
  O  O50  1  0.397461  0.262860  0.122025  1
  O  O51  1  0.602539  0.762860  0.377975  1
  O  O52  1  0.602539  0.737140  0.877975  1
  O  O53  1  0.397461  0.237140  0.622025  1
  O  O54  1  0.228580  0.411349  0.970353  1
  O  O55  1  0.771420  0.911349  0.529647  1
  O  O56  1  0.771420  0.588651  0.029647  1
  O  O57  1  0.228580  0.088651  0.470353  1
  O  O58  1  0.367252  0.428564  0.235538  1
  O  O59  1  0.632748  0.928564  0.264462  1
  O  O60  1  0.632748  0.571436  0.764462  1
  O  O61  1  0.367252  0.071436  0.735538  1
  O  O62  1  0.020926  0.327418  0.122983  1
  O  O63  1  0.979074  0.827418  0.377017  1
  O  O64  1  0.979074  0.672582  0.877017  1
  O  O65  1  0.020926  0.172582  0.622983  1
  O  O66  1  0.828341  0.394239  0.337702  1
  O  O67  1  0.171659  0.894239  0.162298  1
  O  O68  1  0.171659  0.605761  0.662298  1
  O  O69  1  0.828341  0.105761  0.837702  1
  O  O70  1  0.949489  0.382226  0.683883  1
  O  O71  1  0.050511  0.882226  0.816117  1
  O  O72  1  0.050511  0.617774  0.316117  1
  O  O73  1  0.949489  0.117774  0.183883  1
  O  O74  1  0.694819  0.571916  0.492319  1
  O  O75  1  0.305181  0.071916  0.007681  1
  O  O76  1  0.305181  0.428084  0.507681  1
  O  O77  1  0.694819  0.928084  0.992319  1
