# generated using pymatgen
data_Li8CrO6
_symmetry_space_group_name_H-M   'P 1'
_cell_length_a   5.57253251
_cell_length_b   5.57253251
_cell_length_c   10.86769244
_cell_angle_alpha   90.00000000
_cell_angle_beta   90.00000000
_cell_angle_gamma   120.00000000
_symmetry_Int_Tables_number   1
_chemical_formula_structural   Li8CrO6
_chemical_formula_sum   'Li16 Cr2 O12'
_cell_volume   292.26256531
_cell_formula_units_Z   2
loop_
 _symmetry_equiv_pos_site_id
 _symmetry_equiv_pos_as_xyz
  1  'x, y, z'
loop_
 _atom_site_type_symbol
 _atom_site_label
 _atom_site_symmetry_multiplicity
 _atom_site_fract_x
 _atom_site_fract_y
 _atom_site_fract_z
 _atom_site_occupancy
  Li  Li0  1  0.000000  0.685442  0.767075  1
  Li  Li1  1  0.000000  0.609683  0.128651  1
  Li  Li2  1  0.000000  0.390317  0.628651  1
  Li  Li3  1  0.000000  0.314558  0.267075  1
  Li  Li4  1  0.333333  0.666667  0.407382  1
  Li  Li5  1  0.333333  0.666667  0.907382  1
  Li  Li6  1  0.314558  0.314558  0.767075  1
  Li  Li7  1  0.390317  0.390317  0.128651  1
  Li  Li8  1  0.609683  0.609683  0.628651  1
  Li  Li9  1  0.314558  0.000000  0.267075  1
  Li  Li10  1  0.685442  0.685442  0.267075  1
  Li  Li11  1  0.390317  0.000000  0.628651  1
  Li  Li12  1  0.666667  0.333333  0.907382  1
  Li  Li13  1  0.666667  0.333333  0.407382  1
  Li  Li14  1  0.609683  0.000000  0.128651  1
  Li  Li15  1  0.685442  0.000000  0.767075  1
  Cr  Cr16  1  0.000000  0.000000  0.994581  1
  Cr  Cr17  1  0.000000  0.000000  0.494581  1
  O  O18  1  0.000000  0.690382  0.949859  1
  O  O19  1  0.000000  0.309618  0.449859  1
  O  O20  1  0.333333  0.666667  0.217160  1
  O  O21  1  0.000000  0.000000  0.165236  1
  O  O22  1  0.000000  0.000000  0.665236  1
  O  O23  1  0.333333  0.666667  0.717160  1
  O  O24  1  0.309618  0.309618  0.949859  1
  O  O25  1  0.309618  0.000000  0.449859  1
  O  O26  1  0.690382  0.690382  0.449859  1
  O  O27  1  0.666667  0.333333  0.717160  1
  O  O28  1  0.666667  0.333333  0.217160  1
  O  O29  1  0.690382  0.000000  0.949859  1
