# generated using pymatgen
data_Sr3Li3La5O12
_symmetry_space_group_name_H-M   'P 1'
_cell_length_a   6.94523838
_cell_length_b   3.59398080
_cell_length_c   13.65569209
_cell_angle_alpha   90.00000000
_cell_angle_beta   90.19035288
_cell_angle_gamma   90.00000000
_symmetry_Int_Tables_number   1
_chemical_formula_structural   Sr3Li3La5O12
_chemical_formula_sum   'Sr3 Li3 La5 O12'
_cell_volume   340.85857801
_cell_formula_units_Z   1
loop_
 _symmetry_equiv_pos_site_id
 _symmetry_equiv_pos_as_xyz
  1  'x, y, z'
loop_
 _atom_site_type_symbol
 _atom_site_label
 _atom_site_symmetry_multiplicity
 _atom_site_fract_x
 _atom_site_fract_y
 _atom_site_fract_z
 _atom_site_occupancy
  Sr  Sr0  1  0.901471  0.000000  0.781167  1
  Sr  Sr1  1  0.421117  0.000000  0.731723  1
  Sr  Sr2  1  0.589142  0.500000  0.281603  1
  Li  Li3  1  0.124819  0.500000  0.637550  1
  Li  Li4  1  0.877863  0.000000  0.367573  1
  Li  Li5  1  0.384232  0.000000  0.131006  1
  La  La6  1  0.253576  0.500000  0.955786  1
  La  La7  1  0.743284  0.500000  0.541994  1
  La  La8  1  0.254152  0.000000  0.462003  1
  La  La9  1  0.086599  0.500000  0.214270  1
  La  La10  1  0.744915  0.000000  0.029390  1
  O  O11  1  0.884768  0.500000  0.943604  1
  O  O12  1  0.464843  0.000000  0.916310  1
  O  O13  1  0.177909  0.500000  0.777342  1
  O  O14  1  0.688832  0.500000  0.707508  1
  O  O15  1  0.992131  0.000000  0.589836  1
  O  O16  1  0.362267  0.500000  0.560939  1
  O  O17  1  0.628567  0.000000  0.432964  1
  O  O18  1  0.014334  0.500000  0.392545  1
  O  O19  1  0.309096  0.000000  0.274267  1
  O  O20  1  0.832961  0.000000  0.225180  1
  O  O21  1  0.510727  0.500000  0.102159  1
  O  O22  1  0.130714  0.000000  0.076241  1
