# generated using pymatgen
data_Li6Ti2S6O
_symmetry_space_group_name_H-M   'P 1'
_cell_length_a   11.53966010
_cell_length_b   9.03587872
_cell_length_c   11.78381685
_cell_angle_alpha   90.00000000
_cell_angle_beta   111.37267951
_cell_angle_gamma   90.00000000
_symmetry_Int_Tables_number   1
_chemical_formula_structural   Li6Ti2S6O
_chemical_formula_sum   'Li24 Ti8 S24 O4'
_cell_volume   1144.21124181
_cell_formula_units_Z   4
loop_
 _symmetry_equiv_pos_site_id
 _symmetry_equiv_pos_as_xyz
  1  'x, y, z'
loop_
 _atom_site_type_symbol
 _atom_site_label
 _atom_site_symmetry_multiplicity
 _atom_site_fract_x
 _atom_site_fract_y
 _atom_site_fract_z
 _atom_site_occupancy
  Li  Li0  1  0.001040  0.861045  0.896062  1
  Li  Li1  1  0.001040  0.638955  0.396062  1
  Li  Li2  1  0.088964  0.978994  0.646042  1
  Li  Li3  1  0.195826  0.263786  0.935531  1
  Li  Li4  1  0.088964  0.521006  0.146042  1
  Li  Li5  1  0.195826  0.236214  0.435531  1
  Li  Li6  1  0.275839  0.701490  0.575676  1
  Li  Li7  1  0.396674  0.058660  0.856797  1
  Li  Li8  1  0.453910  0.672235  0.897034  1
  Li  Li9  1  0.275839  0.798510  0.075676  1
  Li  Li10  1  0.396674  0.441340  0.356797  1
  Li  Li11  1  0.453910  0.827765  0.397034  1
  Li  Li12  1  0.546090  0.172235  0.602966  1
  Li  Li13  1  0.603326  0.558660  0.643203  1
  Li  Li14  1  0.724161  0.201490  0.924324  1
  Li  Li15  1  0.546090  0.327765  0.102966  1
  Li  Li16  1  0.603326  0.941340  0.143203  1
  Li  Li17  1  0.724161  0.298510  0.424324  1
  Li  Li18  1  0.804174  0.763786  0.564469  1
  Li  Li19  1  0.911036  0.478994  0.853958  1
  Li  Li20  1  0.804174  0.736214  0.064469  1
  Li  Li21  1  0.911036  0.021006  0.353958  1
  Li  Li22  1  0.998960  0.361045  0.603938  1
  Li  Li23  1  0.998960  0.138955  0.103938  1
  Ti  Ti24  1  0.171617  0.639481  0.790163  1
  Ti  Ti25  1  0.171617  0.860519  0.290163  1
  Ti  Ti26  1  0.359009  0.390956  0.732600  1
  Ti  Ti27  1  0.359009  0.109044  0.232600  1
  Ti  Ti28  1  0.640991  0.890956  0.767400  1
  Ti  Ti29  1  0.640991  0.609044  0.267400  1
  Ti  Ti30  1  0.828383  0.139481  0.709837  1
  Ti  Ti31  1  0.828383  0.360519  0.209837  1
  S  S32  1  0.012984  0.642433  0.609327  1
  S  S33  1  0.136072  0.531086  0.949108  1
  S  S34  1  0.012984  0.857567  0.109327  1
  S  S35  1  0.136072  0.968914  0.449108  1
  S  S36  1  0.212428  0.874644  0.851532  1
  S  S37  1  0.204824  0.231068  0.721914  1
  S  S38  1  0.212428  0.625356  0.351532  1
  S  S39  1  0.204824  0.268932  0.221914  1
  S  S40  1  0.402812  0.380267  0.561702  1
  S  S41  1  0.533425  0.341041  0.888598  1
  S  S42  1  0.466575  0.841041  0.611402  1
  S  S43  1  0.402812  0.119733  0.061702  1
  S  S44  1  0.597188  0.880267  0.938298  1
  S  S45  1  0.533425  0.158959  0.388598  1
  S  S46  1  0.466575  0.658959  0.111402  1
  S  S47  1  0.597188  0.619733  0.438298  1
  S  S48  1  0.795176  0.731068  0.778086  1
  S  S49  1  0.787572  0.374644  0.648468  1
  S  S50  1  0.795176  0.768932  0.278086  1
  S  S51  1  0.787572  0.125356  0.148468  1
  S  S52  1  0.863928  0.031086  0.550892  1
  S  S53  1  0.987016  0.142433  0.890673  1
  S  S54  1  0.863928  0.468914  0.050892  1
  S  S55  1  0.987016  0.357567  0.390673  1
  O  O56  1  0.313942  0.585672  0.754502  1
  O  O57  1  0.313942  0.914328  0.254502  1
  O  O58  1  0.686058  0.085672  0.745498  1
  O  O59  1  0.686058  0.414328  0.245498  1
