# generated using pymatgen
data_CdCoO3
_symmetry_space_group_name_H-M   'P 1'
_cell_length_a   6.75818545
_cell_length_b   6.75818545
_cell_length_c   5.09283398
_cell_angle_alpha   86.96024529
_cell_angle_beta   93.03975471
_cell_angle_gamma   96.93809994
_symmetry_Int_Tables_number   1
_chemical_formula_structural   CdCoO3
_chemical_formula_sum   'Cd4 Co4 O12'
_cell_volume   230.32199401
_cell_formula_units_Z   4
loop_
 _symmetry_equiv_pos_site_id
 _symmetry_equiv_pos_as_xyz
  1  'x, y, z'
loop_
 _atom_site_type_symbol
 _atom_site_label
 _atom_site_symmetry_multiplicity
 _atom_site_fract_x
 _atom_site_fract_y
 _atom_site_fract_z
 _atom_site_occupancy
  Cd  Cd0  1  0.599042  0.184966  0.772827  1
  Cd  Cd1  1  0.815034  0.400958  0.272827  1
  Cd  Cd2  1  0.184966  0.599042  0.727173  1
  Cd  Cd3  1  0.400958  0.815034  0.227173  1
  Co  Co4  1  0.753208  0.753208  0.750000  1
  Co  Co5  1  0.080829  0.080829  0.750000  1
  Co  Co6  1  0.246792  0.246792  0.250000  1
  Co  Co7  1  0.919171  0.919171  0.250000  1
  O  O8  1  0.827852  0.016835  0.572300  1
  O  O9  1  0.983165  0.172148  0.072300  1
  O  O10  1  0.750366  0.496415  0.863090  1
  O  O11  1  0.313744  0.116942  0.948558  1
  O  O12  1  0.503585  0.249634  0.363090  1
  O  O13  1  0.883058  0.686256  0.448558  1
  O  O14  1  0.116942  0.313744  0.551442  1
  O  O15  1  0.496415  0.750366  0.636910  1
  O  O16  1  0.686256  0.883058  0.051442  1
  O  O17  1  0.249634  0.503585  0.136910  1
  O  O18  1  0.016835  0.827852  0.927700  1
  O  O19  1  0.172148  0.983165  0.427700  1
