# generated using pymatgen
data_FeOF
_symmetry_space_group_name_H-M   'P 1'
_cell_length_a   9.47954670
_cell_length_b   3.10702455
_cell_length_c   14.21318890
_cell_angle_alpha   90.00000000
_cell_angle_beta   90.28482207
_cell_angle_gamma   90.00000000
_symmetry_Int_Tables_number   1
_chemical_formula_structural   FeOF
_chemical_formula_sum   'Fe12 O12 F12'
_cell_volume   418.61850012
_cell_formula_units_Z   12
loop_
 _symmetry_equiv_pos_site_id
 _symmetry_equiv_pos_as_xyz
  1  'x, y, z'
loop_
 _atom_site_type_symbol
 _atom_site_label
 _atom_site_symmetry_multiplicity
 _atom_site_fract_x
 _atom_site_fract_y
 _atom_site_fract_z
 _atom_site_occupancy
  Fe  Fe0  1  0.993899  0.000000  0.994681  1
  Fe  Fe1  1  0.981506  0.000000  0.669349  1
  Fe  Fe2  1  0.990168  0.000000  0.326480  1
  Fe  Fe3  1  0.770402  0.500000  0.836923  1
  Fe  Fe4  1  0.748517  0.500000  0.517007  1
  Fe  Fe5  1  0.771085  0.500000  0.161719  1
  Fe  Fe6  1  0.499441  0.000000  0.658849  1
  Fe  Fe7  1  0.481793  0.000000  0.997866  1
  Fe  Fe8  1  0.482419  0.000000  0.334566  1
  Fe  Fe9  1  0.246252  0.500000  0.849277  1
  Fe  Fe10  1  0.270241  0.500000  0.503544  1
  Fe  Fe11  1  0.275175  0.500000  0.164594  1
  O  O12  1  0.901339  0.500000  0.729510  1
  O  O13  1  0.904096  0.500000  0.065742  1
  O  O14  1  0.842064  0.000000  0.898116  1
  O  O15  1  0.850628  0.000000  0.233998  1
  O  O16  1  0.851151  0.000000  0.560010  1
  O  O17  1  0.593349  0.500000  0.603505  1
  O  O18  1  0.406304  0.500000  0.062714  1
  O  O19  1  0.403336  0.500000  0.398865  1
  O  O20  1  0.349678  0.000000  0.894648  1
  O  O21  1  0.340608  0.000000  0.568360  1
  O  O22  1  0.348006  0.000000  0.231543  1
  O  O23  1  0.095708  0.500000  0.936467  1
  F  F24  1  0.903285  0.500000  0.397433  1
  F  F25  1  0.644112  0.000000  0.770195  1
  F  F26  1  0.656931  0.000000  0.430428  1
  F  F27  1  0.652900  0.000000  0.099905  1
  F  F28  1  0.598652  0.500000  0.934165  1
  F  F29  1  0.600860  0.500000  0.266746  1
  F  F30  1  0.399486  0.500000  0.732641  1
  F  F31  1  0.152635  0.000000  0.763361  1
  F  F32  1  0.153828  0.000000  0.106954  1
  F  F33  1  0.143506  0.000000  0.431366  1
  F  F34  1  0.097278  0.500000  0.598384  1
  F  F35  1  0.099366  0.500000  0.270091  1
