# generated using pymatgen
data_Li4Cr5(P3O11)2
_symmetry_space_group_name_H-M   'P 1'
_cell_length_a   10.91090086
_cell_length_b   6.91336193
_cell_length_c   12.63548660
_cell_angle_alpha   90.00000000
_cell_angle_beta   105.06308681
_cell_angle_gamma   90.00000000
_symmetry_Int_Tables_number   1
_chemical_formula_structural   Li4Cr5(P3O11)2
_chemical_formula_sum   'Li8 Cr10 P12 O44'
_cell_volume   920.35895021
_cell_formula_units_Z   2
loop_
 _symmetry_equiv_pos_site_id
 _symmetry_equiv_pos_as_xyz
  1  'x, y, z'
loop_
 _atom_site_type_symbol
 _atom_site_label
 _atom_site_symmetry_multiplicity
 _atom_site_fract_x
 _atom_site_fract_y
 _atom_site_fract_z
 _atom_site_occupancy
  Li  Li0  1  0.447881  0.831535  0.814865  1
  Li  Li1  1  0.947881  0.668465  0.814865  1
  Li  Li2  1  0.103359  0.486902  0.671215  1
  Li  Li3  1  0.603359  0.013098  0.671215  1
  Li  Li4  1  0.396641  0.986902  0.328785  1
  Li  Li5  1  0.896641  0.513098  0.328785  1
  Li  Li6  1  0.052119  0.331535  0.185135  1
  Li  Li7  1  0.552119  0.168465  0.185135  1
  Cr  Cr8  1  0.500000  0.500000  0.000000  1
  Cr  Cr9  1  0.213039  0.246837  0.873265  1
  Cr  Cr10  1  0.000000  0.000000  0.000000  1
  Cr  Cr11  1  0.713039  0.253163  0.873265  1
  Cr  Cr12  1  0.206534  0.017313  0.661385  1
  Cr  Cr13  1  0.706534  0.482687  0.661385  1
  Cr  Cr14  1  0.293466  0.517313  0.338615  1
  Cr  Cr15  1  0.793466  0.982687  0.338615  1
  Cr  Cr16  1  0.286961  0.746837  0.126735  1
  Cr  Cr17  1  0.786961  0.753163  0.126735  1
  P  P18  1  0.229989  0.737738  0.901296  1
  P  P19  1  0.729989  0.762262  0.901296  1
  P  P20  1  0.428078  0.385556  0.737509  1
  P  P21  1  0.928078  0.114444  0.737509  1
  P  P22  1  0.430853  0.704376  0.582837  1
  P  P23  1  0.930853  0.795624  0.582837  1
  P  P24  1  0.069147  0.204376  0.417163  1
  P  P25  1  0.569147  0.295624  0.417163  1
  P  P26  1  0.071922  0.885556  0.262491  1
  P  P27  1  0.571922  0.614444  0.262491  1
  P  P28  1  0.270011  0.237738  0.098704  1
  P  P29  1  0.770011  0.262262  0.098704  1
  O  O30  1  0.145127  0.781262  0.981292  1
  O  O31  1  0.359528  0.697135  0.990354  1
  O  O32  1  0.645127  0.718738  0.981292  1
  O  O33  1  0.859528  0.802865  0.990354  1
  O  O34  1  0.169859  0.568858  0.827539  1
  O  O35  1  0.257865  0.908419  0.831050  1
  O  O36  1  0.454120  0.542345  0.825194  1
  O  O37  1  0.047974  0.233081  0.739813  1
  O  O38  1  0.669859  0.931142  0.827539  1
  O  O39  1  0.757865  0.591581  0.831050  1
  O  O40  1  0.315875  0.255166  0.745260  1
  O  O41  1  0.954120  0.957655  0.825194  1
  O  O42  1  0.547974  0.266919  0.739813  1
  O  O43  1  0.076700  0.797830  0.606919  1
  O  O44  1  0.815875  0.244834  0.745260  1
  O  O45  1  0.394180  0.864957  0.652719  1
  O  O46  1  0.383398  0.493800  0.620476  1
  O  O47  1  0.137587  0.218466  0.538100  1
  O  O48  1  0.576700  0.702170  0.606919  1
  O  O49  1  0.894180  0.635043  0.652719  1
  O  O50  1  0.883398  0.006200  0.620476  1
  O  O51  1  0.637587  0.281534  0.538100  1
  O  O52  1  0.362413  0.718466  0.461900  1
  O  O53  1  0.116602  0.993800  0.379524  1
  O  O54  1  0.105820  0.364957  0.347281  1
  O  O55  1  0.423300  0.297830  0.393081  1
  O  O56  1  0.862413  0.781534  0.461900  1
  O  O57  1  0.616602  0.506200  0.379524  1
  O  O58  1  0.605820  0.135043  0.347281  1
  O  O59  1  0.184125  0.755166  0.254740  1
  O  O60  1  0.923300  0.202170  0.393081  1
  O  O61  1  0.452026  0.733081  0.260187  1
  O  O62  1  0.045880  0.042345  0.174806  1
  O  O63  1  0.684125  0.744834  0.254740  1
  O  O64  1  0.242135  0.408419  0.168950  1
  O  O65  1  0.330141  0.068858  0.172461  1
  O  O66  1  0.952026  0.766919  0.260187  1
  O  O67  1  0.545880  0.457655  0.174806  1
  O  O68  1  0.742135  0.091581  0.168950  1
  O  O69  1  0.830141  0.431142  0.172461  1
  O  O70  1  0.140472  0.197135  0.009646  1
  O  O71  1  0.354873  0.281262  0.018708  1
  O  O72  1  0.640472  0.302865  0.009646  1
  O  O73  1  0.854873  0.218738  0.018708  1
