# generated using pymatgen
data_Co6Te3(ClO6)2
_symmetry_space_group_name_H-M   'P 1'
_cell_length_a   8.52094686
_cell_length_b   8.52094686
_cell_length_c   18.73429794
_cell_angle_alpha   90.00000000
_cell_angle_beta   90.00000000
_cell_angle_gamma   90.00000000
_symmetry_Int_Tables_number   1
_chemical_formula_structural   Co6Te3(ClO6)2
_chemical_formula_sum   'Co24 Te12 Cl8 O48'
_cell_volume   1360.23246641
_cell_formula_units_Z   4
loop_
 _symmetry_equiv_pos_site_id
 _symmetry_equiv_pos_as_xyz
  1  'x, y, z'
loop_
 _atom_site_type_symbol
 _atom_site_label
 _atom_site_symmetry_multiplicity
 _atom_site_fract_x
 _atom_site_fract_y
 _atom_site_fract_z
 _atom_site_occupancy
  Co  Co0  1  0.302923  0.682368  0.831574  1
  Co  Co1  1  0.817632  0.197077  0.331574  1
  Co  Co2  1  0.000000  0.500000  0.916691  1
  Co  Co3  1  0.317632  0.302923  0.668426  1
  Co  Co4  1  0.500000  0.000000  0.583309  1
  Co  Co5  1  0.682368  0.697077  0.668426  1
  Co  Co6  1  0.697077  0.317632  0.831574  1
  Co  Co7  1  0.000000  0.500000  0.583309  1
  Co  Co8  1  0.197077  0.182368  0.831574  1
  Co  Co9  1  0.182368  0.802923  0.668426  1
  Co  Co10  1  0.802923  0.817632  0.168426  1
  Co  Co11  1  0.802923  0.817632  0.831574  1
  Co  Co12  1  0.197077  0.182368  0.168426  1
  Co  Co13  1  0.000000  0.500000  0.083309  1
  Co  Co14  1  0.817632  0.197077  0.668426  1
  Co  Co15  1  0.500000  0.000000  0.416691  1
  Co  Co16  1  0.500000  0.000000  0.916691  1
  Co  Co17  1  0.500000  0.000000  0.083309  1
  Co  Co18  1  0.317632  0.302923  0.331574  1
  Co  Co19  1  0.697077  0.317632  0.168426  1
  Co  Co20  1  0.000000  0.500000  0.416691  1
  Co  Co21  1  0.682368  0.697077  0.331574  1
  Co  Co22  1  0.302923  0.682368  0.168426  1
  Co  Co23  1  0.182368  0.802923  0.331574  1
  Te  Te24  1  0.308873  0.681680  0.500000  1
  Te  Te25  1  0.808873  0.818320  0.500000  1
  Te  Te26  1  0.681680  0.691127  0.000000  1
  Te  Te27  1  0.191127  0.181680  0.500000  1
  Te  Te28  1  0.000000  0.500000  0.250000  1
  Te  Te29  1  0.500000  0.000000  0.750000  1
  Te  Te30  1  0.318320  0.308873  0.000000  1
  Te  Te31  1  0.000000  0.500000  0.750000  1
  Te  Te32  1  0.181680  0.808873  0.000000  1
  Te  Te33  1  0.818320  0.191127  0.000000  1
  Te  Te34  1  0.500000  0.000000  0.250000  1
  Te  Te35  1  0.691127  0.318320  0.500000  1
  Cl  Cl36  1  0.000000  0.000000  0.856911  1
  Cl  Cl37  1  0.500000  0.500000  0.856911  1
  Cl  Cl38  1  0.000000  0.000000  0.356911  1
  Cl  Cl39  1  0.000000  0.000000  0.143089  1
  Cl  Cl40  1  0.000000  0.000000  0.643089  1
  Cl  Cl41  1  0.500000  0.500000  0.356911  1
  Cl  Cl42  1  0.500000  0.500000  0.143089  1
  Cl  Cl43  1  0.500000  0.500000  0.643089  1
  O  O44  1  0.355842  0.903613  0.500000  1
  O  O45  1  0.163633  0.663633  0.750000  1
  O  O46  1  0.158772  0.690458  0.575605  1
  O  O47  1  0.385276  0.897895  0.172142  1
  O  O48  1  0.809542  0.341228  0.075605  1
  O  O49  1  0.309542  0.158772  0.075605  1
  O  O50  1  0.658772  0.809542  0.575605  1
  O  O51  1  0.102105  0.385276  0.672142  1
  O  O52  1  0.385276  0.897895  0.827858  1
  O  O53  1  0.144158  0.403613  0.500000  1
  O  O54  1  0.190458  0.658772  0.075605  1
  O  O55  1  0.614724  0.102105  0.172142  1
  O  O56  1  0.114724  0.397895  0.172142  1
  O  O57  1  0.163633  0.663633  0.250000  1
  O  O58  1  0.841228  0.309542  0.575605  1
  O  O59  1  0.690458  0.841228  0.075605  1
  O  O60  1  0.897895  0.614724  0.327858  1
  O  O61  1  0.403613  0.855842  0.000000  1
  O  O62  1  0.836367  0.336367  0.250000  1
  O  O63  1  0.114724  0.397895  0.827858  1
  O  O64  1  0.663633  0.836367  0.750000  1
  O  O65  1  0.341228  0.190458  0.575605  1
  O  O66  1  0.644158  0.096387  0.500000  1
  O  O67  1  0.190458  0.658772  0.924395  1
  O  O68  1  0.397895  0.885276  0.327858  1
  O  O69  1  0.855842  0.596387  0.500000  1
  O  O70  1  0.397895  0.885276  0.672142  1
  O  O71  1  0.658772  0.809542  0.424395  1
  O  O72  1  0.341228  0.190458  0.424395  1
  O  O73  1  0.102105  0.385276  0.327858  1
  O  O74  1  0.690458  0.841228  0.924395  1
  O  O75  1  0.336367  0.163633  0.250000  1
  O  O76  1  0.158772  0.690458  0.424395  1
  O  O77  1  0.841228  0.309542  0.424395  1
  O  O78  1  0.663633  0.836367  0.250000  1
  O  O79  1  0.885276  0.602105  0.827858  1
  O  O80  1  0.897895  0.614724  0.672142  1
  O  O81  1  0.596387  0.144158  0.000000  1
  O  O82  1  0.602105  0.114724  0.672142  1
  O  O83  1  0.809542  0.341228  0.924395  1
  O  O84  1  0.836367  0.336367  0.750000  1
  O  O85  1  0.614724  0.102105  0.827858  1
  O  O86  1  0.336367  0.163633  0.750000  1
  O  O87  1  0.309542  0.158772  0.924395  1
  O  O88  1  0.096387  0.355842  0.000000  1
  O  O89  1  0.903613  0.644158  0.000000  1
  O  O90  1  0.602105  0.114724  0.327858  1
  O  O91  1  0.885276  0.602105  0.172142  1
