# generated using pymatgen
data_Li5V2Co3O10
_symmetry_space_group_name_H-M   'P 1'
_cell_length_a   5.05108842
_cell_length_b   5.18273504
_cell_length_c   7.90867064
_cell_angle_alpha   108.96137961
_cell_angle_beta   101.02320008
_cell_angle_gamma   101.11742826
_symmetry_Int_Tables_number   1
_chemical_formula_structural   Li5V2Co3O10
_chemical_formula_sum   'Li5 V2 Co3 O10'
_cell_volume   184.79941136
_cell_formula_units_Z   1
loop_
 _symmetry_equiv_pos_site_id
 _symmetry_equiv_pos_as_xyz
  1  'x, y, z'
loop_
 _atom_site_type_symbol
 _atom_site_label
 _atom_site_symmetry_multiplicity
 _atom_site_fract_x
 _atom_site_fract_y
 _atom_site_fract_z
 _atom_site_occupancy
  Li  Li0  1  0.209069  0.504734  0.402843  1
  Li  Li1  1  0.404180  0.511792  0.793759  1
  Li  Li2  1  0.500000  0.000000  0.500000  1
  Li  Li3  1  0.595820  0.488208  0.206241  1
  Li  Li4  1  0.790931  0.495266  0.597157  1
  V  V5  1  0.109451  0.010591  0.690293  1
  V  V6  1  0.890549  0.989409  0.309707  1
  Co  Co7  1  0.000000  0.500000  0.000000  1
  Co  Co8  1  0.715294  0.998953  0.906775  1
  Co  Co9  1  0.284706  0.001047  0.093225  1
  O  O10  1  0.045855  0.239822  0.845122  1
  O  O11  1  0.345235  0.769024  0.938067  1
  O  O12  1  0.133996  0.779155  0.543134  1
  O  O13  1  0.216217  0.231446  0.241604  1
  O  O14  1  0.430567  0.233913  0.661412  1
  O  O15  1  0.569433  0.766087  0.338588  1
  O  O16  1  0.783783  0.768554  0.758396  1
  O  O17  1  0.866004  0.220845  0.456866  1
  O  O18  1  0.654765  0.230976  0.061933  1
  O  O19  1  0.954145  0.760178  0.154878  1
