# generated using pymatgen
data_MnCo3O8
_symmetry_space_group_name_H-M   'P 1'
_cell_length_a   5.71932165
_cell_length_b   5.71932165
_cell_length_c   5.71932165
_cell_angle_alpha   58.97694807
_cell_angle_beta   58.97694807
_cell_angle_gamma   58.97694807
_symmetry_Int_Tables_number   1
_chemical_formula_structural   MnCo3O8
_chemical_formula_sum   'Mn1 Co3 O8'
_cell_volume   129.19991274
_cell_formula_units_Z   1
loop_
 _symmetry_equiv_pos_site_id
 _symmetry_equiv_pos_as_xyz
  1  'x, y, z'
loop_
 _atom_site_type_symbol
 _atom_site_label
 _atom_site_symmetry_multiplicity
 _atom_site_fract_x
 _atom_site_fract_y
 _atom_site_fract_z
 _atom_site_occupancy
  Mn  Mn0  1  0.500000  0.500000  0.500000  1
  Co  Co1  1  0.500000  0.500000  0.000000  1
  Co  Co2  1  0.000000  0.500000  0.500000  1
  Co  Co3  1  0.500000  0.000000  0.500000  1
  O  O4  1  0.705444  0.261214  0.261214  1
  O  O5  1  0.261214  0.261214  0.705444  1
  O  O6  1  0.735334  0.735334  0.735334  1
  O  O7  1  0.261214  0.705444  0.261214  1
  O  O8  1  0.738786  0.294556  0.738786  1
  O  O9  1  0.264666  0.264666  0.264666  1
  O  O10  1  0.738786  0.738786  0.294556  1
  O  O11  1  0.294556  0.738786  0.738786  1
