# generated using pymatgen
data_Li3Ti2Fe3O10
_symmetry_space_group_name_H-M   'P 1'
_cell_length_a   5.14982524
_cell_length_b   5.20863507
_cell_length_c   7.83735544
_cell_angle_alpha   73.46745607
_cell_angle_beta   73.51885350
_cell_angle_gamma   78.14490034
_symmetry_Int_Tables_number   1
_chemical_formula_structural   Li3Ti2Fe3O10
_chemical_formula_sum   'Li3 Ti2 Fe3 O10'
_cell_volume   191.46771496
_cell_formula_units_Z   1
loop_
 _symmetry_equiv_pos_site_id
 _symmetry_equiv_pos_as_xyz
  1  'x, y, z'
loop_
 _atom_site_type_symbol
 _atom_site_label
 _atom_site_symmetry_multiplicity
 _atom_site_fract_x
 _atom_site_fract_y
 _atom_site_fract_z
 _atom_site_occupancy
  Li  Li0  1  0.516856  0.787287  0.393418  1
  Li  Li1  1  0.000000  0.500000  0.500000  1
  Li  Li2  1  0.483144  0.212713  0.606582  1
  Ti  Ti3  1  0.018538  0.884160  0.688195  1
  Ti  Ti4  1  0.981462  0.115840  0.311805  1
  Fe  Fe5  1  0.500000  0.000000  0.000000  1
  Fe  Fe6  1  0.969448  0.312436  0.897561  1
  Fe  Fe7  1  0.030552  0.687564  0.102439  1
  O  O8  1  0.230906  0.958787  0.856614  1
  O  O9  1  0.782972  0.894455  0.524676  1
  O  O10  1  0.786855  0.678565  0.938993  1
  O  O11  1  0.255546  0.798574  0.228629  1
  O  O12  1  0.194771  0.540358  0.667488  1
  O  O13  1  0.805229  0.459642  0.332512  1
  O  O14  1  0.744454  0.201426  0.771371  1
  O  O15  1  0.213145  0.321435  0.061007  1
  O  O16  1  0.217028  0.105545  0.475324  1
  O  O17  1  0.769094  0.041213  0.143386  1
