# generated using pymatgen
data_NaLi2MnPCO7
_symmetry_space_group_name_H-M   'P 1'
_cell_length_a   6.70204367
_cell_length_b   8.68565189
_cell_length_c   10.06552143
_cell_angle_alpha   91.35896468
_cell_angle_beta   90.13393752
_cell_angle_gamma   90.52388774
_symmetry_Int_Tables_number   1
_chemical_formula_structural   NaLi2MnPCO7
_chemical_formula_sum   'Na4 Li8 Mn4 P4 C4 O28'
_cell_volume   585.73908850
_cell_formula_units_Z   4
loop_
 _symmetry_equiv_pos_site_id
 _symmetry_equiv_pos_as_xyz
  1  'x, y, z'
loop_
 _atom_site_type_symbol
 _atom_site_label
 _atom_site_symmetry_multiplicity
 _atom_site_fract_x
 _atom_site_fract_y
 _atom_site_fract_z
 _atom_site_occupancy
  Na  Na0  1  0.259134  0.083907  0.122222  1
  Na  Na1  1  0.999300  0.252059  0.376699  1
  Na  Na2  1  0.998812  0.251676  0.873483  1
  Na  Na3  1  0.499508  0.748659  0.624559  1
  Li  Li4  1  0.253033  0.081337  0.623764  1
  Li  Li5  1  0.478100  0.268634  0.387630  1
  Li  Li6  1  0.481005  0.268567  0.881836  1
  Li  Li7  1  0.520240  0.733734  0.117645  1
  Li  Li8  1  0.978497  0.732679  0.114886  1
  Li  Li9  1  0.984662  0.736270  0.616312  1
  Li  Li10  1  0.745601  0.914362  0.374109  1
  Li  Li11  1  0.748760  0.912874  0.875300  1
  Mn  Mn12  1  0.746178  0.357666  0.112922  1
  Mn  Mn13  1  0.744768  0.357325  0.611689  1
  Mn  Mn14  1  0.245881  0.646491  0.386888  1
  Mn  Mn15  1  0.248536  0.644353  0.889846  1
  P  P16  1  0.254549  0.414627  0.148703  1
  P  P17  1  0.248786  0.404749  0.647840  1
  P  P18  1  0.744860  0.596918  0.351337  1
  P  P19  1  0.749854  0.594084  0.854255  1
  C  C20  1  0.748452  0.041161  0.132883  1
  C  C21  1  0.756136  0.045226  0.635040  1
  C  C22  1  0.258264  0.955107  0.370184  1
  C  C23  1  0.256779  0.948183  0.860490  1
  O  O24  1  0.277398  0.101151  0.352323  1
  O  O25  1  0.274869  0.095301  0.844507  1
  O  O26  1  0.751562  0.087990  0.011170  1
  O  O27  1  0.750417  0.088622  0.512401  1
  O  O28  1  0.743985  0.141266  0.231141  1
  O  O29  1  0.737833  0.146177  0.731857  1
  O  O30  1  0.063122  0.323343  0.106946  1
  O  O31  1  0.432034  0.321976  0.089581  1
  O  O32  1  0.062670  0.303410  0.612179  1
  O  O33  1  0.429356  0.313754  0.590777  1
  O  O34  1  0.270391  0.420556  0.303624  1
  O  O35  1  0.734282  0.429374  0.402948  1
  O  O36  1  0.269859  0.419887  0.802616  1
  O  O37  1  0.733672  0.427262  0.905586  1
  O  O38  1  0.253307  0.584186  0.100930  1
  O  O39  1  0.752069  0.585689  0.195535  1
  O  O40  1  0.233573  0.570020  0.593264  1
  O  O41  1  0.765286  0.581880  0.699380  1
  O  O42  1  0.563940  0.696463  0.394483  1
  O  O43  1  0.930238  0.687683  0.404985  1
  O  O44  1  0.568290  0.695603  0.895711  1
  O  O45  1  0.933397  0.683882  0.911956  1
  O  O46  1  0.244810  0.859832  0.268298  1
  O  O47  1  0.241801  0.856553  0.756435  1
  O  O48  1  0.251131  0.902184  0.490228  1
  O  O49  1  0.252744  0.889031  0.977678  1
  O  O50  1  0.749402  0.894983  0.158790  1
  O  O51  1  0.778868  0.901289  0.664143  1
