# generated using pymatgen
data_V3NiO8
_symmetry_space_group_name_H-M   'P 1'
_cell_length_a   5.39242859
_cell_length_b   5.65172085
_cell_length_c   7.09847990
_cell_angle_alpha   88.89919615
_cell_angle_beta   89.25772019
_cell_angle_gamma   89.86400770
_symmetry_Int_Tables_number   1
_chemical_formula_structural   V3NiO8
_chemical_formula_sum   'V3 Ni1 O8'
_cell_volume   216.27826431
_cell_formula_units_Z   1
loop_
 _symmetry_equiv_pos_site_id
 _symmetry_equiv_pos_as_xyz
  1  'x, y, z'
loop_
 _atom_site_type_symbol
 _atom_site_label
 _atom_site_symmetry_multiplicity
 _atom_site_fract_x
 _atom_site_fract_y
 _atom_site_fract_z
 _atom_site_occupancy
  V  V0  1  0.008464  0.923821  0.877986  1
  V  V1  1  0.500020  0.576505  0.371817  1
  V  V2  1  0.997459  0.427555  0.628668  1
  Ni  Ni3  1  0.497528  0.085575  0.124363  1
  O  O4  1  0.315826  0.946824  0.919166  1
  O  O5  1  0.435570  0.866401  0.333664  1
  O  O6  1  0.924547  0.622951  0.819264  1
  O  O7  1  0.822630  0.534693  0.429110  1
  O  O8  1  0.323521  0.462975  0.571060  1
  O  O9  1  0.437750  0.418483  0.177329  1
  O  O10  1  0.939645  0.117957  0.679899  1
  O  O11  1  0.845440  0.016260  0.067678  1
