# generated using pymatgen
data_Mn3(O2F)2
_symmetry_space_group_name_H-M   'P 1'
_cell_length_a   4.62718028
_cell_length_b   4.61318529
_cell_length_c   10.27349900
_cell_angle_alpha   90.00000000
_cell_angle_beta   116.56432670
_cell_angle_gamma   90.00000000
_symmetry_Int_Tables_number   1
_chemical_formula_structural   Mn3(O2F)2
_chemical_formula_sum   'Mn6 O8 F4'
_cell_volume   196.14780002
_cell_formula_units_Z   2
loop_
 _symmetry_equiv_pos_site_id
 _symmetry_equiv_pos_as_xyz
  1  'x, y, z'
loop_
 _atom_site_type_symbol
 _atom_site_label
 _atom_site_symmetry_multiplicity
 _atom_site_fract_x
 _atom_site_fract_y
 _atom_site_fract_z
 _atom_site_occupancy
  Mn  Mn0  1  0.000000  0.000000  0.000000  1
  Mn  Mn1  1  0.309887  0.019694  0.340037  1
  Mn  Mn2  1  0.690113  0.980306  0.659963  1
  Mn  Mn3  1  0.309887  0.480306  0.840037  1
  Mn  Mn4  1  0.690113  0.519694  0.159963  1
  Mn  Mn5  1  0.000000  0.500000  0.500000  1
  O  O6  1  0.691230  0.192125  0.499250  1
  O  O7  1  0.020016  0.176724  0.829848  1
  O  O8  1  0.308770  0.692125  0.000750  1
  O  O9  1  0.979984  0.676724  0.670152  1
  O  O10  1  0.691230  0.307875  0.999250  1
  O  O11  1  0.020016  0.323276  0.329848  1
  O  O12  1  0.979984  0.823276  0.170152  1
  O  O13  1  0.308770  0.807875  0.500750  1
  F  F14  1  0.381962  0.220646  0.178931  1
  F  F15  1  0.618038  0.720646  0.321069  1
  F  F16  1  0.381962  0.279354  0.678931  1
  F  F17  1  0.618038  0.779354  0.821069  1
