# generated using pymatgen
data_Ba2Sb2O5
_symmetry_space_group_name_H-M   'P 1'
_cell_length_a   6.46081814
_cell_length_b   8.20429347
_cell_length_c   14.73678869
_cell_angle_alpha   90.00000000
_cell_angle_beta   90.00000000
_cell_angle_gamma   90.00000000
_symmetry_Int_Tables_number   1
_chemical_formula_structural   Ba2Sb2O5
_chemical_formula_sum   'Ba8 Sb8 O20'
_cell_volume   781.14482452
_cell_formula_units_Z   4
loop_
 _symmetry_equiv_pos_site_id
 _symmetry_equiv_pos_as_xyz
  1  'x, y, z'
loop_
 _atom_site_type_symbol
 _atom_site_label
 _atom_site_symmetry_multiplicity
 _atom_site_fract_x
 _atom_site_fract_y
 _atom_site_fract_z
 _atom_site_occupancy
  Ba  Ba0  1  0.250000  0.625402  0.073101  1
  Ba  Ba1  1  0.750000  0.624869  0.431046  1
  Ba  Ba2  1  0.750000  0.875131  0.931046  1
  Ba  Ba3  1  0.250000  0.874598  0.573101  1
  Ba  Ba4  1  0.250000  0.124869  0.068954  1
  Ba  Ba5  1  0.750000  0.125402  0.426899  1
  Ba  Ba6  1  0.250000  0.375131  0.568954  1
  Ba  Ba7  1  0.750000  0.374598  0.926899  1
  Sb  Sb8  1  0.250000  0.635085  0.819347  1
  Sb  Sb9  1  0.750000  0.614786  0.681783  1
  Sb  Sb10  1  0.250000  0.864915  0.319347  1
  Sb  Sb11  1  0.750000  0.885214  0.181783  1
  Sb  Sb12  1  0.250000  0.114786  0.818217  1
  Sb  Sb13  1  0.750000  0.135085  0.680653  1
  Sb  Sb14  1  0.250000  0.385214  0.318217  1
  Sb  Sb15  1  0.750000  0.364915  0.180653  1
  O  O16  1  0.250000  0.625231  0.280127  1
  O  O17  1  0.025414  0.629864  0.908316  1
  O  O18  1  0.474586  0.629864  0.908316  1
  O  O19  1  0.525883  0.620305  0.592612  1
  O  O20  1  0.974117  0.620305  0.592612  1
  O  O21  1  0.474586  0.870136  0.408316  1
  O  O22  1  0.250000  0.874769  0.780127  1
  O  O23  1  0.525883  0.879695  0.092612  1
  O  O24  1  0.025414  0.870136  0.408316  1
  O  O25  1  0.974117  0.879695  0.092612  1
  O  O26  1  0.750000  0.125231  0.219873  1
  O  O27  1  0.525414  0.129864  0.591684  1
  O  O28  1  0.974586  0.129864  0.591684  1
  O  O29  1  0.025883  0.120305  0.907388  1
  O  O30  1  0.474117  0.120305  0.907388  1
  O  O31  1  0.750000  0.374769  0.719873  1
  O  O32  1  0.025883  0.379695  0.407388  1
  O  O33  1  0.474117  0.379695  0.407388  1
  O  O34  1  0.525414  0.370136  0.091684  1
  O  O35  1  0.974586  0.370136  0.091684  1
