# generated using pymatgen
data_V4CrCoO12
_symmetry_space_group_name_H-M   'P 1'
_cell_length_a   6.75527031
_cell_length_b   6.75527031
_cell_length_c   5.81198377
_cell_angle_alpha   75.27768447
_cell_angle_beta   104.72231553
_cell_angle_gamma   95.51117878
_symmetry_Int_Tables_number   1
_chemical_formula_structural   V4CrCoO12
_chemical_formula_sum   'V4 Cr1 Co1 O12'
_cell_volume   247.95265653
_cell_formula_units_Z   1
loop_
 _symmetry_equiv_pos_site_id
 _symmetry_equiv_pos_as_xyz
  1  'x, y, z'
loop_
 _atom_site_type_symbol
 _atom_site_label
 _atom_site_symmetry_multiplicity
 _atom_site_fract_x
 _atom_site_fract_y
 _atom_site_fract_z
 _atom_site_occupancy
  V  V0  1  0.392351  0.793306  0.015707  1
  V  V1  1  0.200089  0.610366  0.506864  1
  V  V2  1  0.793306  0.392351  0.984293  1
  V  V3  1  0.610366  0.200089  0.493136  1
  Cr  Cr4  1  0.916544  0.916544  0.000000  1
  Co  Co5  1  0.084821  0.084821  0.500000  1
  O  O6  1  0.192986  0.963887  0.904166  1
  O  O7  1  0.630471  0.910493  0.037015  1
  O  O8  1  0.028481  0.812340  0.369917  1
  O  O9  1  0.353262  0.635511  0.806984  1
  O  O10  1  0.910493  0.630471  0.962985  1
  O  O11  1  0.372841  0.638606  0.305311  1
  O  O12  1  0.635511  0.353262  0.193016  1
  O  O13  1  0.090014  0.373633  0.532856  1
  O  O14  1  0.638606  0.372841  0.694689  1
  O  O15  1  0.963887  0.192986  0.095834  1
  O  O16  1  0.373633  0.090014  0.467144  1
  O  O17  1  0.812340  0.028481  0.630083  1
