# generated using pymatgen
data_LiVCoO4
_symmetry_space_group_name_H-M   'P 1'
_cell_length_a   5.98205028
_cell_length_b   5.98205028
_cell_length_c   8.25342706
_cell_angle_alpha   90.00000000
_cell_angle_beta   90.00000000
_cell_angle_gamma   90.00000000
_symmetry_Int_Tables_number   1
_chemical_formula_structural   LiVCoO4
_chemical_formula_sum   'Li4 V4 Co4 O16'
_cell_volume   295.34827285
_cell_formula_units_Z   4
loop_
 _symmetry_equiv_pos_site_id
 _symmetry_equiv_pos_as_xyz
  1  'x, y, z'
loop_
 _atom_site_type_symbol
 _atom_site_label
 _atom_site_symmetry_multiplicity
 _atom_site_fract_x
 _atom_site_fract_y
 _atom_site_fract_z
 _atom_site_occupancy
  Li  Li0  1  0.000000  0.243653  0.000000  1
  Li  Li1  1  0.000000  0.756347  0.500000  1
  Li  Li2  1  0.243653  0.000000  0.250000  1
  Li  Li3  1  0.756347  0.000000  0.750000  1
  V  V4  1  0.219384  0.500000  0.250000  1
  V  V5  1  0.500000  0.219384  0.000000  1
  V  V6  1  0.500000  0.780616  0.500000  1
  V  V7  1  0.780616  0.500000  0.750000  1
  Co  Co8  1  0.258431  0.258431  0.625000  1
  Co  Co9  1  0.258431  0.741569  0.875000  1
  Co  Co10  1  0.741569  0.258431  0.375000  1
  Co  Co11  1  0.741569  0.741569  0.125000  1
  O  O12  1  0.028920  0.272237  0.258148  1
  O  O13  1  0.028920  0.727763  0.241852  1
  O  O14  1  0.272237  0.028920  0.991852  1
  O  O15  1  0.272237  0.971080  0.508148  1
  O  O16  1  0.268898  0.484864  0.022848  1
  O  O17  1  0.268898  0.515136  0.477152  1
  O  O18  1  0.484864  0.268898  0.227152  1
  O  O19  1  0.484864  0.731102  0.272848  1
  O  O20  1  0.515136  0.268898  0.772848  1
  O  O21  1  0.515136  0.731102  0.727152  1
  O  O22  1  0.731102  0.515136  0.522848  1
  O  O23  1  0.731102  0.484864  0.977152  1
  O  O24  1  0.727763  0.028920  0.008148  1
  O  O25  1  0.727763  0.971080  0.491852  1
  O  O26  1  0.971080  0.272237  0.741852  1
  O  O27  1  0.971080  0.727763  0.758148  1
