# generated using pymatgen
data_Na2AlPCO7
_symmetry_space_group_name_H-M   'P 1'
_cell_length_a   5.17166713
_cell_length_b   6.40359332
_cell_length_c   8.88698462
_cell_angle_alpha   90.00000000
_cell_angle_beta   91.77904791
_cell_angle_gamma   90.00000000
_symmetry_Int_Tables_number   1
_chemical_formula_structural   Na2AlPCO7
_chemical_formula_sum   'Na4 Al2 P2 C2 O14'
_cell_volume   294.17065427
_cell_formula_units_Z   2
loop_
 _symmetry_equiv_pos_site_id
 _symmetry_equiv_pos_as_xyz
  1  'x, y, z'
loop_
 _atom_site_type_symbol
 _atom_site_label
 _atom_site_symmetry_multiplicity
 _atom_site_fract_x
 _atom_site_fract_y
 _atom_site_fract_z
 _atom_site_occupancy
  Na  Na0  1  0.763084  0.504705  0.227736  1
  Na  Na1  1  0.763084  0.995295  0.227736  1
  Na  Na2  1  0.236916  0.495295  0.772264  1
  Na  Na3  1  0.236916  0.004705  0.772264  1
  Al  Al4  1  0.217393  0.250000  0.349956  1
  Al  Al5  1  0.782607  0.750000  0.650044  1
  P  P6  1  0.279218  0.750000  0.430437  1
  P  P7  1  0.720782  0.250000  0.569563  1
  C  C8  1  0.272096  0.250000  0.083382  1
  C  C9  1  0.727904  0.750000  0.916618  1
  O  O10  1  0.691651  0.750000  0.055007  1
  O  O11  1  0.045099  0.250000  0.145573  1
  O  O12  1  0.461818  0.250000  0.187823  1
  O  O13  1  0.215402  0.946405  0.335936  1
  O  O14  1  0.215402  0.553595  0.335936  1
  O  O15  1  0.879473  0.250000  0.423307  1
  O  O16  1  0.574888  0.750000  0.475230  1
  O  O17  1  0.425112  0.250000  0.524770  1
  O  O18  1  0.120527  0.750000  0.576693  1
  O  O19  1  0.784598  0.446405  0.664064  1
  O  O20  1  0.784598  0.053595  0.664064  1
  O  O21  1  0.538182  0.750000  0.812177  1
  O  O22  1  0.954901  0.750000  0.854427  1
  O  O23  1  0.308349  0.250000  0.944993  1
