# generated using pymatgen
data_Li2VFe3O8
_symmetry_space_group_name_H-M   'P 1'
_cell_length_a   5.87934464
_cell_length_b   5.87934464
_cell_length_c   9.42631370
_cell_angle_alpha   90.00000000
_cell_angle_beta   90.00000000
_cell_angle_gamma   119.35929741
_symmetry_Int_Tables_number   1
_chemical_formula_structural   Li2VFe3O8
_chemical_formula_sum   'Li4 V2 Fe6 O16'
_cell_volume   283.98681387
_cell_formula_units_Z   2
loop_
 _symmetry_equiv_pos_site_id
 _symmetry_equiv_pos_as_xyz
  1  'x, y, z'
loop_
 _atom_site_type_symbol
 _atom_site_label
 _atom_site_symmetry_multiplicity
 _atom_site_fract_x
 _atom_site_fract_y
 _atom_site_fract_z
 _atom_site_occupancy
  Li  Li0  1  0.333426  0.666574  0.100863  1
  Li  Li1  1  0.000179  0.999821  0.008937  1
  Li  Li2  1  0.999821  0.000179  0.508937  1
  Li  Li3  1  0.666574  0.333426  0.600863  1
  V  V4  1  0.333693  0.666307  0.503101  1
  V  V5  1  0.666307  0.333693  0.003101  1
  Fe  Fe6  1  0.169635  0.345203  0.781782  1
  Fe  Fe7  1  0.174162  0.825838  0.785774  1
  Fe  Fe8  1  0.654797  0.830365  0.781782  1
  Fe  Fe9  1  0.345203  0.169635  0.281782  1
  Fe  Fe10  1  0.825838  0.174162  0.285774  1
  Fe  Fe11  1  0.830365  0.654797  0.281782  1
  O  O12  1  0.166894  0.351052  0.409923  1
  O  O13  1  0.041252  0.530000  0.655265  1
  O  O14  1  0.332581  0.667419  0.894700  1
  O  O15  1  0.003975  0.996025  0.700015  1
  O  O16  1  0.996025  0.003975  0.200015  1
  O  O17  1  0.173125  0.826875  0.410726  1
  O  O18  1  0.477673  0.522327  0.647897  1
  O  O19  1  0.470000  0.958748  0.655265  1
  O  O20  1  0.351052  0.166894  0.909923  1
  O  O21  1  0.648948  0.833106  0.409923  1
  O  O22  1  0.530000  0.041252  0.155265  1
  O  O23  1  0.522327  0.477673  0.147897  1
  O  O24  1  0.667419  0.332581  0.394700  1
  O  O25  1  0.826875  0.173125  0.910726  1
  O  O26  1  0.958748  0.470000  0.155265  1
  O  O27  1  0.833106  0.648948  0.909923  1
