# generated using pymatgen
data_Na2MnPCO7
_symmetry_space_group_name_H-M   'P 1'
_cell_length_a   8.48874676
_cell_length_b   8.54695010
_cell_length_c   10.23528990
_cell_angle_alpha   107.73680993
_cell_angle_beta   107.40331726
_cell_angle_gamma   104.30705036
_symmetry_Int_Tables_number   1
_chemical_formula_structural   Na2MnPCO7
_chemical_formula_sum   'Na8 Mn4 P4 C4 O28'
_cell_volume   626.44437609
_cell_formula_units_Z   4
loop_
 _symmetry_equiv_pos_site_id
 _symmetry_equiv_pos_as_xyz
  1  'x, y, z'
loop_
 _atom_site_type_symbol
 _atom_site_label
 _atom_site_symmetry_multiplicity
 _atom_site_fract_x
 _atom_site_fract_y
 _atom_site_fract_z
 _atom_site_occupancy
  Na  Na0  1  0.247497  0.242004  0.240885  1
  Na  Na1  1  0.492193  0.006113  0.254542  1
  Na  Na2  1  0.981605  0.506574  0.248217  1
  Na  Na3  1  0.515547  0.010057  0.755344  1
  Na  Na4  1  0.994978  0.491117  0.750633  1
  Na  Na5  1  0.240682  0.245289  0.753203  1
  Na  Na6  1  0.760284  0.764028  0.754141  1
  Na  Na7  1  0.469948  0.701190  0.930346  1
  Mn  Mn8  1  0.935843  0.181466  0.351390  1
  Mn  Mn9  1  0.451164  0.690949  0.349911  1
  Mn  Mn10  1  0.557144  0.307499  0.649421  1
  Mn  Mn11  1  0.059679  0.808354  0.644876  1
  P  P12  1  0.191443  0.944220  0.421066  1
  P  P13  1  0.688512  0.433636  0.420497  1
  P  P14  1  0.312622  0.564901  0.576571  1
  P  P15  1  0.809416  0.057287  0.579954  1
  C  C16  1  0.767789  0.020952  0.070278  1
  C  C17  1  0.277170  0.530573  0.074270  1
  C  C18  1  0.721590  0.472834  0.924416  1
  C  C19  1  0.224317  0.971999  0.924722  1
  O  O20  1  0.295923  0.040515  0.065168  1
  O  O21  1  0.799577  0.548623  0.061913  1
  O  O22  1  0.422356  0.675269  0.145871  1
  O  O23  1  0.917502  0.161696  0.146193  1
  O  O24  1  0.698724  0.963532  0.150774  1
  O  O25  1  0.221728  0.473984  0.162641  1
  O  O26  1  0.271542  0.841139  0.326171  1
  O  O27  1  0.087479  0.032160  0.334923  1
  O  O28  1  0.774287  0.327123  0.331346  1
  O  O29  1  0.573603  0.503047  0.324994  1
  O  O30  1  0.167363  0.420343  0.425968  1
  O  O31  1  0.559848  0.300923  0.457629  1
  O  O32  1  0.067235  0.811951  0.459481  1
  O  O33  1  0.660468  0.916944  0.428729  1
  O  O34  1  0.339009  0.090345  0.574992  1
  O  O35  1  0.447671  0.696639  0.543865  1
  O  O36  1  0.943156  0.190341  0.546133  1
  O  O37  1  0.834077  0.582262  0.571706  1
  O  O38  1  0.236738  0.674225  0.675270  1
  O  O39  1  0.418177  0.490602  0.677095  1
  O  O40  1  0.736553  0.167170  0.678116  1
  O  O41  1  0.917445  0.974909  0.669481  1
  O  O42  1  0.769679  0.523997  0.827553  1
  O  O43  1  0.282710  0.030129  0.837693  1
  O  O44  1  0.572683  0.328490  0.852566  1
  O  O45  1  0.077954  0.825566  0.848379  1
  O  O46  1  0.698020  0.946932  0.927013  1
  O  O47  1  0.207235  0.460367  0.932093  1
