# generated using pymatgen
data_Cs6Ti2O7
_symmetry_space_group_name_H-M   'P 1'
_cell_length_a   7.32792358
_cell_length_b   10.11518637
_cell_length_c   12.37313292
_cell_angle_alpha   90.00000000
_cell_angle_beta   124.67134028
_cell_angle_gamma   90.00000000
_symmetry_Int_Tables_number   1
_chemical_formula_structural   Cs6Ti2O7
_chemical_formula_sum   'Cs12 Ti4 O14'
_cell_volume   754.28028072
_cell_formula_units_Z   2
loop_
 _symmetry_equiv_pos_site_id
 _symmetry_equiv_pos_as_xyz
  1  'x, y, z'
loop_
 _atom_site_type_symbol
 _atom_site_label
 _atom_site_symmetry_multiplicity
 _atom_site_fract_x
 _atom_site_fract_y
 _atom_site_fract_z
 _atom_site_occupancy
  Cs  Cs0  1  0.406301  0.710380  0.280395  1
  Cs  Cs1  1  0.045014  0.849780  0.924619  1
  Cs  Cs2  1  0.796064  0.974790  0.550459  1
  Cs  Cs3  1  0.203936  0.474790  0.949541  1
  Cs  Cs4  1  0.593699  0.210380  0.219605  1
  Cs  Cs5  1  0.954986  0.349780  0.575381  1
  Cs  Cs6  1  0.045014  0.650220  0.424619  1
  Cs  Cs7  1  0.406301  0.789620  0.780395  1
  Cs  Cs8  1  0.796064  0.525210  0.050459  1
  Cs  Cs9  1  0.203936  0.025210  0.449541  1
  Cs  Cs10  1  0.954986  0.150220  0.075381  1
  Cs  Cs11  1  0.593699  0.289620  0.719605  1
  Ti  Ti12  1  0.678617  0.635022  0.627558  1
  Ti  Ti13  1  0.321383  0.135022  0.872442  1
  Ti  Ti14  1  0.678617  0.864978  0.127558  1
  Ti  Ti15  1  0.321383  0.364978  0.372442  1
  O  O16  1  0.500000  0.500000  0.500000  1
  O  O17  1  0.254166  0.410550  0.211105  1
  O  O18  1  0.488948  0.214937  0.426371  1
  O  O19  1  0.067541  0.161888  0.864954  1
  O  O20  1  0.932459  0.661888  0.635046  1
  O  O21  1  0.511052  0.714937  0.073629  1
  O  O22  1  0.745834  0.910550  0.288895  1
  O  O23  1  0.500000  0.000000  0.000000  1
  O  O24  1  0.254166  0.089450  0.711105  1
  O  O25  1  0.488948  0.285063  0.926371  1
  O  O26  1  0.067541  0.338112  0.364954  1
  O  O27  1  0.932459  0.838112  0.135046  1
  O  O28  1  0.511052  0.785063  0.573629  1
  O  O29  1  0.745834  0.589450  0.788895  1
