# generated using pymatgen
data_TbPrO4
_symmetry_space_group_name_H-M   'P 1'
_cell_length_a   6.80402572
_cell_length_b   6.80402572
_cell_length_c   6.80402572
_cell_angle_alpha   131.23618529
_cell_angle_beta   131.23618529
_cell_angle_gamma   71.43809785
_symmetry_Int_Tables_number   1
_chemical_formula_structural   TbPrO4
_chemical_formula_sum   'Tb2 Pr2 O8'
_cell_volume   174.32896256
_cell_formula_units_Z   2
loop_
 _symmetry_equiv_pos_site_id
 _symmetry_equiv_pos_as_xyz
  1  'x, y, z'
loop_
 _atom_site_type_symbol
 _atom_site_label
 _atom_site_symmetry_multiplicity
 _atom_site_fract_x
 _atom_site_fract_y
 _atom_site_fract_z
 _atom_site_occupancy
  Tb  Tb0  1  0.500000  0.500000  0.000000  1
  Tb  Tb1  1  0.250000  0.750000  0.500000  1
  Pr  Pr2  1  0.750000  0.250000  0.500000  1
  Pr  Pr3  1  0.000000  0.000000  0.000000  1
  O  O4  1  0.613030  0.125000  0.988030  1
  O  O5  1  0.875000  0.386970  0.011970  1
  O  O6  1  0.375000  0.863030  0.988030  1
  O  O7  1  0.613030  0.625000  0.488030  1
  O  O8  1  0.136970  0.625000  0.011970  1
  O  O9  1  0.375000  0.386970  0.511970  1
  O  O10  1  0.875000  0.863030  0.488030  1
  O  O11  1  0.136970  0.125000  0.511970  1
