# generated using pymatgen
data_Li3Fe2P4HO14
_symmetry_space_group_name_H-M   'P 1'
_cell_length_a   5.11800619
_cell_length_b   5.23657890
_cell_length_c   12.45390949
_cell_angle_alpha   101.04470168
_cell_angle_beta   89.17679224
_cell_angle_gamma   118.69582561
_symmetry_Int_Tables_number   1
_chemical_formula_structural   Li3Fe2P4HO14
_chemical_formula_sum   'Li3 Fe2 P4 H1 O14'
_cell_volume   286.18823835
_cell_formula_units_Z   1
loop_
 _symmetry_equiv_pos_site_id
 _symmetry_equiv_pos_as_xyz
  1  'x, y, z'
loop_
 _atom_site_type_symbol
 _atom_site_label
 _atom_site_symmetry_multiplicity
 _atom_site_fract_x
 _atom_site_fract_y
 _atom_site_fract_z
 _atom_site_occupancy
  Li  Li0  1  0.790023  0.194510  0.999175  1
  Li  Li1  1  0.000000  0.000000  0.500000  1
  Li  Li2  1  0.209977  0.805490  0.000825  1
  Fe  Fe3  1  0.864035  0.063103  0.231447  1
  Fe  Fe4  1  0.135965  0.936897  0.768553  1
  P  P5  1  0.706221  0.411441  0.372324  1
  P  P6  1  0.463560  0.430339  0.143060  1
  P  P7  1  0.536440  0.569661  0.856940  1
  P  P8  1  0.293779  0.588559  0.627676  1
  H  H9  1  0.500000  0.500000  0.500000  1
  O  O10  1  0.851890  0.220922  0.366599  1
  O  O11  1  0.706326  0.362153  0.121035  1
  O  O12  1  0.145851  0.224134  0.098871  1
  O  O13  1  0.429655  0.338058  0.274464  1
  O  O14  1  0.544171  0.314657  0.476742  1
  O  O15  1  0.462827  0.240924  0.886746  1
  O  O16  1  0.911576  0.742070  0.349496  1
  O  O17  1  0.088424  0.257930  0.650504  1
  O  O18  1  0.537173  0.759076  0.113254  1
  O  O19  1  0.455829  0.685343  0.523258  1
  O  O20  1  0.570345  0.661942  0.725536  1
  O  O21  1  0.854149  0.775866  0.901129  1
  O  O22  1  0.293674  0.637847  0.878965  1
  O  O23  1  0.148110  0.779078  0.633401  1
