# generated using pymatgen
data_Li2MnFeO4
_symmetry_space_group_name_H-M   'P 1'
_cell_length_a   5.96026858
_cell_length_b   5.96026858
_cell_length_c   5.96026858
_cell_angle_alpha   119.12867404
_cell_angle_beta   118.52815424
_cell_angle_gamma   92.04227388
_symmetry_Int_Tables_number   1
_chemical_formula_structural   Li2MnFeO4
_chemical_formula_sum   'Li4 Mn2 Fe2 O8'
_cell_volume   152.26259325
_cell_formula_units_Z   2
loop_
 _symmetry_equiv_pos_site_id
 _symmetry_equiv_pos_as_xyz
  1  'x, y, z'
loop_
 _atom_site_type_symbol
 _atom_site_label
 _atom_site_symmetry_multiplicity
 _atom_site_fract_x
 _atom_site_fract_y
 _atom_site_fract_z
 _atom_site_occupancy
  Li  Li0  1  0.500000  0.500000  0.500000  1
  Li  Li1  1  0.500000  0.000000  0.500000  1
  Li  Li2  1  0.000000  0.500000  0.000000  1
  Li  Li3  1  0.500000  0.500000  0.000000  1
  Mn  Mn4  1  0.500000  0.000000  1.000000  1
  Mn  Mn5  1  0.000000  0.000000  0.500000  1
  Fe  Fe6  1  0.000000  0.500000  0.500000  1
  Fe  Fe7  1  0.000000  0.000000  0.000000  1
  O  O8  1  0.242254  0.237482  0.995228  1
  O  O9  1  0.778663  0.764283  0.514380  1
  O  O10  1  0.242254  0.747026  0.504772  1
  O  O11  1  0.249902  0.764283  0.985620  1
  O  O12  1  0.750098  0.235717  0.014380  1
  O  O13  1  0.757746  0.252974  0.495228  1
  O  O14  1  0.221337  0.235717  0.485620  1
  O  O15  1  0.757746  0.762518  0.004772  1
