# generated using pymatgen
data_VCr3(PO4)6
_symmetry_space_group_name_H-M   'P 1'
_cell_length_a   8.76962907
_cell_length_b   8.76962907
_cell_length_c   8.76962907
_cell_angle_alpha   58.36243680
_cell_angle_beta   58.36243680
_cell_angle_gamma   58.36243680
_symmetry_Int_Tables_number   1
_chemical_formula_structural   VCr3(PO4)6
_chemical_formula_sum   'V1 Cr3 P6 O24'
_cell_volume   459.02271638
_cell_formula_units_Z   1
loop_
 _symmetry_equiv_pos_site_id
 _symmetry_equiv_pos_as_xyz
  1  'x, y, z'
loop_
 _atom_site_type_symbol
 _atom_site_label
 _atom_site_symmetry_multiplicity
 _atom_site_fract_x
 _atom_site_fract_y
 _atom_site_fract_z
 _atom_site_occupancy
  V  V0  1  0.140713  0.140713  0.140713  1
  Cr  Cr1  1  0.857123  0.857123  0.857123  1
  Cr  Cr2  1  0.642420  0.642420  0.642420  1
  Cr  Cr3  1  0.357391  0.357391  0.357391  1
  P  P4  1  0.249783  0.533799  0.966159  1
  P  P5  1  0.966159  0.249783  0.533799  1
  P  P6  1  0.533799  0.966159  0.249783  1
  P  P7  1  0.467378  0.033692  0.748212  1
  P  P8  1  0.033692  0.748212  0.467378  1
  P  P9  1  0.748212  0.467378  0.033692  1
  O  O10  1  0.725738  0.488605  0.861266  1
  O  O11  1  0.488605  0.861266  0.725738  1
  O  O12  1  0.077112  0.717632  0.937247  1
  O  O13  1  0.861266  0.725738  0.488605  1
  O  O14  1  0.423736  0.558115  0.783310  1
  O  O15  1  0.218372  0.358984  0.998756  1
  O  O16  1  0.937247  0.077112  0.717632  1
  O  O17  1  0.783310  0.423736  0.558115  1
  O  O18  1  0.558115  0.783310  0.423736  1
  O  O19  1  0.636687  0.007856  0.779638  1
  O  O20  1  0.283754  0.064013  0.927104  1
  O  O21  1  0.007856  0.779638  0.636687  1
  O  O22  1  0.998756  0.218372  0.358984  1
  O  O23  1  0.717632  0.937247  0.077112  1
  O  O24  1  0.358984  0.998756  0.218372  1
  O  O25  1  0.436471  0.217104  0.577498  1
  O  O26  1  0.217104  0.577498  0.436471  1
  O  O27  1  0.064013  0.927104  0.283754  1
  O  O28  1  0.779638  0.636687  0.007856  1
  O  O29  1  0.577498  0.436471  0.217104  1
  O  O30  1  0.136818  0.279265  0.508248  1
  O  O31  1  0.927104  0.283754  0.064013  1
  O  O32  1  0.508248  0.136818  0.279265  1
  O  O33  1  0.279265  0.508248  0.136818  1
