# generated using pymatgen
data_LuP5O14
_symmetry_space_group_name_H-M   'P 1'
_cell_length_a   8.76049923
_cell_length_b   8.93554242
_cell_length_c   12.80245075
_cell_angle_alpha   90.00000000
_cell_angle_beta   90.00000000
_cell_angle_gamma   90.00000000
_symmetry_Int_Tables_number   1
_chemical_formula_structural   LuP5O14
_chemical_formula_sum   'Lu4 P20 O56'
_cell_volume   1002.17344412
_cell_formula_units_Z   4
loop_
 _symmetry_equiv_pos_site_id
 _symmetry_equiv_pos_as_xyz
  1  'x, y, z'
loop_
 _atom_site_type_symbol
 _atom_site_label
 _atom_site_symmetry_multiplicity
 _atom_site_fract_x
 _atom_site_fract_y
 _atom_site_fract_z
 _atom_site_occupancy
  Lu  Lu0  1  0.978274  0.939048  0.250000  1
  Lu  Lu1  1  0.521726  0.439048  0.750000  1
  Lu  Lu2  1  0.478274  0.560952  0.250000  1
  Lu  Lu3  1  0.021726  0.060952  0.750000  1
  P  P4  1  0.994864  0.702505  0.583410  1
  P  P5  1  0.994864  0.702505  0.916590  1
  P  P6  1  0.930877  0.486497  0.750000  1
  P  P7  1  0.745607  0.724620  0.068469  1
  P  P8  1  0.745607  0.724620  0.431531  1
  P  P9  1  0.754393  0.224620  0.568469  1
  P  P10  1  0.754393  0.224620  0.931531  1
  P  P11  1  0.569123  0.986497  0.250000  1
  P  P12  1  0.505136  0.202505  0.416590  1
  P  P13  1  0.505136  0.202505  0.083410  1
  P  P14  1  0.494864  0.797495  0.916590  1
  P  P15  1  0.494864  0.797495  0.583410  1
  P  P16  1  0.430877  0.013503  0.750000  1
  P  P17  1  0.245607  0.775380  0.068469  1
  P  P18  1  0.245607  0.775380  0.431531  1
  P  P19  1  0.254393  0.275380  0.568469  1
  P  P20  1  0.254393  0.275380  0.931531  1
  P  P21  1  0.069123  0.513503  0.250000  1
  P  P22  1  0.005136  0.297495  0.083410  1
  P  P23  1  0.005136  0.297495  0.416590  1
  O  O24  1  0.001911  0.151892  0.137489  1
  O  O25  1  0.001911  0.151892  0.362511  1
  O  O26  1  0.968231  0.325003  0.750000  1
  O  O27  1  0.972299  0.438656  0.153754  1
  O  O28  1  0.972299  0.438656  0.346246  1
  O  O29  1  0.882443  0.321036  0.504988  1
  O  O30  1  0.882443  0.321036  0.995012  1
  O  O31  1  0.846828  0.837321  0.119030  1
  O  O32  1  0.846828  0.837321  0.380970  1
  O  O33  1  0.838595  0.654313  0.530203  1
  O  O34  1  0.838595  0.654313  0.969797  1
  O  O35  1  0.828132  0.100828  0.627354  1
  O  O36  1  0.828132  0.100828  0.872646  1
  O  O37  1  0.771596  0.546232  0.750000  1
  O  O38  1  0.728404  0.046232  0.250000  1
  O  O39  1  0.671868  0.600828  0.127354  1
  O  O40  1  0.671868  0.600828  0.372646  1
  O  O41  1  0.661405  0.154313  0.030203  1
  O  O42  1  0.661405  0.154313  0.469797  1
  O  O43  1  0.653172  0.337321  0.619030  1
  O  O44  1  0.653172  0.337321  0.880970  1
  O  O45  1  0.617557  0.821036  0.004988  1
  O  O46  1  0.617557  0.821036  0.495012  1
  O  O47  1  0.527701  0.938656  0.653754  1
  O  O48  1  0.527701  0.938656  0.846246  1
  O  O49  1  0.531769  0.825003  0.250000  1
  O  O50  1  0.498089  0.651892  0.637489  1
  O  O51  1  0.498089  0.651892  0.862511  1
  O  O52  1  0.501911  0.348108  0.137489  1
  O  O53  1  0.501911  0.348108  0.362511  1
  O  O54  1  0.468231  0.174997  0.750000  1
  O  O55  1  0.472299  0.061344  0.153754  1
  O  O56  1  0.472299  0.061344  0.346246  1
  O  O57  1  0.382443  0.178964  0.504988  1
  O  O58  1  0.382443  0.178964  0.995012  1
  O  O59  1  0.346828  0.662679  0.119030  1
  O  O60  1  0.346828  0.662679  0.380970  1
  O  O61  1  0.338595  0.845687  0.530203  1
  O  O62  1  0.338595  0.845687  0.969797  1
  O  O63  1  0.328132  0.399172  0.627354  1
  O  O64  1  0.328132  0.399172  0.872646  1
  O  O65  1  0.271596  0.953768  0.750000  1
  O  O66  1  0.228404  0.453768  0.250000  1
  O  O67  1  0.171868  0.899172  0.127354  1
  O  O68  1  0.171868  0.899172  0.372646  1
  O  O69  1  0.161405  0.345687  0.030203  1
  O  O70  1  0.161405  0.345687  0.469797  1
  O  O71  1  0.153172  0.162679  0.880970  1
  O  O72  1  0.153172  0.162679  0.619030  1
  O  O73  1  0.117557  0.678964  0.004988  1
  O  O74  1  0.117557  0.678964  0.495012  1
  O  O75  1  0.027701  0.561344  0.653754  1
  O  O76  1  0.027701  0.561344  0.846246  1
  O  O77  1  0.031769  0.674997  0.250000  1
  O  O78  1  0.998089  0.848108  0.637489  1
  O  O79  1  0.998089  0.848108  0.862511  1
