# generated using pymatgen
data_TbTiO3
_symmetry_space_group_name_H-M   'P 1'
_cell_length_a   5.36562141
_cell_length_b   5.71340039
_cell_length_c   7.72340103
_cell_angle_alpha   90.00000000
_cell_angle_beta   90.00000000
_cell_angle_gamma   90.00000000
_symmetry_Int_Tables_number   1
_chemical_formula_structural   TbTiO3
_chemical_formula_sum   'Tb4 Ti4 O12'
_cell_volume   236.76814527
_cell_formula_units_Z   4
loop_
 _symmetry_equiv_pos_site_id
 _symmetry_equiv_pos_as_xyz
  1  'x, y, z'
loop_
 _atom_site_type_symbol
 _atom_site_label
 _atom_site_symmetry_multiplicity
 _atom_site_fract_x
 _atom_site_fract_y
 _atom_site_fract_z
 _atom_site_occupancy
  Tb  Tb0  1  0.021104  0.930211  0.750000  1
  Tb  Tb1  1  0.478896  0.430211  0.750000  1
  Tb  Tb2  1  0.521104  0.569789  0.250000  1
  Tb  Tb3  1  0.978896  0.069789  0.250000  1
  Ti  Ti4  1  0.000000  0.500000  0.000000  1
  Ti  Ti5  1  0.000000  0.500000  0.500000  1
  Ti  Ti6  1  0.500000  0.000000  0.000000  1
  Ti  Ti7  1  0.500000  0.000000  0.500000  1
  O  O8  1  0.117694  0.456967  0.250000  1
  O  O9  1  0.192130  0.199059  0.557624  1
  O  O10  1  0.192130  0.199059  0.942376  1
  O  O11  1  0.307870  0.699059  0.942376  1
  O  O12  1  0.307870  0.699059  0.557624  1
  O  O13  1  0.382306  0.956967  0.250000  1
  O  O14  1  0.617694  0.043033  0.750000  1
  O  O15  1  0.692130  0.300941  0.057624  1
  O  O16  1  0.692130  0.300941  0.442376  1
  O  O17  1  0.807870  0.800941  0.057624  1
  O  O18  1  0.807870  0.800941  0.442376  1
  O  O19  1  0.882306  0.543033  0.750000  1
