# generated using pymatgen
data_Ca2Ti6N2O11
_symmetry_space_group_name_H-M   'P 1'
_cell_length_a   7.75089674
_cell_length_b   7.75089674
_cell_length_c   9.50175829
_cell_angle_alpha   80.71360191
_cell_angle_beta   99.28639809
_cell_angle_gamma   151.96697144
_symmetry_Int_Tables_number   1
_chemical_formula_structural   Ca2Ti6N2O11
_chemical_formula_sum   'Ca2 Ti6 N2 O11'
_cell_volume   264.54290732
_cell_formula_units_Z   1
loop_
 _symmetry_equiv_pos_site_id
 _symmetry_equiv_pos_as_xyz
  1  'x, y, z'
loop_
 _atom_site_type_symbol
 _atom_site_label
 _atom_site_symmetry_multiplicity
 _atom_site_fract_x
 _atom_site_fract_y
 _atom_site_fract_z
 _atom_site_occupancy
  Ca  Ca0  1  0.537761  0.462239  0.810075  1
  Ca  Ca1  1  0.451921  0.548079  0.262674  1
  Ti  Ti2  1  0.117760  0.882240  0.087709  1
  Ti  Ti3  1  0.172215  0.827785  0.430170  1
  Ti  Ti4  1  0.231985  0.768015  0.755476  1
  Ti  Ti5  1  0.764455  0.235545  0.223659  1
  Ti  Ti6  1  0.848694  0.151306  0.562270  1
  Ti  Ti7  1  0.882717  0.117283  0.923200  1
  N  N8  1  0.655716  0.344284  0.097976  1
  N  N9  1  0.004199  0.995801  0.984256  1
  O  O10  1  0.071566  0.928434  0.285298  1
  O  O11  1  0.131111  0.868889  0.598022  1
  O  O12  1  0.159491  0.840509  0.885518  1
  O  O13  1  0.708396  0.291604  0.416975  1
  O  O14  1  0.764151  0.235849  0.749422  1
  O  O15  1  0.257892  0.742108  0.257019  1
  O  O16  1  0.305704  0.694296  0.567776  1
  O  O17  1  0.359700  0.640300  0.882532  1
  O  O18  1  0.857957  0.142043  0.112725  1
  O  O19  1  0.894473  0.105527  0.396891  1
  O  O20  1  0.943884  0.056116  0.704483  1
