# generated using pymatgen
data_AlGaO3
_symmetry_space_group_name_H-M   'P 1'
_cell_length_a   5.00167591
_cell_length_b   8.60147657
_cell_length_c   9.27784445
_cell_angle_alpha   90.00000000
_cell_angle_beta   90.00000000
_cell_angle_gamma   90.00000000
_symmetry_Int_Tables_number   1
_chemical_formula_structural   AlGaO3
_chemical_formula_sum   'Al8 Ga8 O24'
_cell_volume   399.14955120
_cell_formula_units_Z   8
loop_
 _symmetry_equiv_pos_site_id
 _symmetry_equiv_pos_as_xyz
  1  'x, y, z'
loop_
 _atom_site_type_symbol
 _atom_site_label
 _atom_site_symmetry_multiplicity
 _atom_site_fract_x
 _atom_site_fract_y
 _atom_site_fract_z
 _atom_site_occupancy
  Al  Al0  1  0.171465  0.154299  0.000962  1
  Al  Al1  1  0.182096  0.836752  0.804623  1
  Al  Al2  1  0.317904  0.336752  0.304623  1
  Al  Al3  1  0.328535  0.654299  0.500962  1
  Al  Al4  1  0.671465  0.345701  0.000962  1
  Al  Al5  1  0.682096  0.663248  0.804623  1
  Al  Al6  1  0.817904  0.163248  0.304623  1
  Al  Al7  1  0.828535  0.845701  0.500962  1
  Ga  Ga8  1  0.169382  0.467835  0.798467  1
  Ga  Ga9  1  0.187885  0.149230  0.583632  1
  Ga  Ga10  1  0.312115  0.649230  0.083632  1
  Ga  Ga11  1  0.330618  0.967835  0.298467  1
  Ga  Ga12  1  0.669382  0.032165  0.798467  1
  Ga  Ga13  1  0.687885  0.350770  0.583632  1
  Ga  Ga14  1  0.812115  0.850770  0.083632  1
  Ga  Ga15  1  0.830618  0.532165  0.298467  1
  O  O16  1  0.005987  0.326792  0.942306  1
  O  O17  1  0.009082  0.010198  0.430145  1
  O  O18  1  0.020457  0.677503  0.918071  1
  O  O19  1  0.158404  0.829343  0.170127  1
  O  O20  1  0.147392  0.164550  0.194665  1
  O  O21  1  0.160141  0.492818  0.201391  1
  O  O22  1  0.339859  0.992818  0.701391  1
  O  O23  1  0.352608  0.664550  0.694665  1
  O  O24  1  0.341596  0.329343  0.670127  1
  O  O25  1  0.479543  0.177503  0.418071  1
  O  O26  1  0.490918  0.510198  0.930145  1
  O  O27  1  0.494013  0.826792  0.442306  1
  O  O28  1  0.505987  0.173208  0.942306  1
  O  O29  1  0.509082  0.489802  0.430145  1
  O  O30  1  0.520457  0.822497  0.918071  1
  O  O31  1  0.658404  0.670657  0.170127  1
  O  O32  1  0.647392  0.335450  0.194665  1
  O  O33  1  0.660141  0.007182  0.201391  1
  O  O34  1  0.839859  0.507182  0.701391  1
  O  O35  1  0.852608  0.835450  0.694665  1
  O  O36  1  0.841596  0.170657  0.670127  1
  O  O37  1  0.979543  0.322497  0.418071  1
  O  O38  1  0.990918  0.989802  0.930145  1
  O  O39  1  0.994013  0.673208  0.442306  1
