# generated using pymatgen
data_V3OF11
_symmetry_space_group_name_H-M   'P 1'
_cell_length_a   5.27322179
_cell_length_b   5.45595604
_cell_length_c   14.76270508
_cell_angle_alpha   79.68173730
_cell_angle_beta   89.94826309
_cell_angle_gamma   89.92085297
_symmetry_Int_Tables_number   1
_chemical_formula_structural   V3OF11
_chemical_formula_sum   'V6 O2 F22'
_cell_volume   417.86068355
_cell_formula_units_Z   2
loop_
 _symmetry_equiv_pos_site_id
 _symmetry_equiv_pos_as_xyz
  1  'x, y, z'
loop_
 _atom_site_type_symbol
 _atom_site_label
 _atom_site_symmetry_multiplicity
 _atom_site_fract_x
 _atom_site_fract_y
 _atom_site_fract_z
 _atom_site_occupancy
  V  V0  1  0.005037  0.998087  0.001318  1
  V  V1  1  0.508215  0.844695  0.333736  1
  V  V2  1  0.000074  0.666759  0.666276  1
  V  V3  1  0.510063  0.499912  0.993955  1
  V  V4  1  0.025533  0.374695  0.329772  1
  V  V5  1  0.500197  0.166675  0.666377  1
  O  O6  1  0.580896  0.545000  0.885651  1
  O  O7  1  0.204688  0.625287  0.310471  1
  F  F8  1  0.198285  0.976518  0.641935  1
  F  F9  1  0.298208  0.803230  0.975536  1
  F  F10  1  0.698527  0.856642  0.691150  1
  F  F11  1  0.081340  0.956321  0.118699  1
  F  F12  1  0.412617  0.783920  0.450581  1
  F  F13  1  0.085540  0.624670  0.784097  1
  F  F14  1  0.577506  0.872137  0.215237  1
  F  F15  1  0.913421  0.706026  0.549298  1
  F  F16  1  0.301832  0.476765  0.642118  1
  F  F17  1  0.207595  0.303618  0.975708  1
  F  F18  1  0.792378  0.693650  0.026441  1
  F  F19  1  0.713641  0.530250  0.357296  1
  F  F20  1  0.801506  0.356001  0.691588  1
  F  F21  1  0.408025  0.458518  0.115519  1
  F  F22  1  0.072358  0.273477  0.449537  1
  F  F23  1  0.413184  0.123954  0.784134  1
  F  F24  1  0.907126  0.364895  0.218054  1
  F  F25  1  0.584960  0.208823  0.549161  1
  F  F26  1  0.911673  0.041614  0.884512  1
  F  F27  1  0.289836  0.142547  0.308783  1
  F  F28  1  0.703340  0.197454  0.026056  1
  F  F29  1  0.792398  0.027860  0.357002  1
