# generated using pymatgen
data_FeOF
_symmetry_space_group_name_H-M   'P 1'
_cell_length_a   9.58588340
_cell_length_b   3.12961106
_cell_length_c   14.30957821
_cell_angle_alpha   90.00000000
_cell_angle_beta   90.05515231
_cell_angle_gamma   90.00000000
_symmetry_Int_Tables_number   1
_chemical_formula_structural   FeOF
_chemical_formula_sum   'Fe12 O12 F12'
_cell_volume   429.28838783
_cell_formula_units_Z   12
loop_
 _symmetry_equiv_pos_site_id
 _symmetry_equiv_pos_as_xyz
  1  'x, y, z'
loop_
 _atom_site_type_symbol
 _atom_site_label
 _atom_site_symmetry_multiplicity
 _atom_site_fract_x
 _atom_site_fract_y
 _atom_site_fract_z
 _atom_site_occupancy
  Fe  Fe0  1  0.994498  0.000000  0.995695  1
  Fe  Fe1  1  0.988391  0.000000  0.671446  1
  Fe  Fe2  1  0.993080  0.000000  0.330030  1
  Fe  Fe3  1  0.772595  0.500000  0.834907  1
  Fe  Fe4  1  0.754840  0.500000  0.518252  1
  Fe  Fe5  1  0.776825  0.500000  0.166865  1
  Fe  Fe6  1  0.500455  0.000000  0.657326  1
  Fe  Fe7  1  0.487751  0.000000  0.003115  1
  Fe  Fe8  1  0.485314  0.000000  0.336706  1
  Fe  Fe9  1  0.216678  0.500000  0.828544  1
  Fe  Fe10  1  0.269486  0.500000  0.503146  1
  Fe  Fe11  1  0.271551  0.500000  0.168892  1
  O  O12  1  0.900257  0.500000  0.728884  1
  O  O13  1  0.907137  0.500000  0.062411  1
  O  O14  1  0.843474  0.000000  0.898328  1
  O  O15  1  0.848569  0.000000  0.229956  1
  O  O16  1  0.851415  0.000000  0.566029  1
  O  O17  1  0.594256  0.500000  0.604040  1
  O  O18  1  0.402580  0.500000  0.059524  1
  O  O19  1  0.404557  0.500000  0.399233  1
  O  O20  1  0.341499  0.000000  0.568241  1
  O  O21  1  0.351090  0.000000  0.230390  1
  O  O22  1  0.146426  0.000000  0.764347  1
  O  O23  1  0.094108  0.500000  0.937414  1
  F  F24  1  0.899338  0.500000  0.403161  1
  F  F25  1  0.646602  0.000000  0.771348  1
  F  F26  1  0.658319  0.000000  0.433141  1
  F  F27  1  0.652140  0.000000  0.098503  1
  F  F28  1  0.594976  0.500000  0.933369  1
  F  F29  1  0.600770  0.500000  0.267007  1
  F  F30  1  0.401099  0.500000  0.736444  1
  F  F31  1  0.346490  0.000000  0.894202  1
  F  F32  1  0.153186  0.000000  0.104912  1
  F  F33  1  0.148584  0.000000  0.432435  1
  F  F34  1  0.096698  0.500000  0.595164  1
  F  F35  1  0.104967  0.500000  0.266591  1
