# generated using pymatgen
data_TaTiO4
_symmetry_space_group_name_H-M   'P 1'
_cell_length_a   5.66133486
_cell_length_b   5.66133486
_cell_length_c   5.66133486
_cell_angle_alpha   106.79319836
_cell_angle_beta   106.79319836
_cell_angle_gamma   114.97126639
_symmetry_Int_Tables_number   1
_chemical_formula_structural   TaTiO4
_chemical_formula_sum   'Ta2 Ti2 O8'
_cell_volume   138.70545233
_cell_formula_units_Z   2
loop_
 _symmetry_equiv_pos_site_id
 _symmetry_equiv_pos_as_xyz
  1  'x, y, z'
loop_
 _atom_site_type_symbol
 _atom_site_label
 _atom_site_symmetry_multiplicity
 _atom_site_fract_x
 _atom_site_fract_y
 _atom_site_fract_z
 _atom_site_occupancy
  Ta  Ta0  1  0.756197  0.256197  0.500000  1
  Ta  Ta1  1  0.506197  0.506197  0.000000  1
  Ti  Ti2  1  0.246488  0.746488  0.500000  1
  Ti  Ti3  1  0.996488  0.996488  0.000000  1
  O  O4  1  0.545614  0.744927  0.800687  1
  O  O5  1  0.055019  0.253730  0.801289  1
  O  O6  1  0.994927  0.694241  0.699313  1
  O  O7  1  0.503730  0.202441  0.698711  1
  O  O8  1  0.503730  0.805019  0.301289  1
  O  O9  1  0.994927  0.295614  0.300687  1
  O  O10  1  0.452441  0.253730  0.198711  1
  O  O11  1  0.944241  0.744927  0.199313  1
