# generated using pymatgen
data_Li2Cr2Si4O11
_symmetry_space_group_name_H-M   'P 1'
_cell_length_a   7.13355596
_cell_length_b   7.82650673
_cell_length_c   8.81972805
_cell_angle_alpha   98.55050781
_cell_angle_beta   102.04142101
_cell_angle_gamma   108.53501650
_symmetry_Int_Tables_number   1
_chemical_formula_structural   Li2Cr2Si4O11
_chemical_formula_sum   'Li4 Cr4 Si8 O22'
_cell_volume   444.15561184
_cell_formula_units_Z   2
loop_
 _symmetry_equiv_pos_site_id
 _symmetry_equiv_pos_as_xyz
  1  'x, y, z'
loop_
 _atom_site_type_symbol
 _atom_site_label
 _atom_site_symmetry_multiplicity
 _atom_site_fract_x
 _atom_site_fract_y
 _atom_site_fract_z
 _atom_site_occupancy
  Li  Li0  1  0.378865  0.218786  0.798765  1
  Li  Li1  1  0.848911  0.255042  0.846590  1
  Li  Li2  1  0.151089  0.744958  0.153410  1
  Li  Li3  1  0.621135  0.781214  0.201235  1
  Cr  Cr4  1  0.119629  0.380970  0.614225  1
  Cr  Cr5  1  0.635299  0.386094  0.599635  1
  Cr  Cr6  1  0.364701  0.613906  0.400365  1
  Cr  Cr7  1  0.880371  0.619030  0.385775  1
  Si  Si8  1  0.757053  0.613994  0.964228  1
  Si  Si9  1  0.044321  0.780270  0.767734  1
  Si  Si10  1  0.478705  0.782653  0.780802  1
  Si  Si11  1  0.225053  0.026350  0.397044  1
  Si  Si12  1  0.774947  0.973650  0.602956  1
  Si  Si13  1  0.521295  0.217347  0.219198  1
  Si  Si14  1  0.955679  0.219730  0.232266  1
  Si  Si15  1  0.242947  0.386006  0.035772  1
  O  O16  1  0.187007  0.377626  0.849283  1
  O  O17  1  0.602338  0.735912  0.939720  1
  O  O18  1  0.671937  0.410260  0.842929  1
  O  O19  1  0.977825  0.742788  0.932027  1
  O  O20  1  0.296637  0.851047  0.823026  1
  O  O21  1  0.635143  0.961021  0.736124  1
  O  O22  1  0.342567  0.186233  0.559927  1
  O  O23  1  0.394386  0.601191  0.634965  1
  O  O24  1  0.834990  0.188125  0.593218  1
  O  O25  1  0.987834  0.949579  0.705340  1
  O  O26  1  0.927439  0.593060  0.626588  1
  O  O27  1  0.072561  0.406940  0.373412  1
  O  O28  1  0.012166  0.050421  0.294660  1
  O  O29  1  0.165010  0.811875  0.406782  1
  O  O30  1  0.605614  0.398809  0.365035  1
  O  O31  1  0.657433  0.813767  0.440073  1
  O  O32  1  0.364857  0.038979  0.263876  1
  O  O33  1  0.703363  0.148953  0.176974  1
  O  O34  1  0.022175  0.257212  0.067973  1
  O  O35  1  0.328063  0.589740  0.157071  1
  O  O36  1  0.397662  0.264088  0.060280  1
  O  O37  1  0.812993  0.622374  0.150717  1
