# generated using pymatgen
data_VP6(WO8)3
_symmetry_space_group_name_H-M   'P 1'
_cell_length_a   8.92477634
_cell_length_b   8.92477634
_cell_length_c   8.92477634
_cell_angle_alpha   58.98266954
_cell_angle_beta   58.98266954
_cell_angle_gamma   58.98266954
_symmetry_Int_Tables_number   1
_chemical_formula_structural   VP6(WO8)3
_chemical_formula_sum   'V1 P6 W3 O24'
_cell_volume   490.99725115
_cell_formula_units_Z   1
loop_
 _symmetry_equiv_pos_site_id
 _symmetry_equiv_pos_as_xyz
  1  'x, y, z'
loop_
 _atom_site_type_symbol
 _atom_site_label
 _atom_site_symmetry_multiplicity
 _atom_site_fract_x
 _atom_site_fract_y
 _atom_site_fract_z
 _atom_site_occupancy
  V  V0  1  0.141618  0.141618  0.141618  1
  P  P1  1  0.249167  0.532116  0.964957  1
  P  P2  1  0.964957  0.249167  0.532116  1
  P  P3  1  0.532116  0.964957  0.249167  1
  P  P4  1  0.459957  0.036758  0.753631  1
  P  P5  1  0.036758  0.753631  0.459957  1
  P  P6  1  0.753631  0.459957  0.036758  1
  W  W7  1  0.857633  0.857633  0.857633  1
  W  W8  1  0.642769  0.642769  0.642769  1
  W  W9  1  0.357670  0.357670  0.357670  1
  O  O10  1  0.714293  0.495923  0.868636  1
  O  O11  1  0.495923  0.868636  0.714293  1
  O  O12  1  0.079854  0.713945  0.936830  1
  O  O13  1  0.868636  0.714293  0.495923  1
  O  O14  1  0.418922  0.567549  0.787549  1
  O  O15  1  0.224103  0.365565  0.991205  1
  O  O16  1  0.936830  0.079854  0.713945  1
  O  O17  1  0.787549  0.418922  0.567549  1
  O  O18  1  0.567549  0.787549  0.418922  1
  O  O19  1  0.634835  0.007689  0.778002  1
  O  O20  1  0.287838  0.058938  0.919823  1
  O  O21  1  0.007689  0.778002  0.634835  1
  O  O22  1  0.991205  0.224103  0.365565  1
  O  O23  1  0.713945  0.936830  0.079854  1
  O  O24  1  0.365565  0.991205  0.224103  1
  O  O25  1  0.441215  0.211195  0.576797  1
  O  O26  1  0.211195  0.576797  0.441215  1
  O  O27  1  0.058938  0.919823  0.287838  1
  O  O28  1  0.778002  0.634835  0.007689  1
  O  O29  1  0.576797  0.441215  0.211195  1
  O  O30  1  0.132960  0.280201  0.509858  1
  O  O31  1  0.919823  0.287838  0.058938  1
  O  O32  1  0.509858  0.132960  0.280201  1
  O  O33  1  0.280201  0.509858  0.132960  1
