# generated using pymatgen
data_Li5BiO4
_symmetry_space_group_name_H-M   'P 1'
_cell_length_a   13.65635207
_cell_length_b   13.65635207
_cell_length_c   4.87800496
_cell_angle_alpha   90.00000000
_cell_angle_beta   90.00000000
_cell_angle_gamma   90.00000000
_symmetry_Int_Tables_number   1
_chemical_formula_structural   Li5BiO4
_chemical_formula_sum   'Li40 Bi8 O32'
_cell_volume   909.72817819
_cell_formula_units_Z   8
loop_
 _symmetry_equiv_pos_site_id
 _symmetry_equiv_pos_as_xyz
  1  'x, y, z'
loop_
 _atom_site_type_symbol
 _atom_site_label
 _atom_site_symmetry_multiplicity
 _atom_site_fract_x
 _atom_site_fract_y
 _atom_site_fract_z
 _atom_site_occupancy
  Li  Li0  1  0.759696  0.240304  0.000000  1
  Li  Li1  1  0.740304  0.259696  0.500000  1
  Li  Li2  1  0.240304  0.240304  0.000000  1
  Li  Li3  1  0.259696  0.259696  0.500000  1
  Li  Li4  1  0.110244  0.355538  0.572635  1
  Li  Li5  1  0.889756  0.355538  0.572635  1
  Li  Li6  1  0.371938  0.371938  0.000000  1
  Li  Li7  1  0.628062  0.371938  0.000000  1
  Li  Li8  1  0.855538  0.389756  0.072635  1
  Li  Li9  1  0.144462  0.389756  0.072635  1
  Li  Li10  1  0.000000  0.500000  0.094101  1
  Li  Li11  1  0.500000  0.500000  0.500000  1
  Li  Li12  1  0.500000  0.500000  0.000000  1
  Li  Li13  1  0.000000  0.500000  0.594101  1
  Li  Li14  1  0.855538  0.610244  0.072635  1
  Li  Li15  1  0.144462  0.610244  0.072635  1
  Li  Li16  1  0.371938  0.628062  0.000000  1
  Li  Li17  1  0.628062  0.628062  0.000000  1
  Li  Li18  1  0.889756  0.644462  0.572635  1
  Li  Li19  1  0.110244  0.644462  0.572635  1
  Li  Li20  1  0.240304  0.759696  0.000000  1
  Li  Li21  1  0.259696  0.740304  0.500000  1
  Li  Li22  1  0.759696  0.759696  0.000000  1
  Li  Li23  1  0.740304  0.740304  0.500000  1
  Li  Li24  1  0.389756  0.855538  0.927365  1
  Li  Li25  1  0.610244  0.855538  0.927365  1
  Li  Li26  1  0.871938  0.871938  0.500000  1
  Li  Li27  1  0.128062  0.871938  0.500000  1
  Li  Li28  1  0.355538  0.889756  0.427365  1
  Li  Li29  1  0.644462  0.889756  0.427365  1
  Li  Li30  1  0.000000  0.000000  0.000000  1
  Li  Li31  1  0.000000  0.000000  0.500000  1
  Li  Li32  1  0.500000  0.000000  0.905899  1
  Li  Li33  1  0.500000  0.000000  0.405899  1
  Li  Li34  1  0.355538  0.110244  0.427365  1
  Li  Li35  1  0.644462  0.110244  0.427365  1
  Li  Li36  1  0.871938  0.128062  0.500000  1
  Li  Li37  1  0.128062  0.128062  0.500000  1
  Li  Li38  1  0.389756  0.144462  0.927365  1
  Li  Li39  1  0.610244  0.144462  0.927365  1
  Bi  Bi40  1  0.500000  0.272571  0.448966  1
  Bi  Bi41  1  0.272571  0.500000  0.551034  1
  Bi  Bi42  1  0.727429  0.500000  0.551034  1
  Bi  Bi43  1  0.500000  0.727429  0.448966  1
  Bi  Bi44  1  0.000000  0.772571  0.051034  1
  Bi  Bi45  1  0.772571  0.000000  0.948966  1
  Bi  Bi46  1  0.227429  0.000000  0.948966  1
  Bi  Bi47  1  0.000000  0.227429  0.051034  1
  O  O48  1  0.861090  0.263916  0.281740  1
  O  O49  1  0.138910  0.263916  0.281740  1
  O  O50  1  0.763916  0.361090  0.781740  1
  O  O51  1  0.236084  0.361090  0.781740  1
  O  O52  1  0.000000  0.380678  0.841392  1
  O  O53  1  0.500000  0.383250  0.784495  1
  O  O54  1  0.880678  0.500000  0.341392  1
  O  O55  1  0.383250  0.500000  0.215505  1
  O  O56  1  0.616750  0.500000  0.215505  1
  O  O57  1  0.119322  0.500000  0.341392  1
  O  O58  1  0.500000  0.616750  0.784495  1
  O  O59  1  0.000000  0.619322  0.841392  1
  O  O60  1  0.236084  0.638910  0.781740  1
  O  O61  1  0.763916  0.638910  0.781740  1
  O  O62  1  0.861090  0.736084  0.281740  1
  O  O63  1  0.138910  0.736084  0.281740  1
  O  O64  1  0.361090  0.763916  0.218260  1
  O  O65  1  0.638910  0.763916  0.218260  1
  O  O66  1  0.736084  0.861090  0.718260  1
  O  O67  1  0.263916  0.861090  0.718260  1
  O  O68  1  0.500000  0.880678  0.658608  1
  O  O69  1  0.000000  0.883250  0.715505  1
  O  O70  1  0.883250  0.000000  0.284495  1
  O  O71  1  0.116750  0.000000  0.284495  1
  O  O72  1  0.380678  0.000000  0.158608  1
  O  O73  1  0.619322  0.000000  0.158608  1
  O  O74  1  0.000000  0.116750  0.715505  1
  O  O75  1  0.500000  0.119322  0.658608  1
  O  O76  1  0.736084  0.138910  0.718260  1
  O  O77  1  0.263916  0.138910  0.718260  1
  O  O78  1  0.361090  0.236084  0.218260  1
  O  O79  1  0.638910  0.236084  0.218260  1
