# generated using pymatgen
data_Li2VFe(P2O7)2
_symmetry_space_group_name_H-M   'P 1'
_cell_length_a   7.04562739
_cell_length_b   8.26788226
_cell_length_c   14.09003904
_cell_angle_alpha   90.02866234
_cell_angle_beta   99.56807350
_cell_angle_gamma   90.14606788
_symmetry_Int_Tables_number   1
_chemical_formula_structural   Li2VFe(P2O7)2
_chemical_formula_sum   'Li6 V3 Fe3 P12 O42'
_cell_volume   809.35784457
_cell_formula_units_Z   3
loop_
 _symmetry_equiv_pos_site_id
 _symmetry_equiv_pos_as_xyz
  1  'x, y, z'
loop_
 _atom_site_type_symbol
 _atom_site_label
 _atom_site_symmetry_multiplicity
 _atom_site_fract_x
 _atom_site_fract_y
 _atom_site_fract_z
 _atom_site_occupancy
  Li  Li0  1  0.387547  0.861337  0.058389  1
  Li  Li1  1  0.948188  0.361615  0.274472  1
  Li  Li2  1  0.717985  0.861005  0.392392  1
  Li  Li3  1  0.280325  0.360914  0.607771  1
  Li  Li4  1  0.052151  0.861935  0.725621  1
  Li  Li5  1  0.612769  0.360603  0.941311  1
  V  V6  1  0.990228  0.000150  0.262227  1
  V  V7  1  0.676193  0.500131  0.404467  1
  V  V8  1  0.010367  0.499870  0.738301  1
  Fe  Fe9  1  0.339743  0.499941  0.072623  1
  Fe  Fe10  1  0.327782  0.000111  0.594690  1
  Fe  Fe11  1  0.660388  0.999706  0.927463  1
  P  P12  1  0.610335  0.180500  0.133005  1
  P  P13  1  0.985397  0.783647  0.071767  1
  P  P14  1  0.348675  0.284160  0.261945  1
  P  P15  1  0.721512  0.680382  0.199951  1
  P  P16  1  0.318044  0.784246  0.404868  1
  P  P17  1  0.055835  0.681420  0.533486  1
  P  P18  1  0.945284  0.181010  0.466712  1
  P  P19  1  0.681108  0.283947  0.594607  1
  P  P20  1  0.277763  0.179527  0.799749  1
  P  P21  1  0.651773  0.783926  0.737923  1
  P  P22  1  0.014346  0.283495  0.928432  1
  P  P23  1  0.390087  0.679783  0.867220  1
  O  O24  1  0.160780  0.326248  0.016701  1
  O  O25  1  0.160786  0.694538  0.046140  1
  O  O26  1  0.049653  0.932894  0.133680  1
  O  O27  1  0.579904  0.038792  0.061890  1
  O  O28  1  0.573802  0.345063  0.083083  1
  O  O29  1  0.527161  0.677930  0.133001  1
  O  O30  1  0.285884  0.432662  0.199379  1
  O  O31  1  0.446274  0.152786  0.198834  1
  O  O32  1  0.887515  0.652260  0.134837  1
  O  O33  1  0.174760  0.196946  0.288834  1
  O  O34  1  0.168616  0.824886  0.317334  1
  O  O35  1  0.805595  0.178270  0.200619  1
  O  O36  1  0.758224  0.843274  0.251613  1
  O  O37  1  0.753915  0.538660  0.271159  1
  O  O38  1  0.497703  0.324731  0.349606  1
  O  O39  1  0.491036  0.696755  0.378144  1
  O  O40  1  0.219792  0.653050  0.468033  1
  O  O41  1  0.381194  0.932832  0.467736  1
  O  O42  1  0.139888  0.178306  0.533681  1
  O  O43  1  0.912348  0.038796  0.395565  1
  O  O44  1  0.908592  0.343523  0.415406  1
  O  O45  1  0.092762  0.845609  0.583913  1
  O  O46  1  0.087560  0.539528  0.604589  1
  O  O47  1  0.860785  0.678174  0.466325  1
  O  O48  1  0.616719  0.432854  0.532881  1
  O  O49  1  0.778925  0.152638  0.531769  1
  O  O50  1  0.506355  0.194857  0.621105  1
  O  O51  1  0.504862  0.826320  0.649786  1
  O  O52  1  0.246695  0.037735  0.728555  1
  O  O53  1  0.241472  0.342593  0.748755  1
  O  O54  1  0.195003  0.677891  0.799500  1
  O  O55  1  0.829840  0.325172  0.682292  1
  O  O56  1  0.825803  0.696327  0.711922  1
  O  O57  1  0.111795  0.151918  0.865392  1
  O  O58  1  0.553662  0.652482  0.801081  1
  O  O59  1  0.715099  0.932460  0.800802  1
  O  O60  1  0.472251  0.177870  0.867080  1
  O  O61  1  0.426684  0.844636  0.917187  1
  O  O62  1  0.420011  0.538375  0.938209  1
  O  O63  1  0.950035  0.432405  0.866634  1
  O  O64  1  0.838237  0.194231  0.953867  1
  O  O65  1  0.838202  0.826106  0.983690  1
