# generated using pymatgen
data_Li4V3OF11
_symmetry_space_group_name_H-M   'P 1'
_cell_length_a   5.28245378
_cell_length_b   5.51333570
_cell_length_c   16.01823161
_cell_angle_alpha   80.94387149
_cell_angle_beta   89.68411420
_cell_angle_gamma   88.51018986
_symmetry_Int_Tables_number   1
_chemical_formula_structural   Li4V3OF11
_chemical_formula_sum   'Li8 V6 O2 F22'
_cell_volume   460.54254780
_cell_formula_units_Z   2
loop_
 _symmetry_equiv_pos_site_id
 _symmetry_equiv_pos_as_xyz
  1  'x, y, z'
loop_
 _atom_site_type_symbol
 _atom_site_label
 _atom_site_symmetry_multiplicity
 _atom_site_fract_x
 _atom_site_fract_y
 _atom_site_fract_z
 _atom_site_occupancy
  Li  Li0  1  0.183244  0.814000  0.841909  1
  Li  Li1  1  0.489075  0.736884  0.434361  1
  Li  Li2  1  0.982359  0.772716  0.563798  1
  Li  Li3  1  0.702222  0.356362  0.821086  1
  Li  Li4  1  0.816756  0.186000  0.158091  1
  Li  Li5  1  0.017641  0.227284  0.436202  1
  Li  Li6  1  0.510925  0.263116  0.565639  1
  Li  Li7  1  0.297778  0.643638  0.178914  1
  V  V8  1  0.981183  0.840743  0.334768  1
  V  V9  1  0.500000  0.000000  0.000000  1
  V  V10  1  0.018817  0.159257  0.665232  1
  V  V11  1  0.488104  0.692660  0.663393  1
  V  V12  1  0.511896  0.307340  0.336607  1
  V  V13  1  0.000000  0.500000  0.000000  1
  O  O14  1  0.688687  0.007668  0.368341  1
  O  O15  1  0.311313  0.992332  0.631659  1
  F  F16  1  0.695885  0.688472  0.020076  1
  F  F17  1  0.827646  0.840029  0.684357  1
  F  F18  1  0.201962  0.809466  0.965382  1
  F  F19  1  0.627606  0.670799  0.548392  1
  F  F20  1  0.587299  0.061835  0.883453  1
  F  F21  1  0.925128  0.869231  0.215337  1
  F  F22  1  0.131403  0.819746  0.451989  1
  F  F23  1  0.074872  0.130769  0.784663  1
  F  F24  1  0.412701  0.938165  0.116547  1
  F  F25  1  0.798038  0.190534  0.034618  1
  F  F26  1  0.691972  0.354718  0.688927  1
  F  F27  1  0.172354  0.159971  0.315643  1
  F  F28  1  0.304115  0.311528  0.979924  1
  F  F29  1  0.868597  0.180254  0.548011  1
  F  F30  1  0.923646  0.544714  0.880806  1
  F  F31  1  0.579933  0.379335  0.216941  1
  F  F32  1  0.420067  0.620665  0.783059  1
  F  F33  1  0.076354  0.455286  0.119194  1
  F  F34  1  0.372394  0.329201  0.451608  1
  F  F35  1  0.807619  0.507312  0.374355  1
  F  F36  1  0.192381  0.492688  0.625645  1
  F  F37  1  0.308028  0.645282  0.311073  1
