# generated using pymatgen
data_Cu2(SO4)3
_symmetry_space_group_name_H-M   'P 1'
_cell_length_a   7.82272039
_cell_length_b   7.82272039
_cell_length_c   9.75112371
_cell_angle_alpha   61.79947552
_cell_angle_beta   118.20052448
_cell_angle_gamma   118.05308246
_symmetry_Int_Tables_number   1
_chemical_formula_structural   Cu2(SO4)3
_chemical_formula_sum   'Cu4 S6 O24'
_cell_volume   439.40874112
_cell_formula_units_Z   2
loop_
 _symmetry_equiv_pos_site_id
 _symmetry_equiv_pos_as_xyz
  1  'x, y, z'
loop_
 _atom_site_type_symbol
 _atom_site_label
 _atom_site_symmetry_multiplicity
 _atom_site_fract_x
 _atom_site_fract_y
 _atom_site_fract_z
 _atom_site_occupancy
  Cu  Cu0  1  0.366562  0.134903  0.029796  1
  Cu  Cu1  1  0.865097  0.633438  0.529796  1
  Cu  Cu2  1  0.134903  0.366562  0.470204  1
  Cu  Cu3  1  0.633438  0.865097  0.970204  1
  S  S4  1  0.754962  0.461451  0.167304  1
  S  S5  1  0.538549  0.245038  0.667304  1
  S  S6  1  0.031899  0.031899  0.250000  1
  S  S7  1  0.968101  0.968101  0.750000  1
  S  S8  1  0.461451  0.754962  0.332696  1
  S  S9  1  0.245038  0.538549  0.832696  1
  O  O10  1  0.827956  0.021710  0.113591  1
  O  O11  1  0.978290  0.172044  0.613591  1
  O  O12  1  0.858296  0.523004  0.055334  1
  O  O13  1  0.598287  0.249793  0.189994  1
  O  O14  1  0.889062  0.447411  0.343288  1
  O  O15  1  0.476996  0.141704  0.555334  1
  O  O16  1  0.190463  0.065169  0.193065  1
  O  O17  1  0.642554  0.603543  0.123948  1
  O  O18  1  0.750207  0.401713  0.689994  1
  O  O19  1  0.552589  0.110938  0.843288  1
  O  O20  1  0.934831  0.809537  0.693065  1
  O  O21  1  0.603543  0.642554  0.376052  1
  O  O22  1  0.396457  0.357446  0.623948  1
  O  O23  1  0.065169  0.190463  0.306935  1
  O  O24  1  0.447411  0.889062  0.156712  1
  O  O25  1  0.249793  0.598287  0.310006  1
  O  O26  1  0.357446  0.396457  0.876052  1
  O  O27  1  0.809537  0.934831  0.806935  1
  O  O28  1  0.523004  0.858296  0.444666  1
  O  O29  1  0.110938  0.552589  0.656712  1
  O  O30  1  0.401713  0.750207  0.810006  1
  O  O31  1  0.141704  0.476996  0.944666  1
  O  O32  1  0.021710  0.827956  0.386409  1
  O  O33  1  0.172044  0.978290  0.886409  1
