# generated using pymatgen
data_Na2MnPCO7
_symmetry_space_group_name_H-M   'P 1'
_cell_length_a   6.72661713
_cell_length_b   8.89076938
_cell_length_c   10.41127096
_cell_angle_alpha   91.37959005
_cell_angle_beta   90.29495656
_cell_angle_gamma   90.08100978
_symmetry_Int_Tables_number   1
_chemical_formula_structural   Na2MnPCO7
_chemical_formula_sum   'Na8 Mn4 P4 C4 O28'
_cell_volume   622.45452352
_cell_formula_units_Z   4
loop_
 _symmetry_equiv_pos_site_id
 _symmetry_equiv_pos_as_xyz
  1  'x, y, z'
loop_
 _atom_site_type_symbol
 _atom_site_label
 _atom_site_symmetry_multiplicity
 _atom_site_fract_x
 _atom_site_fract_y
 _atom_site_fract_z
 _atom_site_occupancy
  Na  Na0  1  0.467544  0.741119  0.620551  1
  Na  Na1  1  0.007680  0.758505  0.124874  1
  Na  Na2  1  0.494901  0.757914  0.120937  1
  Na  Na3  1  0.504818  0.244800  0.884092  1
  Na  Na4  1  0.995512  0.244875  0.886039  1
  Na  Na5  1  0.504693  0.249254  0.369218  1
  Na  Na6  1  0.995004  0.247555  0.366571  1
  Na  Na7  1  0.765512  0.067773  0.617522  1
  Mn  Mn8  1  0.755300  0.649227  0.884713  1
  Mn  Mn9  1  0.757487  0.648290  0.394775  1
  Mn  Mn10  1  0.248041  0.352503  0.608869  1
  Mn  Mn11  1  0.252502  0.353707  0.109867  1
  P  P12  1  0.251538  0.577894  0.855898  1
  P  P13  1  0.251019  0.581426  0.352518  1
  P  P14  1  0.747305  0.417627  0.646690  1
  P  P15  1  0.751563  0.424468  0.147649  1
  C  C16  1  0.745726  0.929546  0.859079  1
  C  C17  1  0.747260  0.929375  0.365413  1
  C  C18  1  0.252133  0.075209  0.635822  1
  C  C19  1  0.250920  0.074110  0.135388  1
  O  O20  1  0.261060  0.936486  0.640336  1
  O  O21  1  0.251887  0.933740  0.137539  1
  O  O22  1  0.756237  0.855442  0.967333  1
  O  O23  1  0.746072  0.853402  0.473130  1
  O  O24  1  0.732989  0.845219  0.756561  1
  O  O25  1  0.749278  0.847250  0.261773  1
  O  O26  1  0.063978  0.667349  0.894284  1
  O  O27  1  0.439412  0.670316  0.891976  1
  O  O28  1  0.061761  0.673238  0.377361  1
  O  O29  1  0.438969  0.671859  0.389238  1
  O  O30  1  0.256232  0.541760  0.707235  1
  O  O31  1  0.736607  0.567971  0.578376  1
  O  O32  1  0.258622  0.546256  0.202108  1
  O  O33  1  0.750616  0.578178  0.081111  1
  O  O34  1  0.252746  0.423480  0.923828  1
  O  O35  1  0.750940  0.451094  0.797402  1
  O  O36  1  0.247673  0.427617  0.421862  1
  O  O37  1  0.751900  0.454053  0.299364  1
  O  O38  1  0.566409  0.314260  0.615682  1
  O  O39  1  0.932051  0.321725  0.611483  1
  O  O40  1  0.565776  0.329648  0.113546  1
  O  O41  1  0.938169  0.331526  0.113526  1
  O  O42  1  0.246300  0.168667  0.735731  1
  O  O43  1  0.250827  0.163994  0.236381  1
  O  O44  1  0.246962  0.148679  0.525378  1
  O  O45  1  0.250218  0.148796  0.026608  1
  O  O46  1  0.749913  0.072265  0.856693  1
  O  O47  1  0.747842  0.072111  0.372658  1
