# generated using pymatgen
data_TiH10N3F5
_symmetry_space_group_name_H-M   'P 1'
_cell_length_a   6.95762119
_cell_length_b   6.95762119
_cell_length_c   12.41346834
_cell_angle_alpha   67.66335311
_cell_angle_beta   112.33664689
_cell_angle_gamma   117.10180717
_symmetry_Int_Tables_number   1
_chemical_formula_structural   TiH10N3F5
_chemical_formula_sum   'Ti2 H20 N6 F10'
_cell_volume   478.92132747
_cell_formula_units_Z   2
loop_
 _symmetry_equiv_pos_site_id
 _symmetry_equiv_pos_as_xyz
  1  'x, y, z'
loop_
 _atom_site_type_symbol
 _atom_site_label
 _atom_site_symmetry_multiplicity
 _atom_site_fract_x
 _atom_site_fract_y
 _atom_site_fract_z
 _atom_site_occupancy
  Ti  Ti0  1  0.856608  0.896600  0.974804  1
  Ti  Ti1  1  0.103400  0.143392  0.474804  1
  H  H2  1  0.161649  0.708261  0.942984  1
  H  H3  1  0.082439  0.733905  0.794751  1
  H  H4  1  0.360423  0.817672  0.866330  1
  H  H5  1  0.194713  0.541141  0.886894  1
  H  H6  1  0.291739  0.838351  0.442984  1
  H  H7  1  0.266095  0.917561  0.294751  1
  H  H8  1  0.458859  0.805287  0.386894  1
  H  H9  1  0.827189  0.742873  0.509362  1
  H  H10  1  0.182328  0.639577  0.366330  1
  H  H11  1  0.806323  0.387444  0.628027  1
  H  H12  1  0.736202  0.135795  0.728719  1
  H  H13  1  0.571874  0.174921  0.592666  1
  H  H14  1  0.817011  0.158327  0.609254  1
  H  H15  1  0.825079  0.428126  0.092666  1
  H  H16  1  0.885338  0.070854  0.541795  1
  H  H17  1  0.257127  0.172811  0.009362  1
  H  H18  1  0.612556  0.193677  0.128027  1
  H  H19  1  0.864205  0.263798  0.228719  1
  H  H20  1  0.841673  0.182989  0.109254  1
  H  H21  1  0.929146  0.114662  0.041795  1
  N  N22  1  0.200320  0.699676  0.872080  1
  N  N23  1  0.786800  0.803926  0.824979  1
  N  N24  1  0.300324  0.799680  0.372080  1
  N  N25  1  0.735964  0.215183  0.640126  1
  N  N26  1  0.196074  0.213200  0.324979  1
  N  N27  1  0.784817  0.264036  0.140126  1
  F  F28  1  0.263238  0.943773  0.541214  1
  F  F29  1  0.851366  0.651616  0.598693  1
  F  F30  1  0.112855  0.174216  0.903040  1
  F  F31  1  0.056227  0.736762  0.041214  1
  F  F32  1  0.825784  0.887145  0.403040  1
  F  F33  1  0.318525  0.321982  0.571672  1
  F  F34  1  0.615507  0.006178  0.870595  1
  F  F35  1  0.678018  0.681475  0.071672  1
  F  F36  1  0.348384  0.148634  0.098693  1
  F  F37  1  0.993822  0.384493  0.370595  1
