# generated using pymatgen
data_LiAlNiO3
_symmetry_space_group_name_H-M   'P 1'
_cell_length_a   5.23177163
_cell_length_b   5.29874930
_cell_length_c   5.40859755
_cell_angle_alpha   66.74022192
_cell_angle_beta   68.72464237
_cell_angle_gamma   65.45658163
_symmetry_Int_Tables_number   1
_chemical_formula_structural   LiAlNiO3
_chemical_formula_sum   'Li2 Al2 Ni2 O6'
_cell_volume   121.70640753
_cell_formula_units_Z   2
loop_
 _symmetry_equiv_pos_site_id
 _symmetry_equiv_pos_as_xyz
  1  'x, y, z'
loop_
 _atom_site_type_symbol
 _atom_site_label
 _atom_site_symmetry_multiplicity
 _atom_site_fract_x
 _atom_site_fract_y
 _atom_site_fract_z
 _atom_site_occupancy
  Li  Li0  1  0.567318  0.926622  0.755482  1
  Li  Li1  1  0.432682  0.073378  0.244518  1
  Al  Al2  1  0.252750  0.584542  0.411641  1
  Al  Al3  1  0.747250  0.415458  0.588359  1
  Ni  Ni4  1  0.913087  0.249361  0.093645  1
  Ni  Ni5  1  0.086913  0.750639  0.906355  1
  O  O6  1  0.578441  0.274477  0.424800  1
  O  O7  1  0.944183  0.575261  0.713848  1
  O  O8  1  0.252268  0.882818  0.101716  1
  O  O9  1  0.747732  0.117182  0.898284  1
  O  O10  1  0.055817  0.424739  0.286152  1
  O  O11  1  0.421559  0.725523  0.575200  1
