# generated using pymatgen
data_TiNi3Sn2(PO4)6
_symmetry_space_group_name_H-M   'P 1'
_cell_length_a   8.48580730
_cell_length_b   8.48580730
_cell_length_c   8.48580730
_cell_angle_alpha   61.44246335
_cell_angle_beta   61.44246335
_cell_angle_gamma   61.44246335
_symmetry_Int_Tables_number   1
_chemical_formula_structural   TiNi3Sn2(PO4)6
_chemical_formula_sum   'Ti1 Ni3 Sn2 P6 O24'
_cell_volume   446.07655260
_cell_formula_units_Z   1
loop_
 _symmetry_equiv_pos_site_id
 _symmetry_equiv_pos_as_xyz
  1  'x, y, z'
loop_
 _atom_site_type_symbol
 _atom_site_label
 _atom_site_symmetry_multiplicity
 _atom_site_fract_x
 _atom_site_fract_y
 _atom_site_fract_z
 _atom_site_occupancy
  Ti  Ti0  1  0.149206  0.149206  0.149206  1
  Ni  Ni1  1  0.850747  0.850747  0.850747  1
  Ni  Ni2  1  0.647619  0.647619  0.647619  1
  Ni  Ni3  1  0.354049  0.354049  0.354049  1
  Sn  Sn4  1  0.997645  0.997645  0.997645  1
  Sn  Sn5  1  0.498247  0.498247  0.498247  1
  P  P6  1  0.954858  0.252476  0.547827  1
  P  P7  1  0.547827  0.954858  0.252476  1
  P  P8  1  0.749621  0.456328  0.044370  1
  P  P9  1  0.456328  0.044370  0.749621  1
  P  P10  1  0.044370  0.749621  0.456328  1
  P  P11  1  0.252476  0.547827  0.954858  1
  O  O12  1  0.896232  0.683177  0.482497  1
  O  O13  1  0.683177  0.482497  0.896232  1
  O  O14  1  0.932339  0.095203  0.748727  1
  O  O15  1  0.482497  0.896232  0.683177  1
  O  O16  1  0.006692  0.176514  0.387710  1
  O  O17  1  0.752122  0.402618  0.555162  1
  O  O18  1  0.748727  0.932339  0.095203  1
  O  O19  1  0.555162  0.752122  0.402618  1
  O  O20  1  0.825202  0.600030  0.012468  1
  O  O21  1  0.402618  0.555162  0.752122  1
  O  O22  1  0.911601  0.247491  0.065997  1
  O  O23  1  0.600030  0.012468  0.825202  1
  O  O24  1  0.387710  0.006692  0.176514  1
  O  O25  1  0.095203  0.748727  0.932339  1
  O  O26  1  0.597445  0.430577  0.250830  1
  O  O27  1  0.176514  0.387710  0.006692  1
  O  O28  1  0.430577  0.250830  0.597445  1
  O  O29  1  0.247491  0.065997  0.911601  1
  O  O30  1  0.250830  0.597445  0.430577  1
  O  O31  1  0.012468  0.825202  0.600030  1
  O  O32  1  0.510016  0.103426  0.322928  1
  O  O33  1  0.065997  0.911601  0.247491  1
  O  O34  1  0.322928  0.510016  0.103426  1
  O  O35  1  0.103426  0.322928  0.510016  1
