# generated using pymatgen
data_Li3V6O13
_symmetry_space_group_name_H-M   'P 1'
_cell_length_a   6.30997806
_cell_length_b   8.00538348
_cell_length_c   10.37568228
_cell_angle_alpha   90.00197301
_cell_angle_beta   100.00691196
_cell_angle_gamma   108.48642624
_symmetry_Int_Tables_number   1
_chemical_formula_structural   Li3V6O13
_chemical_formula_sum   'Li6 V12 O26'
_cell_volume   488.65447830
_cell_formula_units_Z   2
loop_
 _symmetry_equiv_pos_site_id
 _symmetry_equiv_pos_as_xyz
  1  'x, y, z'
loop_
 _atom_site_type_symbol
 _atom_site_label
 _atom_site_symmetry_multiplicity
 _atom_site_fract_x
 _atom_site_fract_y
 _atom_site_fract_z
 _atom_site_occupancy
  Li  Li0  1  0.989363  0.747425  0.968906  1
  Li  Li1  1  0.862997  0.215586  0.590191  1
  Li  Li2  1  0.862343  0.715730  0.587354  1
  Li  Li3  1  0.137003  0.784414  0.409809  1
  Li  Li4  1  0.137657  0.284270  0.412646  1
  Li  Li5  1  0.010637  0.252575  0.031094  1
  V  V6  1  0.682875  0.921670  0.000938  1
  V  V7  1  0.683415  0.420785  0.002517  1
  V  V8  1  0.804277  0.450901  0.365030  1
  V  V9  1  0.804279  0.951204  0.364452  1
  V  V10  1  0.560949  0.390246  0.637524  1
  V  V11  1  0.560965  0.890226  0.637210  1
  V  V12  1  0.439051  0.609754  0.362476  1
  V  V13  1  0.439035  0.109774  0.362790  1
  V  V14  1  0.195723  0.549099  0.634970  1
  V  V15  1  0.195721  0.048796  0.635548  1
  V  V16  1  0.316585  0.579215  0.997483  1
  V  V17  1  0.317125  0.078330  0.999062  1
  O  O18  1  0.760761  0.439437  0.198049  1
  O  O19  1  0.758710  0.940950  0.198016  1
  O  O20  1  0.000000  0.000000  0.000000  1
  O  O21  1  0.000000  0.500000  0.000000  1
  O  O22  1  0.861837  0.465730  0.583751  1
  O  O23  1  0.862078  0.965269  0.583914  1
  O  O24  1  0.778554  0.694592  0.391303  1
  O  O25  1  0.779414  0.194944  0.392104  1
  O  O26  1  0.650090  0.161784  0.001739  1
  O  O27  1  0.645931  0.662621  0.997709  1
  O  O28  1  0.632935  0.409648  0.802747  1
  O  O29  1  0.632853  0.907467  0.801281  1
  O  O30  1  0.482501  0.370798  0.403192  1
  O  O31  1  0.482176  0.870396  0.403074  1
  O  O32  1  0.517499  0.629202  0.596808  1
  O  O33  1  0.517824  0.129604  0.596926  1
  O  O34  1  0.367147  0.092533  0.198719  1
  O  O35  1  0.367065  0.590352  0.197253  1
  O  O36  1  0.354069  0.337379  0.002291  1
  O  O37  1  0.349910  0.838216  0.998261  1
  O  O38  1  0.221446  0.305408  0.608697  1
  O  O39  1  0.220586  0.805056  0.607896  1
  O  O40  1  0.137922  0.034731  0.416086  1
  O  O41  1  0.138163  0.534270  0.416249  1
  O  O42  1  0.241290  0.059050  0.801984  1
  O  O43  1  0.239239  0.560563  0.801951  1
