# generated using pymatgen
data_Na4Fe2As(CO4)4
_symmetry_space_group_name_H-M   'P 1'
_cell_length_a   10.04868744
_cell_length_b   10.01363360
_cell_length_c   9.84077480
_cell_angle_alpha   60.80388352
_cell_angle_beta   60.44817401
_cell_angle_gamma   58.74794247
_symmetry_Int_Tables_number   1
_chemical_formula_structural   Na4Fe2As(CO4)4
_chemical_formula_sum   'Na8 Fe4 As2 C8 O32'
_cell_volume   699.67973060
_cell_formula_units_Z   2
loop_
 _symmetry_equiv_pos_site_id
 _symmetry_equiv_pos_as_xyz
  1  'x, y, z'
loop_
 _atom_site_type_symbol
 _atom_site_label
 _atom_site_symmetry_multiplicity
 _atom_site_fract_x
 _atom_site_fract_y
 _atom_site_fract_z
 _atom_site_occupancy
  Na  Na0  1  0.536021  0.963979  0.536021  1
  Na  Na1  1  0.963960  0.536040  0.536040  1
  Na  Na2  1  0.713960  0.286040  0.286040  1
  Na  Na3  1  0.286021  0.713979  0.286021  1
  Na  Na4  1  0.963979  0.536021  0.963979  1
  Na  Na5  1  0.536040  0.963960  0.963960  1
  Na  Na6  1  0.286040  0.713960  0.713960  1
  Na  Na7  1  0.713979  0.286021  0.713979  1
  Fe  Fe8  1  0.125000  0.125000  0.625000  1
  Fe  Fe9  1  0.125000  0.125000  0.125000  1
  Fe  Fe10  1  0.625000  0.125000  0.125000  1
  Fe  Fe11  1  0.125000  0.625000  0.125000  1
  As  As12  1  0.500000  0.500000  0.500000  1
  As  As13  1  0.750000  0.750000  0.750000  1
  C  C14  1  0.913382  0.917403  0.264259  1
  C  C15  1  0.332597  0.336618  0.345045  1
  C  C16  1  0.264259  0.904955  0.913382  1
  C  C17  1  0.904955  0.264259  0.917403  1
  C  C18  1  0.345045  0.985741  0.332597  1
  C  C19  1  0.985741  0.345045  0.336618  1
  C  C20  1  0.917403  0.913382  0.904955  1
  C  C21  1  0.336618  0.332597  0.985741  1
  O  O22  1  0.768969  0.947582  0.269376  1
  O  O23  1  0.583972  0.288372  0.564145  1
  O  O24  1  0.943669  0.030613  0.259477  1
  O  O25  1  0.219387  0.306331  0.483758  1
  O  O26  1  0.259477  0.766242  0.943669  1
  O  O27  1  0.479316  0.223399  0.316507  1
  O  O28  1  0.564145  0.563511  0.583972  1
  O  O29  1  0.288372  0.583972  0.563511  1
  O  O30  1  0.980778  0.316507  0.223399  1
  O  O31  1  0.766242  0.259477  0.030613  1
  O  O32  1  0.302418  0.481031  0.235927  1
  O  O33  1  0.563511  0.564145  0.288372  1
  O  O34  1  0.269376  0.014073  0.768969  1
  O  O35  1  0.014073  0.269376  0.947582  1
  O  O36  1  0.026601  0.770684  0.269222  1
  O  O37  1  0.316507  0.980778  0.479316  1
  O  O38  1  0.933493  0.269222  0.770684  1
  O  O39  1  0.223399  0.479316  0.980778  1
  O  O40  1  0.235927  0.980624  0.302418  1
  O  O41  1  0.980624  0.235927  0.481031  1
  O  O42  1  0.686489  0.685855  0.961628  1
  O  O43  1  0.947582  0.768969  0.014073  1
  O  O44  1  0.483758  0.990523  0.219387  1
  O  O45  1  0.269222  0.933493  0.026601  1
  O  O46  1  0.961628  0.666028  0.686489  1
  O  O47  1  0.685855  0.686489  0.666028  1
  O  O48  1  0.770684  0.026601  0.933493  1
  O  O49  1  0.990523  0.483758  0.306331  1
  O  O50  1  0.030613  0.943669  0.766242  1
  O  O51  1  0.306331  0.219387  0.990523  1
  O  O52  1  0.666028  0.961628  0.685855  1
  O  O53  1  0.481031  0.302418  0.980624  1
