# generated using pymatgen
data_Li4TiV4Cr4O18
_symmetry_space_group_name_H-M   'P 1'
_cell_length_a   2.97613369
_cell_length_b   8.96347052
_cell_length_c   24.95622807
_cell_angle_alpha   90.00000000
_cell_angle_beta   90.00000000
_cell_angle_gamma   90.00000000
_symmetry_Int_Tables_number   1
_chemical_formula_structural   Li4TiV4Cr4O18
_chemical_formula_sum   'Li8 Ti2 V8 Cr8 O36'
_cell_volume   665.74448354
_cell_formula_units_Z   2
loop_
 _symmetry_equiv_pos_site_id
 _symmetry_equiv_pos_as_xyz
  1  'x, y, z'
loop_
 _atom_site_type_symbol
 _atom_site_label
 _atom_site_symmetry_multiplicity
 _atom_site_fract_x
 _atom_site_fract_y
 _atom_site_fract_z
 _atom_site_occupancy
  Li  Li0  1  0.000000  0.933734  0.993682  1
  Li  Li1  1  0.000000  0.955503  0.190168  1
  Li  Li2  1  0.000000  0.044497  0.690168  1
  Li  Li3  1  0.000000  0.066266  0.493682  1
  Li  Li4  1  0.000000  0.434814  0.509592  1
  Li  Li5  1  0.000000  0.459232  0.312973  1
  Li  Li6  1  0.000000  0.540768  0.812973  1
  Li  Li7  1  0.000000  0.565186  0.009592  1
  Ti  Ti8  1  0.000000  0.244072  0.397518  1
  Ti  Ti9  1  0.000000  0.755928  0.897518  1
  V  V10  1  0.000000  0.750886  0.499898  1
  V  V11  1  0.000000  0.746855  0.102939  1
  V  V12  1  0.500000  0.895643  0.802827  1
  V  V13  1  0.500000  0.104357  0.302827  1
  V  V14  1  0.000000  0.253145  0.602939  1
  V  V15  1  0.000000  0.249114  0.999898  1
  V  V16  1  0.500000  0.393005  0.696108  1
  V  V17  1  0.500000  0.606995  0.196108  1
  Cr  Cr18  1  0.000000  0.767895  0.309905  1
  Cr  Cr19  1  0.500000  0.898740  0.586762  1
  Cr  Cr20  1  0.500000  0.101260  0.086762  1
  Cr  Cr21  1  0.000000  0.232105  0.809905  1
  Cr  Cr22  1  0.000000  0.266546  0.188930  1
  Cr  Cr23  1  0.500000  0.397356  0.913797  1
  Cr  Cr24  1  0.500000  0.602644  0.413797  1
  Cr  Cr25  1  0.000000  0.733454  0.688930  1
  O  O26  1  0.000000  0.751261  0.424275  1
  O  O27  1  0.000000  0.751633  0.576578  1
  O  O28  1  0.500000  0.809366  0.941907  1
  O  O29  1  0.500000  0.797537  0.160115  1
  O  O30  1  0.500000  0.867459  0.665171  1
  O  O31  1  0.000000  0.839774  0.756592  1
  O  O32  1  0.500000  0.901434  0.505180  1
  O  O33  1  0.500000  0.901792  0.284764  1
  O  O34  1  0.000000  0.937432  0.854109  1
  O  O35  1  0.000000  0.951141  0.086251  1
  O  O36  1  0.000000  0.048859  0.586251  1
  O  O37  1  0.000000  0.062568  0.354109  1
  O  O38  1  0.500000  0.098208  0.784764  1
  O  O39  1  0.500000  0.098566  0.005180  1
  O  O40  1  0.000000  0.160226  0.256592  1
  O  O41  1  0.500000  0.132541  0.165171  1
  O  O42  1  0.500000  0.202463  0.660115  1
  O  O43  1  0.500000  0.190634  0.441907  1
  O  O44  1  0.000000  0.248367  0.076578  1
  O  O45  1  0.000000  0.248739  0.924275  1
  O  O46  1  0.500000  0.308045  0.557298  1
  O  O47  1  0.500000  0.295993  0.340224  1
  O  O48  1  0.500000  0.364175  0.835160  1
  O  O49  1  0.000000  0.342135  0.742982  1
  O  O50  1  0.500000  0.399159  0.995492  1
  O  O51  1  0.500000  0.402897  0.211794  1
  O  O52  1  0.000000  0.431925  0.643733  1
  O  O53  1  0.000000  0.453528  0.413274  1
  O  O54  1  0.000000  0.546472  0.913274  1
  O  O55  1  0.000000  0.568075  0.143733  1
  O  O56  1  0.500000  0.597103  0.711794  1
  O  O57  1  0.500000  0.600841  0.495492  1
  O  O58  1  0.000000  0.657865  0.242982  1
  O  O59  1  0.500000  0.635825  0.335160  1
  O  O60  1  0.500000  0.704007  0.840224  1
  O  O61  1  0.500000  0.691955  0.057298  1
