# generated using pymatgen
data_Li2Mn7F18
_symmetry_space_group_name_H-M   'P 1'
_cell_length_a   7.22607673
_cell_length_b   7.66982951
_cell_length_c   7.90586679
_cell_angle_alpha   96.31744885
_cell_angle_beta   93.25632800
_cell_angle_gamma   117.02491612
_symmetry_Int_Tables_number   1
_chemical_formula_structural   Li2Mn7F18
_chemical_formula_sum   'Li2 Mn7 F18'
_cell_volume   385.11841065
_cell_formula_units_Z   1
loop_
 _symmetry_equiv_pos_site_id
 _symmetry_equiv_pos_as_xyz
  1  'x, y, z'
loop_
 _atom_site_type_symbol
 _atom_site_label
 _atom_site_symmetry_multiplicity
 _atom_site_fract_x
 _atom_site_fract_y
 _atom_site_fract_z
 _atom_site_occupancy
  Li  Li0  1  0.365400  0.849953  0.571972  1
  Li  Li1  1  0.634600  0.150047  0.428028  1
  Mn  Mn2  1  0.217273  0.887896  0.177293  1
  Mn  Mn3  1  0.000000  0.000000  0.500000  1
  Mn  Mn4  1  0.185497  0.394519  0.212760  1
  Mn  Mn5  1  0.383290  0.267267  0.873697  1
  Mn  Mn6  1  0.616710  0.732733  0.126303  1
  Mn  Mn7  1  0.814503  0.605481  0.787240  1
  Mn  Mn8  1  0.782727  0.112104  0.822707  1
  F  F9  1  0.075733  0.744739  0.928501  1
  F  F10  1  0.162254  0.646183  0.301914  1
  F  F11  1  0.064555  0.260726  0.400595  1
  F  F12  1  0.080132  0.138855  0.752285  1
  F  F13  1  0.310601  0.505221  0.004924  1
  F  F14  1  0.541035  0.961617  0.201849  1
  F  F15  1  0.468940  0.545431  0.315983  1
  F  F16  1  0.276549  0.166956  0.106968  1
  F  F17  1  0.683956  0.967127  0.551138  1
  F  F18  1  0.316044  0.032873  0.448862  1
  F  F19  1  0.723451  0.833044  0.893032  1
  F  F20  1  0.531060  0.454569  0.684017  1
  F  F21  1  0.458965  0.038383  0.798151  1
  F  F22  1  0.689399  0.494779  0.995076  1
  F  F23  1  0.919868  0.861145  0.247715  1
  F  F24  1  0.935445  0.739274  0.599405  1
  F  F25  1  0.837746  0.353817  0.698086  1
  F  F26  1  0.924267  0.255261  0.071499  1
