# generated using pymatgen
data_LiFeF4
_symmetry_space_group_name_H-M   'P 1'
_cell_length_a   6.05218528
_cell_length_b   6.05218528
_cell_length_c   5.32375284
_cell_angle_alpha   87.10378925
_cell_angle_beta   92.89621075
_cell_angle_gamma   124.10641386
_symmetry_Int_Tables_number   1
_chemical_formula_structural   LiFeF4
_chemical_formula_sum   'Li2 Fe2 F8'
_cell_volume   161.19806145
_cell_formula_units_Z   2
loop_
 _symmetry_equiv_pos_site_id
 _symmetry_equiv_pos_as_xyz
  1  'x, y, z'
loop_
 _atom_site_type_symbol
 _atom_site_label
 _atom_site_symmetry_multiplicity
 _atom_site_fract_x
 _atom_site_fract_y
 _atom_site_fract_z
 _atom_site_occupancy
  Li  Li0  1  0.500000  0.000000  0.000000  1
  Li  Li1  1  0.000000  0.500000  0.500000  1
  Fe  Fe2  1  0.834723  0.834723  0.250000  1
  Fe  Fe3  1  0.165277  0.165277  0.750000  1
  F  F4  1  0.992899  0.804597  0.585716  1
  F  F5  1  0.502718  0.230901  0.709425  1
  F  F6  1  0.195403  0.007101  0.085716  1
  F  F7  1  0.769099  0.497282  0.209425  1
  F  F8  1  0.230901  0.502718  0.790575  1
  F  F9  1  0.804597  0.992899  0.914284  1
  F  F10  1  0.497282  0.769099  0.290575  1
  F  F11  1  0.007101  0.195403  0.414284  1
