# generated using pymatgen
data_V2Fe3Sb(PO4)6
_symmetry_space_group_name_H-M   'P 1'
_cell_length_a   8.63390896
_cell_length_b   8.63390896
_cell_length_c   8.63390896
_cell_angle_alpha   60.15971225
_cell_angle_beta   60.15971225
_cell_angle_gamma   60.15971225
_symmetry_Int_Tables_number   1
_chemical_formula_structural   V2Fe3Sb(PO4)6
_chemical_formula_sum   'V2 Fe3 Sb1 P6 O24'
_cell_volume   456.74687463
_cell_formula_units_Z   1
loop_
 _symmetry_equiv_pos_site_id
 _symmetry_equiv_pos_as_xyz
  1  'x, y, z'
loop_
 _atom_site_type_symbol
 _atom_site_label
 _atom_site_symmetry_multiplicity
 _atom_site_fract_x
 _atom_site_fract_y
 _atom_site_fract_z
 _atom_site_occupancy
  V  V0  1  0.995944  0.995944  0.995944  1
  V  V1  1  0.501330  0.501330  0.501330  1
  Fe  Fe2  1  0.644415  0.644415  0.644415  1
  Fe  Fe3  1  0.854863  0.854863  0.854863  1
  Fe  Fe4  1  0.356241  0.356241  0.356241  1
  Sb  Sb5  1  0.143594  0.143594  0.143594  1
  P  P6  1  0.955584  0.253886  0.545792  1
  P  P7  1  0.545792  0.955584  0.253886  1
  P  P8  1  0.253886  0.545792  0.955584  1
  P  P9  1  0.746806  0.460325  0.044744  1
  P  P10  1  0.460325  0.044744  0.746806  1
  P  P11  1  0.044744  0.746806  0.460325  1
  O  O12  1  0.497059  0.113018  0.317702  1
  O  O13  1  0.317702  0.497059  0.113018  1
  O  O14  1  0.113018  0.317702  0.497059  1
  O  O15  1  0.945042  0.087411  0.735893  1
  O  O16  1  0.989675  0.189235  0.386066  1
  O  O17  1  0.760823  0.412521  0.557695  1
  O  O18  1  0.735893  0.945042  0.087411  1
  O  O19  1  0.557695  0.760823  0.412521  1
  O  O20  1  0.815802  0.610444  0.006694  1
  O  O21  1  0.412521  0.557695  0.760823  1
  O  O22  1  0.915053  0.256461  0.060801  1
  O  O23  1  0.610444  0.006694  0.815802  1
  O  O24  1  0.386066  0.989675  0.189235  1
  O  O25  1  0.087411  0.735893  0.945042  1
  O  O26  1  0.591886  0.435258  0.242352  1
  O  O27  1  0.189235  0.386066  0.989675  1
  O  O28  1  0.435258  0.242352  0.591886  1
  O  O29  1  0.256461  0.060801  0.915053  1
  O  O30  1  0.242352  0.591886  0.435258  1
  O  O31  1  0.006694  0.815802  0.610444  1
  O  O32  1  0.060801  0.915053  0.256461  1
  O  O33  1  0.887350  0.692021  0.490229  1
  O  O34  1  0.692021  0.490229  0.887350  1
  O  O35  1  0.490229  0.887350  0.692021  1
