# generated using pymatgen
data_Li24Mn11CrO36
_symmetry_space_group_name_H-M   'P 1'
_cell_length_a   8.66211396
_cell_length_b   8.66211396
_cell_length_c   9.72499431
_cell_angle_alpha   81.69483788
_cell_angle_beta   98.30516212
_cell_angle_gamma   120.12107345
_symmetry_Int_Tables_number   1
_chemical_formula_structural   Li24Mn11CrO36
_chemical_formula_sum   'Li24 Mn11 Cr1 O36'
_cell_volume   622.32565173
_cell_formula_units_Z   1
loop_
 _symmetry_equiv_pos_site_id
 _symmetry_equiv_pos_as_xyz
  1  'x, y, z'
loop_
 _atom_site_type_symbol
 _atom_site_label
 _atom_site_symmetry_multiplicity
 _atom_site_fract_x
 _atom_site_fract_y
 _atom_site_fract_z
 _atom_site_occupancy
  Li  Li0  1  0.996182  0.835560  0.250613  1
  Li  Li1  1  0.751316  0.751316  0.000000  1
  Li  Li2  1  0.837438  0.669408  0.748820  1
  Li  Li3  1  0.917129  0.585121  0.498772  1
  Li  Li4  1  0.675551  0.510484  0.249236  1
  Li  Li5  1  0.995946  0.497319  0.250298  1
  Li  Li6  1  0.835077  0.339554  0.750502  1
  Li  Li7  1  0.497174  0.327738  0.753780  1
  Li  Li8  1  0.251432  0.251432  0.500000  1
  Li  Li9  1  0.657076  0.162362  0.249859  1
  Li  Li10  1  0.334708  0.171963  0.251168  1
  Li  Li11  1  0.414731  0.085061  0.998656  1
  Li  Li12  1  0.168561  0.008918  0.748159  1
  Li  Li13  1  0.497319  0.995946  0.749702  1
  Li  Li14  1  0.835560  0.996182  0.749387  1
  Li  Li15  1  0.585121  0.917129  0.501228  1
  Li  Li16  1  0.339554  0.835077  0.249498  1
  Li  Li17  1  0.669408  0.837438  0.251180  1
  Li  Li18  1  0.510484  0.675551  0.750764  1
  Li  Li19  1  0.162362  0.657076  0.750141  1
  Li  Li20  1  0.327738  0.497174  0.246220  1
  Li  Li21  1  0.085061  0.414731  0.001344  1
  Li  Li22  1  0.171963  0.334708  0.748832  1
  Li  Li23  1  0.008918  0.168561  0.251841  1
  Mn  Mn24  1  0.918605  0.918605  0.500000  1
  Mn  Mn25  1  0.418105  0.418105  0.000000  1
  Mn  Mn26  1  0.749424  0.418199  0.000450  1
  Mn  Mn27  1  0.584107  0.250044  0.502185  1
  Mn  Mn28  1  0.916056  0.250362  0.500935  1
  Mn  Mn29  1  0.083734  0.083734  0.000000  1
  Mn  Mn30  1  0.749241  0.084799  0.001243  1
  Mn  Mn31  1  0.250362  0.916056  0.499065  1
  Mn  Mn32  1  0.084799  0.749241  0.998757  1
  Mn  Mn33  1  0.418199  0.749424  0.999550  1
  Mn  Mn34  1  0.250044  0.584107  0.497815  1
  Cr  Cr35  1  0.581043  0.581043  0.500000  1
  O  O36  1  0.976273  0.883850  0.887802  1
  O  O37  1  0.786450  0.718590  0.386087  1
  O  O38  1  0.881850  0.620241  0.113878  1
  O  O39  1  0.952326  0.550280  0.886432  1
  O  O40  1  0.618645  0.526502  0.888481  1
  O  O41  1  0.690697  0.450142  0.614340  1
  O  O42  1  0.547851  0.311362  0.113077  1
  O  O43  1  0.478966  0.383601  0.388591  1
  O  O44  1  0.856303  0.286647  0.112767  1
  O  O45  1  0.785406  0.358588  0.389101  1
  O  O46  1  0.284597  0.217922  0.886385  1
  O  O47  1  0.640770  0.215608  0.889050  1
  O  O48  1  0.950516  0.192059  0.888616  1
  O  O49  1  0.713967  0.141608  0.613308  1
  O  O50  1  0.380784  0.119342  0.615287  1
  O  O51  1  0.883850  0.976273  0.112198  1
  O  O52  1  0.452021  0.049428  0.387196  1
  O  O53  1  0.809993  0.049264  0.388550  1
  O  O54  1  0.192059  0.950516  0.111384  1
  O  O55  1  0.550280  0.952326  0.113568  1
  O  O56  1  0.121266  0.028468  0.389153  1
  O  O57  1  0.620241  0.881850  0.886122  1
  O  O58  1  0.286647  0.856303  0.887233  1
  O  O59  1  0.049264  0.809993  0.611450  1
  O  O60  1  0.358588  0.785406  0.610899  1
  O  O61  1  0.718590  0.786450  0.613913  1
  O  O62  1  0.215608  0.640770  0.110950  1
  O  O63  1  0.141608  0.713967  0.386692  1
  O  O64  1  0.526502  0.618645  0.111519  1
  O  O65  1  0.450142  0.690697  0.385660  1
  O  O66  1  0.311362  0.547851  0.886923  1
  O  O67  1  0.383601  0.478966  0.611409  1
  O  O68  1  0.049428  0.452021  0.612804  1
  O  O69  1  0.119342  0.380784  0.384713  1
  O  O70  1  0.217922  0.284597  0.113615  1
  O  O71  1  0.028468  0.121266  0.610847  1
