# generated using pymatgen
data_Li2CuNiO4
_symmetry_space_group_name_H-M   'P 1'
_cell_length_a   4.99299065
_cell_length_b   2.93410546
_cell_length_c   5.03192083
_cell_angle_alpha   90.00000000
_cell_angle_beta   108.59779693
_cell_angle_gamma   90.00000000
_symmetry_Int_Tables_number   1
_chemical_formula_structural   Li2CuNiO4
_chemical_formula_sum   'Li2 Cu1 Ni1 O4'
_cell_volume   69.86796922
_cell_formula_units_Z   1
loop_
 _symmetry_equiv_pos_site_id
 _symmetry_equiv_pos_as_xyz
  1  'x, y, z'
loop_
 _atom_site_type_symbol
 _atom_site_label
 _atom_site_symmetry_multiplicity
 _atom_site_fract_x
 _atom_site_fract_y
 _atom_site_fract_z
 _atom_site_occupancy
  Li  Li0  1  0.000000  0.000000  0.500000  1
  Li  Li1  1  0.500000  0.500000  0.500000  1
  Cu  Cu2  1  0.500000  0.000000  0.000000  1
  Ni  Ni3  1  0.000000  0.500000  0.000000  1
  O  O4  1  0.755322  0.000000  0.762315  1
  O  O5  1  0.245307  0.500000  0.784163  1
  O  O6  1  0.244678  0.000000  0.237685  1
  O  O7  1  0.754693  0.500000  0.215837  1
