# generated using pymatgen
data_Zr2N2O
_symmetry_space_group_name_H-M   'P 1'
_cell_length_a   8.85745741
_cell_length_b   8.87256325
_cell_length_c   8.87519497
_cell_angle_alpha   109.49942023
_cell_angle_beta   109.35291202
_cell_angle_gamma   109.32343525
_symmetry_Int_Tables_number   1
_chemical_formula_structural   Zr2N2O
_chemical_formula_sum   'Zr16 N16 O8'
_cell_volume   538.49521226
_cell_formula_units_Z   8
loop_
 _symmetry_equiv_pos_site_id
 _symmetry_equiv_pos_as_xyz
  1  'x, y, z'
loop_
 _atom_site_type_symbol
 _atom_site_label
 _atom_site_symmetry_multiplicity
 _atom_site_fract_x
 _atom_site_fract_y
 _atom_site_fract_z
 _atom_site_occupancy
  Zr  Zr0  1  0.987930  0.480590  0.989677  1
  Zr  Zr1  1  0.760002  0.722013  0.974355  1
  Zr  Zr2  1  0.535006  0.251004  0.786284  1
  Zr  Zr3  1  0.963078  0.747863  0.712791  1
  Zr  Zr4  1  0.218127  0.969174  0.260648  1
  Zr  Zr5  1  0.704216  0.461646  0.243451  1
  Zr  Zr6  1  0.252171  0.785264  0.542992  1
  Zr  Zr7  1  0.512337  0.512861  0.502156  1
  Zr  Zr8  1  0.999544  0.010585  0.502148  1
  Zr  Zr9  1  0.488584  0.002237  0.003030  1
  Zr  Zr10  1  0.746248  0.210975  0.468566  1
  Zr  Zr11  1  0.794197  0.030925  0.748383  1
  Zr  Zr12  1  0.274590  0.531199  0.740823  1
  Zr  Zr13  1  0.038463  0.252645  0.286498  1
  Zr  Zr14  1  0.462384  0.749119  0.211803  1
  Zr  Zr15  1  0.247197  0.290195  0.029971  1
  N  N16  1  0.956477  0.967457  0.224548  1
  N  N17  1  0.775972  0.518097  0.049119  1
  N  N18  1  0.276780  0.044111  0.532925  1
  N  N19  1  0.740564  0.467712  0.508651  1
  N  N20  1  0.458509  0.225172  0.990559  1
  N  N21  1  0.758404  0.270129  0.727956  1
  N  N22  1  0.262816  0.536493  0.485462  1
  N  N23  1  0.230196  0.764314  0.774692  1
  N  N24  1  0.726778  0.949613  0.462154  1
  N  N25  1  0.990318  0.262491  0.036526  1
  N  N26  1  0.462200  0.008782  0.233808  1
  N  N27  1  0.031993  0.273269  0.544030  1
  N  N28  1  0.726101  0.771128  0.742452  1
  N  N29  1  0.227883  0.491211  0.955391  1
  N  N30  1  0.510015  0.544459  0.272942  1
  N  N31  1  0.047128  0.032043  0.770326  1
  O  O32  1  0.485385  0.454304  0.729258  1
  O  O33  1  0.275652  0.228445  0.268032  1
  O  O34  1  0.970742  0.725248  0.455129  1
  O  O35  1  0.533780  0.987174  0.762817  1
  O  O36  1  0.013865  0.738222  0.966015  1
  O  O37  1  0.770994  0.231839  0.222960  1
  O  O38  1  0.236818  0.728684  0.270630  1
  O  O39  1  0.546556  0.771310  0.010041  1
