# generated using pymatgen
data_Zr2N2O
_symmetry_space_group_name_H-M   'P 1'
_cell_length_a   8.85897275
_cell_length_b   8.88092440
_cell_length_c   8.88243861
_cell_angle_alpha   109.38652214
_cell_angle_beta   109.55214741
_cell_angle_gamma   109.38528916
_symmetry_Int_Tables_number   1
_chemical_formula_structural   Zr2N2O
_chemical_formula_sum   'Zr16 N16 O8'
_cell_volume   538.55592370
_cell_formula_units_Z   8
loop_
 _symmetry_equiv_pos_site_id
 _symmetry_equiv_pos_as_xyz
  1  'x, y, z'
loop_
 _atom_site_type_symbol
 _atom_site_label
 _atom_site_symmetry_multiplicity
 _atom_site_fract_x
 _atom_site_fract_y
 _atom_site_fract_z
 _atom_site_occupancy
  Zr  Zr0  1  0.965518  0.706780  0.747601  1
  Zr  Zr1  1  0.996918  0.496705  0.998948  1
  Zr  Zr2  1  0.718145  0.248010  0.467246  1
  Zr  Zr3  1  0.778588  0.748618  0.028820  1
  Zr  Zr4  1  0.737254  0.955114  0.703392  1
  Zr  Zr5  1  0.759365  0.464216  0.212355  1
  Zr  Zr6  1  0.498234  0.507078  0.511793  1
  Zr  Zr7  1  0.536015  0.786308  0.252315  1
  Zr  Zr8  1  0.464825  0.214247  0.742337  1
  Zr  Zr9  1  0.503761  0.992046  0.990979  1
  Zr  Zr10  1  0.250231  0.036386  0.295188  1
  Zr  Zr11  1  0.249640  0.537931  0.788738  1
  Zr  Zr12  1  0.218418  0.258342  0.961648  1
  Zr  Zr13  1  0.285534  0.750060  0.536918  1
  Zr  Zr14  1  0.007465  0.011918  0.499355  1
  Zr  Zr15  1  0.034283  0.290041  0.258454  1
  N  N16  1  0.960943  0.457658  0.728081  1
  N  N17  1  0.769711  0.042567  0.506765  1
  N  N18  1  0.731642  0.736485  0.772373  1
  N  N19  1  0.769895  0.230206  0.239793  1
  N  N20  1  0.727148  0.468970  0.958276  1
  N  N21  1  0.489200  0.723820  0.454469  1
  N  N22  1  0.227413  0.779004  0.765506  1
  N  N23  1  0.270966  0.530888  0.047196  1
  N  N24  1  0.509139  0.269380  0.537989  1
  N  N25  1  0.224322  0.952048  0.484772  1
  N  N26  1  0.536581  0.764909  0.994628  1
  N  N27  1  0.552376  0.016323  0.778627  1
  N  N28  1  0.260232  0.483799  0.533816  1
  N  N29  1  0.237093  0.268762  0.728110  1
  N  N30  1  0.032723  0.543626  0.269387  1
  N  N31  1  0.989447  0.031188  0.258516  1
  O  O32  1  0.761314  0.725670  0.278448  1
  O  O33  1  0.741700  0.519007  0.464892  1
  O  O34  1  0.272794  0.262565  0.223931  1
  O  O35  1  0.959566  0.227763  0.965172  1
  O  O36  1  0.462103  0.238049  0.014390  1
  O  O37  1  0.446824  0.982288  0.222247  1
  O  O38  1  0.052615  0.771979  0.035665  1
  O  O39  1  0.010061  0.969242  0.740862  1
