# generated using pymatgen
data_CoPO4
_symmetry_space_group_name_H-M   'P 1'
_cell_length_a   7.80199811
_cell_length_b   5.29422354
_cell_length_c   8.77685344
_cell_angle_alpha   90.00000000
_cell_angle_beta   102.98161169
_cell_angle_gamma   90.00000000
_symmetry_Int_Tables_number   1
_chemical_formula_structural   CoPO4
_chemical_formula_sum   'Co4 P4 O16'
_cell_volume   353.26698343
_cell_formula_units_Z   4
loop_
 _symmetry_equiv_pos_site_id
 _symmetry_equiv_pos_as_xyz
  1  'x, y, z'
loop_
 _atom_site_type_symbol
 _atom_site_label
 _atom_site_symmetry_multiplicity
 _atom_site_fract_x
 _atom_site_fract_y
 _atom_site_fract_z
 _atom_site_occupancy
  Co  Co0  1  0.030167  0.871307  0.933607  1
  Co  Co1  1  0.514261  0.310938  0.728491  1
  Co  Co2  1  0.030167  0.128693  0.433607  1
  Co  Co3  1  0.514261  0.689062  0.228491  1
  P  P4  1  0.747705  0.673064  0.972104  1
  P  P5  1  0.259685  0.810238  0.685750  1
  P  P6  1  0.747705  0.326936  0.472104  1
  P  P7  1  0.259685  0.189762  0.185750  1
  O  O8  1  0.115275  0.163768  0.031853  1
  O  O9  1  0.677745  0.412254  0.902361  1
  O  O10  1  0.173408  0.724757  0.820113  1
  O  O11  1  0.779185  0.860396  0.842855  1
  O  O12  1  0.342836  0.074673  0.727773  1
  O  O13  1  0.395402  0.617781  0.659384  1
  O  O14  1  0.115275  0.836232  0.531853  1
  O  O15  1  0.620828  0.216618  0.564892  1
  O  O16  1  0.939586  0.349513  0.573536  1
  O  O17  1  0.677745  0.587746  0.402361  1
  O  O18  1  0.173408  0.275243  0.320113  1
  O  O19  1  0.779185  0.139604  0.342855  1
  O  O20  1  0.342836  0.925327  0.227773  1
  O  O21  1  0.395402  0.382219  0.159384  1
  O  O22  1  0.620828  0.783382  0.064892  1
  O  O23  1  0.939586  0.650487  0.073536  1
