# generated using pymatgen
data_Li2CrH8Cl5O4
_symmetry_space_group_name_H-M   'P 1'
_cell_length_a   8.49730325
_cell_length_b   8.49730325
_cell_length_c   13.60380226
_cell_angle_alpha   68.13869961
_cell_angle_beta   111.86130039
_cell_angle_gamma   136.01914471
_symmetry_Int_Tables_number   1
_chemical_formula_structural   Li2CrH8Cl5O4
_chemical_formula_sum   'Li4 Cr2 H16 Cl10 O8'
_cell_volume   624.67781219
_cell_formula_units_Z   2
loop_
 _symmetry_equiv_pos_site_id
 _symmetry_equiv_pos_as_xyz
  1  'x, y, z'
loop_
 _atom_site_type_symbol
 _atom_site_label
 _atom_site_symmetry_multiplicity
 _atom_site_fract_x
 _atom_site_fract_y
 _atom_site_fract_z
 _atom_site_occupancy
  Li  Li0  1  0.875464  0.395726  0.389481  1
  Li  Li1  1  0.395726  0.875464  0.110519  1
  Li  Li2  1  0.604274  0.124536  0.889481  1
  Li  Li3  1  0.124536  0.604274  0.610519  1
  Cr  Cr4  1  0.000000  0.000000  0.500000  1
  Cr  Cr5  1  0.000000  0.000000  0.000000  1
  H  H6  1  0.340438  0.324269  0.882614  1
  H  H7  1  0.639543  0.886801  0.527925  1
  H  H8  1  0.799034  0.722728  0.860892  1
  H  H9  1  0.437904  0.250015  0.995956  1
  H  H10  1  0.250015  0.437904  0.504044  1
  H  H11  1  0.722728  0.799034  0.639108  1
  H  H12  1  0.886801  0.639543  0.972075  1
  H  H13  1  0.324269  0.340438  0.617386  1
  H  H14  1  0.675731  0.659562  0.382614  1
  H  H15  1  0.113199  0.360457  0.027925  1
  H  H16  1  0.277272  0.200966  0.360892  1
  H  H17  1  0.749985  0.562096  0.495956  1
  H  H18  1  0.562096  0.749985  0.004044  1
  H  H19  1  0.200966  0.277272  0.139108  1
  H  H20  1  0.360457  0.113199  0.472075  1
  H  H21  1  0.659562  0.675731  0.117386  1
  Cl  Cl22  1  0.144315  0.868412  0.157726  1
  Cl  Cl23  1  0.267880  0.701050  0.458228  1
  Cl  Cl24  1  0.701050  0.267880  0.041772  1
  Cl  Cl25  1  0.508383  0.508383  0.750000  1
  Cl  Cl26  1  0.868412  0.144315  0.342274  1
  Cl  Cl27  1  0.131588  0.855685  0.657726  1
  Cl  Cl28  1  0.491617  0.491617  0.250000  1
  Cl  Cl29  1  0.298950  0.732120  0.958228  1
  Cl  Cl30  1  0.732120  0.298950  0.541772  1
  Cl  Cl31  1  0.855685  0.131588  0.842274  1
  O  O32  1  0.314925  0.255589  0.958644  1
  O  O33  1  0.925050  0.780457  0.923944  1
  O  O34  1  0.780457  0.925050  0.576056  1
  O  O35  1  0.255589  0.314925  0.541356  1
  O  O36  1  0.744411  0.685075  0.458644  1
  O  O37  1  0.219543  0.074950  0.423944  1
  O  O38  1  0.074950  0.219543  0.076056  1
  O  O39  1  0.685075  0.744411  0.041356  1
