# generated using pymatgen
data_Li3Sb2(PO4)3
_symmetry_space_group_name_H-M   'P 1'
_cell_length_a   8.50729837
_cell_length_b   8.50729837
_cell_length_c   8.54176251
_cell_angle_alpha   67.21017161
_cell_angle_beta   112.78982839
_cell_angle_gamma   113.04003517
_symmetry_Int_Tables_number   1
_chemical_formula_structural   Li3Sb2(PO4)3
_chemical_formula_sum   'Li6 Sb4 P6 O24'
_cell_volume   503.82106068
_cell_formula_units_Z   2
loop_
 _symmetry_equiv_pos_site_id
 _symmetry_equiv_pos_as_xyz
  1  'x, y, z'
loop_
 _atom_site_type_symbol
 _atom_site_label
 _atom_site_symmetry_multiplicity
 _atom_site_fract_x
 _atom_site_fract_y
 _atom_site_fract_z
 _atom_site_occupancy
  Li  Li0  1  0.008248  0.498264  0.264518  1
  Li  Li1  1  0.858827  0.858827  0.000000  1
  Li  Li2  1  0.498264  0.008248  0.735482  1
  Li  Li3  1  0.132996  0.132996  0.500000  1
  Li  Li4  1  0.752962  0.365443  0.889707  1
  Li  Li5  1  0.365443  0.752962  0.110293  1
  Sb  Sb6  1  0.841139  0.645606  0.404843  1
  Sb  Sb7  1  0.645606  0.841139  0.595157  1
  Sb  Sb8  1  0.339507  0.158589  0.905390  1
  Sb  Sb9  1  0.158589  0.339507  0.094610  1
  P  P10  1  0.250729  0.907726  0.341653  1
  P  P11  1  0.907726  0.250729  0.658347  1
  P  P12  1  0.582579  0.582579  0.000000  1
  P  P13  1  0.416232  0.416232  0.500000  1
  P  P14  1  0.076847  0.752918  0.843702  1
  P  P15  1  0.752918  0.076847  0.156298  1
  O  O16  1  0.701151  0.025415  0.323847  1
  O  O17  1  0.432753  0.571067  0.557626  1
  O  O18  1  0.094262  0.730103  0.349071  1
  O  O19  1  0.940095  0.818457  0.854590  1
  O  O20  1  0.405422  0.896523  0.520586  1
  O  O21  1  0.185046  0.060844  0.323607  1
  O  O22  1  0.896523  0.405422  0.479414  1
  O  O23  1  0.730103  0.094262  0.650929  1
  O  O24  1  0.599738  0.766102  0.851986  1
  O  O25  1  0.571067  0.432753  0.442374  1
  O  O26  1  0.231606  0.388965  0.347073  1
  O  O27  1  0.025415  0.701151  0.676153  1
  O  O28  1  0.931762  0.320497  0.810385  1
  O  O29  1  0.766102  0.599738  0.148014  1
  O  O30  1  0.431955  0.560946  0.070323  1
  O  O31  1  0.388965  0.231606  0.652927  1
  O  O32  1  0.265326  0.901056  0.858973  1
  O  O33  1  0.109600  0.593697  0.019566  1
  O  O34  1  0.818457  0.940095  0.145410  1
  O  O35  1  0.593697  0.109600  0.980434  1
  O  O36  1  0.060844  0.185046  0.676393  1
  O  O37  1  0.901056  0.265326  0.141027  1
  O  O38  1  0.560946  0.431955  0.929677  1
  O  O39  1  0.320497  0.931762  0.189615  1
