# generated using pymatgen
data_Li3Co3CuO8
_symmetry_space_group_name_H-M   'P 1'
_cell_length_a   5.91809343
_cell_length_b   5.91809343
_cell_length_c   5.91809343
_cell_angle_alpha   58.98075614
_cell_angle_beta   58.98075614
_cell_angle_gamma   58.98075614
_symmetry_Int_Tables_number   1
_chemical_formula_structural   Li3Co3CuO8
_chemical_formula_sum   'Li3 Co3 Cu1 O8'
_cell_volume   143.15712452
_cell_formula_units_Z   1
loop_
 _symmetry_equiv_pos_site_id
 _symmetry_equiv_pos_as_xyz
  1  'x, y, z'
loop_
 _atom_site_type_symbol
 _atom_site_label
 _atom_site_symmetry_multiplicity
 _atom_site_fract_x
 _atom_site_fract_y
 _atom_site_fract_z
 _atom_site_occupancy
  Li  Li0  1  0.000000  0.000000  0.500000  1
  Li  Li1  1  0.500000  0.000000  0.000000  1
  Li  Li2  1  1.000000  0.500000  0.000000  1
  Co  Co3  1  0.500000  0.000000  0.500000  1
  Co  Co4  1  0.500000  0.500000  0.000000  1
  Co  Co5  1  0.000000  0.500000  0.500000  1
  Cu  Cu6  1  0.000000  0.000000  0.000000  1
  O  O7  1  0.253662  0.763787  0.763787  1
  O  O8  1  0.763787  0.763787  0.253662  1
  O  O9  1  0.763787  0.253662  0.763787  1
  O  O10  1  0.255741  0.255741  0.255741  1
  O  O11  1  0.744259  0.744259  0.744259  1
  O  O12  1  0.236213  0.746338  0.236213  1
  O  O13  1  0.236213  0.236213  0.746338  1
  O  O14  1  0.746338  0.236213  0.236213  1
