# generated using pymatgen
data_Ta2TiO6
_symmetry_space_group_name_H-M   'P 1'
_cell_length_a   5.71217220
_cell_length_b   5.71217220
_cell_length_c   7.47159987
_cell_angle_alpha   70.73226430
_cell_angle_beta   109.26773570
_cell_angle_gamma   106.34681813
_symmetry_Int_Tables_number   1
_chemical_formula_structural   Ta2TiO6
_chemical_formula_sum   'Ta4 Ti2 O12'
_cell_volume   213.13196316
_cell_formula_units_Z   2
loop_
 _symmetry_equiv_pos_site_id
 _symmetry_equiv_pos_as_xyz
  1  'x, y, z'
loop_
 _atom_site_type_symbol
 _atom_site_label
 _atom_site_symmetry_multiplicity
 _atom_site_fract_x
 _atom_site_fract_y
 _atom_site_fract_z
 _atom_site_occupancy
  Ta  Ta0  1  0.828805  0.171195  0.328543  1
  Ta  Ta1  1  0.821418  0.178582  0.826808  1
  Ta  Ta2  1  0.171195  0.828805  0.671457  1
  Ta  Ta3  1  0.178582  0.821418  0.173192  1
  Ti  Ti4  1  0.500000  0.500000  0.500000  1
  Ti  Ti5  1  0.500000  0.500000  0.000000  1
  O  O6  1  0.124770  0.467859  0.828469  1
  O  O7  1  0.806435  0.806435  0.500000  1
  O  O8  1  0.398261  0.601739  0.194898  1
  O  O9  1  0.738837  0.261163  0.533555  1
  O  O10  1  0.065659  0.934341  0.870778  1
  O  O11  1  0.261163  0.738837  0.466445  1
  O  O12  1  0.601739  0.398261  0.805102  1
  O  O13  1  0.934341  0.065659  0.129222  1
  O  O14  1  0.875230  0.532141  0.171531  1
  O  O15  1  0.193565  0.193565  0.500000  1
  O  O16  1  0.532141  0.875230  0.828469  1
  O  O17  1  0.467859  0.124770  0.171531  1
