# generated using pymatgen
data_Rb2CaH8(N3O)4
_symmetry_space_group_name_H-M   'P 1'
_cell_length_a   11.30211105
_cell_length_b   11.30211105
_cell_length_c   6.32673694
_cell_angle_alpha   90.00000000
_cell_angle_beta   90.00000000
_cell_angle_gamma   120.41540237
_symmetry_Int_Tables_number   1
_chemical_formula_structural   Rb2CaH8(N3O)4
_chemical_formula_sum   'Rb4 Ca2 H16 N24 O8'
_cell_volume   696.94159938
_cell_formula_units_Z   2
loop_
 _symmetry_equiv_pos_site_id
 _symmetry_equiv_pos_as_xyz
  1  'x, y, z'
loop_
 _atom_site_type_symbol
 _atom_site_label
 _atom_site_symmetry_multiplicity
 _atom_site_fract_x
 _atom_site_fract_y
 _atom_site_fract_z
 _atom_site_occupancy
  Rb  Rb0  1  0.331446  0.668554  0.000000  1
  Rb  Rb1  1  0.168554  0.831446  0.500000  1
  Rb  Rb2  1  0.831446  0.168554  0.500000  1
  Rb  Rb3  1  0.668554  0.331446  0.000000  1
  Ca  Ca4  1  0.000000  0.000000  0.000000  1
  Ca  Ca5  1  0.500000  0.500000  0.500000  1
  H  H6  1  0.281888  0.123895  0.147740  1
  H  H7  1  0.623895  0.781888  0.647740  1
  H  H8  1  0.376105  0.218112  0.647740  1
  H  H9  1  0.718112  0.876105  0.147740  1
  H  H10  1  0.218112  0.376105  0.352260  1
  H  H11  1  0.876105  0.718112  0.852260  1
  H  H12  1  0.123895  0.281888  0.852260  1
  H  H13  1  0.781888  0.623895  0.352260  1
  H  H14  1  0.272531  0.001669  0.015679  1
  H  H15  1  0.501669  0.772531  0.515679  1
  H  H16  1  0.498331  0.227469  0.515679  1
  H  H17  1  0.727469  0.998331  0.015679  1
  H  H18  1  0.227469  0.498331  0.484321  1
  H  H19  1  0.998331  0.727469  0.984321  1
  H  H20  1  0.001669  0.272531  0.984321  1
  H  H21  1  0.772531  0.501669  0.484321  1
  N  N22  1  0.380162  0.955809  0.850401  1
  N  N23  1  0.455809  0.880162  0.350401  1
  N  N24  1  0.544191  0.119838  0.350401  1
  N  N25  1  0.619838  0.044191  0.850401  1
  N  N26  1  0.119838  0.544191  0.649599  1
  N  N27  1  0.044191  0.619838  0.149599  1
  N  N28  1  0.955809  0.380162  0.149599  1
  N  N29  1  0.880162  0.455809  0.649599  1
  N  N30  1  0.500000  0.000000  0.851525  1
  N  N31  1  0.500000  0.000000  0.351525  1
  N  N32  1  0.000000  0.500000  0.648475  1
  N  N33  1  0.000000  0.500000  0.148475  1
  N  N34  1  0.332303  0.402874  0.847831  1
  N  N35  1  0.902874  0.832303  0.347831  1
  N  N36  1  0.097126  0.167697  0.347831  1
  N  N37  1  0.667697  0.597126  0.847831  1
  N  N38  1  0.167697  0.097126  0.652169  1
  N  N39  1  0.597126  0.667697  0.152169  1
  N  N40  1  0.402874  0.332303  0.152169  1
  N  N41  1  0.832303  0.902874  0.652169  1
  N  N42  1  0.867740  0.867740  0.500000  1
  N  N43  1  0.367740  0.367740  0.000000  1
  N  N44  1  0.632260  0.632260  0.000000  1
  N  N45  1  0.132260  0.132260  0.500000  1
  O  O46  1  0.218140  0.027327  0.108730  1
  O  O47  1  0.527327  0.718140  0.608730  1
  O  O48  1  0.472673  0.281860  0.608730  1
  O  O49  1  0.781860  0.972673  0.108730  1
  O  O50  1  0.281860  0.472673  0.391270  1
  O  O51  1  0.972673  0.781860  0.891270  1
  O  O52  1  0.027327  0.218140  0.891270  1
  O  O53  1  0.718140  0.527327  0.391270  1
