# generated using pymatgen
data_Hg(BiO3)2
_symmetry_space_group_name_H-M   'P 1'
_cell_length_a   5.08321932
_cell_length_b   5.08321932
_cell_length_c   10.50146881
_cell_angle_alpha   90.00000000
_cell_angle_beta   90.00000000
_cell_angle_gamma   90.00000000
_symmetry_Int_Tables_number   1
_chemical_formula_structural   Hg(BiO3)2
_chemical_formula_sum   'Hg2 Bi4 O12'
_cell_volume   271.34869864
_cell_formula_units_Z   2
loop_
 _symmetry_equiv_pos_site_id
 _symmetry_equiv_pos_as_xyz
  1  'x, y, z'
loop_
 _atom_site_type_symbol
 _atom_site_label
 _atom_site_symmetry_multiplicity
 _atom_site_fract_x
 _atom_site_fract_y
 _atom_site_fract_z
 _atom_site_occupancy
  Hg  Hg0  1  0.000000  0.000000  0.000000  1
  Hg  Hg1  1  0.500000  0.500000  0.500000  1
  Bi  Bi2  1  0.000000  0.000000  0.332271  1
  Bi  Bi3  1  0.000000  0.000000  0.667729  1
  Bi  Bi4  1  0.500000  0.500000  0.167729  1
  Bi  Bi5  1  0.500000  0.500000  0.832271  1
  O  O6  1  0.199235  0.800765  0.824368  1
  O  O7  1  0.199235  0.800765  0.175632  1
  O  O8  1  0.184646  0.815354  0.500000  1
  O  O9  1  0.315354  0.315354  0.000000  1
  O  O10  1  0.300765  0.300765  0.324368  1
  O  O11  1  0.300765  0.300765  0.675632  1
  O  O12  1  0.699235  0.699235  0.324368  1
  O  O13  1  0.699235  0.699235  0.675632  1
  O  O14  1  0.684646  0.684646  0.000000  1
  O  O15  1  0.815354  0.184646  0.500000  1
  O  O16  1  0.800765  0.199235  0.175632  1
  O  O17  1  0.800765  0.199235  0.824368  1
