# generated using pymatgen
data_KV4O10
_symmetry_space_group_name_H-M   'P 1'
_cell_length_a   6.09556946
_cell_length_b   6.09556946
_cell_length_c   20.58032214
_cell_angle_alpha   90.00000000
_cell_angle_beta   90.00000000
_cell_angle_gamma   144.58181147
_symmetry_Int_Tables_number   1
_chemical_formula_structural   KV4O10
_chemical_formula_sum   'K2 V8 O20'
_cell_volume   443.16360113
_cell_formula_units_Z   2
loop_
 _symmetry_equiv_pos_site_id
 _symmetry_equiv_pos_as_xyz
  1  'x, y, z'
loop_
 _atom_site_type_symbol
 _atom_site_label
 _atom_site_symmetry_multiplicity
 _atom_site_fract_x
 _atom_site_fract_y
 _atom_site_fract_z
 _atom_site_occupancy
  K  K0  1  0.604218  0.395782  0.250000  1
  K  K1  1  0.395782  0.604218  0.750000  1
  V  V2  1  0.771810  0.228190  0.081104  1
  V  V3  1  0.771810  0.228190  0.418896  1
  V  V4  1  0.933231  0.066769  0.578542  1
  V  V5  1  0.933231  0.066769  0.921458  1
  V  V6  1  0.066769  0.933231  0.078542  1
  V  V7  1  0.066769  0.933231  0.421458  1
  V  V8  1  0.228190  0.771810  0.581104  1
  V  V9  1  0.228190  0.771810  0.918896  1
  O  O10  1  0.918917  0.081083  0.048566  1
  O  O11  1  0.786544  0.213456  0.340197  1
  O  O12  1  0.786544  0.213456  0.159803  1
  O  O13  1  0.918917  0.081083  0.451434  1
  O  O14  1  0.601070  0.398930  0.063473  1
  O  O15  1  0.949229  0.050771  0.657884  1
  O  O16  1  0.759766  0.240234  0.560685  1
  O  O17  1  0.949229  0.050771  0.842116  1
  O  O18  1  0.759766  0.240234  0.939315  1
  O  O19  1  0.601070  0.398930  0.436527  1
  O  O20  1  0.240234  0.759766  0.060685  1
  O  O21  1  0.050771  0.949229  0.157884  1
  O  O22  1  0.240234  0.759766  0.439315  1
  O  O23  1  0.213456  0.786544  0.840197  1
  O  O24  1  0.050771  0.949229  0.342116  1
  O  O25  1  0.213456  0.786544  0.659803  1
  O  O26  1  0.081083  0.918917  0.548566  1
  O  O27  1  0.081083  0.918917  0.951434  1
  O  O28  1  0.398930  0.601070  0.563473  1
  O  O29  1  0.398930  0.601070  0.936527  1
