# generated using pymatgen
data_Na5CrHO4
_symmetry_space_group_name_H-M   'P 1'
_cell_length_a   10.09171859
_cell_length_b   10.13168481
_cell_length_c   12.36299213
_cell_angle_alpha   90.00000000
_cell_angle_beta   90.00000000
_cell_angle_gamma   90.00000000
_symmetry_Int_Tables_number   1
_chemical_formula_structural   Na5CrHO4
_chemical_formula_sum   'Na40 Cr8 H8 O32'
_cell_volume   1264.06787730
_cell_formula_units_Z   8
loop_
 _symmetry_equiv_pos_site_id
 _symmetry_equiv_pos_as_xyz
  1  'x, y, z'
loop_
 _atom_site_type_symbol
 _atom_site_label
 _atom_site_symmetry_multiplicity
 _atom_site_fract_x
 _atom_site_fract_y
 _atom_site_fract_z
 _atom_site_occupancy
  Na  Na0  1  0.992375  0.591077  0.209635  1
  Na  Na1  1  0.992375  0.908923  0.209635  1
  Na  Na2  1  0.078920  0.071895  0.414287  1
  Na  Na3  1  0.078920  0.428105  0.414287  1
  Na  Na4  1  0.087335  0.750000  0.448965  1
  Na  Na5  1  0.118871  0.250000  0.985904  1
  Na  Na6  1  0.129813  0.569218  0.984126  1
  Na  Na7  1  0.129813  0.930782  0.984126  1
  Na  Na8  1  0.220816  0.583594  0.680394  1
  Na  Na9  1  0.220816  0.916406  0.680394  1
  Na  Na10  1  0.279184  0.083594  0.180394  1
  Na  Na11  1  0.279184  0.416406  0.180394  1
  Na  Na12  1  0.370187  0.069218  0.484126  1
  Na  Na13  1  0.370187  0.430782  0.484126  1
  Na  Na14  1  0.381129  0.750000  0.485904  1
  Na  Na15  1  0.412665  0.250000  0.948965  1
  Na  Na16  1  0.421080  0.571895  0.914287  1
  Na  Na17  1  0.421080  0.928105  0.914287  1
  Na  Na18  1  0.507625  0.091077  0.709635  1
  Na  Na19  1  0.507625  0.408923  0.709635  1
  Na  Na20  1  0.492375  0.591077  0.290365  1
  Na  Na21  1  0.492375  0.908923  0.290365  1
  Na  Na22  1  0.578920  0.071895  0.085713  1
  Na  Na23  1  0.578920  0.428105  0.085713  1
  Na  Na24  1  0.587335  0.750000  0.051035  1
  Na  Na25  1  0.618871  0.250000  0.514096  1
  Na  Na26  1  0.629813  0.569218  0.515874  1
  Na  Na27  1  0.629813  0.930782  0.515874  1
  Na  Na28  1  0.720816  0.583594  0.819606  1
  Na  Na29  1  0.720816  0.916406  0.819606  1
  Na  Na30  1  0.779184  0.083594  0.319606  1
  Na  Na31  1  0.779184  0.416406  0.319606  1
  Na  Na32  1  0.870187  0.069218  0.015874  1
  Na  Na33  1  0.870187  0.430782  0.015874  1
  Na  Na34  1  0.881129  0.750000  0.014096  1
  Na  Na35  1  0.912665  0.250000  0.551035  1
  Na  Na36  1  0.921080  0.928105  0.585713  1
  Na  Na37  1  0.921080  0.571895  0.585713  1
  Na  Na38  1  0.007625  0.091077  0.790365  1
  Na  Na39  1  0.007625  0.408923  0.790365  1
  Cr  Cr40  1  0.010645  0.250000  0.210564  1
  Cr  Cr41  1  0.201058  0.250000  0.620165  1
  Cr  Cr42  1  0.298942  0.750000  0.120165  1
  Cr  Cr43  1  0.489355  0.750000  0.710564  1
  Cr  Cr44  1  0.510645  0.250000  0.289436  1
  Cr  Cr45  1  0.701058  0.250000  0.879835  1
  Cr  Cr46  1  0.798942  0.750000  0.379835  1
  Cr  Cr47  1  0.989355  0.750000  0.789436  1
  H  H48  1  0.244428  0.633613  0.318276  1
  H  H49  1  0.244428  0.866387  0.318276  1
  H  H50  1  0.255572  0.133612  0.818276  1
  H  H51  1  0.255572  0.366387  0.818276  1
  H  H52  1  0.744428  0.633613  0.181724  1
  H  H53  1  0.744428  0.866387  0.181724  1
  H  H54  1  0.755572  0.133612  0.681724  1
  H  H55  1  0.755572  0.366387  0.681724  1
  O  O56  1  0.060394  0.750000  0.643521  1
  O  O57  1  0.062034  0.403640  0.121431  1
  O  O58  1  0.062034  0.096360  0.121431  1
  O  O59  1  0.101609  0.400550  0.610089  1
  O  O60  1  0.101609  0.099450  0.610089  1
  O  O61  1  0.116685  0.750000  0.116558  1
  O  O62  1  0.251133  0.084689  0.886069  1
  O  O63  1  0.251133  0.415311  0.886069  1
  O  O64  1  0.248867  0.584689  0.386069  1
  O  O65  1  0.248867  0.915311  0.386069  1
  O  O66  1  0.383315  0.250000  0.616558  1
  O  O67  1  0.398391  0.599450  0.110089  1
  O  O68  1  0.398391  0.900550  0.110089  1
  O  O69  1  0.437966  0.596360  0.621431  1
  O  O70  1  0.437966  0.903640  0.621431  1
  O  O71  1  0.439606  0.250000  0.143521  1
  O  O72  1  0.560394  0.750000  0.856479  1
  O  O73  1  0.562034  0.096360  0.378569  1
  O  O74  1  0.562034  0.403640  0.378569  1
  O  O75  1  0.601609  0.099450  0.889911  1
  O  O76  1  0.601609  0.400550  0.889911  1
  O  O77  1  0.616685  0.750000  0.383442  1
  O  O78  1  0.751133  0.084689  0.613931  1
  O  O79  1  0.751133  0.415311  0.613931  1
  O  O80  1  0.748867  0.584689  0.113931  1
  O  O81  1  0.748867  0.915311  0.113931  1
  O  O82  1  0.883315  0.250000  0.883442  1
  O  O83  1  0.898391  0.900550  0.389911  1
  O  O84  1  0.898391  0.599450  0.389911  1
  O  O85  1  0.937966  0.903640  0.878569  1
  O  O86  1  0.937966  0.596360  0.878569  1
  O  O87  1  0.939606  0.250000  0.356479  1
