# generated using pymatgen
data_Mn3O5F
_symmetry_space_group_name_H-M   'P 1'
_cell_length_a   5.45820268
_cell_length_b   5.45820268
_cell_length_c   7.24873991
_cell_angle_alpha   71.25590154
_cell_angle_beta   108.74409846
_cell_angle_gamma   109.34226794
_symmetry_Int_Tables_number   1
_chemical_formula_structural   Mn3O5F
_chemical_formula_sum   'Mn6 O10 F2'
_cell_volume   187.29354801
_cell_formula_units_Z   2
loop_
 _symmetry_equiv_pos_site_id
 _symmetry_equiv_pos_as_xyz
  1  'x, y, z'
loop_
 _atom_site_type_symbol
 _atom_site_label
 _atom_site_symmetry_multiplicity
 _atom_site_fract_x
 _atom_site_fract_y
 _atom_site_fract_z
 _atom_site_occupancy
  Mn  Mn0  1  0.329558  0.670442  0.839884  1
  Mn  Mn1  1  0.651794  0.348206  0.672597  1
  Mn  Mn2  1  0.348206  0.651794  0.327403  1
  Mn  Mn3  1  0.670442  0.329558  0.160116  1
  Mn  Mn4  1  0.000000  0.000000  0.500000  1
  Mn  Mn5  1  0.000000  0.000000  0.000000  1
  O  O6  1  0.970385  0.639802  0.669352  1
  O  O7  1  0.639802  0.970385  0.330648  1
  O  O8  1  0.430945  0.569055  0.624456  1
  O  O9  1  0.764586  0.235414  0.960973  1
  O  O10  1  0.235414  0.764586  0.039027  1
  O  O11  1  0.569055  0.430945  0.375544  1
  O  O12  1  0.029615  0.360198  0.330648  1
  O  O13  1  0.360198  0.029615  0.669352  1
  O  O14  1  0.694169  0.694169  0.000000  1
  O  O15  1  0.305831  0.305831  0.000000  1
  F  F16  1  0.119751  0.880249  0.305166  1
  F  F17  1  0.880249  0.119751  0.694834  1
