# generated using pymatgen
data_Li24TiCr11O36
_symmetry_space_group_name_H-M   'P 1'
_cell_length_a   5.08821817
_cell_length_b   10.59499105
_cell_length_c   13.06490342
_cell_angle_alpha   112.85282896
_cell_angle_beta   96.74866246
_cell_angle_gamma   95.62293011
_symmetry_Int_Tables_number   1
_chemical_formula_structural   Li24TiCr11O36
_chemical_formula_sum   'Li24 Ti1 Cr11 O36'
_cell_volume   636.55426547
_cell_formula_units_Z   1
loop_
 _symmetry_equiv_pos_site_id
 _symmetry_equiv_pos_as_xyz
  1  'x, y, z'
loop_
 _atom_site_type_symbol
 _atom_site_label
 _atom_site_symmetry_multiplicity
 _atom_site_fract_x
 _atom_site_fract_y
 _atom_site_fract_z
 _atom_site_occupancy
  Li  Li0  1  0.771448  0.060505  0.059226  1
  Li  Li1  1  0.665770  0.333126  0.083519  1
  Li  Li2  1  0.888432  0.272606  0.273176  1
  Li  Li3  1  0.335239  0.166319  0.167295  1
  Li  Li4  1  0.551896  0.605654  0.105983  1
  Li  Li5  1  0.999681  0.001015  0.249979  1
  Li  Li6  1  0.998971  0.500594  0.000006  1
  Li  Li7  1  0.779801  0.060569  0.559592  1
  Li  Li8  1  0.449968  0.392762  0.393662  1
  Li  Li9  1  0.667465  0.332651  0.583540  1
  Li  Li10  1  0.667531  0.834230  0.333948  1
  Li  Li11  1  0.113104  0.728222  0.227341  1
  Li  Li12  1  0.885101  0.272602  0.772917  1
  Li  Li13  1  0.331984  0.166292  0.667325  1
  Li  Li14  1  0.333236  0.667782  0.416924  1
  Li  Li15  1  0.550851  0.606660  0.606596  1
  Li  Li16  1  0.000018  0.500045  0.500213  1
  Li  Li17  1  0.220025  0.940142  0.440150  1
  Li  Li18  1  0.453076  0.392247  0.893171  1
  Li  Li19  1  0.670376  0.835271  0.834041  1
  Li  Li20  1  0.113147  0.726312  0.726455  1
  Li  Li21  1  0.333379  0.666375  0.916532  1
  Li  Li22  1  0.997696  0.999339  0.748633  1
  Li  Li23  1  0.219373  0.939664  0.940369  1
  Ti  Ti24  1  0.110546  0.221084  0.974631  1
  Cr  Cr25  1  0.889624  0.780497  0.031151  1
  Cr  Cr26  1  0.557582  0.113935  0.363873  1
  Cr  Cr27  1  0.777533  0.553018  0.302383  1
  Cr  Cr28  1  0.225464  0.449678  0.199286  1
  Cr  Cr29  1  0.442513  0.885495  0.135412  1
  Cr  Cr30  1  0.111461  0.219921  0.469289  1
  Cr  Cr31  1  0.891902  0.780131  0.530390  1
  Cr  Cr32  1  0.549604  0.109821  0.859962  1
  Cr  Cr33  1  0.776314  0.553071  0.802174  1
  Cr  Cr34  1  0.223300  0.447114  0.698185  1
  Cr  Cr35  1  0.445970  0.885935  0.633836  1
  O  O36  1  0.423825  0.139661  0.004502  1
  O  O37  1  0.643021  0.075706  0.211994  1
  O  O38  1  0.901568  0.529844  0.167125  1
  O  O39  1  0.309637  0.412435  0.046926  1
  O  O40  1  0.885730  0.046131  0.408769  1
  O  O41  1  0.023792  0.258246  0.124160  1
  O  O42  1  0.553414  0.379937  0.242640  1
  O  O43  1  0.782089  0.287727  0.424745  1
  O  O44  1  0.765710  0.803687  0.166522  1
  O  O45  1  0.235956  0.195600  0.333100  1
  O  O46  1  0.219145  0.712000  0.075426  1
  O  O47  1  0.447905  0.622534  0.259154  1
  O  O48  1  0.431312  0.137517  0.499545  1
  O  O49  1  0.976466  0.743000  0.378565  1
  O  O50  1  0.113324  0.953798  0.091006  1
  O  O51  1  0.692496  0.590699  0.454246  1
  O  O52  1  0.100571  0.471791  0.334043  1
  O  O53  1  0.642512  0.073771  0.708535  1
  O  O54  1  0.358833  0.924143  0.287738  1
  O  O55  1  0.900495  0.529212  0.666701  1
  O  O56  1  0.307733  0.409195  0.545567  1
  O  O57  1  0.872627  0.042038  0.904377  1
  O  O58  1  0.023971  0.257469  0.621564  1
  O  O59  1  0.568679  0.861401  0.498564  1
  O  O60  1  0.552963  0.379301  0.742171  1
  O  O61  1  0.784336  0.288340  0.926092  1
  O  O62  1  0.764506  0.803482  0.665613  1
  O  O63  1  0.247166  0.191924  0.829922  1
  O  O64  1  0.218930  0.712667  0.575734  1
  O  O65  1  0.446586  0.621169  0.757846  1
  O  O66  1  0.975563  0.742497  0.878814  1
  O  O67  1  0.115173  0.953580  0.590684  1
  O  O68  1  0.690933  0.590608  0.954217  1
  O  O69  1  0.099071  0.470650  0.833449  1
  O  O70  1  0.357693  0.925347  0.788644  1
  O  O71  1  0.566887  0.862210  0.000130  1
