# generated using pymatgen
data_Li4Fe3Sb5O16
_symmetry_space_group_name_H-M   'P 1'
_cell_length_a   6.23445604
_cell_length_b   6.24308691
_cell_length_c   10.35825716
_cell_angle_alpha   90.29154092
_cell_angle_beta   90.25734196
_cell_angle_gamma   118.86010007
_symmetry_Int_Tables_number   1
_chemical_formula_structural   Li4Fe3Sb5O16
_chemical_formula_sum   'Li4 Fe3 Sb5 O16'
_cell_volume   353.07805002
_cell_formula_units_Z   1
loop_
 _symmetry_equiv_pos_site_id
 _symmetry_equiv_pos_as_xyz
  1  'x, y, z'
loop_
 _atom_site_type_symbol
 _atom_site_label
 _atom_site_symmetry_multiplicity
 _atom_site_fract_x
 _atom_site_fract_y
 _atom_site_fract_z
 _atom_site_occupancy
  Li  Li0  1  0.342002  0.676729  0.111031  1
  Li  Li1  1  0.003668  0.008402  0.009120  1
  Li  Li2  1  0.998524  0.998581  0.498206  1
  Li  Li3  1  0.679831  0.359153  0.604237  1
  Fe  Fe4  1  0.170631  0.338779  0.786625  1
  Fe  Fe5  1  0.333485  0.163031  0.285661  1
  Fe  Fe6  1  0.828196  0.163712  0.284651  1
  Sb  Sb7  1  0.170293  0.836380  0.784226  1
  Sb  Sb8  1  0.309750  0.638108  0.490283  1
  Sb  Sb9  1  0.666951  0.834804  0.783762  1
  Sb  Sb10  1  0.826485  0.657955  0.281129  1
  Sb  Sb11  1  0.650654  0.303283  0.019882  1
  O  O12  1  0.134900  0.819138  0.393405  1
  O  O13  1  0.491337  0.989738  0.681994  1
  O  O14  1  0.347950  0.692298  0.893557  1
  O  O15  1  0.992576  0.987300  0.679497  1
  O  O16  1  0.982817  0.981520  0.187680  1
  O  O17  1  0.688198  0.837938  0.389359  1
  O  O18  1  0.033661  0.535283  0.674156  1
  O  O19  1  0.505680  0.532181  0.679206  1
  O  O20  1  0.859670  0.708615  0.890650  1
  O  O21  1  0.140401  0.303009  0.400066  1
  O  O22  1  0.526175  0.496353  0.167368  1
  O  O23  1  0.970752  0.482777  0.171268  1
  O  O24  1  0.685346  0.350464  0.390538  1
  O  O25  1  0.298246  0.133387  0.897902  1
  O  O26  1  0.528077  0.037713  0.161965  1
  O  O27  1  0.833445  0.133372  0.894732  1
