# generated using pymatgen
data_Na5Mn2P(CO4)4
_symmetry_space_group_name_H-M   'P 1'
_cell_length_a   10.08983063
_cell_length_b   10.04430260
_cell_length_c   9.96005417
_cell_angle_alpha   60.57888824
_cell_angle_beta   60.12366129
_cell_angle_gamma   59.29745047
_symmetry_Int_Tables_number   1
_chemical_formula_structural   Na5Mn2P(CO4)4
_chemical_formula_sum   'Na10 Mn4 P2 C8 O32'
_cell_volume   713.57412255
_cell_formula_units_Z   2
loop_
 _symmetry_equiv_pos_site_id
 _symmetry_equiv_pos_as_xyz
  1  'x, y, z'
loop_
 _atom_site_type_symbol
 _atom_site_label
 _atom_site_symmetry_multiplicity
 _atom_site_fract_x
 _atom_site_fract_y
 _atom_site_fract_z
 _atom_site_occupancy
  Na  Na0  1  0.794819  0.794819  0.205181  1
  Na  Na1  1  0.208993  0.791007  0.208993  1
  Na  Na2  1  0.208635  0.791365  0.791365  1
  Na  Na3  1  0.542815  0.542815  0.957185  1
  Na  Na4  1  0.791365  0.208635  0.208635  1
  Na  Na5  1  0.960282  0.539718  0.539718  1
  Na  Na6  1  0.205181  0.205181  0.794819  1
  Na  Na7  1  0.791007  0.208993  0.791007  1
  Na  Na8  1  0.539718  0.960282  0.960282  1
  Na  Na9  1  0.957185  0.957185  0.542815  1
  Mn  Mn10  1  0.376566  0.370327  0.377271  1
  Mn  Mn11  1  0.875836  0.377271  0.370327  1
  Mn  Mn12  1  0.370327  0.376566  0.875836  1
  Mn  Mn13  1  0.377271  0.875836  0.376566  1
  P  P14  1  0.750000  0.750000  0.750000  1
  P  P15  1  0.000000  0.000000  0.000000  1
  C  C16  1  0.593189  0.591103  0.227911  1
  C  C17  1  0.163643  0.523536  0.159895  1
  C  C18  1  0.159895  0.152925  0.163643  1
  C  C19  1  0.523536  0.163643  0.152925  1
  C  C20  1  0.227911  0.587798  0.593189  1
  C  C21  1  0.591103  0.593189  0.587798  1
  C  C22  1  0.587798  0.227911  0.591103  1
  C  C23  1  0.152925  0.159895  0.523536  1
  O  O24  1  0.476487  0.734708  0.222505  1
  O  O25  1  0.023152  0.529562  0.272556  1
  O  O26  1  0.726349  0.567766  0.238735  1
  O  O27  1  0.279998  0.521519  0.186327  1
  O  O28  1  0.573160  0.479014  0.219153  1
  O  O29  1  0.561025  0.812074  0.818529  1
  O  O30  1  0.808371  0.818529  0.812074  1
  O  O31  1  0.190165  0.526258  0.017465  1
  O  O32  1  0.526258  0.190165  0.266112  1
  O  O33  1  0.017465  0.266112  0.190165  1
  O  O34  1  0.818529  0.808371  0.561025  1
  O  O35  1  0.812074  0.561025  0.808371  1
  O  O36  1  0.479014  0.573160  0.728673  1
  O  O37  1  0.219153  0.728673  0.573160  1
  O  O38  1  0.521519  0.279998  0.012156  1
  O  O39  1  0.186327  0.012156  0.279998  1
  O  O40  1  0.567766  0.726349  0.467150  1
  O  O41  1  0.238735  0.467150  0.726349  1
  O  O42  1  0.272556  0.174729  0.023152  1
  O  O43  1  0.529562  0.023152  0.174729  1
  O  O44  1  0.933860  0.190000  0.937449  1
  O  O45  1  0.938691  0.937449  0.190000  1
  O  O46  1  0.734708  0.476487  0.566300  1
  O  O47  1  0.222505  0.566300  0.476487  1
  O  O48  1  0.566300  0.222505  0.734708  1
  O  O49  1  0.937449  0.938691  0.933860  1
  O  O50  1  0.190000  0.933860  0.938691  1
  O  O51  1  0.174729  0.272556  0.529562  1
  O  O52  1  0.467150  0.238735  0.567766  1
  O  O53  1  0.012156  0.186327  0.521519  1
  O  O54  1  0.728673  0.219153  0.479014  1
  O  O55  1  0.266112  0.017465  0.526258  1
