# generated using pymatgen
data_Li3Fe2(PO4)3
_symmetry_space_group_name_H-M   'P 1'
_cell_length_a   8.60310105
_cell_length_b   8.60310105
_cell_length_c   8.54442012
_cell_angle_alpha   61.71496454
_cell_angle_beta   118.28503546
_cell_angle_gamma   118.27924133
_symmetry_Int_Tables_number   1
_chemical_formula_structural   Li3Fe2(PO4)3
_chemical_formula_sum   'Li6 Fe4 P6 O24'
_cell_volume   464.38284843
_cell_formula_units_Z   2
loop_
 _symmetry_equiv_pos_site_id
 _symmetry_equiv_pos_as_xyz
  1  'x, y, z'
loop_
 _atom_site_type_symbol
 _atom_site_label
 _atom_site_symmetry_multiplicity
 _atom_site_fract_x
 _atom_site_fract_y
 _atom_site_fract_z
 _atom_site_occupancy
  Li  Li0  1  0.994428  0.496281  0.273900  1
  Li  Li1  1  0.850336  0.850336  0.000000  1
  Li  Li2  1  0.496281  0.994428  0.726100  1
  Li  Li3  1  0.152510  0.152510  0.500000  1
  Li  Li4  1  0.748526  0.344859  0.905179  1
  Li  Li5  1  0.344859  0.748526  0.094821  1
  Fe  Fe6  1  0.853802  0.636731  0.397528  1
  Fe  Fe7  1  0.636731  0.853802  0.602472  1
  Fe  Fe8  1  0.352200  0.148802  0.897655  1
  Fe  Fe9  1  0.148802  0.352200  0.102345  1
  P  P10  1  0.248352  0.948725  0.300287  1
  P  P11  1  0.948725  0.248352  0.699713  1
  P  P12  1  0.548699  0.548699  0.000000  1
  P  P13  1  0.455460  0.455460  0.500000  1
  P  P14  1  0.039376  0.751052  0.796856  1
  P  P15  1  0.751052  0.039376  0.203144  1
  O  O16  1  0.704993  0.993168  0.376061  1
  O  O17  1  0.491699  0.617104  0.555929  1
  O  O18  1  0.078881  0.767647  0.296249  1
  O  O19  1  0.881448  0.800860  0.781083  1
  O  O20  1  0.405312  0.929103  0.490444  1
  O  O21  1  0.191484  0.112070  0.265318  1
  O  O22  1  0.929103  0.405312  0.509556  1
  O  O23  1  0.767647  0.078881  0.703751  1
  O  O24  1  0.568692  0.741347  0.844044  1
  O  O25  1  0.617104  0.491699  0.444071  1
  O  O26  1  0.262727  0.434067  0.339949  1
  O  O27  1  0.993168  0.704993  0.623939  1
  O  O28  1  0.988317  0.312238  0.861158  1
  O  O29  1  0.741347  0.568692  0.155956  1
  O  O30  1  0.388660  0.512874  0.061052  1
  O  O31  1  0.434067  0.262727  0.660051  1
  O  O32  1  0.231996  0.910639  0.814427  1
  O  O33  1  0.067599  0.587935  0.986063  1
  O  O34  1  0.800860  0.881448  0.218917  1
  O  O35  1  0.587935  0.067599  0.013937  1
  O  O36  1  0.112070  0.191484  0.734682  1
  O  O37  1  0.910639  0.231996  0.185573  1
  O  O38  1  0.512874  0.388660  0.938947  1
  O  O39  1  0.312238  0.988317  0.138842  1
