# generated using pymatgen
data_ZnSeO4
_symmetry_space_group_name_H-M   'P 1'
_cell_length_a   5.80977647
_cell_length_b   7.09942853
_cell_length_c   7.20527656
_cell_angle_alpha   90.00000000
_cell_angle_beta   90.00000000
_cell_angle_gamma   90.00000000
_symmetry_Int_Tables_number   1
_chemical_formula_structural   ZnSeO4
_chemical_formula_sum   'Zn4 Se4 O16'
_cell_volume   297.18950582
_cell_formula_units_Z   4
loop_
 _symmetry_equiv_pos_site_id
 _symmetry_equiv_pos_as_xyz
  1  'x, y, z'
loop_
 _atom_site_type_symbol
 _atom_site_label
 _atom_site_symmetry_multiplicity
 _atom_site_fract_x
 _atom_site_fract_y
 _atom_site_fract_z
 _atom_site_occupancy
  Zn  Zn0  1  0.250000  0.222740  0.187825  1
  Zn  Zn1  1  0.750000  0.722740  0.312175  1
  Zn  Zn2  1  0.250000  0.277260  0.687825  1
  Zn  Zn3  1  0.750000  0.777260  0.812175  1
  Se  Se4  1  0.250000  0.647502  0.003063  1
  Se  Se5  1  0.750000  0.147502  0.496937  1
  Se  Se6  1  0.250000  0.852498  0.503063  1
  Se  Se7  1  0.750000  0.352498  0.996937  1
  O  O8  1  0.008996  0.779554  0.014186  1
  O  O9  1  0.491004  0.779554  0.014186  1
  O  O10  1  0.750000  0.466864  0.200213  1
  O  O11  1  0.250000  0.509946  0.193327  1
  O  O12  1  0.750000  0.009946  0.306673  1
  O  O13  1  0.250000  0.966864  0.299787  1
  O  O14  1  0.991004  0.279554  0.485814  1
  O  O15  1  0.508996  0.279554  0.485814  1
  O  O16  1  0.008996  0.720446  0.514186  1
  O  O17  1  0.491004  0.720446  0.514186  1
  O  O18  1  0.750000  0.033136  0.700213  1
  O  O19  1  0.250000  0.990054  0.693327  1
  O  O20  1  0.750000  0.490054  0.806673  1
  O  O21  1  0.250000  0.533136  0.799787  1
  O  O22  1  0.508996  0.220446  0.985814  1
  O  O23  1  0.991004  0.220446  0.985814  1
