# generated using pymatgen
data_Ti(SiO3)2
_symmetry_space_group_name_H-M   'P 1'
_cell_length_a   5.32393724
_cell_length_b   8.88943014
_cell_length_c   18.21317230
_cell_angle_alpha   90.00000000
_cell_angle_beta   90.00000000
_cell_angle_gamma   90.00000000
_symmetry_Int_Tables_number   1
_chemical_formula_structural   Ti(SiO3)2
_chemical_formula_sum   'Ti8 Si16 O48'
_cell_volume   861.97058299
_cell_formula_units_Z   8
loop_
 _symmetry_equiv_pos_site_id
 _symmetry_equiv_pos_as_xyz
  1  'x, y, z'
loop_
 _atom_site_type_symbol
 _atom_site_label
 _atom_site_symmetry_multiplicity
 _atom_site_fract_x
 _atom_site_fract_y
 _atom_site_fract_z
 _atom_site_occupancy
  Ti  Ti0  1  0.617903  0.638162  0.126174  1
  Ti  Ti1  1  0.117903  0.861838  0.126174  1
  Ti  Ti2  1  0.117903  0.361838  0.373826  1
  Ti  Ti3  1  0.617903  0.138162  0.373826  1
  Ti  Ti4  1  0.382097  0.861838  0.626174  1
  Ti  Ti5  1  0.882097  0.638162  0.626174  1
  Ti  Ti6  1  0.382097  0.361838  0.873826  1
  Ti  Ti7  1  0.882097  0.138162  0.873826  1
  Si  Si8  1  0.693502  0.331560  0.024378  1
  Si  Si9  1  0.193502  0.168440  0.024378  1
  Si  Si10  1  0.447176  0.333220  0.224850  1
  Si  Si11  1  0.947176  0.166780  0.224850  1
  Si  Si12  1  0.447176  0.833220  0.275150  1
  Si  Si13  1  0.947176  0.666780  0.275150  1
  Si  Si14  1  0.693502  0.831560  0.475622  1
  Si  Si15  1  0.193502  0.668440  0.475622  1
  Si  Si16  1  0.806498  0.331560  0.524378  1
  Si  Si17  1  0.306498  0.168440  0.524378  1
  Si  Si18  1  0.052824  0.333220  0.724850  1
  Si  Si19  1  0.552824  0.166780  0.724850  1
  Si  Si20  1  0.052824  0.833220  0.775150  1
  Si  Si21  1  0.552824  0.666780  0.775150  1
  Si  Si22  1  0.806498  0.831560  0.975622  1
  Si  Si23  1  0.306498  0.668440  0.975622  1
  O  O24  1  0.926466  0.231847  0.055007  1
  O  O25  1  0.426466  0.268153  0.055007  1
  O  O26  1  0.811910  0.815157  0.066371  1
  O  O27  1  0.311910  0.684843  0.066371  1
  O  O28  1  0.726111  0.502566  0.056483  1
  O  O29  1  0.226111  0.997434  0.056483  1
  O  O30  1  0.431491  0.819360  0.184173  1
  O  O31  1  0.931491  0.680640  0.184173  1
  O  O32  1  0.990167  0.995437  0.194060  1
  O  O33  1  0.490167  0.504563  0.194060  1
  O  O34  1  0.680237  0.231677  0.194866  1
  O  O35  1  0.180237  0.268323  0.194866  1
  O  O36  1  0.180237  0.768323  0.305134  1
  O  O37  1  0.680237  0.731677  0.305134  1
  O  O38  1  0.990167  0.495437  0.305940  1
  O  O39  1  0.490167  0.004563  0.305940  1
  O  O40  1  0.431491  0.319360  0.315827  1
  O  O41  1  0.931491  0.180640  0.315827  1
  O  O42  1  0.726111  0.002566  0.443517  1
  O  O43  1  0.226111  0.497434  0.443517  1
  O  O44  1  0.811910  0.315157  0.433629  1
  O  O45  1  0.311910  0.184843  0.433629  1
  O  O46  1  0.426466  0.768153  0.444993  1
  O  O47  1  0.926466  0.731847  0.444993  1
  O  O48  1  0.073534  0.268153  0.555007  1
  O  O49  1  0.573534  0.231847  0.555007  1
  O  O50  1  0.688090  0.815157  0.566371  1
  O  O51  1  0.188090  0.684843  0.566371  1
  O  O52  1  0.773889  0.502566  0.556483  1
  O  O53  1  0.273889  0.997434  0.556483  1
  O  O54  1  0.068509  0.819360  0.684173  1
  O  O55  1  0.568509  0.680640  0.684173  1
  O  O56  1  0.509833  0.995437  0.694060  1
  O  O57  1  0.009833  0.504563  0.694060  1
  O  O58  1  0.319763  0.268323  0.694866  1
  O  O59  1  0.819763  0.231677  0.694866  1
  O  O60  1  0.319763  0.768323  0.805134  1
  O  O61  1  0.819763  0.731677  0.805134  1
  O  O62  1  0.509833  0.495437  0.805940  1
  O  O63  1  0.009833  0.004563  0.805940  1
  O  O64  1  0.068509  0.319360  0.815827  1
  O  O65  1  0.568509  0.180640  0.815827  1
  O  O66  1  0.773889  0.002566  0.943517  1
  O  O67  1  0.273889  0.497434  0.943517  1
  O  O68  1  0.688090  0.315157  0.933629  1
  O  O69  1  0.188090  0.184843  0.933629  1
  O  O70  1  0.073534  0.768153  0.944993  1
  O  O71  1  0.573534  0.731847  0.944993  1
