# generated using pymatgen
data_Li4Fe3NiO8
_symmetry_space_group_name_H-M   'P 1'
_cell_length_a   5.97270157
_cell_length_b   5.97270157
_cell_length_c   5.97270157
_cell_angle_alpha   59.35521474
_cell_angle_beta   59.35521474
_cell_angle_gamma   59.35521474
_symmetry_Int_Tables_number   1
_chemical_formula_structural   Li4Fe3NiO8
_chemical_formula_sum   'Li4 Fe3 Ni1 O8'
_cell_volume   148.44859293
_cell_formula_units_Z   1
loop_
 _symmetry_equiv_pos_site_id
 _symmetry_equiv_pos_as_xyz
  1  'x, y, z'
loop_
 _atom_site_type_symbol
 _atom_site_label
 _atom_site_symmetry_multiplicity
 _atom_site_fract_x
 _atom_site_fract_y
 _atom_site_fract_z
 _atom_site_occupancy
  Li  Li0  1  0.500000  0.500000  0.500000  1
  Li  Li1  1  0.500000  1.000000  0.000000  1
  Li  Li2  1  0.000000  0.000000  0.500000  1
  Li  Li3  1  0.000000  0.500000  1.000000  1
  Fe  Fe4  1  0.000000  0.500000  0.500000  1
  Fe  Fe5  1  0.500000  0.500000  1.000000  1
  Fe  Fe6  1  0.500000  0.000000  0.500000  1
  Ni  Ni7  1  0.000000  0.000000  0.000000  1
  O  O8  1  0.744105  0.744105  0.744105  1
  O  O9  1  0.742560  0.241640  0.241640  1
  O  O10  1  0.241640  0.241640  0.742560  1
  O  O11  1  0.255895  0.255895  0.255895  1
  O  O12  1  0.241640  0.742560  0.241640  1
  O  O13  1  0.257440  0.758360  0.758360  1
  O  O14  1  0.758360  0.758360  0.257440  1
  O  O15  1  0.758360  0.257440  0.758360  1
