# generated using pymatgen
data_NaBH8O7
_symmetry_space_group_name_H-M   'P 1'
_cell_length_a   6.87920391
_cell_length_b   7.06421391
_cell_length_c   7.41734755
_cell_angle_alpha   69.12590407
_cell_angle_beta   77.85534819
_cell_angle_gamma   64.01819095
_symmetry_Int_Tables_number   1
_chemical_formula_structural   NaBH8O7
_chemical_formula_sum   'Na2 B2 H16 O14'
_cell_volume   302.12456640
_cell_formula_units_Z   2
loop_
 _symmetry_equiv_pos_site_id
 _symmetry_equiv_pos_as_xyz
  1  'x, y, z'
loop_
 _atom_site_type_symbol
 _atom_site_label
 _atom_site_symmetry_multiplicity
 _atom_site_fract_x
 _atom_site_fract_y
 _atom_site_fract_z
 _atom_site_occupancy
  Na  Na0  1  0.000000  0.000000  0.000000  1
  Na  Na1  1  0.500000  0.000000  0.000000  1
  B  B2  1  0.814205  0.510322  0.632744  1
  B  B3  1  0.185795  0.489678  0.367256  1
  H  H4  1  0.826635  0.897851  0.684424  1
  H  H5  1  0.173365  0.102149  0.315576  1
  H  H6  1  0.829355  0.130611  0.652548  1
  H  H7  1  0.170645  0.869389  0.347452  1
  H  H8  1  0.409221  0.826623  0.747933  1
  H  H9  1  0.590779  0.173377  0.252067  1
  H  H10  1  0.252612  0.078704  0.676249  1
  H  H11  1  0.747388  0.921296  0.323751  1
  H  H12  1  0.187312  0.425958  0.826074  1
  H  H13  1  0.812688  0.574042  0.173926  1
  H  H14  1  0.401502  0.462259  0.810382  1
  H  H15  1  0.598498  0.537741  0.189618  1
  H  H16  1  0.823197  0.464221  0.919010  1
  H  H17  1  0.176803  0.535779  0.080990  1
  H  H18  1  0.520062  0.673608  0.509734  1
  H  H19  1  0.479938  0.326392  0.490266  1
  O  O20  1  0.791422  0.009977  0.749269  1
  O  O21  1  0.208578  0.990023  0.250731  1
  O  O22  1  0.315452  0.955675  0.793278  1
  O  O23  1  0.684548  0.044325  0.206722  1
  O  O24  1  0.303287  0.397805  0.902415  1
  O  O25  1  0.696713  0.602195  0.097585  1
  O  O26  1  0.897728  0.385085  0.820609  1
  O  O27  1  0.102272  0.614915  0.179391  1
  O  O28  1  0.574982  0.599868  0.638393  1
  O  O29  1  0.425018  0.400132  0.361607  1
  O  O30  1  0.870623  0.710590  0.536979  1
  O  O31  1  0.129377  0.289410  0.463021  1
  O  O32  1  0.889297  0.369201  0.500937  1
  O  O33  1  0.110703  0.630799  0.499063  1
