# generated using pymatgen
data_Zr11VO24
_symmetry_space_group_name_H-M   'P 1'
_cell_length_a   5.30115123
_cell_length_b   7.29651685
_cell_length_c   10.86537399
_cell_angle_alpha   90.00000000
_cell_angle_beta   90.00000000
_cell_angle_gamma   90.00000000
_symmetry_Int_Tables_number   1
_chemical_formula_structural   Zr11VO24
_chemical_formula_sum   'Zr11 V1 O24'
_cell_volume   420.27200612
_cell_formula_units_Z   1
loop_
 _symmetry_equiv_pos_site_id
 _symmetry_equiv_pos_as_xyz
  1  'x, y, z'
loop_
 _atom_site_type_symbol
 _atom_site_label
 _atom_site_symmetry_multiplicity
 _atom_site_fract_x
 _atom_site_fract_y
 _atom_site_fract_z
 _atom_site_occupancy
  Zr  Zr0  1  0.754549  0.745529  0.000000  1
  Zr  Zr1  1  0.747017  0.753126  0.333172  1
  Zr  Zr2  1  0.747017  0.753126  0.666828  1
  Zr  Zr3  1  0.254692  0.000000  0.835611  1
  Zr  Zr4  1  0.254692  0.000000  0.164389  1
  Zr  Zr5  1  0.228903  0.000000  0.500000  1
  Zr  Zr6  1  0.754549  0.254471  0.000000  1
  Zr  Zr7  1  0.747017  0.246874  0.333172  1
  Zr  Zr8  1  0.747017  0.246874  0.666828  1
  Zr  Zr9  1  0.252783  0.500000  0.827754  1
  Zr  Zr10  1  0.252783  0.500000  0.172246  1
  V  V11  1  0.267419  0.500000  0.500000  1
  O  O12  1  0.449869  0.754679  0.833295  1
  O  O13  1  0.950580  0.735932  0.831459  1
  O  O14  1  0.449869  0.754679  0.166705  1
  O  O15  1  0.950580  0.735932  0.168541  1
  O  O16  1  0.423487  0.728132  0.500000  1
  O  O17  1  0.925644  0.784218  0.500000  1
  O  O18  1  0.046368  0.000000  0.675222  1
  O  O19  1  0.540462  0.000000  0.654133  1
  O  O20  1  0.562699  0.000000  0.000000  1
  O  O21  1  0.051733  0.000000  0.000000  1
  O  O22  1  0.046368  0.000000  0.324778  1
  O  O23  1  0.540462  0.000000  0.345867  1
  O  O24  1  0.449869  0.245321  0.833295  1
  O  O25  1  0.950580  0.264068  0.831459  1
  O  O26  1  0.950580  0.264068  0.168541  1
  O  O27  1  0.449869  0.245321  0.166705  1
  O  O28  1  0.423487  0.271868  0.500000  1
  O  O29  1  0.925644  0.215782  0.500000  1
  O  O30  1  0.553724  0.500000  0.000000  1
  O  O31  1  0.063011  0.500000  0.000000  1
  O  O32  1  0.072988  0.500000  0.351975  1
  O  O33  1  0.570348  0.500000  0.319955  1
  O  O34  1  0.072988  0.500000  0.648025  1
  O  O35  1  0.570348  0.500000  0.680045  1
