# generated using pymatgen
data_Li4Mn3O8
_symmetry_space_group_name_H-M   'P 1'
_cell_length_a   8.32473654
_cell_length_b   8.32473654
_cell_length_c   8.32473654
_cell_angle_alpha   90.42738640
_cell_angle_beta   90.42738640
_cell_angle_gamma   90.42738640
_symmetry_Int_Tables_number   1
_chemical_formula_structural   Li4Mn3O8
_chemical_formula_sum   'Li16 Mn12 O32'
_cell_volume   576.86616127
_cell_formula_units_Z   4
loop_
 _symmetry_equiv_pos_site_id
 _symmetry_equiv_pos_as_xyz
  1  'x, y, z'
loop_
 _atom_site_type_symbol
 _atom_site_label
 _atom_site_symmetry_multiplicity
 _atom_site_fract_x
 _atom_site_fract_y
 _atom_site_fract_z
 _atom_site_occupancy
  Li  Li0  1  0.769373  0.804344  0.011428  1
  Li  Li1  1  0.230627  0.988572  0.195656  1
  Li  Li2  1  0.276073  0.723927  0.000000  1
  Li  Li3  1  0.388776  0.856198  0.387800  1
  Li  Li4  1  0.611224  0.612200  0.143802  1
  Li  Li5  1  0.500000  0.500000  0.500000  1
  Li  Li6  1  0.856198  0.387800  0.388776  1
  Li  Li7  1  0.143802  0.611224  0.612200  1
  Li  Li8  1  0.988572  0.195656  0.230627  1
  Li  Li9  1  0.011428  0.769373  0.804344  1
  Li  Li10  1  0.000000  0.276073  0.723927  1
  Li  Li11  1  0.723927  0.000000  0.276073  1
  Li  Li12  1  0.387800  0.388776  0.856198  1
  Li  Li13  1  0.612200  0.143802  0.611224  1
  Li  Li14  1  0.804344  0.011428  0.769373  1
  Li  Li15  1  0.195656  0.230627  0.988572  1
  Mn  Mn16  1  0.006388  0.993612  0.500000  1
  Mn  Mn17  1  0.993612  0.500000  0.006388  1
  Mn  Mn18  1  0.000000  0.742082  0.257918  1
  Mn  Mn19  1  0.742082  0.257918  0.000000  1
  Mn  Mn20  1  0.754721  0.749986  0.506399  1
  Mn  Mn21  1  0.245279  0.493601  0.250014  1
  Mn  Mn22  1  0.493601  0.250014  0.245279  1
  Mn  Mn23  1  0.506399  0.754721  0.749986  1
  Mn  Mn24  1  0.250014  0.245279  0.493601  1
  Mn  Mn25  1  0.749986  0.506399  0.754721  1
  Mn  Mn26  1  0.257918  0.000000  0.742082  1
  Mn  Mn27  1  0.500000  0.006388  0.993612  1
  O  O28  1  0.007698  0.970214  0.270196  1
  O  O29  1  0.992302  0.729804  0.029786  1
  O  O30  1  0.242718  0.007533  0.506049  1
  O  O31  1  0.757282  0.493951  0.992467  1
  O  O32  1  0.778425  0.983556  0.517338  1
  O  O33  1  0.221575  0.482662  0.016444  1
  O  O34  1  0.232852  0.724369  0.251127  1
  O  O35  1  0.767148  0.748873  0.275631  1
  O  O36  1  0.029786  0.992302  0.729804  1
  O  O37  1  0.970214  0.270196  0.007698  1
  O  O38  1  0.530747  0.752182  0.522548  1
  O  O39  1  0.469253  0.477452  0.247818  1
  O  O40  1  0.007533  0.506049  0.242718  1
  O  O41  1  0.992467  0.757282  0.493951  1
  O  O42  1  0.724369  0.251127  0.232852  1
  O  O43  1  0.275631  0.767148  0.748873  1
  O  O44  1  0.747278  0.747278  0.747278  1
  O  O45  1  0.252722  0.252722  0.252722  1
  O  O46  1  0.247818  0.469253  0.477452  1
  O  O47  1  0.752182  0.522548  0.530747  1
  O  O48  1  0.517338  0.778425  0.983556  1
  O  O49  1  0.482662  0.016444  0.221575  1
  O  O50  1  0.522548  0.530747  0.752182  1
  O  O51  1  0.477452  0.247818  0.469253  1
  O  O52  1  0.016444  0.221575  0.482662  1
  O  O53  1  0.983556  0.517338  0.778425  1
  O  O54  1  0.251127  0.232852  0.724369  1
  O  O55  1  0.748873  0.275631  0.767148  1
  O  O56  1  0.493951  0.992467  0.757282  1
  O  O57  1  0.506049  0.242718  0.007533  1
  O  O58  1  0.729804  0.029786  0.992302  1
  O  O59  1  0.270196  0.007698  0.970214  1
