# generated using pymatgen
data_Li6CrNiP2(CO7)2
_symmetry_space_group_name_H-M   'P 1'
_cell_length_a   4.99610730
_cell_length_b   6.44399233
_cell_length_c   8.51508704
_cell_angle_alpha   90.00000000
_cell_angle_beta   94.60369443
_cell_angle_gamma   90.00000000
_symmetry_Int_Tables_number   1
_chemical_formula_structural   Li6CrNiP2(CO7)2
_chemical_formula_sum   'Li6 Cr1 Ni1 P2 C2 O14'
_cell_volume   273.25771732
_cell_formula_units_Z   1
loop_
 _symmetry_equiv_pos_site_id
 _symmetry_equiv_pos_as_xyz
  1  'x, y, z'
loop_
 _atom_site_type_symbol
 _atom_site_label
 _atom_site_symmetry_multiplicity
 _atom_site_fract_x
 _atom_site_fract_y
 _atom_site_fract_z
 _atom_site_occupancy
  Li  Li0  1  0.766024  0.500000  0.902289  1
  Li  Li1  1  0.252746  0.271182  0.725128  1
  Li  Li2  1  0.252746  0.728818  0.725128  1
  Li  Li3  1  0.750262  0.770805  0.274049  1
  Li  Li4  1  0.750262  0.229195  0.274049  1
  Li  Li5  1  0.234410  0.000000  0.102149  1
  Cr  Cr6  1  0.788195  0.000000  0.664554  1
  Ni  Ni7  1  0.206997  0.500000  0.332451  1
  P  P8  1  0.719599  0.500000  0.583658  1
  P  P9  1  0.278906  0.000000  0.410085  1
  C  C10  1  0.704829  0.000000  0.967731  1
  C  C11  1  0.297632  0.500000  0.038542  1
  O  O12  1  0.953426  0.000000  0.937848  1
  O  O13  1  0.361266  0.500000  0.893121  1
  O  O14  1  0.519537  0.000000  0.849746  1
  O  O15  1  0.824693  0.313971  0.688686  1
  O  O16  1  0.824693  0.686029  0.688686  1
  O  O17  1  0.183227  0.000000  0.579150  1
  O  O18  1  0.406308  0.500000  0.563295  1
  O  O19  1  0.590759  0.000000  0.421038  1
  O  O20  1  0.825810  0.500000  0.418831  1
  O  O21  1  0.169106  0.188602  0.310748  1
  O  O22  1  0.169106  0.811398  0.310748  1
  O  O23  1  0.485239  0.500000  0.154238  1
  O  O24  1  0.634001  0.000000  0.110644  1
  O  O25  1  0.050222  0.500000  0.073408  1
