# generated using pymatgen
data_Li4Ni3SbO8
_symmetry_space_group_name_H-M   'P 1'
_cell_length_a   5.98403789
_cell_length_b   5.98403789
_cell_length_c   5.98403789
_cell_angle_alpha   59.95841542
_cell_angle_beta   59.95841542
_cell_angle_gamma   59.95841542
_symmetry_Int_Tables_number   1
_chemical_formula_structural   Li4Ni3SbO8
_chemical_formula_sum   'Li4 Ni3 Sb1 O8'
_cell_volume   151.37642432
_cell_formula_units_Z   1
loop_
 _symmetry_equiv_pos_site_id
 _symmetry_equiv_pos_as_xyz
  1  'x, y, z'
loop_
 _atom_site_type_symbol
 _atom_site_label
 _atom_site_symmetry_multiplicity
 _atom_site_fract_x
 _atom_site_fract_y
 _atom_site_fract_z
 _atom_site_occupancy
  Li  Li0  1  0.500000  0.500000  0.500000  1
  Li  Li1  1  0.000000  0.500000  0.000000  1
  Li  Li2  1  1.000000  0.000000  0.500000  1
  Li  Li3  1  0.500000  0.000000  0.000000  1
  Ni  Ni4  1  0.500000  0.000000  0.500000  1
  Ni  Ni5  1  0.500000  0.500000  0.000000  1
  Ni  Ni6  1  1.000000  0.500000  0.500000  1
  Sb  Sb7  1  0.000000  0.000000  0.000000  1
  O  O8  1  0.262607  0.262607  0.262607  1
  O  O9  1  0.761731  0.240687  0.761731  1
  O  O10  1  0.761731  0.761731  0.240687  1
  O  O11  1  0.737393  0.737393  0.737393  1
  O  O12  1  0.240687  0.761731  0.761731  1
  O  O13  1  0.238269  0.759313  0.238269  1
  O  O14  1  0.238269  0.238269  0.759313  1
  O  O15  1  0.759313  0.238269  0.238269  1
