# generated using pymatgen
data_LiFeP2H5O9
_symmetry_space_group_name_H-M   'P 1'
_cell_length_a   7.55861015
_cell_length_b   7.63334675
_cell_length_c   8.01196169
_cell_angle_alpha   82.36331929
_cell_angle_beta   114.89563299
_cell_angle_gamma   111.24685077
_symmetry_Int_Tables_number   1
_chemical_formula_structural   LiFeP2H5O9
_chemical_formula_sum   'Li2 Fe2 P4 H10 O18'
_cell_volume   390.70674119
_cell_formula_units_Z   2
loop_
 _symmetry_equiv_pos_site_id
 _symmetry_equiv_pos_as_xyz
  1  'x, y, z'
loop_
 _atom_site_type_symbol
 _atom_site_label
 _atom_site_symmetry_multiplicity
 _atom_site_fract_x
 _atom_site_fract_y
 _atom_site_fract_z
 _atom_site_occupancy
  Li  Li0  1  0.216683  0.166118  0.240779  1
  Li  Li1  1  0.783317  0.833882  0.759221  1
  Fe  Fe2  1  0.773189  0.260207  0.035503  1
  Fe  Fe3  1  0.226811  0.739793  0.964497  1
  P  P4  1  0.314163  0.081599  0.724767  1
  P  P5  1  0.958908  0.366698  0.742295  1
  P  P6  1  0.041092  0.633302  0.257705  1
  P  P7  1  0.685837  0.918401  0.275233  1
  H  H8  1  0.707900  0.139306  0.431562  1
  H  H9  1  0.080638  0.205644  0.545070  1
  H  H10  1  0.637091  0.421326  0.271484  1
  H  H11  1  0.691603  0.451812  0.545453  1
  H  H12  1  0.496767  0.526547  0.271065  1
  H  H13  1  0.503233  0.473453  0.728935  1
  H  H14  1  0.308397  0.548188  0.454547  1
  H  H15  1  0.362909  0.578674  0.728516  1
  H  H16  1  0.919362  0.794356  0.454930  1
  H  H17  1  0.292100  0.860694  0.568438  1
  O  O18  1  0.837652  0.040666  0.191844  1
  O  O19  1  0.588785  0.041895  0.332177  1
  O  O20  1  0.919237  0.258687  0.574380  1
  O  O21  1  0.936514  0.235219  0.901618  1
  O  O22  1  0.490789  0.242496  0.849919  1
  O  O23  1  0.194626  0.166282  0.536659  1
  O  O24  1  0.827881  0.474708  0.189727  1
  O  O25  1  0.528673  0.409551  0.317463  1
  O  O26  1  0.787575  0.467848  0.680735  1
  O  O27  1  0.212425  0.532152  0.319265  1
  O  O28  1  0.471327  0.590449  0.682537  1
  O  O29  1  0.172119  0.525292  0.810273  1
  O  O30  1  0.805374  0.833718  0.463341  1
  O  O31  1  0.509211  0.757504  0.150081  1
  O  O32  1  0.063486  0.764781  0.098382  1
  O  O33  1  0.080763  0.741313  0.425620  1
  O  O34  1  0.411215  0.958105  0.667823  1
  O  O35  1  0.162348  0.959334  0.808156  1
