# generated using pymatgen
data_NaCr6O11
_symmetry_space_group_name_H-M   'P 1'
_cell_length_a   5.82414737
_cell_length_b   5.82414737
_cell_length_c   12.99973225
_cell_angle_alpha   90.00000000
_cell_angle_beta   90.00000000
_cell_angle_gamma   120.00000000
_symmetry_Int_Tables_number   1
_chemical_formula_structural   NaCr6O11
_chemical_formula_sum   'Na2 Cr12 O22'
_cell_volume   381.88249445
_cell_formula_units_Z   2
loop_
 _symmetry_equiv_pos_site_id
 _symmetry_equiv_pos_as_xyz
  1  'x, y, z'
loop_
 _atom_site_type_symbol
 _atom_site_label
 _atom_site_symmetry_multiplicity
 _atom_site_fract_x
 _atom_site_fract_y
 _atom_site_fract_z
 _atom_site_occupancy
  Na  Na0  1  0.333333  0.666667  0.253843  1
  Na  Na1  1  0.666667  0.333333  0.753843  1
  Cr  Cr2  1  0.000109  0.500054  0.000430  1
  Cr  Cr3  1  0.333333  0.666667  0.750309  1
  Cr  Cr4  1  0.000000  0.000000  0.145816  1
  Cr  Cr5  1  0.000000  0.000000  0.354943  1
  Cr  Cr6  1  0.000000  0.000000  0.645816  1
  Cr  Cr7  1  0.000000  0.000000  0.854943  1
  Cr  Cr8  1  0.499946  0.999891  0.000430  1
  Cr  Cr9  1  0.499946  0.500054  0.000430  1
  Cr  Cr10  1  0.500054  0.499946  0.500430  1
  Cr  Cr11  1  0.666667  0.333333  0.250309  1
  Cr  Cr12  1  0.500054  0.000109  0.500430  1
  Cr  Cr13  1  0.999891  0.499946  0.500430  1
  O  O14  1  0.154311  0.845689  0.750302  1
  O  O15  1  0.175505  0.824495  0.422377  1
  O  O16  1  0.175802  0.824198  0.078539  1
  O  O17  1  0.333333  0.666667  0.913101  1
  O  O18  1  0.333333  0.666667  0.587716  1
  O  O19  1  0.154311  0.308622  0.750302  1
  O  O20  1  0.175505  0.351010  0.422377  1
  O  O21  1  0.175802  0.351604  0.078539  1
  O  O22  1  0.308622  0.154311  0.250302  1
  O  O23  1  0.648396  0.824198  0.078539  1
  O  O24  1  0.648990  0.824495  0.422377  1
  O  O25  1  0.351010  0.175505  0.922377  1
  O  O26  1  0.351604  0.175802  0.578539  1
  O  O27  1  0.691378  0.845689  0.750302  1
  O  O28  1  0.845689  0.691378  0.250302  1
  O  O29  1  0.666667  0.333333  0.087716  1
  O  O30  1  0.824198  0.648396  0.578539  1
  O  O31  1  0.666667  0.333333  0.413101  1
  O  O32  1  0.824495  0.648990  0.922377  1
  O  O33  1  0.824198  0.175802  0.578539  1
  O  O34  1  0.824495  0.175505  0.922377  1
  O  O35  1  0.845689  0.154311  0.250302  1
