# generated using pymatgen
data_Na2SnO3
_symmetry_space_group_name_H-M   'P 1'
_cell_length_a   5.61509403
_cell_length_b   5.61509403
_cell_length_c   5.85071848
_cell_angle_alpha   80.62135629
_cell_angle_beta   99.37864371
_cell_angle_gamma   60.11573571
_symmetry_Int_Tables_number   1
_chemical_formula_structural   Na2SnO3
_chemical_formula_sum   'Na4 Sn2 O6'
_cell_volume   151.23912676
_cell_formula_units_Z   2
loop_
 _symmetry_equiv_pos_site_id
 _symmetry_equiv_pos_as_xyz
  1  'x, y, z'
loop_
 _atom_site_type_symbol
 _atom_site_label
 _atom_site_symmetry_multiplicity
 _atom_site_fract_x
 _atom_site_fract_y
 _atom_site_fract_z
 _atom_site_occupancy
  Na  Na0  1  0.500000  0.500000  0.000000  1
  Na  Na1  1  0.844275  0.844275  0.000000  1
  Na  Na2  1  0.155725  0.155725  0.000000  1
  Na  Na3  1  0.000000  1.000000  0.500000  1
  Sn  Sn4  1  0.668495  0.668495  0.500000  1
  Sn  Sn5  1  0.331505  0.331505  0.500000  1
  O  O6  1  0.560068  0.074949  0.286630  1
  O  O7  1  0.439932  0.925051  0.713370  1
  O  O8  1  0.703128  0.296872  0.712868  1
  O  O9  1  0.925051  0.439932  0.286630  1
  O  O10  1  0.074949  0.560068  0.713370  1
  O  O11  1  0.296872  0.703128  0.287132  1
