# generated using pymatgen
data_Li5SbS4
_symmetry_space_group_name_H-M   'P 1'
_cell_length_a   7.87392693
_cell_length_b   7.87392693
_cell_length_c   7.87392693
_cell_angle_alpha   151.20835730
_cell_angle_beta   126.04864123
_cell_angle_gamma   62.29956321
_symmetry_Int_Tables_number   1
_chemical_formula_structural   Li5SbS4
_chemical_formula_sum   'Li5 Sb1 S4'
_cell_volume   188.46688481
_cell_formula_units_Z   1
loop_
 _symmetry_equiv_pos_site_id
 _symmetry_equiv_pos_as_xyz
  1  'x, y, z'
loop_
 _atom_site_type_symbol
 _atom_site_label
 _atom_site_symmetry_multiplicity
 _atom_site_fract_x
 _atom_site_fract_y
 _atom_site_fract_z
 _atom_site_occupancy
  Li  Li0  1  0.393561  0.176425  0.217136  1
  Li  Li1  1  0.959289  0.176425  0.782864  1
  Li  Li2  1  0.040711  0.823575  0.217136  1
  Li  Li3  1  0.606439  0.823575  0.782864  1
  Li  Li4  1  0.500000  0.500000  0.000000  1
  Sb  Sb5  1  1.000000  0.500000  0.500000  1
  S  S6  1  0.729554  1.000000  0.729554  1
  S  S7  1  0.210396  0.710396  0.500000  1
  S  S8  1  0.789604  0.289604  0.500000  1
  S  S9  1  0.270446  0.000000  0.270446  1
