# generated using pymatgen
data_PH6N3O
_symmetry_space_group_name_H-M   'P 1'
_cell_length_a   5.44831413
_cell_length_b   8.91969807
_cell_length_c   8.56524287
_cell_angle_alpha   90.00000000
_cell_angle_beta   94.44737972
_cell_angle_gamma   90.00000000
_symmetry_Int_Tables_number   1
_chemical_formula_structural   PH6N3O
_chemical_formula_sum   'P4 H24 N12 O4'
_cell_volume   414.99448900
_cell_formula_units_Z   4
loop_
 _symmetry_equiv_pos_site_id
 _symmetry_equiv_pos_as_xyz
  1  'x, y, z'
loop_
 _atom_site_type_symbol
 _atom_site_label
 _atom_site_symmetry_multiplicity
 _atom_site_fract_x
 _atom_site_fract_y
 _atom_site_fract_z
 _atom_site_occupancy
  P  P0  1  0.333894  0.525533  0.748383  1
  P  P1  1  0.166106  0.025533  0.251617  1
  P  P2  1  0.666106  0.474467  0.251617  1
  P  P3  1  0.833894  0.974467  0.748383  1
  H  H4  1  0.431108  0.733849  0.894465  1
  H  H5  1  0.068892  0.233849  0.105535  1
  H  H6  1  0.568892  0.266151  0.105535  1
  H  H7  1  0.931108  0.766151  0.894465  1
  H  H8  1  0.298760  0.603473  0.002531  1
  H  H9  1  0.201240  0.103473  0.997469  1
  H  H10  1  0.701240  0.396527  0.997469  1
  H  H11  1  0.798760  0.896527  0.002531  1
  H  H12  1  0.139674  0.708939  0.598600  1
  H  H13  1  0.360326  0.208939  0.401400  1
  H  H14  1  0.860326  0.291061  0.401400  1
  H  H15  1  0.639674  0.791061  0.598600  1
  H  H16  1  0.322995  0.604259  0.488775  1
  H  H17  1  0.177005  0.104259  0.511225  1
  H  H18  1  0.677005  0.395741  0.511225  1
  H  H19  1  0.822995  0.895741  0.488775  1
  H  H20  1  0.132725  0.295771  0.745985  1
  H  H21  1  0.367275  0.795771  0.254015  1
  H  H22  1  0.867275  0.704229  0.254015  1
  H  H23  1  0.632725  0.204229  0.745985  1
  H  H24  1  0.931739  0.440582  0.766573  1
  H  H25  1  0.568261  0.940582  0.233427  1
  H  H26  1  0.068261  0.559418  0.233427  1
  H  H27  1  0.431739  0.059418  0.766573  1
  N  N28  1  0.307336  0.647208  0.892951  1
  N  N29  1  0.192664  0.147208  0.107049  1
  N  N30  1  0.692664  0.352792  0.107049  1
  N  N31  1  0.807336  0.852792  0.892951  1
  N  N32  1  0.296274  0.644872  0.598425  1
  N  N33  1  0.203726  0.144872  0.401575  1
  N  N34  1  0.703726  0.355128  0.401575  1
  N  N35  1  0.796274  0.855128  0.598425  1
  N  N36  1  0.111447  0.405943  0.775631  1
  N  N37  1  0.388553  0.905943  0.224369  1
  N  N38  1  0.888553  0.594057  0.224369  1
  N  N39  1  0.611447  0.094057  0.775631  1
  O  O40  1  0.570161  0.438564  0.736704  1
  O  O41  1  0.929839  0.938564  0.263296  1
  O  O42  1  0.429839  0.561436  0.263296  1
  O  O43  1  0.070161  0.061436  0.736704  1
