# generated using pymatgen
data_Mg(IO3)2
_symmetry_space_group_name_H-M   'P 1'
_cell_length_a   5.30392339
_cell_length_b   6.75060019
_cell_length_c   14.78055242
_cell_angle_alpha   90.00000000
_cell_angle_beta   90.00000000
_cell_angle_gamma   90.00000000
_symmetry_Int_Tables_number   1
_chemical_formula_structural   Mg(IO3)2
_chemical_formula_sum   'Mg4 I8 O24'
_cell_volume   529.21274630
_cell_formula_units_Z   4
loop_
 _symmetry_equiv_pos_site_id
 _symmetry_equiv_pos_as_xyz
  1  'x, y, z'
loop_
 _atom_site_type_symbol
 _atom_site_label
 _atom_site_symmetry_multiplicity
 _atom_site_fract_x
 _atom_site_fract_y
 _atom_site_fract_z
 _atom_site_occupancy
  Mg  Mg0  1  0.250000  0.860765  0.000000  1
  Mg  Mg1  1  0.750000  0.139235  0.000000  1
  Mg  Mg2  1  0.750000  0.639235  0.500000  1
  Mg  Mg3  1  0.250000  0.360765  0.500000  1
  I  I4  1  0.748242  0.714429  0.149774  1
  I  I5  1  0.248242  0.285571  0.149774  1
  I  I6  1  0.248242  0.785571  0.350226  1
  I  I7  1  0.748242  0.214429  0.350226  1
  I  I8  1  0.251758  0.785571  0.649774  1
  I  I9  1  0.751758  0.214429  0.649774  1
  I  I10  1  0.751758  0.714429  0.850226  1
  I  I11  1  0.251758  0.285571  0.850226  1
  O  O12  1  0.580169  0.897286  0.076893  1
  O  O13  1  0.080169  0.102714  0.076893  1
  O  O14  1  0.033591  0.666225  0.081085  1
  O  O15  1  0.533591  0.333775  0.081085  1
  O  O16  1  0.369582  0.623347  0.262931  1
  O  O17  1  0.869582  0.376653  0.262931  1
  O  O18  1  0.869582  0.876653  0.237069  1
  O  O19  1  0.369582  0.123347  0.237069  1
  O  O20  1  0.533591  0.833775  0.418915  1
  O  O21  1  0.033591  0.166225  0.418915  1
  O  O22  1  0.080169  0.602714  0.423107  1
  O  O23  1  0.580169  0.397286  0.423107  1
  O  O24  1  0.419831  0.602714  0.576893  1
  O  O25  1  0.919831  0.397286  0.576893  1
  O  O26  1  0.966409  0.833775  0.581085  1
  O  O27  1  0.466409  0.166225  0.581085  1
  O  O28  1  0.630418  0.876653  0.762931  1
  O  O29  1  0.130418  0.123347  0.762931  1
  O  O30  1  0.130418  0.623347  0.737069  1
  O  O31  1  0.630418  0.376653  0.737069  1
  O  O32  1  0.466409  0.666225  0.918915  1
  O  O33  1  0.966409  0.333775  0.918915  1
  O  O34  1  0.919831  0.897286  0.923107  1
  O  O35  1  0.419831  0.102714  0.923107  1
