# generated using pymatgen
data_KFePCO7
_symmetry_space_group_name_H-M   'P 1'
_cell_length_a   5.44588633
_cell_length_b   6.43915623
_cell_length_c   10.03121988
_cell_angle_alpha   90.00000000
_cell_angle_beta   91.26149444
_cell_angle_gamma   90.00000000
_symmetry_Int_Tables_number   1
_chemical_formula_structural   KFePCO7
_chemical_formula_sum   'K2 Fe2 P2 C2 O14'
_cell_volume   351.67865651
_cell_formula_units_Z   2
loop_
 _symmetry_equiv_pos_site_id
 _symmetry_equiv_pos_as_xyz
  1  'x, y, z'
loop_
 _atom_site_type_symbol
 _atom_site_label
 _atom_site_symmetry_multiplicity
 _atom_site_fract_x
 _atom_site_fract_y
 _atom_site_fract_z
 _atom_site_occupancy
  K  K0  1  0.752921  0.579604  0.241529  1
  K  K1  1  0.247079  0.079604  0.758471  1
  Fe  Fe2  1  0.219708  0.226770  0.362431  1
  Fe  Fe3  1  0.780292  0.726770  0.637569  1
  P  P4  1  0.273016  0.733421  0.439760  1
  P  P5  1  0.726984  0.233421  0.560240  1
  C  C6  1  0.279619  0.256109  0.110110  1
  C  C7  1  0.720381  0.756109  0.889890  1
  O  O8  1  0.684097  0.780791  0.012137  1
  O  O9  1  0.062934  0.247946  0.160506  1
  O  O10  1  0.458613  0.239619  0.197378  1
  O  O11  1  0.221888  0.923463  0.349324  1
  O  O12  1  0.225077  0.540923  0.350590  1
  O  O13  1  0.893004  0.238977  0.437085  1
  O  O14  1  0.547149  0.734526  0.487347  1
  O  O15  1  0.452851  0.234526  0.512653  1
  O  O16  1  0.106996  0.738977  0.562915  1
  O  O17  1  0.774923  0.040923  0.649410  1
  O  O18  1  0.778112  0.423463  0.650676  1
  O  O19  1  0.541387  0.739619  0.802622  1
  O  O20  1  0.937066  0.747946  0.839494  1
  O  O21  1  0.315903  0.280791  0.987863  1
