# generated using pymatgen
data_Fe2NiO4
_symmetry_space_group_name_H-M   'P 1'
_cell_length_a   5.99315954
_cell_length_b   5.99315954
_cell_length_c   19.92552804
_cell_angle_alpha   81.01451553
_cell_angle_beta   98.98548447
_cell_angle_gamma   119.65263922
_symmetry_Int_Tables_number   1
_chemical_formula_structural   Fe2NiO4
_chemical_formula_sum   'Fe16 Ni8 O32'
_cell_volume   611.72456945
_cell_formula_units_Z   8
loop_
 _symmetry_equiv_pos_site_id
 _symmetry_equiv_pos_as_xyz
  1  'x, y, z'
loop_
 _atom_site_type_symbol
 _atom_site_label
 _atom_site_symmetry_multiplicity
 _atom_site_fract_x
 _atom_site_fract_y
 _atom_site_fract_z
 _atom_site_occupancy
  Fe  Fe0  1  0.691398  0.308602  0.061600  1
  Fe  Fe1  1  0.722213  0.782590  0.154172  1
  Fe  Fe2  1  0.439195  0.560805  0.310571  1
  Fe  Fe3  1  0.496468  0.503532  0.500800  1
  Fe  Fe4  1  0.344595  0.655405  0.029999  1
  Fe  Fe5  1  0.217410  0.277787  0.154172  1
  Fe  Fe6  1  0.470449  0.033994  0.407285  1
  Fe  Fe7  1  0.190242  0.809758  0.562834  1
  Fe  Fe8  1  0.247538  0.752462  0.750231  1
  Fe  Fe9  1  0.092822  0.907178  0.277733  1
  Fe  Fe10  1  0.966006  0.529551  0.407285  1
  Fe  Fe11  1  0.219180  0.280973  0.656932  1
  Fe  Fe12  1  0.941097  0.058903  0.813655  1
  Fe  Fe13  1  0.719027  0.780820  0.656932  1
  Fe  Fe14  1  0.973250  0.530317  0.907380  1
  Fe  Fe15  1  0.469683  0.026750  0.907380  1
  Ni  Ni16  1  0.998756  0.001244  0.999393  1
  Ni  Ni17  1  0.749286  0.250714  0.251619  1
  Ni  Ni18  1  0.216884  0.783116  0.155003  1
  Ni  Ni19  1  0.966992  0.033008  0.406610  1
  Ni  Ni20  1  0.718891  0.281109  0.656727  1
  Ni  Ni21  1  0.844504  0.155496  0.531403  1
  Ni  Ni22  1  0.468879  0.531121  0.907577  1
  Ni  Ni23  1  0.593972  0.406028  0.782893  1
  O  O24  1  0.521316  0.943815  0.091820  1
  O  O25  1  0.056185  0.478684  0.091820  1
  O  O26  1  0.407555  0.592445  0.212570  1
  O  O27  1  0.272432  0.199310  0.343638  1
  O  O28  1  0.521371  0.478629  0.093233  1
  O  O29  1  0.915649  0.084351  0.213434  1
  O  O30  1  0.800690  0.727568  0.343638  1
  O  O31  1  0.380786  0.087762  0.216454  1
  O  O32  1  0.155081  0.844919  0.462565  1
  O  O33  1  0.027917  0.972083  0.099707  1
  O  O34  1  0.660504  0.339496  0.466466  1
  O  O35  1  0.271827  0.728173  0.345146  1
  O  O36  1  0.036781  0.453368  0.593937  1
  O  O37  1  0.912238  0.619214  0.216454  1
  O  O38  1  0.546632  0.963219  0.593937  1
  O  O39  1  0.900298  0.099702  0.712579  1
  O  O40  1  0.777650  0.222350  0.353875  1
  O  O41  1  0.140786  0.342412  0.467328  1
  O  O42  1  0.024910  0.975090  0.597314  1
  O  O43  1  0.657588  0.859214  0.467328  1
  O  O44  1  0.780619  0.703323  0.847530  1
  O  O45  1  0.412335  0.587665  0.715079  1
  O  O46  1  0.891002  0.598647  0.718329  1
  O  O47  1  0.658685  0.341315  0.963858  1
  O  O48  1  0.296677  0.219381  0.847530  1
  O  O49  1  0.537707  0.462293  0.601048  1
  O  O50  1  0.175008  0.824992  0.967498  1
  O  O51  1  0.401353  0.108998  0.718329  1
  O  O52  1  0.777951  0.222049  0.848710  1
  O  O53  1  0.623323  0.832274  0.970025  1
  O  O54  1  0.280678  0.719322  0.848612  1
  O  O55  1  0.167726  0.376677  0.970025  1
