# generated using pymatgen
data_LiCo2C2O7
_symmetry_space_group_name_H-M   'P 1'
_cell_length_a   9.68430635
_cell_length_b   6.31060382
_cell_length_c   9.95513775
_cell_angle_alpha   90.00000000
_cell_angle_beta   106.78245082
_cell_angle_gamma   90.00000000
_symmetry_Int_Tables_number   1
_chemical_formula_structural   LiCo2C2O7
_chemical_formula_sum   'Li4 Co8 C8 O28'
_cell_volume   582.48366717
_cell_formula_units_Z   4
loop_
 _symmetry_equiv_pos_site_id
 _symmetry_equiv_pos_as_xyz
  1  'x, y, z'
loop_
 _atom_site_type_symbol
 _atom_site_label
 _atom_site_symmetry_multiplicity
 _atom_site_fract_x
 _atom_site_fract_y
 _atom_site_fract_z
 _atom_site_occupancy
  Li  Li0  1  0.507113  0.400932  0.772503  1
  Li  Li1  1  0.492887  0.900932  0.727497  1
  Li  Li2  1  0.507113  0.099068  0.272503  1
  Li  Li3  1  0.492887  0.599068  0.227497  1
  Co  Co4  1  0.980328  0.400659  0.728410  1
  Co  Co5  1  0.980328  0.099341  0.228410  1
  Co  Co6  1  0.202413  0.659350  0.638627  1
  Co  Co7  1  0.202413  0.840650  0.138627  1
  Co  Co8  1  0.797587  0.159350  0.861373  1
  Co  Co9  1  0.797587  0.340650  0.361373  1
  Co  Co10  1  0.019672  0.900659  0.771590  1
  Co  Co11  1  0.019672  0.599341  0.271590  1
  C  C12  1  0.224114  0.165307  0.673112  1
  C  C13  1  0.323987  0.754531  0.937401  1
  C  C14  1  0.224114  0.334693  0.173112  1
  C  C15  1  0.323987  0.745469  0.437401  1
  C  C16  1  0.676013  0.254531  0.562599  1
  C  C17  1  0.775886  0.665307  0.826888  1
  C  C18  1  0.676013  0.245469  0.062599  1
  C  C19  1  0.775886  0.834693  0.326888  1
  O  O20  1  0.996556  0.163741  0.836577  1
  O  O21  1  0.186624  0.789787  0.932541  1
  O  O22  1  0.996556  0.336259  0.336577  1
  O  O23  1  0.152071  0.988241  0.665473  1
  O  O24  1  0.153201  0.345007  0.671435  1
  O  O25  1  0.355623  0.697188  0.825592  1
  O  O26  1  0.186624  0.710213  0.432541  1
  O  O27  1  0.354753  0.169405  0.677576  1
  O  O28  1  0.152071  0.511759  0.165473  1
  O  O29  1  0.153201  0.154993  0.171435  1
  O  O30  1  0.584415  0.221980  0.942887  1
  O  O31  1  0.415585  0.721980  0.557113  1
  O  O32  1  0.355623  0.802812  0.325592  1
  O  O33  1  0.354753  0.330595  0.177576  1
  O  O34  1  0.645247  0.669405  0.822424  1
  O  O35  1  0.644377  0.197188  0.674408  1
  O  O36  1  0.584415  0.278020  0.442887  1
  O  O37  1  0.415585  0.778020  0.057113  1
  O  O38  1  0.846799  0.845007  0.828565  1
  O  O39  1  0.847929  0.488241  0.834527  1
  O  O40  1  0.645247  0.830595  0.322424  1
  O  O41  1  0.813376  0.289787  0.567459  1
  O  O42  1  0.644377  0.302812  0.174408  1
  O  O43  1  0.846799  0.654993  0.328565  1
  O  O44  1  0.847929  0.011759  0.334527  1
  O  O45  1  0.003444  0.663741  0.663423  1
  O  O46  1  0.813376  0.210213  0.067459  1
  O  O47  1  0.003444  0.836259  0.163423  1
