# generated using pymatgen
data_LiFePO4
_symmetry_space_group_name_H-M   'P 1'
_cell_length_a   8.16069815
_cell_length_b   5.30991655
_cell_length_c   8.51297751
_cell_angle_alpha   90.00000000
_cell_angle_beta   104.90193847
_cell_angle_gamma   90.00000000
_symmetry_Int_Tables_number   1
_chemical_formula_structural   LiFePO4
_chemical_formula_sum   'Li4 Fe4 P4 O16'
_cell_volume   356.48294560
_cell_formula_units_Z   4
loop_
 _symmetry_equiv_pos_site_id
 _symmetry_equiv_pos_as_xyz
  1  'x, y, z'
loop_
 _atom_site_type_symbol
 _atom_site_label
 _atom_site_symmetry_multiplicity
 _atom_site_fract_x
 _atom_site_fract_y
 _atom_site_fract_z
 _atom_site_occupancy
  Li  Li0  1  0.129913  0.340156  0.787534  1
  Li  Li1  1  0.634238  0.824814  0.616094  1
  Li  Li2  1  0.129913  0.659844  0.287534  1
  Li  Li3  1  0.634238  0.175186  0.116094  1
  Fe  Fe4  1  0.034007  0.845636  0.925213  1
  Fe  Fe5  1  0.512750  0.324662  0.738281  1
  Fe  Fe6  1  0.034007  0.154364  0.425213  1
  Fe  Fe7  1  0.512750  0.675338  0.238281  1
  P  P8  1  0.748824  0.675604  0.992021  1
  P  P9  1  0.261548  0.825263  0.666494  1
  P  P10  1  0.748824  0.324396  0.492021  1
  P  P11  1  0.261548  0.174737  0.166494  1
  O  O12  1  0.128366  0.188170  0.998143  1
  O  O13  1  0.681974  0.401281  0.951789  1
  O  O14  1  0.185780  0.701813  0.798322  1
  O  O15  1  0.297534  0.111386  0.705535  1
  O  O16  1  0.772384  0.805702  0.834954  1
  O  O17  1  0.423119  0.681284  0.658102  1
  O  O18  1  0.128366  0.811830  0.498143  1
  O  O19  1  0.620607  0.180819  0.565785  1
  O  O20  1  0.930156  0.315634  0.607934  1
  O  O21  1  0.681974  0.598719  0.451789  1
  O  O22  1  0.185780  0.298187  0.298322  1
  O  O23  1  0.297534  0.888614  0.205535  1
  O  O24  1  0.772384  0.194298  0.334954  1
  O  O25  1  0.423119  0.318716  0.158102  1
  O  O26  1  0.620607  0.819181  0.065785  1
  O  O27  1  0.930156  0.684366  0.107934  1
