# generated using pymatgen
data_FeOF
_symmetry_space_group_name_H-M   'P 1'
_cell_length_a   9.48969465
_cell_length_b   3.09614525
_cell_length_c   14.22878611
_cell_angle_alpha   90.00000000
_cell_angle_beta   90.33745062
_cell_angle_gamma   90.00000000
_symmetry_Int_Tables_number   1
_chemical_formula_structural   FeOF
_chemical_formula_sum   'Fe12 O12 F12'
_cell_volume   418.05544433
_cell_formula_units_Z   12
loop_
 _symmetry_equiv_pos_site_id
 _symmetry_equiv_pos_as_xyz
  1  'x, y, z'
loop_
 _atom_site_type_symbol
 _atom_site_label
 _atom_site_symmetry_multiplicity
 _atom_site_fract_x
 _atom_site_fract_y
 _atom_site_fract_z
 _atom_site_occupancy
  Fe  Fe0  1  0.989323  0.000000  0.008430  1
  Fe  Fe1  1  0.503421  0.000000  0.006048  1
  Fe  Fe2  1  0.278848  0.500000  0.166376  1
  Fe  Fe3  1  0.747225  0.500000  0.152679  1
  Fe  Fe4  1  0.995830  0.000000  0.342909  1
  Fe  Fe5  1  0.487355  0.000000  0.335057  1
  Fe  Fe6  1  0.774798  0.500000  0.504287  1
  Fe  Fe7  1  0.252753  0.500000  0.482032  1
  Fe  Fe8  1  0.998648  0.000000  0.669183  1
  Fe  Fe9  1  0.496600  0.000000  0.678746  1
  Fe  Fe10  1  0.243219  0.500000  0.818696  1
  Fe  Fe11  1  0.716743  0.500000  0.835923  1
  O  O12  1  0.397305  0.500000  0.060874  1
  O  O13  1  0.905186  0.500000  0.065558  1
  O  O14  1  0.653472  0.000000  0.105223  1
  O  O15  1  0.350816  0.000000  0.233470  1
  O  O16  1  0.413921  0.500000  0.401388  1
  O  O17  1  0.900461  0.500000  0.396331  1
  O  O18  1  0.154330  0.000000  0.433323  1
  O  O19  1  0.853866  0.000000  0.571346  1
  O  O20  1  0.400422  0.500000  0.730553  1
  O  O21  1  0.142266  0.000000  0.766437  1
  O  O22  1  0.657657  0.000000  0.763473  1
  O  O23  1  0.592629  0.500000  0.936066  1
  F  F24  1  0.152390  0.000000  0.100136  1
  F  F25  1  0.852031  0.000000  0.231493  1
  F  F26  1  0.093885  0.500000  0.263245  1
  F  F27  1  0.607511  0.500000  0.273046  1
  F  F28  1  0.658918  0.000000  0.438241  1
  F  F29  1  0.346617  0.000000  0.564950  1
  F  F30  1  0.100269  0.500000  0.603617  1
  F  F31  1  0.594626  0.500000  0.597261  1
  F  F32  1  0.904228  0.500000  0.735358  1
  F  F33  1  0.333510  0.000000  0.894691  1
  F  F34  1  0.852090  0.000000  0.897352  1
  F  F35  1  0.096833  0.500000  0.936204  1
