# generated using pymatgen
data_Li2VO2F
_symmetry_space_group_name_H-M   'P 1'
_cell_length_a   8.96513138
_cell_length_b   3.02528622
_cell_length_c   9.07367467
_cell_angle_alpha   90.00000000
_cell_angle_beta   109.46241774
_cell_angle_gamma   90.00000000
_symmetry_Int_Tables_number   1
_chemical_formula_structural   Li2VO2F
_chemical_formula_sum   'Li8 V4 O8 F4'
_cell_volume   232.03508385
_cell_formula_units_Z   4
loop_
 _symmetry_equiv_pos_site_id
 _symmetry_equiv_pos_as_xyz
  1  'x, y, z'
loop_
 _atom_site_type_symbol
 _atom_site_label
 _atom_site_symmetry_multiplicity
 _atom_site_fract_x
 _atom_site_fract_y
 _atom_site_fract_z
 _atom_site_occupancy
  Li  Li0  1  0.250725  0.000000  0.088860  1
  Li  Li1  1  0.739024  0.000000  0.614971  1
  Li  Li2  1  0.258180  0.000000  0.409786  1
  Li  Li3  1  0.744253  0.000000  0.880290  1
  Li  Li4  1  0.498089  0.500000  0.342008  1
  Li  Li5  1  0.000887  0.500000  0.152951  1
  Li  Li6  1  0.530063  0.500000  0.672570  1
  Li  Li7  1  0.972678  0.500000  0.852541  1
  V  V8  1  0.259884  0.000000  0.753765  1
  V  V9  1  0.747499  0.000000  0.248157  1
  V  V10  1  0.997391  0.500000  0.481796  1
  V  V11  1  0.503105  0.500000  0.003161  1
  O  O12  1  0.504124  0.000000  0.159916  1
  O  O13  1  0.997196  0.000000  0.337680  1
  O  O14  1  0.491690  0.000000  0.841962  1
  O  O15  1  0.258211  0.500000  0.906421  1
  O  O16  1  0.230888  0.500000  0.593088  1
  O  O17  1  0.741868  0.500000  0.096235  1
  O  O18  1  0.762128  0.500000  0.405390  1
  O  O19  1  0.754412  0.500000  0.749891  1
  F  F20  1  0.004648  0.000000  0.654793  1
  F  F21  1  0.013195  0.000000  0.009257  1
  F  F22  1  0.490085  0.000000  0.492600  1
  F  F23  1  0.249776  0.500000  0.251911  1
