# generated using pymatgen
data_LiMnPO4
_symmetry_space_group_name_H-M   'P 1'
_cell_length_a   5.11623941
_cell_length_b   5.11623941
_cell_length_c   15.95648842
_cell_angle_alpha   89.63851260
_cell_angle_beta   90.36148740
_cell_angle_gamma   105.96594274
_symmetry_Int_Tables_number   1
_chemical_formula_structural   LiMnPO4
_chemical_formula_sum   'Li4 Mn4 P4 O16'
_cell_volume   401.55132041
_cell_formula_units_Z   4
loop_
 _symmetry_equiv_pos_site_id
 _symmetry_equiv_pos_as_xyz
  1  'x, y, z'
loop_
 _atom_site_type_symbol
 _atom_site_label
 _atom_site_symmetry_multiplicity
 _atom_site_fract_x
 _atom_site_fract_y
 _atom_site_fract_z
 _atom_site_occupancy
  Li  Li0  1  0.705858  0.218337  0.252470  1
  Li  Li1  1  0.781663  0.294142  0.752470  1
  Li  Li2  1  0.218337  0.705858  0.247530  1
  Li  Li3  1  0.294142  0.781663  0.747530  1
  Mn  Mn4  1  0.362293  0.071915  0.085516  1
  Mn  Mn5  1  0.071915  0.362293  0.414484  1
  Mn  Mn6  1  0.928085  0.637707  0.585516  1
  Mn  Mn7  1  0.637707  0.928085  0.914484  1
  P  P8  1  0.730226  0.706343  0.370991  1
  P  P9  1  0.706343  0.730226  0.129009  1
  P  P10  1  0.293657  0.269774  0.870991  1
  P  P11  1  0.269774  0.293657  0.629009  1
  O  O12  1  0.883001  0.559930  0.310563  1
  O  O13  1  0.440070  0.116999  0.810563  1
  O  O14  1  0.018725  0.822087  0.142478  1
  O  O15  1  0.596882  0.420872  0.143863  1
  O  O16  1  0.816319  0.632711  0.460562  1
  O  O17  1  0.177913  0.981275  0.642478  1
  O  O18  1  0.579128  0.403118  0.643863  1
  O  O19  1  0.367289  0.183681  0.960562  1
  O  O20  1  0.632711  0.816319  0.039438  1
  O  O21  1  0.420872  0.596882  0.356137  1
  O  O22  1  0.822087  0.018725  0.357522  1
  O  O23  1  0.183681  0.367289  0.539438  1
  O  O24  1  0.403118  0.579128  0.856137  1
  O  O25  1  0.981275  0.177913  0.857522  1
  O  O26  1  0.559930  0.883001  0.189437  1
  O  O27  1  0.116999  0.440070  0.689437  1
