# generated using pymatgen
data_LiCrPO4
_symmetry_space_group_name_H-M   'P 1'
_cell_length_a   5.02936753
_cell_length_b   8.30133522
_cell_length_c   16.71032300
_cell_angle_alpha   90.00000000
_cell_angle_beta   90.00000000
_cell_angle_gamma   90.00000000
_symmetry_Int_Tables_number   1
_chemical_formula_structural   LiCrPO4
_chemical_formula_sum   'Li8 Cr8 P8 O32'
_cell_volume   697.66376910
_cell_formula_units_Z   8
loop_
 _symmetry_equiv_pos_site_id
 _symmetry_equiv_pos_as_xyz
  1  'x, y, z'
loop_
 _atom_site_type_symbol
 _atom_site_label
 _atom_site_symmetry_multiplicity
 _atom_site_fract_x
 _atom_site_fract_y
 _atom_site_fract_z
 _atom_site_occupancy
  Li  Li0  1  0.941306  0.030719  0.943533  1
  Li  Li1  1  0.466504  0.140499  0.363350  1
  Li  Li2  1  0.966504  0.359501  0.863350  1
  Li  Li3  1  0.441306  0.469281  0.443533  1
  Li  Li4  1  0.941306  0.530719  0.556467  1
  Li  Li5  1  0.466504  0.640499  0.136650  1
  Li  Li6  1  0.966504  0.859501  0.636650  1
  Li  Li7  1  0.441306  0.969281  0.056467  1
  Cr  Cr8  1  0.523078  0.131186  0.748953  1
  Cr  Cr9  1  0.477472  0.149949  0.552961  1
  Cr  Cr10  1  0.977472  0.350051  0.052961  1
  Cr  Cr11  1  0.023078  0.368814  0.248953  1
  Cr  Cr12  1  0.523078  0.631186  0.751047  1
  Cr  Cr13  1  0.477472  0.649949  0.947039  1
  Cr  Cr14  1  0.977472  0.850051  0.447039  1
  Cr  Cr15  1  0.023078  0.868814  0.251047  1
  P  P16  1  0.948810  0.228269  0.676843  1
  P  P17  1  0.436062  0.240586  0.934471  1
  P  P18  1  0.936062  0.259414  0.434471  1
  P  P19  1  0.448810  0.271731  0.176843  1
  P  P20  1  0.948810  0.728269  0.823157  1
  P  P21  1  0.436062  0.740586  0.565529  1
  P  P22  1  0.936062  0.759414  0.065529  1
  P  P23  1  0.448810  0.771731  0.323157  1
  O  O24  1  0.756890  0.086680  0.644705  1
  O  O25  1  0.318644  0.082229  0.963785  1
  O  O26  1  0.773857  0.113036  0.469174  1
  O  O27  1  0.366945  0.112179  0.142556  1
  O  O28  1  0.239851  0.175516  0.657499  1
  O  O29  1  0.739483  0.256993  0.956519  1
  O  O30  1  0.904839  0.216036  0.768918  1
  O  O31  1  0.897430  0.241131  0.342718  1
  O  O32  1  0.397430  0.258869  0.842718  1
  O  O33  1  0.404839  0.283964  0.268918  1
  O  O34  1  0.239483  0.243007  0.456519  1
  O  O35  1  0.739851  0.324484  0.157499  1
  O  O36  1  0.866945  0.387821  0.642556  1
  O  O37  1  0.273857  0.386964  0.969174  1
  O  O38  1  0.818644  0.417771  0.463785  1
  O  O39  1  0.256890  0.413320  0.144705  1
  O  O40  1  0.756890  0.586680  0.855295  1
  O  O41  1  0.318644  0.582229  0.536215  1
  O  O42  1  0.773857  0.613036  0.030826  1
  O  O43  1  0.366945  0.612179  0.357444  1
  O  O44  1  0.239851  0.675516  0.842501  1
  O  O45  1  0.739483  0.756993  0.543481  1
  O  O46  1  0.904839  0.716036  0.731082  1
  O  O47  1  0.897430  0.741131  0.157282  1
  O  O48  1  0.397430  0.758869  0.657282  1
  O  O49  1  0.404839  0.783964  0.231082  1
  O  O50  1  0.239483  0.743007  0.043481  1
  O  O51  1  0.739851  0.824484  0.342501  1
  O  O52  1  0.866945  0.887821  0.857444  1
  O  O53  1  0.273857  0.886964  0.530826  1
  O  O54  1  0.818644  0.917771  0.036215  1
  O  O55  1  0.256890  0.913320  0.355295  1
