# generated using pymatgen
data_Sr3Nb4O13
_symmetry_space_group_name_H-M   'P 1'
_cell_length_a   18.57485129
_cell_length_b   18.57485129
_cell_length_c   18.57485129
_cell_angle_alpha   167.67129608
_cell_angle_beta   167.67129608
_cell_angle_gamma   17.46939166
_symmetry_Int_Tables_number   1
_chemical_formula_structural   Sr3Nb4O13
_chemical_formula_sum   'Sr3 Nb4 O13'
_cell_volume   292.16147450
_cell_formula_units_Z   1
loop_
 _symmetry_equiv_pos_site_id
 _symmetry_equiv_pos_as_xyz
  1  'x, y, z'
loop_
 _atom_site_type_symbol
 _atom_site_label
 _atom_site_symmetry_multiplicity
 _atom_site_fract_x
 _atom_site_fract_y
 _atom_site_fract_z
 _atom_site_occupancy
  Sr  Sr0  1  0.369814  0.369814  0.000000  1
  Sr  Sr1  1  0.500000  0.500000  0.000000  1
  Sr  Sr2  1  0.630186  0.630186  0.000000  1
  Nb  Nb3  1  0.058528  0.058528  0.000000  1
  Nb  Nb4  1  0.188209  0.188209  0.000000  1
  Nb  Nb5  1  0.811791  0.811791  0.000000  1
  Nb  Nb6  1  0.941472  0.941472  0.000000  1
  O  O7  1  0.000000  0.000000  0.000000  1
  O  O8  1  0.109763  0.109763  0.000000  1
  O  O9  1  0.052923  0.552923  0.500000  1
  O  O10  1  0.235243  0.235243  0.000000  1
  O  O11  1  0.171700  0.671700  0.500000  1
  O  O12  1  0.447077  0.947077  0.500000  1
  O  O13  1  0.328300  0.828300  0.500000  1
  O  O14  1  0.764757  0.764757  0.000000  1
  O  O15  1  0.890237  0.890237  0.000000  1
  O  O16  1  0.671700  0.171700  0.500000  1
  O  O17  1  0.828300  0.328300  0.500000  1
  O  O18  1  0.947077  0.447077  0.500000  1
  O  O19  1  0.552923  0.052923  0.500000  1
