# generated using pymatgen
data_Li3Ti2(PO4)3
_symmetry_space_group_name_H-M   'P 1'
_cell_length_a   8.62448367
_cell_length_b   8.62448367
_cell_length_c   6.45213523
_cell_angle_alpha   73.99268572
_cell_angle_beta   106.00731428
_cell_angle_gamma   86.85904212
_symmetry_Int_Tables_number   1
_chemical_formula_structural   Li3Ti2(PO4)3
_chemical_formula_sum   'Li6 Ti4 P6 O24'
_cell_volume   438.95773303
_cell_formula_units_Z   2
loop_
 _symmetry_equiv_pos_site_id
 _symmetry_equiv_pos_as_xyz
  1  'x, y, z'
loop_
 _atom_site_type_symbol
 _atom_site_label
 _atom_site_symmetry_multiplicity
 _atom_site_fract_x
 _atom_site_fract_y
 _atom_site_fract_z
 _atom_site_occupancy
  Li  Li0  1  0.997012  0.997012  0.250000  1
  Li  Li1  1  0.288554  0.288554  0.250000  1
  Li  Li2  1  0.500000  0.500000  0.500000  1
  Li  Li3  1  0.711446  0.711446  0.750000  1
  Li  Li4  1  0.002988  0.002988  0.750000  1
  Li  Li5  1  0.500000  0.500000  0.000000  1
  Ti  Ti6  1  0.948004  0.387993  0.377371  1
  Ti  Ti7  1  0.612007  0.051996  0.877371  1
  Ti  Ti8  1  0.387993  0.948004  0.122629  1
  Ti  Ti9  1  0.051996  0.612007  0.622629  1
  P  P10  1  0.662124  0.140553  0.383410  1
  P  P11  1  0.859447  0.337876  0.883410  1
  P  P12  1  0.711236  0.711236  0.250000  1
  P  P13  1  0.288764  0.288764  0.750000  1
  P  P14  1  0.140553  0.662124  0.116590  1
  P  P15  1  0.337876  0.859447  0.616590  1
  O  O16  1  0.985390  0.341188  0.106111  1
  O  O17  1  0.846038  0.164709  0.417568  1
  O  O18  1  0.608457  0.053007  0.193305  1
  O  O19  1  0.658812  0.014610  0.606111  1
  O  O20  1  0.835291  0.153962  0.917568  1
  O  O21  1  0.946993  0.391543  0.693305  1
  O  O22  1  0.544012  0.296590  0.310974  1
  O  O23  1  0.736906  0.534353  0.240094  1
  O  O24  1  0.703410  0.455988  0.810974  1
  O  O25  1  0.825396  0.738172  0.465760  1
  O  O26  1  0.738172  0.825396  0.034240  1
  O  O27  1  0.465647  0.263094  0.740094  1
  O  O28  1  0.534353  0.736906  0.259906  1
  O  O29  1  0.261828  0.174604  0.965760  1
  O  O30  1  0.174604  0.261828  0.534240  1
  O  O31  1  0.296590  0.544012  0.189026  1
  O  O32  1  0.263094  0.465647  0.759906  1
  O  O33  1  0.455988  0.703410  0.689026  1
  O  O34  1  0.053007  0.608457  0.306695  1
  O  O35  1  0.164709  0.846038  0.082432  1
  O  O36  1  0.341188  0.985390  0.393889  1
  O  O37  1  0.391543  0.946993  0.806695  1
  O  O38  1  0.153962  0.835291  0.582432  1
  O  O39  1  0.014610  0.658812  0.893889  1
