# generated using pymatgen
data_VF4
_symmetry_space_group_name_H-M   'P 1'
_cell_length_a   3.08085531
_cell_length_b   4.98434056
_cell_length_c   9.68241660
_cell_angle_alpha   90.00000000
_cell_angle_beta   90.00000000
_cell_angle_gamma   90.00000000
_symmetry_Int_Tables_number   1
_chemical_formula_structural   VF4
_chemical_formula_sum   'V2 F8'
_cell_volume   148.68349986
_cell_formula_units_Z   2
loop_
 _symmetry_equiv_pos_site_id
 _symmetry_equiv_pos_as_xyz
  1  'x, y, z'
loop_
 _atom_site_type_symbol
 _atom_site_label
 _atom_site_symmetry_multiplicity
 _atom_site_fract_x
 _atom_site_fract_y
 _atom_site_fract_z
 _atom_site_occupancy
  V  V0  1  0.000000  0.500000  0.500000  1
  V  V1  1  0.000000  0.000000  0.000000  1
  F  F2  1  0.000000  0.231414  0.138819  1
  F  F3  1  0.000000  0.731414  0.361181  1
  F  F4  1  0.500000  0.190248  0.916824  1
  F  F5  1  0.500000  0.309752  0.416824  1
  F  F6  1  0.500000  0.690248  0.583176  1
  F  F7  1  0.500000  0.809752  0.083176  1
  F  F8  1  0.000000  0.268586  0.638819  1
  F  F9  1  0.000000  0.768586  0.861181  1
