# generated using pymatgen
data_Li4Ti2V3Cu3O16
_symmetry_space_group_name_H-M   'P 1'
_cell_length_a   5.82258584
_cell_length_b   5.99809724
_cell_length_c   9.68570685
_cell_angle_alpha   93.36325477
_cell_angle_beta   89.94057399
_cell_angle_gamma   119.03902678
_symmetry_Int_Tables_number   1
_chemical_formula_structural   Li4Ti2V3Cu3O16
_chemical_formula_sum   'Li4 Ti2 V3 Cu3 O16'
_cell_volume   295.08863641
_cell_formula_units_Z   1
loop_
 _symmetry_equiv_pos_site_id
 _symmetry_equiv_pos_as_xyz
  1  'x, y, z'
loop_
 _atom_site_type_symbol
 _atom_site_label
 _atom_site_symmetry_multiplicity
 _atom_site_fract_x
 _atom_site_fract_y
 _atom_site_fract_z
 _atom_site_occupancy
  Li  Li0  1  0.329641  0.322731  0.089527  1
  Li  Li1  1  0.004490  0.992240  0.003435  1
  Li  Li2  1  0.999343  0.005692  0.514841  1
  Li  Li3  1  0.653809  0.697882  0.598367  1
  Ti  Ti4  1  0.351994  0.292643  0.514337  1
  Ti  Ti5  1  0.670329  0.663931  0.994771  1
  V  V6  1  0.839772  0.817208  0.280726  1
  V  V7  1  0.179749  0.650652  0.764705  1
  V  V8  1  0.348768  0.803826  0.276947  1
  Cu  Cu9  1  0.661990  0.172333  0.795981  1
  Cu  Cu10  1  0.165656  0.173323  0.795338  1
  Cu  Cu11  1  0.837410  0.333216  0.296272  1
  O  O12  1  0.670902  0.142944  0.408572  1
  O  O13  1  0.469716  0.062543  0.654284  1
  O  O14  1  0.318099  0.364128  0.883644  1
  O  O15  1  0.006962  0.986389  0.707489  1
  O  O16  1  0.014388  0.994058  0.196093  1
  O  O17  1  0.182253  0.151811  0.412446  1
  O  O18  1  0.454723  0.528771  0.647965  1
  O  O19  1  0.022438  0.528478  0.647864  1
  O  O20  1  0.839384  0.322510  0.918998  1
  O  O21  1  0.167611  0.685093  0.390678  1
  O  O22  1  0.960510  0.541804  0.161121  1
  O  O23  1  0.494237  0.532824  0.160958  1
  O  O24  1  0.644727  0.685677  0.392460  1
  O  O25  1  0.853664  0.794685  0.908805  1
  O  O26  1  0.505979  0.959764  0.167450  1
  O  O27  1  0.351759  0.792840  0.908084  1
