# generated using pymatgen
data_KMn2P2HO9
_symmetry_space_group_name_H-M   'P 1'
_cell_length_a   6.56688602
_cell_length_b   6.78175541
_cell_length_c   8.94472468
_cell_angle_alpha   90.00000000
_cell_angle_beta   109.97017316
_cell_angle_gamma   90.00000000
_symmetry_Int_Tables_number   1
_chemical_formula_structural   KMn2P2HO9
_chemical_formula_sum   'K2 Mn4 P4 H2 O18'
_cell_volume   374.40066845
_cell_formula_units_Z   2
loop_
 _symmetry_equiv_pos_site_id
 _symmetry_equiv_pos_as_xyz
  1  'x, y, z'
loop_
 _atom_site_type_symbol
 _atom_site_label
 _atom_site_symmetry_multiplicity
 _atom_site_fract_x
 _atom_site_fract_y
 _atom_site_fract_z
 _atom_site_occupancy
  K  K0  1  0.928341  0.250000  0.299385  1
  K  K1  1  0.071659  0.750000  0.700615  1
  Mn  Mn2  1  0.467888  0.250000  0.790592  1
  Mn  Mn3  1  0.532112  0.750000  0.209408  1
  Mn  Mn4  1  0.500000  0.500000  0.500000  1
  Mn  Mn5  1  0.500000  0.000000  0.500000  1
  P  P6  1  0.901962  0.250000  0.690230  1
  P  P7  1  0.593269  0.750000  0.858510  1
  P  P8  1  0.406731  0.250000  0.141490  1
  P  P9  1  0.098038  0.750000  0.309770  1
  H  H10  1  0.023004  0.750000  0.047643  1
  H  H11  1  0.976996  0.250000  0.952357  1
  O  O12  1  0.809949  0.437021  0.590451  1
  O  O13  1  0.809949  0.062979  0.590451  1
  O  O14  1  0.839820  0.750000  0.916316  1
  O  O15  1  0.831851  0.250000  0.844072  1
  O  O16  1  0.854244  0.750000  0.256004  1
  O  O17  1  0.426070  0.250000  0.566777  1
  O  O18  1  0.496427  0.934388  0.751084  1
  O  O19  1  0.496427  0.565612  0.751084  1
  O  O20  1  0.518198  0.250000  0.012446  1
  O  O21  1  0.481802  0.750000  0.987554  1
  O  O22  1  0.503573  0.434388  0.248916  1
  O  O23  1  0.503573  0.065612  0.248916  1
  O  O24  1  0.573930  0.750000  0.433223  1
  O  O25  1  0.145756  0.250000  0.743996  1
  O  O26  1  0.168149  0.750000  0.155928  1
  O  O27  1  0.160180  0.250000  0.083684  1
  O  O28  1  0.190051  0.937021  0.409549  1
  O  O29  1  0.190051  0.562979  0.409549  1
