# generated using pymatgen
data_PWO5
_symmetry_space_group_name_H-M   'P 1'
_cell_length_a   5.38643360
_cell_length_b   5.40826337
_cell_length_c   7.41760921
_cell_angle_alpha   107.10097557
_cell_angle_beta   107.56797030
_cell_angle_gamma   97.95235689
_symmetry_Int_Tables_number   1
_chemical_formula_structural   PWO5
_chemical_formula_sum   'P2 W2 O10'
_cell_volume   190.68445494
_cell_formula_units_Z   2
loop_
 _symmetry_equiv_pos_site_id
 _symmetry_equiv_pos_as_xyz
  1  'x, y, z'
loop_
 _atom_site_type_symbol
 _atom_site_label
 _atom_site_symmetry_multiplicity
 _atom_site_fract_x
 _atom_site_fract_y
 _atom_site_fract_z
 _atom_site_occupancy
  P  P0  1  0.331138  0.149628  0.752371  1
  P  P1  1  0.668862  0.850372  0.247629  1
  W  W2  1  0.000000  0.500000  0.000000  1
  W  W3  1  0.000000  0.500000  0.500000  1
  O  O4  1  0.146707  0.187503  0.878845  1
  O  O5  1  0.286536  0.849762  0.636466  1
  O  O6  1  0.926072  0.551587  0.741543  1
  O  O7  1  0.269920  0.297617  0.599703  1
  O  O8  1  0.730080  0.702383  0.400297  1
  O  O9  1  0.626481  0.256216  0.893998  1
  O  O10  1  0.373519  0.743784  0.106002  1
  O  O11  1  0.073928  0.448413  0.258457  1
  O  O12  1  0.713464  0.150238  0.363534  1
  O  O13  1  0.853293  0.812497  0.121155  1
