# generated using pymatgen
data_Li3TiS3
_symmetry_space_group_name_H-M   'P 1'
_cell_length_a   6.96171307
_cell_length_b   6.96171307
_cell_length_c   5.91519412
_cell_angle_alpha   73.75828237
_cell_angle_beta   106.24171763
_cell_angle_gamma   66.76320205
_symmetry_Int_Tables_number   1
_chemical_formula_structural   Li3TiS3
_chemical_formula_sum   'Li6 Ti2 S6'
_cell_volume   226.85363403
_cell_formula_units_Z   2
loop_
 _symmetry_equiv_pos_site_id
 _symmetry_equiv_pos_as_xyz
  1  'x, y, z'
loop_
 _atom_site_type_symbol
 _atom_site_label
 _atom_site_symmetry_multiplicity
 _atom_site_fract_x
 _atom_site_fract_y
 _atom_site_fract_z
 _atom_site_occupancy
  Li  Li0  1  0.098502  0.446362  0.799162  1
  Li  Li1  1  0.538248  0.538248  0.750000  1
  Li  Li2  1  0.553638  0.901498  0.299162  1
  Li  Li3  1  0.446362  0.098502  0.700838  1
  Li  Li4  1  0.461752  0.461752  0.250000  1
  Li  Li5  1  0.901498  0.553638  0.200838  1
  Ti  Ti6  1  0.000000  0.000000  0.500000  1
  Ti  Ti7  1  0.000000  0.000000  0.000000  1
  S  S8  1  0.640791  0.172576  0.075273  1
  S  S9  1  0.823545  0.823545  0.750000  1
  S  S10  1  0.359209  0.827424  0.924727  1
  S  S11  1  0.176455  0.176455  0.250000  1
  S  S12  1  0.827424  0.359209  0.575273  1
  S  S13  1  0.172576  0.640791  0.424727  1
