# generated using pymatgen
data_Li3CrPCO7
_symmetry_space_group_name_H-M   'P 1'
_cell_length_a   5.11580739
_cell_length_b   6.47225616
_cell_length_c   8.55450994
_cell_angle_alpha   90.00000000
_cell_angle_beta   91.94336174
_cell_angle_gamma   90.00000000
_symmetry_Int_Tables_number   1
_chemical_formula_structural   Li3CrPCO7
_chemical_formula_sum   'Li6 Cr2 P2 C2 O14'
_cell_volume   283.08389069
_cell_formula_units_Z   2
loop_
 _symmetry_equiv_pos_site_id
 _symmetry_equiv_pos_as_xyz
  1  'x, y, z'
loop_
 _atom_site_type_symbol
 _atom_site_label
 _atom_site_symmetry_multiplicity
 _atom_site_fract_x
 _atom_site_fract_y
 _atom_site_fract_z
 _atom_site_occupancy
  Li  Li0  1  0.030867  0.514550  0.997495  1
  Li  Li1  1  0.440484  0.190574  0.813402  1
  Li  Li2  1  0.445536  0.411814  0.477988  1
  Li  Li3  1  0.554464  0.911814  0.522012  1
  Li  Li4  1  0.559516  0.690574  0.186598  1
  Li  Li5  1  0.969133  0.014550  0.002505  1
  Cr  Cr6  1  0.025302  0.753377  0.725590  1
  Cr  Cr7  1  0.974698  0.253377  0.274410  1
  P  P8  1  0.958281  0.250108  0.663345  1
  P  P9  1  0.041719  0.750108  0.336655  1
  C  C10  1  0.524480  0.738671  0.879895  1
  C  C11  1  0.475520  0.238671  0.120105  1
  O  O12  1  0.352114  0.710729  0.984878  1
  O  O13  1  0.770489  0.757778  0.924961  1
  O  O14  1  0.076235  0.066589  0.763248  1
  O  O15  1  0.009969  0.443589  0.766749  1
  O  O16  1  0.459100  0.751007  0.732293  1
  O  O17  1  0.662371  0.213014  0.627153  1
  O  O18  1  0.111042  0.272799  0.512014  1
  O  O19  1  0.888958  0.772799  0.487986  1
  O  O20  1  0.337629  0.713014  0.372847  1
  O  O21  1  0.540900  0.251007  0.267707  1
  O  O22  1  0.990031  0.943589  0.233251  1
  O  O23  1  0.923765  0.566589  0.236752  1
  O  O24  1  0.229511  0.257778  0.075039  1
  O  O25  1  0.647886  0.210729  0.015122  1
