# generated using pymatgen
data_CaLaI5
_symmetry_space_group_name_H-M   'P 1'
_cell_length_a   7.78363382
_cell_length_b   7.78363382
_cell_length_c   18.30985984
_cell_angle_alpha   90.00000000
_cell_angle_beta   90.00000000
_cell_angle_gamma   146.58406632
_symmetry_Int_Tables_number   1
_chemical_formula_structural   CaLaI5
_chemical_formula_sum   'Ca2 La2 I10'
_cell_volume   610.90692867
_cell_formula_units_Z   2
loop_
 _symmetry_equiv_pos_site_id
 _symmetry_equiv_pos_as_xyz
  1  'x, y, z'
loop_
 _atom_site_type_symbol
 _atom_site_label
 _atom_site_symmetry_multiplicity
 _atom_site_fract_x
 _atom_site_fract_y
 _atom_site_fract_z
 _atom_site_occupancy
  Ca  Ca0  1  0.000000  0.000000  0.000000  1
  Ca  Ca1  1  0.000000  0.000000  0.500000  1
  La  La2  1  0.514818  0.485182  0.250000  1
  La  La3  1  0.485182  0.514818  0.750000  1
  I  I4  1  0.899093  0.100907  0.150115  1
  I  I5  1  0.899093  0.100907  0.349885  1
  I  I6  1  0.613645  0.386355  0.074572  1
  I  I7  1  0.835570  0.164429  0.750000  1
  I  I8  1  0.613645  0.386355  0.425428  1
  I  I9  1  0.386355  0.613645  0.574572  1
  I  I10  1  0.386355  0.613645  0.925428  1
  I  I11  1  0.164429  0.835570  0.250000  1
  I  I12  1  0.100907  0.899093  0.650115  1
  I  I13  1  0.100907  0.899093  0.849885  1
