# generated using pymatgen
data_RbH3(SO4)2
_symmetry_space_group_name_H-M   'P 1'
_cell_length_a   7.51364276
_cell_length_b   12.64979098
_cell_length_c   8.00983596
_cell_angle_alpha   90.00000000
_cell_angle_beta   92.17374799
_cell_angle_gamma   90.00000000
_symmetry_Int_Tables_number   1
_chemical_formula_structural   RbH3(SO4)2
_chemical_formula_sum   'Rb4 H12 S8 O32'
_cell_volume   760.75511854
_cell_formula_units_Z   4
loop_
 _symmetry_equiv_pos_site_id
 _symmetry_equiv_pos_as_xyz
  1  'x, y, z'
loop_
 _atom_site_type_symbol
 _atom_site_label
 _atom_site_symmetry_multiplicity
 _atom_site_fract_x
 _atom_site_fract_y
 _atom_site_fract_z
 _atom_site_occupancy
  Rb  Rb0  1  0.715216  0.933264  0.657523  1
  Rb  Rb1  1  0.284784  0.433264  0.842477  1
  Rb  Rb2  1  0.284784  0.066736  0.342477  1
  Rb  Rb3  1  0.715216  0.566736  0.157523  1
  H  H4  1  0.618641  0.253748  0.119776  1
  H  H5  1  0.381359  0.753748  0.380224  1
  H  H6  1  0.381359  0.746252  0.880224  1
  H  H7  1  0.618641  0.246252  0.619776  1
  H  H8  1  0.012999  0.660360  0.727304  1
  H  H9  1  0.987001  0.160360  0.772696  1
  H  H10  1  0.987001  0.339640  0.272696  1
  H  H11  1  0.012999  0.839640  0.227304  1
  H  H12  1  0.830816  0.455981  0.608922  1
  H  H13  1  0.169184  0.955981  0.891078  1
  H  H14  1  0.169184  0.544019  0.391078  1
  H  H15  1  0.830816  0.044019  0.108922  1
  S  S16  1  0.765651  0.194608  0.335838  1
  S  S17  1  0.234349  0.694608  0.164162  1
  S  S18  1  0.234349  0.805392  0.664162  1
  S  S19  1  0.765651  0.305392  0.835838  1
  S  S20  1  0.738315  0.611094  0.667700  1
  S  S21  1  0.261685  0.111094  0.832300  1
  S  S22  1  0.261685  0.388906  0.332300  1
  S  S23  1  0.738315  0.888906  0.167700  1
  O  O24  1  0.897802  0.124369  0.262842  1
  O  O25  1  0.102198  0.624369  0.237158  1
  O  O26  1  0.102198  0.875631  0.737158  1
  O  O27  1  0.897802  0.375631  0.762842  1
  O  O28  1  0.692065  0.152617  0.489319  1
  O  O29  1  0.307935  0.652617  0.010681  1
  O  O30  1  0.307935  0.847383  0.510681  1
  O  O31  1  0.692065  0.347383  0.989319  1
  O  O32  1  0.832587  0.303724  0.358365  1
  O  O33  1  0.167413  0.803724  0.141635  1
  O  O34  1  0.167413  0.696276  0.641635  1
  O  O35  1  0.832587  0.196276  0.858365  1
  O  O36  1  0.598832  0.199104  0.209411  1
  O  O37  1  0.401168  0.699104  0.290589  1
  O  O38  1  0.401168  0.800896  0.790589  1
  O  O39  1  0.598832  0.300896  0.709411  1
  O  O40  1  0.707215  0.703047  0.564513  1
  O  O41  1  0.292785  0.203047  0.935487  1
  O  O42  1  0.292785  0.296953  0.435487  1
  O  O43  1  0.707215  0.796953  0.064513  1
  O  O44  1  0.598157  0.572924  0.769869  1
  O  O45  1  0.401843  0.072924  0.730131  1
  O  O46  1  0.401843  0.427076  0.230131  1
  O  O47  1  0.598157  0.927076  0.269869  1
  O  O48  1  0.904346  0.626284  0.788286  1
  O  O49  1  0.095654  0.126284  0.711714  1
  O  O50  1  0.095654  0.373716  0.211714  1
  O  O51  1  0.904346  0.873716  0.288286  1
  O  O52  1  0.796013  0.521818  0.542028  1
  O  O53  1  0.203987  0.021818  0.957972  1
  O  O54  1  0.203987  0.478182  0.457972  1
  O  O55  1  0.796013  0.978182  0.042028  1
