# generated using pymatgen
data_Ba3(ClO)2
_symmetry_space_group_name_H-M   'P 1'
_cell_length_a   12.36027335
_cell_length_b   10.60025656
_cell_length_c   14.37400589
_cell_angle_alpha   90.00000000
_cell_angle_beta   112.11465498
_cell_angle_gamma   90.00000000
_symmetry_Int_Tables_number   1
_chemical_formula_structural   Ba3(ClO)2
_chemical_formula_sum   'Ba24 Cl16 O16'
_cell_volume   1744.76118868
_cell_formula_units_Z   8
loop_
 _symmetry_equiv_pos_site_id
 _symmetry_equiv_pos_as_xyz
  1  'x, y, z'
loop_
 _atom_site_type_symbol
 _atom_site_label
 _atom_site_symmetry_multiplicity
 _atom_site_fract_x
 _atom_site_fract_y
 _atom_site_fract_z
 _atom_site_occupancy
  Ba  Ba0  1  0.021854  0.823815  0.634571  1
  Ba  Ba1  1  0.096330  0.413695  0.622504  1
  Ba  Ba2  1  0.203324  0.111357  0.853016  1
  Ba  Ba3  1  0.021854  0.676185  0.134571  1
  Ba  Ba4  1  0.334497  0.478217  0.922109  1
  Ba  Ba5  1  0.096330  0.086305  0.122504  1
  Ba  Ba6  1  0.203324  0.388643  0.353016  1
  Ba  Ba7  1  0.433526  0.934236  0.731280  1
  Ba  Ba8  1  0.334497  0.021783  0.422109  1
  Ba  Ba9  1  0.570395  0.157591  0.984309  1
  Ba  Ba10  1  0.429605  0.657591  0.515691  1
  Ba  Ba11  1  0.566474  0.434236  0.768720  1
  Ba  Ba12  1  0.433526  0.565764  0.231280  1
  Ba  Ba13  1  0.570395  0.342409  0.484309  1
  Ba  Ba14  1  0.429605  0.842409  0.015691  1
  Ba  Ba15  1  0.665503  0.978217  0.577891  1
  Ba  Ba16  1  0.566474  0.065764  0.268720  1
  Ba  Ba17  1  0.796676  0.611357  0.646984  1
  Ba  Ba18  1  0.903670  0.913695  0.877496  1
  Ba  Ba19  1  0.665503  0.521783  0.077891  1
  Ba  Ba20  1  0.978146  0.323815  0.865429  1
  Ba  Ba21  1  0.796676  0.888643  0.146984  1
  Ba  Ba22  1  0.903670  0.586305  0.377496  1
  Ba  Ba23  1  0.978146  0.176185  0.365429  1
  Cl  Cl24  1  0.151551  0.785255  0.872797  1
  Cl  Cl25  1  0.159649  0.066013  0.613229  1
  Cl  Cl26  1  0.151551  0.714745  0.372797  1
  Cl  Cl27  1  0.325360  0.619173  0.702345  1
  Cl  Cl28  1  0.159649  0.433987  0.113229  1
  Cl  Cl29  1  0.383412  0.267955  0.586368  1
  Cl  Cl30  1  0.325360  0.880827  0.202345  1
  Cl  Cl31  1  0.616588  0.767955  0.913632  1
  Cl  Cl32  1  0.383412  0.232045  0.086368  1
  Cl  Cl33  1  0.674640  0.119173  0.797655  1
  Cl  Cl34  1  0.616588  0.732045  0.413632  1
  Cl  Cl35  1  0.840351  0.566013  0.886771  1
  Cl  Cl36  1  0.674640  0.380827  0.297655  1
  Cl  Cl37  1  0.848449  0.285255  0.627203  1
  Cl  Cl38  1  0.840351  0.933987  0.386771  1
  Cl  Cl39  1  0.848449  0.214745  0.127203  1
  O  O40  1  0.036475  0.106596  0.926702  1
  O  O41  1  0.149389  0.344096  0.814962  1
  O  O42  1  0.036475  0.393404  0.426702  1
  O  O43  1  0.149389  0.155904  0.314962  1
  O  O44  1  0.402414  0.022577  0.881355  1
  O  O45  1  0.526163  0.391200  0.926254  1
  O  O46  1  0.473837  0.891200  0.573746  1
  O  O47  1  0.402414  0.477423  0.381355  1
  O  O48  1  0.597586  0.522577  0.618645  1
  O  O49  1  0.526163  0.108800  0.426254  1
  O  O50  1  0.473837  0.608800  0.073746  1
  O  O51  1  0.597586  0.977423  0.118645  1
  O  O52  1  0.850611  0.844096  0.685038  1
  O  O53  1  0.963525  0.606596  0.573298  1
  O  O54  1  0.850611  0.655904  0.185038  1
  O  O55  1  0.963525  0.893404  0.073298  1
