# generated using pymatgen
data_Fe5Te(PO4)6
_symmetry_space_group_name_H-M   'P 1'
_cell_length_a   8.55911912
_cell_length_b   8.55911912
_cell_length_c   8.55911912
_cell_angle_alpha   61.43274262
_cell_angle_beta   61.43274262
_cell_angle_gamma   61.43274262
_symmetry_Int_Tables_number   1
_chemical_formula_structural   Fe5Te(PO4)6
_chemical_formula_sum   'Fe5 Te1 P6 O24'
_cell_volume   457.64233347
_cell_formula_units_Z   1
loop_
 _symmetry_equiv_pos_site_id
 _symmetry_equiv_pos_as_xyz
  1  'x, y, z'
loop_
 _atom_site_type_symbol
 _atom_site_label
 _atom_site_symmetry_multiplicity
 _atom_site_fract_x
 _atom_site_fract_y
 _atom_site_fract_z
 _atom_site_occupancy
  Fe  Fe0  1  0.997439  0.997439  0.997439  1
  Fe  Fe1  1  0.647770  0.647770  0.647770  1
  Fe  Fe2  1  0.501581  0.501581  0.501581  1
  Fe  Fe3  1  0.856037  0.856037  0.856037  1
  Fe  Fe4  1  0.353496  0.353496  0.353496  1
  Te  Te5  1  0.145552  0.145552  0.145552  1
  P  P6  1  0.945134  0.251666  0.555007  1
  P  P7  1  0.555007  0.945134  0.251666  1
  P  P8  1  0.251666  0.555007  0.945134  1
  P  P9  1  0.743789  0.462299  0.047674  1
  P  P10  1  0.462299  0.047674  0.743789  1
  P  P11  1  0.047674  0.743789  0.462299  1
  O  O12  1  0.499738  0.106866  0.317674  1
  O  O13  1  0.317674  0.499738  0.106866  1
  O  O14  1  0.106866  0.317674  0.499738  1
  O  O15  1  0.934234  0.094954  0.747493  1
  O  O16  1  0.972372  0.182080  0.404900  1
  O  O17  1  0.746968  0.409657  0.568033  1
  O  O18  1  0.747493  0.934234  0.094954  1
  O  O19  1  0.568033  0.746968  0.409657  1
  O  O20  1  0.818774  0.612759  0.003318  1
  O  O21  1  0.409657  0.568033  0.746968  1
  O  O22  1  0.898195  0.261881  0.057665  1
  O  O23  1  0.612759  0.003318  0.818774  1
  O  O24  1  0.404900  0.972372  0.182080  1
  O  O25  1  0.094954  0.747493  0.934234  1
  O  O26  1  0.591190  0.442653  0.250988  1
  O  O27  1  0.182080  0.404900  0.972372  1
  O  O28  1  0.442653  0.250988  0.591190  1
  O  O29  1  0.261881  0.057665  0.898195  1
  O  O30  1  0.250988  0.591190  0.442653  1
  O  O31  1  0.003318  0.818774  0.612759  1
  O  O32  1  0.057665  0.898195  0.261881  1
  O  O33  1  0.897770  0.668907  0.503497  1
  O  O34  1  0.668907  0.503497  0.897770  1
  O  O35  1  0.503497  0.897770  0.668907  1
