# generated using pymatgen
data_Li2V(OF)2
_symmetry_space_group_name_H-M   'P 1'
_cell_length_a   5.97734049
_cell_length_b   5.97734049
_cell_length_c   5.97734049
_cell_angle_alpha   122.48038738
_cell_angle_beta   120.66275171
_cell_angle_gamma   87.30641020
_symmetry_Int_Tables_number   1
_chemical_formula_structural   Li2V(OF)2
_chemical_formula_sum   'Li4 V2 O4 F4'
_cell_volume   147.19797282
_cell_formula_units_Z   2
loop_
 _symmetry_equiv_pos_site_id
 _symmetry_equiv_pos_as_xyz
  1  'x, y, z'
loop_
 _atom_site_type_symbol
 _atom_site_label
 _atom_site_symmetry_multiplicity
 _atom_site_fract_x
 _atom_site_fract_y
 _atom_site_fract_z
 _atom_site_occupancy
  Li  Li0  1  0.120694  0.870694  0.250000  1
  Li  Li1  1  0.879306  0.129306  0.750000  1
  Li  Li2  1  0.000000  0.500000  0.500000  1
  Li  Li3  1  0.500000  0.500000  0.000000  1
  V  V4  1  0.500000  0.500000  0.500000  1
  V  V5  1  0.500000  0.000000  0.000000  1
  O  O6  1  0.289782  0.253468  0.036315  1
  O  O7  1  0.717153  0.253468  0.463685  1
  O  O8  1  0.710218  0.746532  0.963685  1
  O  O9  1  0.282847  0.746532  0.536315  1
  F  F10  1  0.734584  0.243291  0.008707  1
  F  F11  1  0.734584  0.725877  0.491293  1
  F  F12  1  0.265416  0.274123  0.508707  1
  F  F13  1  0.265416  0.756709  0.991293  1
