# generated using pymatgen
data_V2F7
_symmetry_space_group_name_H-M   'P 1'
_cell_length_a   8.29578460
_cell_length_b   4.75438248
_cell_length_c   12.79913691
_cell_angle_alpha   90.00000000
_cell_angle_beta   92.58503646
_cell_angle_gamma   90.00000000
_symmetry_Int_Tables_number   1
_chemical_formula_structural   V2F7
_chemical_formula_sum   'V8 F28'
_cell_volume   504.30131206
_cell_formula_units_Z   4
loop_
 _symmetry_equiv_pos_site_id
 _symmetry_equiv_pos_as_xyz
  1  'x, y, z'
loop_
 _atom_site_type_symbol
 _atom_site_label
 _atom_site_symmetry_multiplicity
 _atom_site_fract_x
 _atom_site_fract_y
 _atom_site_fract_z
 _atom_site_occupancy
  V  V0  1  0.829532  0.777789  0.025830  1
  V  V1  1  0.837915  0.248663  0.458145  1
  V  V2  1  0.668557  0.268678  0.821378  1
  V  V3  1  0.555278  0.776463  0.609803  1
  V  V4  1  0.444722  0.276463  0.390197  1
  V  V5  1  0.331443  0.768678  0.178622  1
  V  V6  1  0.162085  0.748663  0.541855  1
  V  V7  1  0.170468  0.277789  0.974170  1
  F  F8  1  0.985128  0.478700  0.554298  1
  F  F9  1  0.853610  0.976322  0.141054  1
  F  F10  1  0.984470  0.039886  0.956839  1
  F  F11  1  0.871631  0.481459  0.350071  1
  F  F12  1  0.836775  0.086927  0.776962  1
  F  F13  1  0.704442  0.528315  0.085750  1
  F  F14  1  0.735191  0.013478  0.570964  1
  F  F15  1  0.801884  0.553311  0.893073  1
  F  F16  1  0.677623  0.506161  0.695871  1
  F  F17  1  0.644131  0.079340  0.368249  1
  F  F18  1  0.602088  0.505743  0.487729  1
  F  F19  1  0.505575  0.946714  0.138969  1
  F  F20  1  0.673412  0.021486  0.948266  1
  F  F21  1  0.470271  0.512205  0.264410  1
  F  F22  1  0.529729  0.012205  0.735590  1
  F  F23  1  0.326588  0.521486  0.051734  1
  F  F24  1  0.494425  0.446714  0.861031  1
  F  F25  1  0.397912  0.005743  0.512271  1
  F  F26  1  0.355869  0.579340  0.631751  1
  F  F27  1  0.322377  0.006161  0.304129  1
  F  F28  1  0.198116  0.053311  0.106927  1
  F  F29  1  0.264809  0.513478  0.429036  1
  F  F30  1  0.295558  0.028315  0.914250  1
  F  F31  1  0.163225  0.586927  0.223038  1
  F  F32  1  0.128369  0.981459  0.649929  1
  F  F33  1  0.015530  0.539886  0.043161  1
  F  F34  1  0.146390  0.476322  0.858946  1
  F  F35  1  0.014872  0.978700  0.445702  1
