# generated using pymatgen
data_LiNiBO3
_symmetry_space_group_name_H-M   'P 1'
_cell_length_a   3.12522910
_cell_length_b   14.08339205
_cell_length_c   14.08597883
_cell_angle_alpha   60.07107266
_cell_angle_beta   89.49982498
_cell_angle_gamma   89.30175679
_symmetry_Int_Tables_number   1
_chemical_formula_structural   LiNiBO3
_chemical_formula_sum   'Li9 Ni9 B9 O27'
_cell_volume   537.25825571
_cell_formula_units_Z   9
loop_
 _symmetry_equiv_pos_site_id
 _symmetry_equiv_pos_as_xyz
  1  'x, y, z'
loop_
 _atom_site_type_symbol
 _atom_site_label
 _atom_site_symmetry_multiplicity
 _atom_site_fract_x
 _atom_site_fract_y
 _atom_site_fract_z
 _atom_site_occupancy
  Li  Li0  1  0.493993  0.098254  0.126261  1
  Li  Li1  1  0.512522  0.107798  0.435502  1
  Li  Li2  1  0.446839  0.455708  0.108290  1
  Li  Li3  1  0.479564  0.128212  0.772360  1
  Li  Li4  1  0.546315  0.435741  0.455806  1
  Li  Li5  1  0.494407  0.441442  0.753604  1
  Li  Li6  1  0.521009  0.773616  0.098333  1
  Li  Li7  1  0.523769  0.804617  0.442316  1
  Li  Li8  1  0.489267  0.752603  0.805588  1
  Ni  Ni9  1  0.939629  0.250171  0.201615  1
  Ni  Ni10  1  0.999456  0.200226  0.548260  1
  Ni  Ni11  1  0.003802  0.212922  0.904383  1
  Ni  Ni12  1  0.049177  0.547875  0.250351  1
  Ni  Ni13  1  0.046097  0.581180  0.537316  1
  Ni  Ni14  1  0.951568  0.535993  0.882592  1
  Ni  Ni15  1  0.032363  0.881462  0.213317  1
  Ni  Ni16  1  0.003704  0.882275  0.580548  1
  Ni  Ni17  1  0.968208  0.904613  0.882237  1
  B  B18  1  0.988269  0.004578  0.335643  1
  B  B19  1  0.000805  0.333054  0.333175  1
  B  B20  1  0.998216  0.335586  0.658950  1
  B  B21  1  0.004608  0.658602  0.005336  1
  B  B22  1  0.465092  0.330915  0.992447  1
  B  B23  1  0.545965  0.675566  0.331869  1
  B  B24  1  0.012401  0.665802  0.667516  1
  B  B25  1  0.993839  0.999707  0.000044  1
  B  B26  1  0.485269  0.991518  0.676493  1
  O  O27  1  0.991613  0.029385  0.080220  1
  O  O28  1  0.021610  0.008277  0.432067  1
  O  O29  1  0.895408  0.099372  0.237109  1
  O  O30  1  0.438110  0.316017  0.096642  1
  O  O31  1  0.500823  0.095439  0.586756  1
  O  O32  1  0.003608  0.220586  0.396911  1
  O  O33  1  0.937384  0.381557  0.221903  1
  O  O34  1  0.955032  0.079339  0.890721  1
  O  O35  1  0.963264  0.558827  0.008857  1
  O  O36  1  0.922146  0.236137  0.662934  1
  O  O37  1  0.061510  0.396554  0.380986  1
  O  O38  1  0.109922  0.662075  0.099685  1
  O  O39  1  0.031586  0.337475  0.756120  1
  O  O40  1  0.036402  0.431970  0.559255  1
  O  O41  1  0.502954  0.241392  0.977282  1
  O  O42  1  0.547746  0.585915  0.317207  1
  O  O43  1  0.548598  0.660716  0.436642  1
  O  O44  1  0.454766  0.435694  0.902722  1
  O  O45  1  0.035642  0.890369  0.029284  1
  O  O46  1  0.537555  0.780116  0.241858  1
  O  O47  1  0.946231  0.561462  0.684128  1
  O  O48  1  0.044535  0.682241  0.756132  1
  O  O49  1  0.045362  0.753553  0.561655  1
  O  O50  1  0.039566  0.905412  0.338049  1
  O  O51  1  0.947402  0.755705  0.907233  1
  O  O52  1  0.494067  0.901450  0.661737  1
  O  O53  1  0.465187  0.977400  0.780836  1
