# generated using pymatgen
data_TiVO3
_symmetry_space_group_name_H-M   'P 1'
_cell_length_a   5.62146171
_cell_length_b   5.62146171
_cell_length_c   5.62146171
_cell_angle_alpha   54.79710541
_cell_angle_beta   54.79710541
_cell_angle_gamma   54.79710541
_symmetry_Int_Tables_number   1
_chemical_formula_structural   TiVO3
_chemical_formula_sum   'Ti2 V2 O6'
_cell_volume   110.39386776
_cell_formula_units_Z   2
loop_
 _symmetry_equiv_pos_site_id
 _symmetry_equiv_pos_as_xyz
  1  'x, y, z'
loop_
 _atom_site_type_symbol
 _atom_site_label
 _atom_site_symmetry_multiplicity
 _atom_site_fract_x
 _atom_site_fract_y
 _atom_site_fract_z
 _atom_site_occupancy
  Ti  Ti0  1  0.855476  0.855476  0.855476  1
  Ti  Ti1  1  0.144524  0.144524  0.144524  1
  V  V2  1  0.651023  0.651023  0.651023  1
  V  V3  1  0.348977  0.348977  0.348977  1
  O  O4  1  0.221739  0.563300  0.951088  1
  O  O5  1  0.951088  0.221739  0.563300  1
  O  O6  1  0.563300  0.951088  0.221739  1
  O  O7  1  0.436700  0.048912  0.778261  1
  O  O8  1  0.048912  0.778261  0.436700  1
  O  O9  1  0.778261  0.436700  0.048912  1
