# generated using pymatgen
data_LiCu5(PO4)2
_symmetry_space_group_name_H-M   'P 1'
_cell_length_a   5.60482103
_cell_length_b   6.24856971
_cell_length_c   10.32295240
_cell_angle_alpha   90.97190850
_cell_angle_beta   90.34842008
_cell_angle_gamma   91.17156667
_symmetry_Int_Tables_number   1
_chemical_formula_structural   LiCu5(PO4)2
_chemical_formula_sum   'Li2 Cu10 P4 O16'
_cell_volume   361.39657487
_cell_formula_units_Z   2
loop_
 _symmetry_equiv_pos_site_id
 _symmetry_equiv_pos_as_xyz
  1  'x, y, z'
loop_
 _atom_site_type_symbol
 _atom_site_label
 _atom_site_symmetry_multiplicity
 _atom_site_fract_x
 _atom_site_fract_y
 _atom_site_fract_z
 _atom_site_occupancy
  Li  Li0  1  0.856172  0.998135  0.250554  1
  Li  Li1  1  0.679074  0.245965  0.492929  1
  Cu  Cu2  1  0.746386  0.008318  0.748814  1
  Cu  Cu3  1  0.640753  0.279942  0.999045  1
  Cu  Cu4  1  0.343299  0.298011  0.236300  1
  Cu  Cu5  1  0.367246  0.234613  0.757619  1
  Cu  Cu6  1  0.259260  0.500729  0.987035  1
  Cu  Cu7  1  0.257599  0.507398  0.478074  1
  Cu  Cu8  1  0.354340  0.753060  0.741026  1
  Cu  Cu9  1  0.351525  0.701694  0.230375  1
  Cu  Cu10  1  0.649086  0.755827  0.498439  1
  Cu  Cu11  1  0.642586  0.717425  0.002044  1
  P  P12  1  0.138640  0.994735  0.006442  1
  P  P13  1  0.162468  0.009488  0.501721  1
  P  P14  1  0.818545  0.496735  0.258173  1
  P  P15  1  0.840660  0.499067  0.746305  1
  O  O16  1  0.152393  0.002574  0.651700  1
  O  O17  1  0.907461  0.012917  0.442227  1
  O  O18  1  0.161587  0.997070  0.156361  1
  O  O19  1  0.875043  0.990400  0.960786  1
  O  O20  1  0.317974  0.205565  0.456223  1
  O  O21  1  0.269931  0.196167  0.949838  1
  O  O22  1  0.693427  0.282456  0.207541  1
  O  O23  1  0.699149  0.302407  0.683568  1
  O  O24  1  0.838203  0.491498  0.896155  1
  O  O25  1  0.099249  0.502217  0.695816  1
  O  O26  1  0.822337  0.498061  0.407839  1
  O  O27  1  0.072130  0.495536  0.199902  1
  O  O28  1  0.706283  0.701786  0.699544  1
  O  O29  1  0.702839  0.707545  0.208009  1
  O  O30  1  0.297570  0.810617  0.445233  1
  O  O31  1  0.276788  0.802038  0.946956  1
