# generated using pymatgen
data_Na3Li3Mn2P2(CO7)2
_symmetry_space_group_name_H-M   'P 1'
_cell_length_a   5.10065825
_cell_length_b   6.73016780
_cell_length_c   8.79179467
_cell_angle_alpha   91.53558692
_cell_angle_beta   90.84096768
_cell_angle_gamma   90.42197426
_symmetry_Int_Tables_number   1
_chemical_formula_structural   Na3Li3Mn2P2(CO7)2
_chemical_formula_sum   'Na3 Li3 Mn2 P2 C2 O14'
_cell_volume   301.65726958
_cell_formula_units_Z   1
loop_
 _symmetry_equiv_pos_site_id
 _symmetry_equiv_pos_as_xyz
  1  'x, y, z'
loop_
 _atom_site_type_symbol
 _atom_site_label
 _atom_site_symmetry_multiplicity
 _atom_site_fract_x
 _atom_site_fract_y
 _atom_site_fract_z
 _atom_site_occupancy
  Na  Na0  1  0.755652  0.235415  0.916649  1
  Na  Na1  1  0.248205  0.502389  0.746513  1
  Na  Na2  1  0.752846  0.500794  0.253502  1
  Li  Li3  1  0.224565  0.024777  0.725377  1
  Li  Li4  1  0.773015  0.977861  0.270911  1
  Li  Li5  1  0.255278  0.776376  0.087364  1
  Mn  Mn6  1  0.775519  0.753539  0.639697  1
  Mn  Mn7  1  0.224366  0.243931  0.356361  1
  P  P8  1  0.705822  0.240198  0.585509  1
  P  P9  1  0.295760  0.757091  0.408464  1
  C  C10  1  0.732131  0.760909  0.955598  1
  C  C11  1  0.264855  0.238460  0.052425  1
  O  O12  1  0.282977  0.226646  0.905263  1
  O  O13  1  0.976772  0.751488  0.917345  1
  O  O14  1  0.547639  0.756250  0.851189  1
  O  O15  1  0.817974  0.068605  0.681377  1
  O  O16  1  0.784609  0.436780  0.671692  1
  O  O17  1  0.399321  0.223831  0.577546  1
  O  O18  1  0.186005  0.768071  0.572887  1
  O  O19  1  0.810156  0.231850  0.420415  1
  O  O20  1  0.601235  0.775802  0.421301  1
  O  O21  1  0.220788  0.559967  0.322990  1
  O  O22  1  0.187070  0.924724  0.306254  1
  O  O23  1  0.475165  0.242337  0.138646  1
  O  O24  1  0.037726  0.246600  0.116834  1
  O  O25  1  0.664549  0.775309  0.097891  1
