# generated using pymatgen
data_V2Co(HO2)4
_symmetry_space_group_name_H-M   'P 1'
_cell_length_a   5.69300072
_cell_length_b   10.77121788
_cell_length_c   11.91821001
_cell_angle_alpha   90.00000000
_cell_angle_beta   90.00000000
_cell_angle_gamma   90.00000000
_symmetry_Int_Tables_number   1
_chemical_formula_structural   V2Co(HO2)4
_chemical_formula_sum   'V8 Co4 H16 O32'
_cell_volume   730.83120649
_cell_formula_units_Z   4
loop_
 _symmetry_equiv_pos_site_id
 _symmetry_equiv_pos_as_xyz
  1  'x, y, z'
loop_
 _atom_site_type_symbol
 _atom_site_label
 _atom_site_symmetry_multiplicity
 _atom_site_fract_x
 _atom_site_fract_y
 _atom_site_fract_z
 _atom_site_occupancy
  V  V0  1  0.193282  0.031693  0.174082  1
  V  V1  1  0.193282  0.468307  0.174082  1
  V  V2  1  0.306718  0.531693  0.674082  1
  V  V3  1  0.306718  0.968307  0.674082  1
  V  V4  1  0.693282  0.031693  0.325918  1
  V  V5  1  0.693282  0.468307  0.325918  1
  V  V6  1  0.806718  0.531693  0.825918  1
  V  V7  1  0.806718  0.968307  0.825918  1
  Co  Co8  1  0.018388  0.750000  0.040662  1
  Co  Co9  1  0.481612  0.250000  0.540662  1
  Co  Co10  1  0.518388  0.750000  0.459338  1
  Co  Co11  1  0.981612  0.250000  0.959338  1
  H  H12  1  0.051433  0.750000  0.415590  1
  H  H13  1  0.121030  0.177499  0.403354  1
  H  H14  1  0.121030  0.322501  0.403354  1
  H  H15  1  0.170608  0.750000  0.292265  1
  H  H16  1  0.329392  0.250000  0.792265  1
  H  H17  1  0.378970  0.822501  0.903354  1
  H  H18  1  0.378970  0.677499  0.903354  1
  H  H19  1  0.448567  0.250000  0.915590  1
  H  H20  1  0.551433  0.750000  0.084410  1
  H  H21  1  0.621030  0.177499  0.096646  1
  H  H22  1  0.621030  0.322501  0.096646  1
  H  H23  1  0.670608  0.750000  0.207735  1
  H  H24  1  0.829392  0.250000  0.707735  1
  H  H25  1  0.878970  0.677499  0.596646  1
  H  H26  1  0.878970  0.822501  0.596646  1
  H  H27  1  0.948567  0.250000  0.584410  1
  O  O28  1  0.000478  0.071305  0.291819  1
  O  O29  1  0.000478  0.428695  0.291819  1
  O  O30  1  0.113695  0.116147  0.063170  1
  O  O31  1  0.113695  0.383853  0.063170  1
  O  O32  1  0.152257  0.250000  0.452012  1
  O  O33  1  0.163242  0.620651  0.144659  1
  O  O34  1  0.163242  0.879349  0.144659  1
  O  O35  1  0.199250  0.750000  0.372911  1
  O  O36  1  0.300750  0.250000  0.872911  1
  O  O37  1  0.336758  0.120651  0.644659  1
  O  O38  1  0.336758  0.379349  0.644659  1
  O  O39  1  0.347743  0.750000  0.952012  1
  O  O40  1  0.386305  0.883853  0.563170  1
  O  O41  1  0.386305  0.616147  0.563170  1
  O  O42  1  0.499522  0.928695  0.791819  1
  O  O43  1  0.499522  0.571305  0.791819  1
  O  O44  1  0.500478  0.071305  0.208181  1
  O  O45  1  0.500478  0.428695  0.208181  1
  O  O46  1  0.613695  0.116147  0.436830  1
  O  O47  1  0.613695  0.383853  0.436830  1
  O  O48  1  0.652257  0.250000  0.047988  1
  O  O49  1  0.663242  0.620651  0.355341  1
  O  O50  1  0.663242  0.879349  0.355341  1
  O  O51  1  0.699250  0.750000  0.127089  1
  O  O52  1  0.800750  0.250000  0.627089  1
  O  O53  1  0.836758  0.120651  0.855341  1
  O  O54  1  0.836758  0.379349  0.855341  1
  O  O55  1  0.847743  0.750000  0.547988  1
  O  O56  1  0.886305  0.616147  0.936830  1
  O  O57  1  0.886305  0.883853  0.936830  1
  O  O58  1  0.999522  0.571305  0.708181  1
  O  O59  1  0.999522  0.928695  0.708181  1
