# generated using pymatgen
data_Li7(SbS)2
_symmetry_space_group_name_H-M   'P 1'
_cell_length_a   7.51687909
_cell_length_b   8.69999104
_cell_length_c   13.19094982
_cell_angle_alpha   90.00000000
_cell_angle_beta   90.00000000
_cell_angle_gamma   90.00000000
_symmetry_Int_Tables_number   1
_chemical_formula_structural   Li7(SbS)2
_chemical_formula_sum   'Li28 Sb8 S8'
_cell_volume   862.64565302
_cell_formula_units_Z   4
loop_
 _symmetry_equiv_pos_site_id
 _symmetry_equiv_pos_as_xyz
  1  'x, y, z'
loop_
 _atom_site_type_symbol
 _atom_site_label
 _atom_site_symmetry_multiplicity
 _atom_site_fract_x
 _atom_site_fract_y
 _atom_site_fract_z
 _atom_site_occupancy
  Li  Li0  1  0.669286  0.492386  0.956202  1
  Li  Li1  1  0.669286  0.007614  0.956202  1
  Li  Li2  1  0.258128  0.750000  0.915092  1
  Li  Li3  1  0.311293  0.250000  0.886826  1
  Li  Li4  1  0.551034  0.750000  0.814725  1
  Li  Li5  1  0.084627  0.528342  0.791889  1
  Li  Li6  1  0.084627  0.971658  0.791889  1
  Li  Li7  1  0.584627  0.471658  0.708111  1
  Li  Li8  1  0.584627  0.028342  0.708111  1
  Li  Li9  1  0.051034  0.250000  0.685275  1
  Li  Li10  1  0.811293  0.750000  0.613174  1
  Li  Li11  1  0.758128  0.250000  0.584908  1
  Li  Li12  1  0.169286  0.507614  0.543798  1
  Li  Li13  1  0.169286  0.992386  0.543798  1
  Li  Li14  1  0.830714  0.492386  0.456202  1
  Li  Li15  1  0.830714  0.007614  0.456202  1
  Li  Li16  1  0.241872  0.750000  0.415092  1
  Li  Li17  1  0.188707  0.250000  0.386826  1
  Li  Li18  1  0.948966  0.750000  0.314725  1
  Li  Li19  1  0.415373  0.528342  0.291889  1
  Li  Li20  1  0.415373  0.971658  0.291889  1
  Li  Li21  1  0.915373  0.471658  0.208111  1
  Li  Li22  1  0.915373  0.028342  0.208111  1
  Li  Li23  1  0.448966  0.250000  0.185275  1
  Li  Li24  1  0.688707  0.750000  0.113174  1
  Li  Li25  1  0.741872  0.250000  0.084908  1
  Li  Li26  1  0.330714  0.507614  0.043798  1
  Li  Li27  1  0.330714  0.992386  0.043798  1
  Sb  Sb28  1  0.926709  0.250000  0.900628  1
  Sb  Sb29  1  0.895631  0.750000  0.913552  1
  Sb  Sb30  1  0.395631  0.250000  0.586448  1
  Sb  Sb31  1  0.426709  0.750000  0.599372  1
  Sb  Sb32  1  0.573291  0.250000  0.400628  1
  Sb  Sb33  1  0.604369  0.750000  0.413552  1
  Sb  Sb34  1  0.104369  0.250000  0.086448  1
  Sb  Sb35  1  0.073291  0.750000  0.099372  1
  S  S36  1  0.398717  0.982368  0.860288  1
  S  S37  1  0.398717  0.517632  0.860288  1
  S  S38  1  0.898717  0.017632  0.639712  1
  S  S39  1  0.898717  0.482368  0.639712  1
  S  S40  1  0.101283  0.982368  0.360288  1
  S  S41  1  0.101283  0.517632  0.360288  1
  S  S42  1  0.601283  0.017632  0.139712  1
  S  S43  1  0.601283  0.482368  0.139712  1
