# generated using pymatgen
data_KFe2H(SeO3)4
_symmetry_space_group_name_H-M   'P 1'
_cell_length_a   10.21099162
_cell_length_b   5.37103050
_cell_length_c   10.78569330
_cell_angle_alpha   90.00000000
_cell_angle_beta   96.77445312
_cell_angle_gamma   90.00000000
_symmetry_Int_Tables_number   1
_chemical_formula_structural   KFe2H(SeO3)4
_chemical_formula_sum   'K2 Fe4 H2 Se8 O24'
_cell_volume   587.39576997
_cell_formula_units_Z   2
loop_
 _symmetry_equiv_pos_site_id
 _symmetry_equiv_pos_as_xyz
  1  'x, y, z'
loop_
 _atom_site_type_symbol
 _atom_site_label
 _atom_site_symmetry_multiplicity
 _atom_site_fract_x
 _atom_site_fract_y
 _atom_site_fract_z
 _atom_site_occupancy
  K  K0  1  0.000000  0.429856  0.000000  1
  K  K1  1  0.500000  0.504910  0.500000  1
  Fe  Fe2  1  0.753819  0.997505  0.740467  1
  Fe  Fe3  1  0.246181  0.997505  0.259533  1
  Fe  Fe4  1  0.244358  0.486082  0.757612  1
  Fe  Fe5  1  0.755642  0.486082  0.242388  1
  H  H6  1  0.485050  0.812018  0.734922  1
  H  H7  1  0.514950  0.812018  0.265078  1
  Se  Se8  1  0.271980  0.981568  0.936563  1
  Se  Se9  1  0.728020  0.981568  0.063437  1
  Se  Se10  1  0.237053  0.992544  0.576337  1
  Se  Se11  1  0.762947  0.992544  0.423663  1
  Se  Se12  1  0.905089  0.508726  0.644840  1
  Se  Se13  1  0.094911  0.508726  0.355160  1
  Se  Se14  1  0.592192  0.466805  0.847676  1
  Se  Se15  1  0.407808  0.466805  0.152324  1
  O  O16  1  0.194292  0.700442  0.901866  1
  O  O17  1  0.805708  0.700442  0.098134  1
  O  O18  1  0.788952  0.066087  0.925560  1
  O  O19  1  0.211048  0.066087  0.074440  1
  O  O20  1  0.177865  0.184139  0.837296  1
  O  O21  1  0.822135  0.184139  0.162704  1
  O  O22  1  0.307315  0.278356  0.614474  1
  O  O23  1  0.692685  0.278356  0.385526  1
  O  O24  1  0.691576  0.918760  0.557322  1
  O  O25  1  0.308424  0.918760  0.442678  1
  O  O26  1  0.332405  0.792629  0.682000  1
  O  O27  1  0.667595  0.792629  0.318000  1
  O  O28  1  0.073051  0.554538  0.652600  1
  O  O29  1  0.926949  0.554538  0.347400  1
  O  O30  1  0.858372  0.679584  0.769950  1
  O  O31  1  0.141628  0.679584  0.230050  1
  O  O32  1  0.901200  0.206762  0.700989  1
  O  O33  1  0.098800  0.206762  0.299011  1
  O  O34  1  0.429195  0.430954  0.863646  1
  O  O35  1  0.570805  0.430954  0.136354  1
  O  O36  1  0.617801  0.287286  0.722253  1
  O  O37  1  0.382199  0.287286  0.277747  1
  O  O38  1  0.580694  0.779301  0.773001  1
  O  O39  1  0.419306  0.779301  0.226999  1
