# generated using pymatgen
data_Rb2H8O5
_symmetry_space_group_name_H-M   'P 1'
_cell_length_a   8.40408979
_cell_length_b   8.40408979
_cell_length_c   14.99947435
_cell_angle_alpha   63.88204117
_cell_angle_beta   116.11795883
_cell_angle_gamma   126.88569734
_symmetry_Int_Tables_number   1
_chemical_formula_structural   Rb2H8O5
_chemical_formula_sum   'Rb8 H32 O20'
_cell_volume   737.61912311
_cell_formula_units_Z   4
loop_
 _symmetry_equiv_pos_site_id
 _symmetry_equiv_pos_as_xyz
  1  'x, y, z'
loop_
 _atom_site_type_symbol
 _atom_site_label
 _atom_site_symmetry_multiplicity
 _atom_site_fract_x
 _atom_site_fract_y
 _atom_site_fract_z
 _atom_site_occupancy
  Rb  Rb0  1  0.584380  0.375176  0.054889  1
  Rb  Rb1  1  0.131432  0.878670  0.058489  1
  Rb  Rb2  1  0.883738  0.111106  0.196810  1
  Rb  Rb3  1  0.624824  0.415620  0.554889  1
  Rb  Rb4  1  0.839443  0.126415  0.441245  1
  Rb  Rb5  1  0.121330  0.868568  0.558489  1
  Rb  Rb6  1  0.888894  0.116262  0.696810  1
  Rb  Rb7  1  0.873585  0.160557  0.941245  1
  H  H8  1  0.444102  0.841099  0.033923  1
  H  H9  1  0.182226  0.557514  0.058914  1
  H  H10  1  0.610512  0.695083  0.111614  1
  H  H11  1  0.291510  0.415774  0.117482  1
  H  H12  1  0.830670  0.738975  0.190623  1
  H  H13  1  0.258756  0.169323  0.205875  1
  H  H14  1  0.345368  0.183935  0.402843  1
  H  H15  1  0.867167  0.726364  0.331731  1
  H  H16  1  0.397844  0.982969  0.418724  1
  H  H17  1  0.999842  0.585190  0.427547  1
  H  H18  1  0.602424  0.679658  0.324199  1
  H  H19  1  0.323720  0.388008  0.332856  1
  H  H20  1  0.112218  0.542881  0.265394  1
  H  H21  1  0.545023  0.881920  0.295260  1
  H  H22  1  0.408917  0.991413  0.265096  1
  H  H23  1  0.943465  0.555491  0.277310  1
  H  H24  1  0.158901  0.555898  0.533923  1
  H  H25  1  0.442486  0.817774  0.558914  1
  H  H26  1  0.584226  0.708490  0.617482  1
  H  H27  1  0.304917  0.389488  0.611614  1
  H  H28  1  0.457119  0.887782  0.765394  1
  H  H29  1  0.118080  0.454977  0.795260  1
  H  H30  1  0.261025  0.169330  0.690623  1
  H  H31  1  0.444509  0.056535  0.777310  1
  H  H32  1  0.830677  0.741244  0.705875  1
  H  H33  1  0.008587  0.591083  0.765096  1
  H  H34  1  0.273636  0.132833  0.831731  1
  H  H35  1  0.816065  0.654632  0.902843  1
  H  H36  1  0.017031  0.602156  0.918724  1
  H  H37  1  0.414810  0.000158  0.927547  1
  H  H38  1  0.611992  0.676280  0.832856  1
  H  H39  1  0.320342  0.397576  0.824199  1
  O  O40  1  0.755536  0.757717  0.114189  1
  O  O41  1  0.242712  0.223384  0.132044  1
  O  O42  1  0.931264  0.538049  0.965482  1
  O  O43  1  0.497090  0.990290  0.001760  1
  O  O44  1  0.317959  0.572611  0.102773  1
  O  O45  1  0.955018  0.720785  0.307966  1
  O  O46  1  0.963674  0.473043  0.253208  1
  O  O47  1  0.487524  0.979326  0.238597  1
  O  O48  1  0.009710  0.502910  0.501760  1
  O  O49  1  0.671325  0.780441  0.363017  1
  O  O50  1  0.246706  0.245356  0.368141  1
  O  O51  1  0.461951  0.068736  0.465482  1
  O  O52  1  0.020674  0.512476  0.738597  1
  O  O53  1  0.776616  0.757288  0.632044  1
  O  O54  1  0.242283  0.244464  0.614189  1
  O  O55  1  0.526957  0.036326  0.753208  1
  O  O56  1  0.427389  0.682041  0.602773  1
  O  O57  1  0.279215  0.044982  0.807966  1
  O  O58  1  0.219559  0.328675  0.863017  1
  O  O59  1  0.754644  0.753294  0.868141  1
