# generated using pymatgen
data_ZnCoO2
_symmetry_space_group_name_H-M   'P 1'
_cell_length_a   5.27269743
_cell_length_b   5.27269743
_cell_length_c   5.27269743
_cell_angle_alpha   33.65332605
_cell_angle_beta   33.65332605
_cell_angle_gamma   33.65332605
_symmetry_Int_Tables_number   1
_chemical_formula_structural   ZnCoO2
_chemical_formula_sum   'Zn1 Co1 O2'
_cell_volume   40.10427953
_cell_formula_units_Z   1
loop_
 _symmetry_equiv_pos_site_id
 _symmetry_equiv_pos_as_xyz
  1  'x, y, z'
loop_
 _atom_site_type_symbol
 _atom_site_label
 _atom_site_symmetry_multiplicity
 _atom_site_fract_x
 _atom_site_fract_y
 _atom_site_fract_z
 _atom_site_occupancy
  Zn  Zn0  1  0.000000  0.000000  0.000000  1
  Co  Co1  1  0.500000  0.500000  0.500000  1
  O  O2  1  0.750605  0.750605  0.750605  1
  O  O3  1  0.249395  0.249395  0.249395  1
