# generated using pymatgen
data_Mn3F10
_symmetry_space_group_name_H-M   'P 1'
_cell_length_a   6.27757374
_cell_length_b   7.67263856
_cell_length_c   9.70437461
_cell_angle_alpha   110.94860703
_cell_angle_beta   108.63175331
_cell_angle_gamma   92.03757433
_symmetry_Int_Tables_number   1
_chemical_formula_structural   Mn3F10
_chemical_formula_sum   'Mn6 F20'
_cell_volume   407.67595210
_cell_formula_units_Z   2
loop_
 _symmetry_equiv_pos_site_id
 _symmetry_equiv_pos_as_xyz
  1  'x, y, z'
loop_
 _atom_site_type_symbol
 _atom_site_label
 _atom_site_symmetry_multiplicity
 _atom_site_fract_x
 _atom_site_fract_y
 _atom_site_fract_z
 _atom_site_occupancy
  Mn  Mn0  1  0.921648  0.517183  0.837161  1
  Mn  Mn1  1  0.809992  0.978227  0.622494  1
  Mn  Mn2  1  0.257351  0.992255  0.997128  1
  Mn  Mn3  1  0.190008  0.021773  0.377506  1
  Mn  Mn4  1  0.078352  0.482817  0.162839  1
  Mn  Mn5  1  0.742649  0.007745  0.002872  1
  F  F6  1  0.335217  0.020665  0.207335  1
  F  F7  1  0.348118  0.464335  0.277314  1
  F  F8  1  0.990563  0.796428  0.949157  1
  F  F9  1  0.869920  0.255999  0.741697  1
  F  F10  1  0.500075  0.180732  0.044053  1
  F  F11  1  0.763117  0.730254  0.535609  1
  F  F12  1  0.921945  0.460306  0.277822  1
  F  F13  1  0.125056  0.982562  0.792327  1
  F  F14  1  0.193245  0.501835  0.001208  1
  F  F15  1  0.000000  0.000000  0.500000  1
  F  F16  1  0.874944  0.017438  0.207673  1
  F  F17  1  0.078055  0.539694  0.722178  1
  F  F18  1  0.236883  0.269746  0.464391  1
  F  F19  1  0.499925  0.819268  0.955947  1
  F  F20  1  0.130080  0.744001  0.258303  1
  F  F21  1  0.009437  0.203572  0.050843  1
  F  F22  1  0.651882  0.535665  0.722686  1
  F  F23  1  0.500000  0.000000  0.500000  1
  F  F24  1  0.806755  0.498165  0.998792  1
  F  F25  1  0.664783  0.979335  0.792665  1
