# generated using pymatgen
data_CrFe3Sn2(PO4)6
_symmetry_space_group_name_H-M   'P 1'
_cell_length_a   8.81845577
_cell_length_b   8.81845577
_cell_length_c   8.81845577
_cell_angle_alpha   58.87249195
_cell_angle_beta   58.87249195
_cell_angle_gamma   58.87249195
_symmetry_Int_Tables_number   1
_chemical_formula_structural   CrFe3Sn2(PO4)6
_chemical_formula_sum   'Cr1 Fe3 Sn2 P6 O24'
_cell_volume   472.43097937
_cell_formula_units_Z   1
loop_
 _symmetry_equiv_pos_site_id
 _symmetry_equiv_pos_as_xyz
  1  'x, y, z'
loop_
 _atom_site_type_symbol
 _atom_site_label
 _atom_site_symmetry_multiplicity
 _atom_site_fract_x
 _atom_site_fract_y
 _atom_site_fract_z
 _atom_site_occupancy
  Cr  Cr0  1  0.144873  0.144873  0.144873  1
  Fe  Fe1  1  0.851380  0.851380  0.851380  1
  Fe  Fe2  1  0.649372  0.649372  0.649372  1
  Fe  Fe3  1  0.351834  0.351834  0.351834  1
  Sn  Sn4  1  0.997004  0.997004  0.997004  1
  Sn  Sn5  1  0.500811  0.500811  0.500811  1
  P  P6  1  0.536406  0.960727  0.250757  1
  P  P7  1  0.459233  0.042786  0.751181  1
  P  P8  1  0.042786  0.751181  0.459233  1
  P  P9  1  0.751181  0.459233  0.042786  1
  P  P10  1  0.250757  0.536406  0.960727  1
  P  P11  1  0.960727  0.250757  0.536406  1
  O  O12  1  0.699052  0.490525  0.885765  1
  O  O13  1  0.490525  0.885765  0.699052  1
  O  O14  1  0.082535  0.730100  0.940665  1
  O  O15  1  0.885765  0.699052  0.490525  1
  O  O16  1  0.198547  0.380167  0.993597  1
  O  O17  1  0.417047  0.558293  0.764931  1
  O  O18  1  0.940665  0.082535  0.730100  1
  O  O19  1  0.764931  0.417047  0.558293  1
  O  O20  1  0.616469  0.007786  0.804009  1
  O  O21  1  0.558293  0.764931  0.417047  1
  O  O22  1  0.266670  0.063546  0.918242  1
  O  O23  1  0.007786  0.804009  0.616469  1
  O  O24  1  0.993597  0.198547  0.380167  1
  O  O25  1  0.730100  0.940665  0.082535  1
  O  O26  1  0.439206  0.236219  0.584277  1
  O  O27  1  0.380167  0.993597  0.198547  1
  O  O28  1  0.236219  0.584277  0.439206  1
  O  O29  1  0.063546  0.918242  0.266670  1
  O  O30  1  0.584277  0.439206  0.236219  1
  O  O31  1  0.804009  0.616469  0.007786  1
  O  O32  1  0.113204  0.307220  0.505568  1
  O  O33  1  0.918242  0.266670  0.063546  1
  O  O34  1  0.505568  0.113204  0.307220  1
  O  O35  1  0.307220  0.505568  0.113204  1
