# generated using pymatgen
data_LiTiFeO4
_symmetry_space_group_name_H-M   'P 1'
_cell_length_a   6.00620467
_cell_length_b   6.00620467
_cell_length_c   6.00620467
_cell_angle_alpha   120.25019158
_cell_angle_beta   119.98101964
_cell_angle_gamma   89.80004019
_symmetry_Int_Tables_number   1
_chemical_formula_structural   LiTiFeO4
_chemical_formula_sum   'Li2 Ti2 Fe2 O8'
_cell_volume   152.93960724
_cell_formula_units_Z   2
loop_
 _symmetry_equiv_pos_site_id
 _symmetry_equiv_pos_as_xyz
  1  'x, y, z'
loop_
 _atom_site_type_symbol
 _atom_site_label
 _atom_site_symmetry_multiplicity
 _atom_site_fract_x
 _atom_site_fract_y
 _atom_site_fract_z
 _atom_site_occupancy
  Li  Li0  1  0.628625  0.878625  0.250000  1
  Li  Li1  1  0.371375  0.121375  0.750000  1
  Ti  Ti2  1  0.000000  0.500000  0.500000  1
  Ti  Ti3  1  0.000000  0.000000  0.000000  1
  Fe  Fe4  1  0.000000  0.500000  1.000000  1
  Fe  Fe5  1  0.500000  0.500000  0.500000  1
  O  O6  1  0.214734  0.743704  0.971030  1
  O  O7  1  0.768451  0.289757  0.521306  1
  O  O8  1  0.768451  0.747146  0.978694  1
  O  O9  1  0.772674  0.743704  0.528970  1
  O  O10  1  0.227326  0.256296  0.471030  1
  O  O11  1  0.231549  0.710243  0.478694  1
  O  O12  1  0.231549  0.252854  0.021306  1
  O  O13  1  0.785266  0.256296  0.028970  1
