# generated using pymatgen
data_Li2CuP6H20C2(N3O11)2
_symmetry_space_group_name_H-M   'P 1'
_cell_length_a   7.62793213
_cell_length_b   9.34574756
_cell_length_c   9.57439863
_cell_angle_alpha   85.23737994
_cell_angle_beta   109.44557937
_cell_angle_gamma   108.04441597
_symmetry_Int_Tables_number   1
_chemical_formula_structural   Li2CuP6H20C2(N3O11)2
_chemical_formula_sum   'Li2 Cu1 P6 H20 C2 N6 O22'
_cell_volume   611.80423846
_cell_formula_units_Z   1
loop_
 _symmetry_equiv_pos_site_id
 _symmetry_equiv_pos_as_xyz
  1  'x, y, z'
loop_
 _atom_site_type_symbol
 _atom_site_label
 _atom_site_symmetry_multiplicity
 _atom_site_fract_x
 _atom_site_fract_y
 _atom_site_fract_z
 _atom_site_occupancy
  Li  Li0  1  0.173786  0.941032  0.848616  1
  Li  Li1  1  0.826214  0.058968  0.151384  1
  Cu  Cu2  1  0.500000  0.500000  0.500000  1
  P  P3  1  0.326299  0.201621  0.655451  1
  P  P4  1  0.673701  0.798379  0.344549  1
  P  P5  1  0.569571  0.003197  0.797104  1
  P  P6  1  0.430429  0.996803  0.202896  1
  P  P7  1  0.723517  0.820114  0.656076  1
  P  P8  1  0.276483  0.179886  0.343924  1
  H  H9  1  0.859129  0.709206  0.953496  1
  H  H10  1  0.140871  0.290794  0.046504  1
  H  H11  1  0.190778  0.274087  0.883902  1
  H  H12  1  0.809222  0.725913  0.116098  1
  H  H13  1  0.678763  0.509545  0.235344  1
  H  H14  1  0.321237  0.490455  0.764656  1
  H  H15  1  0.633540  0.331563  0.164618  1
  H  H16  1  0.366460  0.668437  0.835382  1
  H  H17  1  0.721918  0.308449  0.955788  1
  H  H18  1  0.278082  0.691551  0.044212  1
  H  H19  1  0.795589  0.464916  0.855699  1
  H  H20  1  0.204411  0.535084  0.144301  1
  H  H21  1  0.795137  0.228568  0.410590  1
  H  H22  1  0.204863  0.771432  0.589410  1
  H  H23  1  0.078498  0.803321  0.430745  1
  H  H24  1  0.921502  0.196679  0.569255  1
  H  H25  1  0.163019  0.597182  0.397133  1
  H  H26  1  0.836981  0.402818  0.602867  1
  H  H27  1  0.100551  0.424987  0.368980  1
  H  H28  1  0.899449  0.575013  0.631020  1
  C  C29  1  0.757700  0.508505  0.050721  1
  C  C30  1  0.242300  0.491495  0.949279  1
  N  N31  1  0.812460  0.658614  0.039053  1
  N  N32  1  0.187540  0.341386  0.960947  1
  N  N33  1  0.302306  0.554857  0.836240  1
  N  N34  1  0.697694  0.445143  0.163760  1
  N  N35  1  0.765987  0.421756  0.950128  1
  N  N36  1  0.234013  0.578244  0.049872  1
  O  O37  1  0.805761  0.864235  0.254292  1
  O  O38  1  0.194239  0.135765  0.745708  1
  O  O39  1  0.383109  0.370913  0.641742  1
  O  O40  1  0.616891  0.629087  0.358258  1
  O  O41  1  0.526024  0.156291  0.717958  1
  O  O42  1  0.473976  0.843709  0.282042  1
  O  O43  1  0.779414  0.878406  0.506954  1
  O  O44  1  0.220586  0.121594  0.493046  1
  O  O45  1  0.379729  0.883820  0.788423  1
  O  O46  1  0.620271  0.116180  0.211577  1
  O  O47  1  0.271760  0.949754  0.059153  1
  O  O48  1  0.728240  0.050246  0.940847  1
  O  O49  1  0.658176  0.962410  0.678659  1
  O  O50  1  0.341824  0.037590  0.321341  1
  O  O51  1  0.095119  0.187557  0.223356  1
  O  O52  1  0.904881  0.812443  0.776644  1
  O  O53  1  0.453735  0.317644  0.379205  1
  O  O54  1  0.546265  0.682356  0.620795  1
  O  O55  1  0.105919  0.722090  0.497414  1
  O  O56  1  0.894081  0.277910  0.502586  1
  O  O57  1  0.186727  0.519049  0.346836  1
  O  O58  1  0.813273  0.480951  0.653164  1
