# generated using pymatgen
data_NaLi5Fe2P2(CO7)2
_symmetry_space_group_name_H-M   'P 1'
_cell_length_a   6.53581888
_cell_length_b   8.56904950
_cell_length_c   10.11539341
_cell_angle_alpha   85.82909763
_cell_angle_beta   89.91662104
_cell_angle_gamma   89.17155665
_symmetry_Int_Tables_number   1
_chemical_formula_structural   NaLi5Fe2P2(CO7)2
_chemical_formula_sum   'Na2 Li10 Fe4 P4 C4 O28'
_cell_volume   564.96073709
_cell_formula_units_Z   2
loop_
 _symmetry_equiv_pos_site_id
 _symmetry_equiv_pos_as_xyz
  1  'x, y, z'
loop_
 _atom_site_type_symbol
 _atom_site_label
 _atom_site_symmetry_multiplicity
 _atom_site_fract_x
 _atom_site_fract_y
 _atom_site_fract_z
 _atom_site_occupancy
  Na  Na0  1  0.500071  0.744053  0.371718  1
  Na  Na1  1  0.499929  0.255947  0.628282  1
  Li  Li2  1  0.765627  0.908471  0.121773  1
  Li  Li3  1  0.770560  0.913181  0.625969  1
  Li  Li4  1  0.977274  0.723025  0.377752  1
  Li  Li5  1  0.976070  0.723459  0.877439  1
  Li  Li6  1  0.517363  0.728451  0.874379  1
  Li  Li7  1  0.482637  0.271549  0.125621  1
  Li  Li8  1  0.023930  0.276541  0.122561  1
  Li  Li9  1  0.022726  0.276975  0.622248  1
  Li  Li10  1  0.229440  0.086819  0.374031  1
  Li  Li11  1  0.234373  0.091529  0.878227  1
  Fe  Fe12  1  0.246839  0.663581  0.103800  1
  Fe  Fe13  1  0.244664  0.658461  0.608691  1
  Fe  Fe14  1  0.755336  0.341539  0.391309  1
  Fe  Fe15  1  0.753161  0.336419  0.896200  1
  P  P16  1  0.752687  0.588827  0.141918  1
  P  P17  1  0.755178  0.589779  0.645796  1
  P  P18  1  0.244822  0.410221  0.354204  1
  P  P19  1  0.247313  0.411173  0.858082  1
  C  C20  1  0.247011  0.966470  0.141588  1
  C  C21  1  0.239787  0.959000  0.647079  1
  C  C22  1  0.760213  0.041000  0.352921  1
  C  C23  1  0.752989  0.033530  0.858412  1
  O  O24  1  0.778533  0.897733  0.321581  1
  O  O25  1  0.745767  0.888107  0.830762  1
  O  O26  1  0.247178  0.925565  0.020579  1
  O  O27  1  0.250794  0.923834  0.524323  1
  O  O28  1  0.238488  0.857592  0.238678  1
  O  O29  1  0.246440  0.846519  0.741926  1
  O  O30  1  0.933243  0.689579  0.082814  1
  O  O31  1  0.560282  0.690671  0.099394  1
  O  O32  1  0.930361  0.701497  0.594664  1
  O  O33  1  0.556761  0.679710  0.600111  1
  O  O34  1  0.770742  0.571563  0.295798  1
  O  O35  1  0.225122  0.572168  0.410940  1
  O  O36  1  0.758493  0.569668  0.800961  1
  O  O37  1  0.253719  0.576338  0.910053  1
  O  O38  1  0.746281  0.423662  0.089947  1
  O  O39  1  0.241507  0.430332  0.199039  1
  O  O40  1  0.774878  0.427832  0.589060  1
  O  O41  1  0.229258  0.428437  0.704202  1
  O  O42  1  0.443239  0.320290  0.399889  1
  O  O43  1  0.069639  0.298503  0.405336  1
  O  O44  1  0.439718  0.309329  0.900606  1
  O  O45  1  0.066757  0.310421  0.917186  1
  O  O46  1  0.753560  0.153481  0.258074  1
  O  O47  1  0.761512  0.142408  0.761322  1
  O  O48  1  0.749206  0.076166  0.475677  1
  O  O49  1  0.752822  0.074435  0.979421  1
  O  O50  1  0.254233  0.111893  0.169238  1
  O  O51  1  0.221467  0.102267  0.678419  1
