# generated using pymatgen
data_Mn3(O2F)2
_symmetry_space_group_name_H-M   'P 1'
_cell_length_a   3.03833495
_cell_length_b   4.67607567
_cell_length_c   13.95335610
_cell_angle_alpha   90.00000000
_cell_angle_beta   90.00000000
_cell_angle_gamma   90.00000000
_symmetry_Int_Tables_number   1
_chemical_formula_structural   Mn3(O2F)2
_chemical_formula_sum   'Mn6 O8 F4'
_cell_volume   198.24208548
_cell_formula_units_Z   2
loop_
 _symmetry_equiv_pos_site_id
 _symmetry_equiv_pos_as_xyz
  1  'x, y, z'
loop_
 _atom_site_type_symbol
 _atom_site_label
 _atom_site_symmetry_multiplicity
 _atom_site_fract_x
 _atom_site_fract_y
 _atom_site_fract_z
 _atom_site_occupancy
  Mn  Mn0  1  0.500000  0.924622  0.673776  1
  Mn  Mn1  1  0.500000  0.000000  0.000000  1
  Mn  Mn2  1  0.500000  0.075378  0.326224  1
  Mn  Mn3  1  0.000000  0.424622  0.826224  1
  Mn  Mn4  1  0.000000  0.575378  0.173776  1
  Mn  Mn5  1  0.000000  0.500000  0.500000  1
  O  O6  1  0.000000  0.178658  0.934835  1
  O  O7  1  0.000000  0.261209  0.266911  1
  O  O8  1  0.500000  0.238791  0.766911  1
  O  O9  1  0.500000  0.321342  0.434835  1
  O  O10  1  0.500000  0.761209  0.233089  1
  O  O11  1  0.500000  0.678658  0.565165  1
  O  O12  1  0.000000  0.738791  0.733089  1
  O  O13  1  0.000000  0.821342  0.065165  1
  F  F14  1  0.000000  0.146517  0.608310  1
  F  F15  1  0.500000  0.353483  0.108310  1
  F  F16  1  0.500000  0.646517  0.891690  1
  F  F17  1  0.000000  0.853483  0.391690  1
