# generated using pymatgen
data_Pd4Se
_symmetry_space_group_name_H-M   'P 1'
_cell_length_a   5.31480653
_cell_length_b   5.31480653
_cell_length_c   5.76239735
_cell_angle_alpha   90.00000000
_cell_angle_beta   90.00000000
_cell_angle_gamma   90.00000000
_symmetry_Int_Tables_number   1
_chemical_formula_structural   Pd4Se
_chemical_formula_sum   'Pd8 Se2'
_cell_volume   162.77140863
_cell_formula_units_Z   2
loop_
 _symmetry_equiv_pos_site_id
 _symmetry_equiv_pos_as_xyz
  1  'x, y, z'
loop_
 _atom_site_type_symbol
 _atom_site_label
 _atom_site_symmetry_multiplicity
 _atom_site_fract_x
 _atom_site_fract_y
 _atom_site_fract_z
 _atom_site_occupancy
  Pd  Pd0  1  0.627706  0.767591  0.845519  1
  Pd  Pd1  1  0.732409  0.872294  0.345519  1
  Pd  Pd2  1  0.267591  0.127706  0.345519  1
  Pd  Pd3  1  0.232409  0.627706  0.154481  1
  Pd  Pd4  1  0.872294  0.267591  0.654481  1
  Pd  Pd5  1  0.127706  0.732409  0.654481  1
  Pd  Pd6  1  0.372294  0.232409  0.845519  1
  Pd  Pd7  1  0.767591  0.372294  0.154481  1
  Se  Se8  1  0.500000  0.500000  0.500000  1
  Se  Se9  1  0.000000  0.000000  0.000000  1
