# generated using pymatgen
data_Li8Mn7Nb(PO4)12
_symmetry_space_group_name_H-M   'P 1'
_cell_length_a   8.56229459
_cell_length_b   8.78615609
_cell_length_c   12.26730064
_cell_angle_alpha   90.06534377
_cell_angle_beta   90.46961788
_cell_angle_gamma   90.90212688
_symmetry_Int_Tables_number   1
_chemical_formula_structural   Li8Mn7Nb(PO4)12
_chemical_formula_sum   'Li8 Mn7 Nb1 P12 O48'
_cell_volume   922.71868693
_cell_formula_units_Z   1
loop_
 _symmetry_equiv_pos_site_id
 _symmetry_equiv_pos_as_xyz
  1  'x, y, z'
loop_
 _atom_site_type_symbol
 _atom_site_label
 _atom_site_symmetry_multiplicity
 _atom_site_fract_x
 _atom_site_fract_y
 _atom_site_fract_z
 _atom_site_occupancy
  Li  Li0  1  0.217708  0.722034  0.181474  1
  Li  Li1  1  0.219550  0.780978  0.818824  1
  Li  Li2  1  0.278761  0.222901  0.316545  1
  Li  Li3  1  0.279704  0.275702  0.683986  1
  Li  Li4  1  0.719297  0.727573  0.314819  1
  Li  Li5  1  0.721738  0.784917  0.683033  1
  Li  Li6  1  0.779442  0.222234  0.182555  1
  Li  Li7  1  0.783694  0.276241  0.827240  1
  Mn  Mn8  1  0.250247  0.962588  0.612348  1
  Mn  Mn9  1  0.250907  0.538415  0.386939  1
  Mn  Mn10  1  0.251475  0.038138  0.112617  1
  Mn  Mn11  1  0.251701  0.462905  0.888933  1
  Mn  Mn12  1  0.748848  0.539165  0.112806  1
  Mn  Mn13  1  0.749711  0.963773  0.888907  1
  Mn  Mn14  1  0.747966  0.035714  0.386065  1
  Nb  Nb15  1  0.753125  0.460406  0.614079  1
  P  P16  1  0.040491  0.243803  0.495498  1
  P  P17  1  0.464794  0.750553  0.001127  1
  P  P18  1  0.533913  0.254324  0.001099  1
  P  P19  1  0.970757  0.750295  0.496796  1
  P  P20  1  0.105045  0.394845  0.142517  1
  P  P21  1  0.106010  0.104678  0.857433  1
  P  P22  1  0.390741  0.606066  0.651099  1
  P  P23  1  0.395016  0.897353  0.350804  1
  P  P24  1  0.602635  0.098474  0.646999  1
  P  P25  1  0.600260  0.396486  0.350825  1
  P  P26  1  0.900372  0.605980  0.853170  1
  P  P27  1  0.894670  0.896646  0.144654  1
  O  O28  1  0.064110  0.639669  0.428064  1
  O  O29  1  0.062447  0.856298  0.573633  1
  O  O30  1  0.077706  0.897356  0.155299  1
  O  O31  1  0.081054  0.601499  0.840190  1
  O  O32  1  0.141317  0.165446  0.581616  1
  O  O33  1  0.142329  0.334289  0.416250  1
  O  O34  1  0.152678  0.434084  0.024898  1
  O  O35  1  0.155056  0.064586  0.974249  1
  O  O36  1  0.158826  0.231490  0.176245  1
  O  O37  1  0.160096  0.269133  0.823743  1
  O  O38  1  0.177436  0.513892  0.219903  1
  O  O39  1  0.173969  0.987711  0.779005  1
  O  O40  1  0.324688  0.017443  0.270180  1
  O  O41  1  0.325037  0.483122  0.731120  1
  O  O42  1  0.341701  0.766637  0.683700  1
  O  O43  1  0.341853  0.735403  0.317968  1
  O  O44  1  0.344120  0.558856  0.536812  1
  O  O45  1  0.344220  0.942606  0.464305  1
  O  O46  1  0.355917  0.838623  0.080554  1
  O  O47  1  0.354224  0.660887  0.920173  1
  O  O48  1  0.421859  0.101280  0.657522  1
  O  O49  1  0.419413  0.398987  0.346059  1
  O  O50  1  0.439092  0.144770  0.074255  1
  O  O51  1  0.438571  0.360083  0.926110  1
  O  O52  1  0.558026  0.643894  0.073868  1
  O  O53  1  0.558495  0.857531  0.927223  1
  O  O54  1  0.575672  0.601280  0.659534  1
  O  O55  1  0.577241  0.899558  0.341725  1
  O  O56  1  0.639460  0.342724  0.084047  1
  O  O57  1  0.639582  0.170823  0.921398  1
  O  O58  1  0.654355  0.061229  0.532907  1
  O  O59  1  0.651292  0.429033  0.474166  1
  O  O60  1  0.653582  0.237687  0.319297  1
  O  O61  1  0.658396  0.265748  0.678893  1
  O  O62  1  0.674242  0.521884  0.283101  1
  O  O63  1  0.674511  0.986051  0.728820  1
  O  O64  1  0.825464  0.014356  0.223231  1
  O  O65  1  0.831492  0.480645  0.770613  1
  O  O66  1  0.841891  0.732902  0.177498  1
  O  O67  1  0.845653  0.761817  0.815009  1
  O  O68  1  0.847368  0.561013  0.964941  1
  O  O69  1  0.847030  0.935436  0.028181  1
  O  O70  1  0.860276  0.656644  0.578568  1
  O  O71  1  0.856947  0.830161  0.420948  1
  O  O72  1  0.923864  0.104749  0.847351  1
  O  O73  1  0.923928  0.395332  0.152690  1
  O  O74  1  0.938338  0.137035  0.426752  1
  O  O75  1  0.936593  0.355131  0.564199  1
