# generated using pymatgen
data_Mn2CrO6
_symmetry_space_group_name_H-M   'P 1'
_cell_length_a   5.07693511
_cell_length_b   5.07693511
_cell_length_c   9.61052332
_cell_angle_alpha   90.00000000
_cell_angle_beta   90.00000000
_cell_angle_gamma   120.19456052
_symmetry_Int_Tables_number   1
_chemical_formula_structural   Mn2CrO6
_chemical_formula_sum   'Mn4 Cr2 O12'
_cell_volume   214.10465391
_cell_formula_units_Z   2
loop_
 _symmetry_equiv_pos_site_id
 _symmetry_equiv_pos_as_xyz
  1  'x, y, z'
loop_
 _atom_site_type_symbol
 _atom_site_label
 _atom_site_symmetry_multiplicity
 _atom_site_fract_x
 _atom_site_fract_y
 _atom_site_fract_z
 _atom_site_occupancy
  Mn  Mn0  1  0.167042  0.832958  0.500000  1
  Mn  Mn1  1  0.332958  0.667042  0.000000  1
  Mn  Mn2  1  0.667042  0.332958  0.000000  1
  Mn  Mn3  1  0.832958  0.167042  0.500000  1
  Cr  Cr4  1  0.000000  0.000000  0.000000  1
  Cr  Cr5  1  0.500000  0.500000  0.500000  1
  O  O6  1  0.334651  0.999355  0.100015  1
  O  O7  1  0.665349  0.000645  0.899985  1
  O  O8  1  0.499355  0.834651  0.399985  1
  O  O9  1  0.165349  0.500645  0.600015  1
  O  O10  1  0.833807  0.833807  0.599335  1
  O  O11  1  0.666193  0.666193  0.099335  1
  O  O12  1  0.333807  0.333807  0.900665  1
  O  O13  1  0.000645  0.665349  0.899985  1
  O  O14  1  0.166193  0.166193  0.400665  1
  O  O15  1  0.834651  0.499355  0.399985  1
  O  O16  1  0.500645  0.165349  0.600015  1
  O  O17  1  0.999355  0.334651  0.100015  1
