# generated using pymatgen
data_CaLaI5
_symmetry_space_group_name_H-M   'P 1'
_cell_length_a   4.49717687
_cell_length_b   15.19999015
_cell_length_c   18.29752565
_cell_angle_alpha   90.00000000
_cell_angle_beta   90.00000000
_cell_angle_gamma   90.00000000
_symmetry_Int_Tables_number   1
_chemical_formula_structural   CaLaI5
_chemical_formula_sum   'Ca4 La4 I20'
_cell_volume   1250.76476827
_cell_formula_units_Z   4
loop_
 _symmetry_equiv_pos_site_id
 _symmetry_equiv_pos_as_xyz
  1  'x, y, z'
loop_
 _atom_site_type_symbol
 _atom_site_label
 _atom_site_symmetry_multiplicity
 _atom_site_fract_x
 _atom_site_fract_y
 _atom_site_fract_z
 _atom_site_occupancy
  Ca  Ca0  1  0.750000  0.238965  0.091942  1
  Ca  Ca1  1  0.250000  0.738965  0.408058  1
  Ca  Ca2  1  0.750000  0.261035  0.591942  1
  Ca  Ca3  1  0.250000  0.761035  0.908058  1
  La  La4  1  0.750000  0.742583  0.156789  1
  La  La5  1  0.250000  0.242583  0.343211  1
  La  La6  1  0.750000  0.757417  0.656789  1
  La  La7  1  0.250000  0.257417  0.843211  1
  I  I8  1  0.250000  0.349626  0.017051  1
  I  I9  1  0.250000  0.861468  0.059170  1
  I  I10  1  0.250000  0.596129  0.154404  1
  I  I11  1  0.250000  0.132826  0.169965  1
  I  I12  1  0.750000  0.349249  0.238598  1
  I  I13  1  0.250000  0.849249  0.261402  1
  I  I14  1  0.750000  0.632826  0.330035  1
  I  I15  1  0.750000  0.096129  0.345596  1
  I  I16  1  0.750000  0.361468  0.440830  1
  I  I17  1  0.750000  0.849626  0.482949  1
  I  I18  1  0.250000  0.150374  0.517051  1
  I  I19  1  0.250000  0.638532  0.559170  1
  I  I20  1  0.250000  0.903871  0.654404  1
  I  I21  1  0.250000  0.367174  0.669965  1
  I  I22  1  0.750000  0.150751  0.738598  1
  I  I23  1  0.250000  0.650751  0.761402  1
  I  I24  1  0.750000  0.867174  0.830035  1
  I  I25  1  0.750000  0.403871  0.845596  1
  I  I26  1  0.750000  0.138532  0.940830  1
  I  I27  1  0.750000  0.650374  0.982949  1
