# generated using pymatgen
data_V6O5F19
_symmetry_space_group_name_H-M   'P 1'
_cell_length_a   5.35724535
_cell_length_b   5.49728862
_cell_length_c   14.92364567
_cell_angle_alpha   100.56613654
_cell_angle_beta   89.65687274
_cell_angle_gamma   92.05213432
_symmetry_Int_Tables_number   1
_chemical_formula_structural   V6O5F19
_chemical_formula_sum   'V6 O5 F19'
_cell_volume   431.77671804
_cell_formula_units_Z   1
loop_
 _symmetry_equiv_pos_site_id
 _symmetry_equiv_pos_as_xyz
  1  'x, y, z'
loop_
 _atom_site_type_symbol
 _atom_site_label
 _atom_site_symmetry_multiplicity
 _atom_site_fract_x
 _atom_site_fract_y
 _atom_site_fract_z
 _atom_site_occupancy
  V  V0  1  0.032274  0.951136  0.995699  1
  V  V1  1  0.540019  0.801954  0.670274  1
  V  V2  1  0.949588  0.653851  0.338183  1
  V  V3  1  0.515140  0.486314  0.001706  1
  V  V4  1  0.033083  0.291738  0.663592  1
  V  V5  1  0.442904  0.192528  0.327483  1
  O  O6  1  0.769554  0.630375  0.686041  1
  O  O7  1  0.719476  0.453573  0.351686  1
  O  O8  1  0.197425  0.700442  0.974713  1
  O  O9  1  0.218350  0.376674  0.309797  1
  O  O10  1  0.208681  0.054311  0.648218  1
  F  F11  1  0.793446  0.943912  0.359726  1
  F  F12  1  0.714705  0.805317  0.024374  1
  F  F13  1  0.288007  0.884254  0.312195  1
  F  F14  1  0.904699  0.979305  0.889127  1
  F  F15  1  0.563746  0.812328  0.552616  1
  F  F16  1  0.944121  0.633722  0.218612  1
  F  F17  1  0.405581  0.876783  0.780402  1
  F  F18  1  0.093845  0.713182  0.447092  1
  F  F19  1  0.400967  0.548787  0.114482  1
  F  F20  1  0.792899  0.322168  0.026902  1
  F  F21  1  0.283169  0.538787  0.638387  1
  F  F22  1  0.572313  0.464320  0.883863  1
  F  F23  1  0.909060  0.285237  0.553224  1
  F  F24  1  0.592393  0.107369  0.220450  1
  F  F25  1  0.070329  0.415842  0.781162  1
  F  F26  1  0.440052  0.215451  0.447163  1
  F  F27  1  0.077316  0.059057  0.113302  1
  F  F28  1  0.724811  0.121838  0.694595  1
  F  F29  1  0.302045  0.179441  0.974940  1
