# generated using pymatgen
data_NdInO3
_symmetry_space_group_name_H-M   'P 1'
_cell_length_a   5.68167575
_cell_length_b   6.00380785
_cell_length_c   8.24042082
_cell_angle_alpha   90.00000000
_cell_angle_beta   90.00000000
_cell_angle_gamma   90.00000000
_symmetry_Int_Tables_number   1
_chemical_formula_structural   NdInO3
_chemical_formula_sum   'Nd4 In4 O12'
_cell_volume   281.09467611
_cell_formula_units_Z   4
loop_
 _symmetry_equiv_pos_site_id
 _symmetry_equiv_pos_as_xyz
  1  'x, y, z'
loop_
 _atom_site_type_symbol
 _atom_site_label
 _atom_site_symmetry_multiplicity
 _atom_site_fract_x
 _atom_site_fract_y
 _atom_site_fract_z
 _atom_site_occupancy
  Nd  Nd0  1  0.982249  0.062833  0.250000  1
  Nd  Nd1  1  0.482249  0.437167  0.750000  1
  Nd  Nd2  1  0.517751  0.562833  0.250000  1
  Nd  Nd3  1  0.017751  0.937167  0.750000  1
  In  In4  1  0.500000  0.000000  0.000000  1
  In  In5  1  0.500000  0.000000  0.500000  1
  In  In6  1  0.000000  0.500000  0.000000  1
  In  In7  1  0.000000  0.500000  0.500000  1
  O  O8  1  0.626894  0.057997  0.750000  1
  O  O9  1  0.187429  0.190590  0.563991  1
  O  O10  1  0.187429  0.190590  0.936009  1
  O  O11  1  0.687429  0.309410  0.063991  1
  O  O12  1  0.687429  0.309410  0.436009  1
  O  O13  1  0.126894  0.442003  0.250000  1
  O  O14  1  0.873106  0.557997  0.750000  1
  O  O15  1  0.312571  0.690590  0.936009  1
  O  O16  1  0.312571  0.690590  0.563991  1
  O  O17  1  0.812571  0.809410  0.063991  1
  O  O18  1  0.812571  0.809410  0.436009  1
  O  O19  1  0.373106  0.942003  0.250000  1
