# generated using pymatgen
data_Bi19(O9F)3
_symmetry_space_group_name_H-M   'P 1'
_cell_length_a   13.08401234
_cell_length_b   13.08401234
_cell_length_c   10.46398420
_cell_angle_alpha   90.00000000
_cell_angle_beta   90.00000000
_cell_angle_gamma   120.00000000
_symmetry_Int_Tables_number   1
_chemical_formula_structural   Bi19(O9F)3
_chemical_formula_sum   'Bi38 O54 F6'
_cell_volume   1551.34930992
_cell_formula_units_Z   2
loop_
 _symmetry_equiv_pos_site_id
 _symmetry_equiv_pos_as_xyz
  1  'x, y, z'
loop_
 _atom_site_type_symbol
 _atom_site_label
 _atom_site_symmetry_multiplicity
 _atom_site_fract_x
 _atom_site_fract_y
 _atom_site_fract_z
 _atom_site_occupancy
  Bi  Bi0  1  0.237052  0.937538  0.245971  1
  Bi  Bi1  1  0.221448  0.937039  0.583715  1
  Bi  Bi2  1  0.240884  0.938383  0.917100  1
  Bi  Bi3  1  0.134288  0.611756  0.248701  1
  Bi  Bi4  1  0.133765  0.606193  0.582926  1
  Bi  Bi5  1  0.133023  0.613905  0.916639  1
  Bi  Bi6  1  0.062462  0.299513  0.245971  1
  Bi  Bi7  1  0.062961  0.284409  0.583715  1
  Bi  Bi8  1  0.061617  0.302501  0.917100  1
  Bi  Bi9  1  0.000000  0.000000  0.348014  1
  Bi  Bi10  1  0.000000  0.000000  0.848014  1
  Bi  Bi11  1  0.480882  0.866977  0.916639  1
  Bi  Bi12  1  0.472429  0.866235  0.582926  1
  Bi  Bi13  1  0.477468  0.865712  0.248701  1
  Bi  Bi14  1  0.393807  0.527571  0.582926  1
  Bi  Bi15  1  0.386095  0.519118  0.916639  1
  Bi  Bi16  1  0.388244  0.522532  0.248701  1
  Bi  Bi17  1  0.302501  0.240884  0.417100  1
  Bi  Bi18  1  0.284409  0.221448  0.083715  1
  Bi  Bi19  1  0.299513  0.237052  0.745971  1
  Bi  Bi20  1  0.697499  0.759116  0.917100  1
  Bi  Bi21  1  0.700487  0.762948  0.245971  1
  Bi  Bi22  1  0.715591  0.778552  0.583715  1
  Bi  Bi23  1  0.611756  0.477468  0.748701  1
  Bi  Bi24  1  0.613905  0.480882  0.416639  1
  Bi  Bi25  1  0.606193  0.472429  0.082926  1
  Bi  Bi26  1  0.519118  0.133023  0.416639  1
  Bi  Bi27  1  0.527571  0.133765  0.082926  1
  Bi  Bi28  1  0.522532  0.134288  0.748701  1
  Bi  Bi29  1  0.937538  0.700487  0.745971  1
  Bi  Bi30  1  0.937039  0.715591  0.083715  1
  Bi  Bi31  1  0.938383  0.697499  0.417100  1
  Bi  Bi32  1  0.865712  0.388244  0.748701  1
  Bi  Bi33  1  0.866977  0.386095  0.416639  1
  Bi  Bi34  1  0.866235  0.393807  0.082926  1
  Bi  Bi35  1  0.762948  0.062462  0.745971  1
  Bi  Bi36  1  0.759116  0.061617  0.417100  1
  Bi  Bi37  1  0.778552  0.062961  0.083715  1
  O  O38  1  0.014229  0.835897  0.254067  1
  O  O39  1  0.013437  0.820963  0.579101  1
  O  O40  1  0.015739  0.829418  0.912840  1
  O  O41  1  0.122739  0.723258  0.747614  1
  O  O42  1  0.124757  0.728495  0.084347  1
  O  O43  1  0.123529  0.722894  0.412686  1
  O  O44  1  0.056306  0.455222  0.079649  1
  O  O45  1  0.057325  0.458875  0.748109  1
  O  O46  1  0.058197  0.456535  0.416126  1
  O  O47  1  0.398338  0.941803  0.416126  1
  O  O48  1  0.398916  0.943694  0.079649  1
  O  O49  1  0.401549  0.942675  0.748109  1
  O  O50  1  0.277106  0.400635  0.412686  1
  O  O51  1  0.271505  0.396262  0.084347  1
  O  O52  1  0.276742  0.399481  0.747614  1
  O  O53  1  0.179037  0.192473  0.579101  1
  O  O54  1  0.164103  0.178332  0.254067  1
  O  O55  1  0.170582  0.186321  0.912840  1
  O  O56  1  0.600519  0.877261  0.747614  1
  O  O57  1  0.603738  0.875243  0.084347  1
  O  O58  1  0.599365  0.876471  0.412686  1
  O  O59  1  0.178332  0.014229  0.754067  1
  O  O60  1  0.192473  0.013437  0.079101  1
  O  O61  1  0.186321  0.015739  0.412840  1
  O  O62  1  0.541125  0.598451  0.748109  1
  O  O63  1  0.543465  0.601662  0.416126  1
  O  O64  1  0.544778  0.601084  0.079649  1
  O  O65  1  0.455222  0.398916  0.579649  1
  O  O66  1  0.456535  0.398338  0.916126  1
  O  O67  1  0.458875  0.401549  0.248109  1
  O  O68  1  0.821668  0.985771  0.254067  1
  O  O69  1  0.807527  0.986563  0.579101  1
  O  O70  1  0.813679  0.984261  0.912840  1
  O  O71  1  0.396262  0.124757  0.584347  1
  O  O72  1  0.399481  0.122739  0.247614  1
  O  O73  1  0.400635  0.123529  0.912686  1
  O  O74  1  0.835897  0.821668  0.754067  1
  O  O75  1  0.820963  0.807527  0.079101  1
  O  O76  1  0.829418  0.813679  0.412840  1
  O  O77  1  0.723258  0.600519  0.247614  1
  O  O78  1  0.722894  0.599365  0.912686  1
  O  O79  1  0.728495  0.603738  0.584347  1
  O  O80  1  0.601662  0.058197  0.916126  1
  O  O81  1  0.598451  0.057325  0.248109  1
  O  O82  1  0.601084  0.056306  0.579649  1
  O  O83  1  0.941803  0.543465  0.916126  1
  O  O84  1  0.943694  0.544778  0.579649  1
  O  O85  1  0.942675  0.541125  0.248109  1
  O  O86  1  0.876471  0.277106  0.912686  1
  O  O87  1  0.877261  0.276742  0.247614  1
  O  O88  1  0.875243  0.271505  0.584347  1
  O  O89  1  0.985771  0.164103  0.754067  1
  O  O90  1  0.986563  0.179037  0.079101  1
  O  O91  1  0.984261  0.170582  0.412840  1
  F  F92  1  0.333333  0.666667  0.413083  1
  F  F93  1  0.333333  0.666667  0.079440  1
  F  F94  1  0.333333  0.666667  0.748092  1
  F  F95  1  0.666667  0.333333  0.248092  1
  F  F96  1  0.666667  0.333333  0.913083  1
  F  F97  1  0.666667  0.333333  0.579440  1
