# generated using pymatgen
data_Co6O7F5
_symmetry_space_group_name_H-M   'P 1'
_cell_length_a   4.53667290
_cell_length_b   8.94499109
_cell_length_c   4.55432821
_cell_angle_alpha   90.00000000
_cell_angle_beta   94.19883842
_cell_angle_gamma   90.00000000
_symmetry_Int_Tables_number   1
_chemical_formula_structural   Co6O7F5
_chemical_formula_sum   'Co6 O7 F5'
_cell_volume   184.32085437
_cell_formula_units_Z   1
loop_
 _symmetry_equiv_pos_site_id
 _symmetry_equiv_pos_as_xyz
  1  'x, y, z'
loop_
 _atom_site_type_symbol
 _atom_site_label
 _atom_site_symmetry_multiplicity
 _atom_site_fract_x
 _atom_site_fract_y
 _atom_site_fract_z
 _atom_site_occupancy
  Co  Co0  1  0.984152  0.173683  0.008051  1
  Co  Co1  1  0.984152  0.826317  0.008051  1
  Co  Co2  1  0.010141  0.500000  0.037746  1
  Co  Co3  1  0.486567  0.000000  0.504163  1
  Co  Co4  1  0.514049  0.328588  0.474291  1
  Co  Co5  1  0.514049  0.671412  0.474291  1
  O  O6  1  0.814578  0.339716  0.192342  1
  O  O7  1  0.814578  0.660284  0.192342  1
  O  O8  1  0.300757  0.834705  0.302503  1
  O  O9  1  0.300757  0.165295  0.302503  1
  O  O10  1  0.317281  0.500000  0.304209  1
  O  O11  1  0.686532  0.165493  0.689416  1
  O  O12  1  0.686532  0.834507  0.689416  1
  F  F13  1  0.789915  0.000000  0.200139  1
  F  F14  1  0.713611  0.500000  0.699036  1
  F  F15  1  0.175843  0.000000  0.814327  1
  F  F16  1  0.203253  0.342824  0.803587  1
  F  F17  1  0.203253  0.657176  0.803587  1
