# generated using pymatgen
data_LiFeSiO4
_symmetry_space_group_name_H-M   'P 1'
_cell_length_a   8.03221344
_cell_length_b   5.14610722
_cell_length_c   8.41429568
_cell_angle_alpha   90.00000000
_cell_angle_beta   105.39369038
_cell_angle_gamma   90.00000000
_symmetry_Int_Tables_number   1
_chemical_formula_structural   LiFeSiO4
_chemical_formula_sum   'Li4 Fe4 Si4 O16'
_cell_volume   335.32429763
_cell_formula_units_Z   4
loop_
 _symmetry_equiv_pos_site_id
 _symmetry_equiv_pos_as_xyz
  1  'x, y, z'
loop_
 _atom_site_type_symbol
 _atom_site_label
 _atom_site_symmetry_multiplicity
 _atom_site_fract_x
 _atom_site_fract_y
 _atom_site_fract_z
 _atom_site_occupancy
  Li  Li0  1  0.147532  0.155491  0.444736  1
  Li  Li1  1  0.375964  0.780027  0.967726  1
  Li  Li2  1  0.624036  0.280027  0.032274  1
  Li  Li3  1  0.852468  0.655491  0.555264  1
  Fe  Fe4  1  0.041491  0.076062  0.759245  1
  Fe  Fe5  1  0.471111  0.743750  0.322845  1
  Fe  Fe6  1  0.528889  0.243750  0.677155  1
  Fe  Fe7  1  0.958509  0.576062  0.240755  1
  Si  Si8  1  0.246754  0.696328  0.585207  1
  Si  Si9  1  0.263566  0.279186  0.121095  1
  Si  Si10  1  0.736434  0.779186  0.878905  1
  Si  Si11  1  0.753246  0.196328  0.414793  1
  O  O12  1  0.058529  0.746493  0.448159  1
  O  O13  1  0.153925  0.357411  0.253504  1
  O  O14  1  0.219844  0.832123  0.752959  1
  O  O15  1  0.349053  0.988543  0.158616  1
  O  O16  1  0.389471  0.861216  0.512808  1
  O  O17  1  0.302015  0.389530  0.616002  1
  O  O18  1  0.133371  0.289700  0.936039  1
  O  O19  1  0.422746  0.491629  0.137577  1
  O  O20  1  0.577254  0.991629  0.862423  1
  O  O21  1  0.866629  0.789700  0.063961  1
  O  O22  1  0.697985  0.889530  0.383998  1
  O  O23  1  0.610529  0.361216  0.487192  1
  O  O24  1  0.650947  0.488543  0.841384  1
  O  O25  1  0.780156  0.332123  0.247041  1
  O  O26  1  0.846075  0.857411  0.746496  1
  O  O27  1  0.941471  0.246493  0.551841  1
