# generated using pymatgen
data_Li4Fe3TeO12
_symmetry_space_group_name_H-M   'P 1'
_cell_length_a   4.94903027
_cell_length_b   8.34078577
_cell_length_c   5.03489372
_cell_angle_alpha   90.00000000
_cell_angle_beta   91.02629758
_cell_angle_gamma   90.00000000
_symmetry_Int_Tables_number   1
_chemical_formula_structural   Li4Fe3TeO12
_chemical_formula_sum   'Li4 Fe3 Te1 O12'
_cell_volume   207.80103648
_cell_formula_units_Z   1
loop_
 _symmetry_equiv_pos_site_id
 _symmetry_equiv_pos_as_xyz
  1  'x, y, z'
loop_
 _atom_site_type_symbol
 _atom_site_label
 _atom_site_symmetry_multiplicity
 _atom_site_fract_x
 _atom_site_fract_y
 _atom_site_fract_z
 _atom_site_occupancy
  Li  Li0  1  0.000000  0.699578  0.000000  1
  Li  Li1  1  0.500000  0.801916  0.000000  1
  Li  Li2  1  0.000000  0.326887  0.500000  1
  Li  Li3  1  0.500000  0.209551  0.500000  1
  Fe  Fe4  1  0.500000  0.419163  0.000000  1
  Fe  Fe5  1  0.000000  0.902328  0.500000  1
  Fe  Fe6  1  0.500000  0.601837  0.500000  1
  Te  Te7  1  0.000000  0.104365  0.000000  1
  O  O8  1  0.243628  0.259208  0.840277  1
  O  O9  1  0.305153  0.589651  0.818313  1
  O  O10  1  0.199293  0.924720  0.824757  1
  O  O11  1  0.692593  0.428929  0.685772  1
  O  O12  1  0.792114  0.085926  0.676186  1
  O  O13  1  0.751286  0.749293  0.648568  1
  O  O14  1  0.248714  0.749293  0.351432  1
  O  O15  1  0.207886  0.085926  0.323814  1
  O  O16  1  0.307407  0.428929  0.314228  1
  O  O17  1  0.800707  0.924720  0.175243  1
  O  O18  1  0.694847  0.589651  0.181687  1
  O  O19  1  0.756372  0.259208  0.159723  1
