# generated using pymatgen
data_Li7FeO5F
_symmetry_space_group_name_H-M   'P 1'
_cell_length_a   5.45175780
_cell_length_b   5.53134397
_cell_length_c   5.66842253
_cell_angle_alpha   90.54680874
_cell_angle_beta   117.63633119
_cell_angle_gamma   116.23418848
_symmetry_Int_Tables_number   1
_chemical_formula_structural   Li7FeO5F
_chemical_formula_sum   'Li7 Fe1 O5 F1'
_cell_volume   130.78778687
_cell_formula_units_Z   1
loop_
 _symmetry_equiv_pos_site_id
 _symmetry_equiv_pos_as_xyz
  1  'x, y, z'
loop_
 _atom_site_type_symbol
 _atom_site_label
 _atom_site_symmetry_multiplicity
 _atom_site_fract_x
 _atom_site_fract_y
 _atom_site_fract_z
 _atom_site_occupancy
  Li  Li0  1  0.593366  0.119363  0.313903  1
  Li  Li1  1  0.873574  0.755505  0.355831  1
  Li  Li2  1  0.734267  0.490991  0.685962  1
  Li  Li3  1  0.199727  0.474462  0.322994  1
  Li  Li4  1  0.164140  0.233587  0.673070  1
  Li  Li5  1  0.420787  0.927372  0.650743  1
  Li  Li6  1  0.303209  0.663472  0.964052  1
  Fe  Fe7  1  0.946705  0.957990  0.973498  1
  O  O8  1  0.885116  0.083740  0.242328  1
  O  O9  1  0.862920  0.217037  0.768293  1
  O  O10  1  0.499487  0.623285  0.755754  1
  O  O11  1  0.180486  0.806944  0.238060  1
  O  O12  1  0.103394  0.878642  0.761099  1
  F  F13  1  0.512522  0.425501  0.279585  1
