# generated using pymatgen
data_Sr3(AsO4)2
_symmetry_space_group_name_H-M   'P 1'
_cell_length_a   7.53057608
_cell_length_b   7.53057608
_cell_length_c   7.53057608
_cell_angle_alpha   44.27153310
_cell_angle_beta   44.27153310
_cell_angle_gamma   44.27153310
_symmetry_Int_Tables_number   1
_chemical_formula_structural   Sr3(AsO4)2
_chemical_formula_sum   'Sr3 As2 O8'
_cell_volume   189.11726343
_cell_formula_units_Z   1
loop_
 _symmetry_equiv_pos_site_id
 _symmetry_equiv_pos_as_xyz
  1  'x, y, z'
loop_
 _atom_site_type_symbol
 _atom_site_label
 _atom_site_symmetry_multiplicity
 _atom_site_fract_x
 _atom_site_fract_y
 _atom_site_fract_z
 _atom_site_occupancy
  Sr  Sr0  1  0.000000  0.000000  0.000000  1
  Sr  Sr1  1  0.795123  0.795123  0.795123  1
  Sr  Sr2  1  0.204877  0.204877  0.204877  1
  As  As3  1  0.407029  0.407029  0.407029  1
  As  As4  1  0.592971  0.592971  0.592971  1
  O  O5  1  0.233791  0.731307  0.731307  1
  O  O6  1  0.268693  0.268693  0.766209  1
  O  O7  1  0.322937  0.322937  0.322937  1
  O  O8  1  0.677063  0.677063  0.677063  1
  O  O9  1  0.268693  0.766209  0.268693  1
  O  O10  1  0.731307  0.233791  0.731307  1
  O  O11  1  0.731307  0.731307  0.233791  1
  O  O12  1  0.766209  0.268693  0.268693  1
