# generated using pymatgen
data_Li4MnV(PO4)3
_symmetry_space_group_name_H-M   'P 1'
_cell_length_a   8.43967398
_cell_length_b   8.45104984
_cell_length_c   9.24522632
_cell_angle_alpha   90.79336874
_cell_angle_beta   116.72970583
_cell_angle_gamma   119.23999394
_symmetry_Int_Tables_number   1
_chemical_formula_structural   Li4MnV(PO4)3
_chemical_formula_sum   'Li8 Mn2 V2 P6 O24'
_cell_volume   490.28099527
_cell_formula_units_Z   2
loop_
 _symmetry_equiv_pos_site_id
 _symmetry_equiv_pos_as_xyz
  1  'x, y, z'
loop_
 _atom_site_type_symbol
 _atom_site_label
 _atom_site_symmetry_multiplicity
 _atom_site_fract_x
 _atom_site_fract_y
 _atom_site_fract_z
 _atom_site_occupancy
  Li  Li0  1  0.190845  0.269484  0.860539  1
  Li  Li1  1  0.622971  0.932512  0.898780  1
  Li  Li2  1  0.937215  0.661019  0.853730  1
  Li  Li3  1  0.325825  0.791029  0.587155  1
  Li  Li4  1  0.674175  0.208971  0.412845  1
  Li  Li5  1  0.062785  0.338981  0.146270  1
  Li  Li6  1  0.377029  0.067488  0.101220  1
  Li  Li7  1  0.809155  0.730516  0.139461  1
  Mn  Mn8  1  0.309590  0.648756  0.965311  1
  Mn  Mn9  1  0.690410  0.351244  0.034689  1
  V  V10  1  0.293326  0.150206  0.440960  1
  V  V11  1  0.706674  0.849794  0.559040  1
  P  P12  1  0.204703  0.953108  0.743452  1
  P  P13  1  0.499124  0.544090  0.748061  1
  P  P14  1  0.795007  0.242188  0.756184  1
  P  P15  1  0.204993  0.757812  0.243816  1
  P  P16  1  0.500876  0.455910  0.251939  1
  P  P17  1  0.795297  0.046892  0.256548  1
  O  O18  1  0.341403  0.141531  0.891472  1
  O  O19  1  0.336671  0.497058  0.801022  1
  O  O20  1  0.307738  0.836133  0.793705  1
  O  O21  1  0.704617  0.569126  0.897497  1
  O  O22  1  0.751454  0.196146  0.902822  1
  O  O23  1  0.569124  0.742059  0.709951  1
  O  O24  1  0.197430  0.990695  0.579072  1
  O  O25  1  0.398579  0.390008  0.587174  1
  O  O26  1  0.967059  0.454106  0.807322  1
  O  O27  1  0.874069  0.116852  0.729747  1
  O  O28  1  0.593168  0.187541  0.586617  1
  O  O29  1  0.979494  0.842000  0.718603  1
  O  O30  1  0.020506  0.158000  0.281397  1
  O  O31  1  0.406832  0.812459  0.413383  1
  O  O32  1  0.125931  0.883148  0.270253  1
  O  O33  1  0.032941  0.545894  0.192678  1
  O  O34  1  0.601421  0.609992  0.412826  1
  O  O35  1  0.802570  0.009305  0.420928  1
  O  O36  1  0.430876  0.257941  0.290049  1
  O  O37  1  0.248546  0.803854  0.097178  1
  O  O38  1  0.295383  0.430874  0.102503  1
  O  O39  1  0.692262  0.163867  0.206295  1
  O  O40  1  0.663329  0.502942  0.198978  1
  O  O41  1  0.658597  0.858469  0.108528  1
