# generated using pymatgen
data_LiVP2HO8
_symmetry_space_group_name_H-M   'P 1'
_cell_length_a   7.75989039
_cell_length_b   7.99199562
_cell_length_c   9.73184011
_cell_angle_alpha   90.02661820
_cell_angle_beta   111.84547914
_cell_angle_gamma   90.09158900
_symmetry_Int_Tables_number   1
_chemical_formula_structural   LiVP2HO8
_chemical_formula_sum   'Li4 V4 P8 H4 O32'
_cell_volume   560.19882127
_cell_formula_units_Z   4
loop_
 _symmetry_equiv_pos_site_id
 _symmetry_equiv_pos_as_xyz
  1  'x, y, z'
loop_
 _atom_site_type_symbol
 _atom_site_label
 _atom_site_symmetry_multiplicity
 _atom_site_fract_x
 _atom_site_fract_y
 _atom_site_fract_z
 _atom_site_occupancy
  Li  Li0  1  0.648743  0.371216  0.773595  1
  Li  Li1  1  0.850759  0.870491  0.727965  1
  Li  Li2  1  0.353646  0.632689  0.221247  1
  Li  Li3  1  0.850765  0.870803  0.225874  1
  V  V4  1  0.013860  0.497278  0.752940  1
  V  V5  1  0.486207  0.997204  0.747504  1
  V  V6  1  0.998963  0.492711  0.253012  1
  V  V7  1  0.491946  0.011933  0.251379  1
  P  P8  1  0.230167  0.847963  0.933050  1
  P  P9  1  0.736031  0.653752  0.932279  1
  P  P10  1  0.268392  0.346468  0.566263  1
  P  P11  1  0.231697  0.848350  0.430788  1
  P  P12  1  0.761606  0.155033  0.567954  1
  P  P13  1  0.738406  0.656782  0.433196  1
  P  P14  1  0.268326  0.351463  0.067570  1
  P  P15  1  0.762056  0.155981  0.066673  1
  H  H16  1  0.508253  0.508467  0.991509  1
  H  H17  1  0.509783  0.506980  0.491307  1
  H  H18  1  0.988872  0.010396  0.512115  1
  H  H19  1  0.989242  0.010306  0.012029  1
  O  O20  1  0.052098  0.943860  0.906057  1
  O  O21  1  0.136255  0.332344  0.903456  1
  O  O22  1  0.184505  0.673175  0.861322  1
  O  O23  1  0.351904  0.942951  0.859224  1
  O  O24  1  0.559643  0.547431  0.905184  1
  O  O25  1  0.641368  0.174513  0.900301  1
  O  O26  1  0.686317  0.824095  0.853724  1
  O  O27  1  0.847494  0.551304  0.855824  1
  O  O28  1  0.151730  0.443617  0.644076  1
  O  O29  1  0.315545  0.172798  0.639072  1
  O  O30  1  0.359530  0.832121  0.595787  1
  O  O31  1  0.447902  0.441077  0.590801  1
  O  O32  1  0.654525  0.050616  0.647451  1
  O  O33  1  0.812399  0.325497  0.646263  1
  O  O34  1  0.051663  0.939544  0.406029  1
  O  O35  1  0.137950  0.330358  0.402465  1
  O  O36  1  0.855310  0.675686  0.600147  1
  O  O37  1  0.940139  0.050570  0.595525  1
  O  O38  1  0.192067  0.676402  0.351498  1
  O  O39  1  0.351960  0.947322  0.356503  1
  O  O40  1  0.554155  0.562240  0.406063  1
  O  O41  1  0.639017  0.173700  0.403364  1
  O  O42  1  0.687153  0.824291  0.349832  1
  O  O43  1  0.856403  0.556451  0.361713  1
  O  O44  1  0.154640  0.449002  0.147975  1
  O  O45  1  0.316173  0.175594  0.134958  1
  O  O46  1  0.355245  0.831454  0.099315  1
  O  O47  1  0.439054  0.458729  0.092496  1
  O  O48  1  0.653499  0.053781  0.145186  1
  O  O49  1  0.817201  0.328518  0.137561  1
  O  O50  1  0.855078  0.674495  0.099130  1
  O  O51  1  0.938214  0.047620  0.095285  1
