# generated using pymatgen
data_La2Al4O9
_symmetry_space_group_name_H-M   'P 1'
_cell_length_a   5.72380302
_cell_length_b   7.67060340
_cell_length_c   8.47042164
_cell_angle_alpha   90.00000000
_cell_angle_beta   90.00000000
_cell_angle_gamma   90.00000000
_symmetry_Int_Tables_number   1
_chemical_formula_structural   La2Al4O9
_chemical_formula_sum   'La4 Al8 O18'
_cell_volume   371.89405613
_cell_formula_units_Z   2
loop_
 _symmetry_equiv_pos_site_id
 _symmetry_equiv_pos_as_xyz
  1  'x, y, z'
loop_
 _atom_site_type_symbol
 _atom_site_label
 _atom_site_symmetry_multiplicity
 _atom_site_fract_x
 _atom_site_fract_y
 _atom_site_fract_z
 _atom_site_occupancy
  La  La0  1  0.000000  0.150694  0.177752  1
  La  La1  1  0.000000  0.349306  0.677752  1
  La  La2  1  0.000000  0.650694  0.322248  1
  La  La3  1  0.000000  0.849306  0.822248  1
  Al  Al4  1  0.259001  0.000000  0.500000  1
  Al  Al5  1  0.740999  0.000000  0.500000  1
  Al  Al6  1  0.500000  0.142004  0.838939  1
  Al  Al7  1  0.500000  0.357996  0.338939  1
  Al  Al8  1  0.259001  0.500000  0.000000  1
  Al  Al9  1  0.740999  0.500000  0.000000  1
  Al  Al10  1  0.500000  0.642004  0.661061  1
  Al  Al11  1  0.500000  0.857996  0.161061  1
  O  O12  1  0.500000  0.000000  0.000000  1
  O  O13  1  0.750899  0.103776  0.718601  1
  O  O14  1  0.249101  0.103776  0.718601  1
  O  O15  1  0.500000  0.147381  0.427038  1
  O  O16  1  0.000000  0.154269  0.449116  1
  O  O17  1  0.000000  0.345731  0.949116  1
  O  O18  1  0.500000  0.352619  0.927038  1
  O  O19  1  0.249101  0.396224  0.218601  1
  O  O20  1  0.750899  0.396224  0.218601  1
  O  O21  1  0.500000  0.500000  0.500000  1
  O  O22  1  0.249101  0.603776  0.781399  1
  O  O23  1  0.750899  0.603776  0.781399  1
  O  O24  1  0.500000  0.647381  0.072962  1
  O  O25  1  0.000000  0.654269  0.050884  1
  O  O26  1  0.000000  0.845731  0.550884  1
  O  O27  1  0.500000  0.852619  0.572962  1
  O  O28  1  0.249101  0.896224  0.281399  1
  O  O29  1  0.750899  0.896224  0.281399  1
