# generated using pymatgen
data_Li2MnF5
_symmetry_space_group_name_H-M   'P 1'
_cell_length_a   7.41644969
_cell_length_b   5.13619843
_cell_length_c   9.92916925
_cell_angle_alpha   90.00000000
_cell_angle_beta   109.71572462
_cell_angle_gamma   90.00000000
_symmetry_Int_Tables_number   1
_chemical_formula_structural   Li2MnF5
_chemical_formula_sum   'Li8 Mn4 F20'
_cell_volume   356.05312748
_cell_formula_units_Z   4
loop_
 _symmetry_equiv_pos_site_id
 _symmetry_equiv_pos_as_xyz
  1  'x, y, z'
loop_
 _atom_site_type_symbol
 _atom_site_label
 _atom_site_symmetry_multiplicity
 _atom_site_fract_x
 _atom_site_fract_y
 _atom_site_fract_z
 _atom_site_occupancy
  Li  Li0  1  0.472004  0.744769  0.745415  1
  Li  Li1  1  0.972004  0.755231  0.745415  1
  Li  Li2  1  0.377178  0.301522  0.480722  1
  Li  Li3  1  0.122822  0.801522  0.519278  1
  Li  Li4  1  0.877178  0.198478  0.480722  1
  Li  Li5  1  0.622822  0.698478  0.519278  1
  Li  Li6  1  0.027996  0.244769  0.254585  1
  Li  Li7  1  0.527996  0.255231  0.254585  1
  Mn  Mn8  1  0.214231  0.244779  0.856828  1
  Mn  Mn9  1  0.714231  0.255221  0.856828  1
  Mn  Mn10  1  0.285769  0.744779  0.143172  1
  Mn  Mn11  1  0.785769  0.755221  0.143172  1
  F  F12  1  0.166995  0.575965  0.964538  1
  F  F13  1  0.666995  0.924035  0.964538  1
  F  F14  1  0.461414  0.409047  0.856823  1
  F  F15  1  0.961414  0.090953  0.856823  1
  F  F16  1  0.241191  0.926831  0.755998  1
  F  F17  1  0.081955  0.421095  0.691918  1
  F  F18  1  0.741191  0.573169  0.755998  1
  F  F19  1  0.581955  0.078905  0.691918  1
  F  F20  1  0.371137  0.642931  0.553049  1
  F  F21  1  0.871137  0.857069  0.553049  1
  F  F22  1  0.128863  0.142931  0.446951  1
  F  F23  1  0.628863  0.357069  0.446951  1
  F  F24  1  0.418045  0.921095  0.308082  1
  F  F25  1  0.258809  0.426831  0.244002  1
  F  F26  1  0.918045  0.578905  0.308082  1
  F  F27  1  0.758809  0.073169  0.244002  1
  F  F28  1  0.038586  0.909047  0.143177  1
  F  F29  1  0.538586  0.590953  0.143177  1
  F  F30  1  0.333005  0.075965  0.035462  1
  F  F31  1  0.833005  0.424035  0.035462  1
