# generated using pymatgen
data_Ba5Mn5O14
_symmetry_space_group_name_H-M   'P 1'
_cell_length_a   5.77281578
_cell_length_b   5.77281578
_cell_length_c   23.93085947
_cell_angle_alpha   90.00000000
_cell_angle_beta   90.00000000
_cell_angle_gamma   119.69095606
_symmetry_Int_Tables_number   1
_chemical_formula_structural   Ba5Mn5O14
_chemical_formula_sum   'Ba10 Mn10 O28'
_cell_volume   692.80078384
_cell_formula_units_Z   2
loop_
 _symmetry_equiv_pos_site_id
 _symmetry_equiv_pos_as_xyz
  1  'x, y, z'
loop_
 _atom_site_type_symbol
 _atom_site_label
 _atom_site_symmetry_multiplicity
 _atom_site_fract_x
 _atom_site_fract_y
 _atom_site_fract_z
 _atom_site_occupancy
  Ba  Ba0  1  0.337043  0.669159  0.045999  1
  Ba  Ba1  1  0.331620  0.663055  0.639057  1
  Ba  Ba2  1  0.003122  0.004894  0.750000  1
  Ba  Ba3  1  0.331620  0.663055  0.860943  1
  Ba  Ba4  1  0.004894  0.003122  0.250000  1
  Ba  Ba5  1  0.337043  0.669159  0.454001  1
  Ba  Ba6  1  0.669159  0.337043  0.954001  1
  Ba  Ba7  1  0.669159  0.337043  0.545999  1
  Ba  Ba8  1  0.663055  0.331620  0.139057  1
  Ba  Ba9  1  0.663055  0.331620  0.360943  1
  Mn  Mn10  1  0.345786  0.672536  0.191927  1
  Mn  Mn11  1  0.010656  0.010656  0.500000  1
  Mn  Mn12  1  0.002267  0.004400  0.607379  1
  Mn  Mn13  1  0.002267  0.004400  0.892621  1
  Mn  Mn14  1  0.010656  0.010656  0.000000  1
  Mn  Mn15  1  0.004400  0.002267  0.107379  1
  Mn  Mn16  1  0.004400  0.002267  0.392621  1
  Mn  Mn17  1  0.345786  0.672536  0.308073  1
  Mn  Mn18  1  0.672536  0.345786  0.691927  1
  Mn  Mn19  1  0.672536  0.345786  0.808073  1
  O  O20  1  0.155484  0.309504  0.551265  1
  O  O21  1  0.155484  0.309504  0.948735  1
  O  O22  1  0.154284  0.330273  0.152415  1
  O  O23  1  0.939440  0.445057  0.750000  1
  O  O24  1  0.154284  0.330273  0.347585  1
  O  O25  1  0.153770  0.823472  0.152265  1
  O  O26  1  0.154570  0.861400  0.947741  1
  O  O27  1  0.153770  0.823472  0.347735  1
  O  O28  1  0.154570  0.861400  0.552259  1
  O  O29  1  0.330273  0.154284  0.847585  1
  O  O30  1  0.330273  0.154284  0.652415  1
  O  O31  1  0.309504  0.155484  0.051265  1
  O  O32  1  0.309504  0.155484  0.448735  1
  O  O33  1  0.445057  0.939440  0.250000  1
  O  O34  1  0.712529  0.863451  0.551400  1
  O  O35  1  0.683019  0.841734  0.148499  1
  O  O36  1  0.712529  0.863451  0.948600  1
  O  O37  1  0.683019  0.841734  0.351501  1
  O  O38  1  0.823472  0.153770  0.652265  1
  O  O39  1  0.446175  0.504776  0.250000  1
  O  O40  1  0.504776  0.446175  0.750000  1
  O  O41  1  0.823472  0.153770  0.847735  1
  O  O42  1  0.861400  0.154570  0.447741  1
  O  O43  1  0.861400  0.154570  0.052259  1
  O  O44  1  0.841734  0.683019  0.648499  1
  O  O45  1  0.863451  0.712529  0.448600  1
  O  O46  1  0.841734  0.683019  0.851501  1
  O  O47  1  0.863451  0.712529  0.051400  1
