# generated using pymatgen
data_Li4MnV(WO6)2
_symmetry_space_group_name_H-M   'P 1'
_cell_length_a   5.08452491
_cell_length_b   5.38004378
_cell_length_c   7.67025796
_cell_angle_alpha   94.88587557
_cell_angle_beta   90.87445900
_cell_angle_gamma   90.22478331
_symmetry_Int_Tables_number   1
_chemical_formula_structural   Li4MnV(WO6)2
_chemical_formula_sum   'Li4 Mn1 V1 W2 O12'
_cell_volume   209.03001312
_cell_formula_units_Z   1
loop_
 _symmetry_equiv_pos_site_id
 _symmetry_equiv_pos_as_xyz
  1  'x, y, z'
loop_
 _atom_site_type_symbol
 _atom_site_label
 _atom_site_symmetry_multiplicity
 _atom_site_fract_x
 _atom_site_fract_y
 _atom_site_fract_z
 _atom_site_occupancy
  Li  Li0  1  0.993730  0.432452  0.292782  1
  Li  Li1  1  0.506796  0.907925  0.776041  1
  Li  Li2  1  0.000541  0.467117  0.760928  1
  Li  Li3  1  0.499019  0.913655  0.295832  1
  Mn  Mn4  1  0.499819  0.499970  0.496810  1
  V  V5  1  0.995955  0.972025  0.026302  1
  W  W6  1  0.013122  0.004241  0.518846  1
  W  W7  1  0.489935  0.468954  0.997397  1
  O  O8  1  0.302979  0.196535  0.432388  1
  O  O9  1  0.124709  0.021600  0.747304  1
  O  O10  1  0.299530  0.829045  0.060975  1
  O  O11  1  0.192790  0.705844  0.433636  1
  O  O12  1  0.814078  0.710102  0.932179  1
  O  O13  1  0.381959  0.541778  0.768447  1
  O  O14  1  0.628509  0.534825  0.223281  1
  O  O15  1  0.177914  0.314077  0.055711  1
  O  O16  1  0.819635  0.316195  0.540163  1
  O  O17  1  0.688549  0.190959  0.928952  1
  O  O18  1  0.876071  0.009258  0.237740  1
  O  O19  1  0.694361  0.821038  0.545491  1
