# generated using pymatgen
data_Li3Fe4WO8
_symmetry_space_group_name_H-M   'P 1'
_cell_length_a   6.07514886
_cell_length_b   6.07514886
_cell_length_c   6.16872634
_cell_angle_alpha   59.45273928
_cell_angle_beta   120.54726072
_cell_angle_gamma   119.04436047
_symmetry_Int_Tables_number   1
_chemical_formula_structural   Li3Fe4WO8
_chemical_formula_sum   'Li3 Fe4 W1 O8'
_cell_volume   160.74466386
_cell_formula_units_Z   1
loop_
 _symmetry_equiv_pos_site_id
 _symmetry_equiv_pos_as_xyz
  1  'x, y, z'
loop_
 _atom_site_type_symbol
 _atom_site_label
 _atom_site_symmetry_multiplicity
 _atom_site_fract_x
 _atom_site_fract_y
 _atom_site_fract_z
 _atom_site_occupancy
  Li  Li0  1  0.500000  0.000000  0.500000  1
  Li  Li1  1  0.000000  0.500000  0.500000  1
  Li  Li2  1  0.000000  0.000000  0.000000  1
  Fe  Fe3  1  0.000000  0.000000  0.500000  1
  Fe  Fe4  1  0.000000  0.500000  0.000000  1
  Fe  Fe5  1  0.500000  0.000000  0.000000  1
  Fe  Fe6  1  0.500000  0.500000  0.000000  1
  W  W7  1  0.500000  0.500000  0.500000  1
  O  O8  1  0.257049  0.742951  0.245538  1
  O  O9  1  0.261504  0.275204  0.745347  1
  O  O10  1  0.724796  0.738496  0.745347  1
  O  O11  1  0.742951  0.257049  0.754462  1
  O  O12  1  0.746277  0.253723  0.242915  1
  O  O13  1  0.738496  0.724796  0.254653  1
  O  O14  1  0.275204  0.261504  0.254653  1
  O  O15  1  0.253723  0.746277  0.757085  1
