# generated using pymatgen
data_Li6Mg(Ni6O13)2
_symmetry_space_group_name_H-M   'P 1'
_cell_length_a   7.48631673
_cell_length_b   7.68266762
_cell_length_c   8.12835660
_cell_angle_alpha   78.06770190
_cell_angle_beta   75.35769129
_cell_angle_gamma   86.61706186
_symmetry_Int_Tables_number   1
_chemical_formula_structural   Li6Mg(Ni6O13)2
_chemical_formula_sum   'Li6 Mg1 Ni12 O26'
_cell_volume   442.53366723
_cell_formula_units_Z   1
loop_
 _symmetry_equiv_pos_site_id
 _symmetry_equiv_pos_as_xyz
  1  'x, y, z'
loop_
 _atom_site_type_symbol
 _atom_site_label
 _atom_site_symmetry_multiplicity
 _atom_site_fract_x
 _atom_site_fract_y
 _atom_site_fract_z
 _atom_site_occupancy
  Li  Li0  1  0.976146  0.992476  0.494115  1
  Li  Li1  1  0.395976  0.933440  0.437259  1
  Li  Li2  1  0.531116  0.685681  0.177487  1
  Li  Li3  1  0.435625  0.315708  0.812021  1
  Li  Li4  1  0.945772  0.612118  0.109649  1
  Li  Li5  1  0.854303  0.249739  0.746630  1
  Mg  Mg6  1  0.004682  0.001195  0.001680  1
  Ni  Ni7  1  0.076663  0.384800  0.381710  1
  Ni  Ni8  1  0.234107  0.152246  0.155341  1
  Ni  Ni9  1  0.152943  0.772714  0.768256  1
  Ni  Ni10  1  0.303194  0.544053  0.537740  1
  Ni  Ni11  1  0.461851  0.307071  0.309385  1
  Ni  Ni12  1  0.617744  0.069075  0.080316  1
  Ni  Ni13  1  0.387167  0.921502  0.921370  1
  Ni  Ni14  1  0.537051  0.693791  0.689981  1
  Ni  Ni15  1  0.691792  0.461154  0.461624  1
  Ni  Ni16  1  0.846724  0.231554  0.232165  1
  Ni  Ni17  1  0.770975  0.843803  0.843215  1
  Ni  Ni18  1  0.921517  0.613090  0.614901  1
  O  O19  1  0.003022  0.037197  0.239752  1
  O  O20  1  0.056833  0.369209  0.161860  1
  O  O21  1  0.079313  0.412045  0.606662  1
  O  O22  1  0.152562  0.751089  0.541677  1
  O  O23  1  0.239872  0.179700  0.381225  1
  O  O24  1  0.307419  0.511251  0.310889  1
  O  O25  1  0.172241  0.786291  0.987944  1
  O  O26  1  0.405732  0.927843  0.148889  1
  O  O27  1  0.249233  0.129002  0.927930  1
  O  O28  1  0.463548  0.272287  0.084862  1
  O  O29  1  0.303421  0.565643  0.761235  1
  O  O30  1  0.367268  0.908571  0.698088  1
  O  O31  1  0.457956  0.341634  0.535996  1
  O  O32  1  0.514096  0.681866  0.466754  1
  O  O33  1  0.617002  0.101566  0.305625  1
  O  O34  1  0.682467  0.437159  0.237437  1
  O  O35  1  0.545202  0.718834  0.912763  1
  O  O36  1  0.763122  0.858684  0.071966  1
  O  O37  1  0.614925  0.051705  0.852594  1
  O  O38  1  0.828206  0.210289  0.010330  1
  O  O39  1  0.697953  0.468792  0.685420  1
  O  O40  1  0.772730  0.816381  0.618734  1
  O  O41  1  0.868348  0.245162  0.456332  1
  O  O42  1  0.922033  0.580580  0.374235  1
  O  O43  1  0.929037  0.648708  0.854862  1
  O  O44  1  0.990257  0.971306  0.758244  1
