# generated using pymatgen
data_Li9(NbS2)14
_symmetry_space_group_name_H-M   'P 1'
_cell_length_a   5.85019997
_cell_length_b   12.18916617
_cell_length_c   13.38202269
_cell_angle_alpha   104.18959673
_cell_angle_beta   90.02755688
_cell_angle_gamma   103.84882369
_symmetry_Int_Tables_number   1
_chemical_formula_structural   Li9(NbS2)14
_chemical_formula_sum   'Li9 Nb14 S28'
_cell_volume   896.47599563
_cell_formula_units_Z   1
loop_
 _symmetry_equiv_pos_site_id
 _symmetry_equiv_pos_as_xyz
  1  'x, y, z'
loop_
 _atom_site_type_symbol
 _atom_site_label
 _atom_site_symmetry_multiplicity
 _atom_site_fract_x
 _atom_site_fract_y
 _atom_site_fract_z
 _atom_site_occupancy
  Li  Li0  1  0.571247  0.642717  0.999973  1
  Li  Li1  1  0.072511  0.644870  0.499993  1
  Li  Li2  1  0.428753  0.357283  0.000027  1
  Li  Li3  1  0.500000  0.500000  0.500000  1
  Li  Li4  1  0.927489  0.355130  0.500007  1
  Li  Li5  1  0.285757  0.071506  0.999924  1
  Li  Li6  1  0.714243  0.928494  0.000076  1
  Li  Li7  1  0.785534  0.071305  0.499931  1
  Li  Li8  1  0.214466  0.928695  0.500069  1
  Nb  Nb9  1  0.034625  0.571505  0.248991  1
  Nb  Nb10  1  0.535878  0.571711  0.750097  1
  Nb  Nb11  1  0.464122  0.428289  0.249903  1
  Nb  Nb12  1  0.892267  0.285500  0.249116  1
  Nb  Nb13  1  0.965375  0.428495  0.751009  1
  Nb  Nb14  1  0.390887  0.285574  0.749436  1
  Nb  Nb15  1  0.321084  0.143018  0.250604  1
  Nb  Nb16  1  0.750013  0.000124  0.249994  1
  Nb  Nb17  1  0.822841  0.143565  0.750750  1
  Nb  Nb18  1  0.249987  0.999876  0.750006  1
  Nb  Nb19  1  0.177159  0.856435  0.249250  1
  Nb  Nb20  1  0.609113  0.714426  0.250564  1
  Nb  Nb21  1  0.678916  0.856982  0.749396  1
  Nb  Nb22  1  0.107733  0.714500  0.750884  1
  S  S23  1  0.351223  0.537096  0.129099  1
  S  S24  1  0.386638  0.606443  0.370968  1
  S  S25  1  0.781320  0.394234  0.129404  1
  S  S26  1  0.815389  0.463312  0.371665  1
  S  S27  1  0.184611  0.536688  0.628335  1
  S  S28  1  0.218680  0.605766  0.870596  1
  S  S29  1  0.207886  0.251004  0.128906  1
  S  S30  1  0.243213  0.319899  0.371166  1
  S  S31  1  0.648777  0.462904  0.870901  1
  S  S32  1  0.613362  0.393557  0.629032  1
  S  S33  1  0.637656  0.108735  0.128794  1
  S  S34  1  0.075986  0.320294  0.870872  1
  S  S35  1  0.671180  0.177558  0.371004  1
  S  S36  1  0.042504  0.250907  0.628739  1
  S  S37  1  0.066214  0.964986  0.128869  1
  S  S38  1  0.101444  0.034956  0.371069  1
  S  S39  1  0.470578  0.108695  0.629096  1
  S  S40  1  0.506295  0.177562  0.870885  1
  S  S41  1  0.493705  0.822438  0.129115  1
  S  S42  1  0.933786  0.035014  0.871131  1
  S  S43  1  0.898556  0.965044  0.628931  1
  S  S44  1  0.529422  0.891305  0.370904  1
  S  S45  1  0.924014  0.679706  0.129128  1
  S  S46  1  0.957496  0.749093  0.371261  1
  S  S47  1  0.328820  0.822442  0.628996  1
  S  S48  1  0.362344  0.891265  0.871206  1
  S  S49  1  0.756787  0.680101  0.628834  1
  S  S50  1  0.792114  0.748996  0.871094  1
