# generated using pymatgen
data_Li2VF6
_symmetry_space_group_name_H-M   'P 1'
_cell_length_a   8.40838268
_cell_length_b   8.40838268
_cell_length_c   5.61415645
_cell_angle_alpha   90.00000000
_cell_angle_beta   90.00000000
_cell_angle_gamma   141.45194403
_symmetry_Int_Tables_number   1
_chemical_formula_structural   Li2VF6
_chemical_formula_sum   'Li4 V2 F12'
_cell_volume   247.35264382
_cell_formula_units_Z   2
loop_
 _symmetry_equiv_pos_site_id
 _symmetry_equiv_pos_as_xyz
  1  'x, y, z'
loop_
 _atom_site_type_symbol
 _atom_site_label
 _atom_site_symmetry_multiplicity
 _atom_site_fract_x
 _atom_site_fract_y
 _atom_site_fract_z
 _atom_site_occupancy
  Li  Li0  1  0.865120  0.134880  0.750000  1
  Li  Li1  1  0.166059  0.833941  0.750000  1
  Li  Li2  1  0.833941  0.166059  0.250000  1
  Li  Li3  1  0.134880  0.865120  0.250000  1
  V  V4  1  0.378475  0.621525  0.250000  1
  V  V5  1  0.621525  0.378475  0.750000  1
  F  F6  1  0.510630  0.489370  0.750000  1
  F  F7  1  0.628683  0.886168  0.020483  1
  F  F8  1  0.628683  0.886168  0.479517  1
  F  F9  1  0.113832  0.371317  0.020483  1
  F  F10  1  0.113832  0.371317  0.479517  1
  F  F11  1  0.260148  0.739852  0.250000  1
  F  F12  1  0.739852  0.260148  0.750000  1
  F  F13  1  0.371317  0.113832  0.979517  1
  F  F14  1  0.886168  0.628683  0.520483  1
  F  F15  1  0.886168  0.628683  0.979517  1
  F  F16  1  0.371317  0.113832  0.520483  1
  F  F17  1  0.489370  0.510630  0.250000  1
