# generated using pymatgen
data_MnOF
_symmetry_space_group_name_H-M   'P 1'
_cell_length_a   4.81381341
_cell_length_b   3.08853016
_cell_length_c   18.96361720
_cell_angle_alpha   90.00000000
_cell_angle_beta   92.63743766
_cell_angle_gamma   90.00000000
_symmetry_Int_Tables_number   1
_chemical_formula_structural   MnOF
_chemical_formula_sum   'Mn8 O8 F8'
_cell_volume   281.64496672
_cell_formula_units_Z   8
loop_
 _symmetry_equiv_pos_site_id
 _symmetry_equiv_pos_as_xyz
  1  'x, y, z'
loop_
 _atom_site_type_symbol
 _atom_site_label
 _atom_site_symmetry_multiplicity
 _atom_site_fract_x
 _atom_site_fract_y
 _atom_site_fract_z
 _atom_site_occupancy
  Mn  Mn0  1  0.041807  0.000000  0.000066  1
  Mn  Mn1  1  0.867789  0.000000  0.750802  1
  Mn  Mn2  1  0.979178  0.000000  0.500542  1
  Mn  Mn3  1  0.082817  0.000000  0.250570  1
  Mn  Mn4  1  0.445907  0.500000  0.873922  1
  Mn  Mn5  1  0.425248  0.500000  0.625283  1
  Mn  Mn6  1  0.528151  0.500000  0.376429  1
  Mn  Mn7  1  0.630834  0.500000  0.126284  1
  O  O8  1  0.705655  0.500000  0.798000  1
  O  O9  1  0.877678  0.500000  0.048180  1
  O  O10  1  0.702468  0.000000  0.425428  1
  O  O11  1  0.606788  0.000000  0.674001  1
  O  O12  1  0.801265  0.000000  0.174659  1
  O  O13  1  0.257217  0.000000  0.575048  1
  O  O14  1  0.355288  0.000000  0.326379  1
  O  O15  1  0.195660  0.500000  0.949588  1
  F  F16  1  0.779468  0.500000  0.548777  1
  F  F17  1  0.875651  0.500000  0.295667  1
  F  F18  1  0.665568  0.000000  0.919414  1
  F  F19  1  0.212849  0.000000  0.823383  1
  F  F20  1  0.402802  0.000000  0.079548  1
  F  F21  1  0.086398  0.500000  0.704904  1
  F  F22  1  0.180553  0.500000  0.452874  1
  F  F23  1  0.292960  0.500000  0.200248  1
