# generated using pymatgen
data_LiFeSiO4
_symmetry_space_group_name_H-M   'P 1'
_cell_length_a   8.71254252
_cell_length_b   8.71254252
_cell_length_c   8.09886205
_cell_angle_alpha   90.00000000
_cell_angle_beta   90.00000000
_cell_angle_gamma   120.00000000
_symmetry_Int_Tables_number   1
_chemical_formula_structural   LiFeSiO4
_chemical_formula_sum   'Li6 Fe6 Si6 O24'
_cell_volume   532.40785476
_cell_formula_units_Z   6
loop_
 _symmetry_equiv_pos_site_id
 _symmetry_equiv_pos_as_xyz
  1  'x, y, z'
loop_
 _atom_site_type_symbol
 _atom_site_label
 _atom_site_symmetry_multiplicity
 _atom_site_fract_x
 _atom_site_fract_y
 _atom_site_fract_z
 _atom_site_occupancy
  Li  Li0  1  0.333333  0.666667  0.263641  1
  Li  Li1  1  0.333333  0.666667  0.715460  1
  Li  Li2  1  0.000000  0.000000  0.113013  1
  Li  Li3  1  0.000000  0.000000  0.613013  1
  Li  Li4  1  0.666667  0.333333  0.763641  1
  Li  Li5  1  0.666667  0.333333  0.215460  1
  Fe  Fe6  1  0.029346  0.688158  0.403252  1
  Fe  Fe7  1  0.311842  0.341188  0.403252  1
  Fe  Fe8  1  0.658812  0.970654  0.403252  1
  Fe  Fe9  1  0.341188  0.029346  0.903252  1
  Fe  Fe10  1  0.688158  0.658812  0.903252  1
  Fe  Fe11  1  0.970654  0.311842  0.903252  1
  Si  Si12  1  0.039904  0.685251  0.017651  1
  Si  Si13  1  0.314749  0.354653  0.017651  1
  Si  Si14  1  0.645347  0.960096  0.017651  1
  Si  Si15  1  0.354653  0.039904  0.517651  1
  Si  Si16  1  0.685251  0.645347  0.517651  1
  Si  Si17  1  0.960096  0.314749  0.517651  1
  O  O18  1  0.136569  0.909629  0.515962  1
  O  O19  1  0.146085  0.730978  0.195736  1
  O  O20  1  0.092552  0.529318  0.497305  1
  O  O21  1  0.194963  0.779069  0.874015  1
  O  O22  1  0.220931  0.415894  0.874015  1
  O  O23  1  0.436766  0.907448  0.497305  1
  O  O24  1  0.090371  0.226940  0.515962  1
  O  O25  1  0.269022  0.415107  0.195736  1
  O  O26  1  0.584893  0.853915  0.195736  1
  O  O27  1  0.470682  0.563234  0.497305  1
  O  O28  1  0.226940  0.136569  0.015962  1
  O  O29  1  0.584106  0.805037  0.874015  1
  O  O30  1  0.415894  0.194963  0.374015  1
  O  O31  1  0.773060  0.863431  0.515962  1
  O  O32  1  0.529318  0.436766  0.997305  1
  O  O33  1  0.415107  0.146085  0.695736  1
  O  O34  1  0.730978  0.584893  0.695736  1
  O  O35  1  0.909629  0.773060  0.015962  1
  O  O36  1  0.563234  0.092552  0.997305  1
  O  O37  1  0.779069  0.584106  0.374015  1
  O  O38  1  0.805037  0.220931  0.374015  1
  O  O39  1  0.907448  0.470682  0.997305  1
  O  O40  1  0.853915  0.269022  0.695736  1
  O  O41  1  0.863431  0.090371  0.015962  1
