# generated using pymatgen
data_Li2AgF5
_symmetry_space_group_name_H-M   'P 1'
_cell_length_a   5.78114585
_cell_length_b   5.78114585
_cell_length_c   8.02446562
_cell_angle_alpha   69.53863509
_cell_angle_beta   110.46136491
_cell_angle_gamma   125.53138432
_symmetry_Int_Tables_number   1
_chemical_formula_structural   Li2AgF5
_chemical_formula_sum   'Li4 Ag2 F10'
_cell_volume   200.67705806
_cell_formula_units_Z   2
loop_
 _symmetry_equiv_pos_site_id
 _symmetry_equiv_pos_as_xyz
  1  'x, y, z'
loop_
 _atom_site_type_symbol
 _atom_site_label
 _atom_site_symmetry_multiplicity
 _atom_site_fract_x
 _atom_site_fract_y
 _atom_site_fract_z
 _atom_site_occupancy
  Li  Li0  1  0.377955  0.644285  0.262739  1
  Li  Li1  1  0.355715  0.622045  0.762739  1
  Li  Li2  1  0.644285  0.377955  0.237261  1
  Li  Li3  1  0.622045  0.355715  0.737261  1
  Ag  Ag4  1  0.000000  0.000000  0.000000  1
  Ag  Ag5  1  0.000000  0.000000  0.500000  1
  F  F6  1  0.598619  0.779491  0.042175  1
  F  F7  1  0.346365  0.977189  0.657136  1
  F  F8  1  0.022811  0.653635  0.157136  1
  F  F9  1  0.220509  0.401381  0.542175  1
  F  F10  1  0.273633  0.273633  0.250000  1
  F  F11  1  0.726367  0.726367  0.750000  1
  F  F12  1  0.779491  0.598619  0.457825  1
  F  F13  1  0.977189  0.346365  0.842864  1
  F  F14  1  0.653635  0.022811  0.342864  1
  F  F15  1  0.401381  0.220509  0.957825  1
