# generated using pymatgen
data_Ag2H16O9
_symmetry_space_group_name_H-M   'P 1'
_cell_length_a   6.65027410
_cell_length_b   12.66252403
_cell_length_c   11.92191051
_cell_angle_alpha   90.00000000
_cell_angle_beta   104.13949987
_cell_angle_gamma   90.00000000
_symmetry_Int_Tables_number   1
_chemical_formula_structural   Ag2H16O9
_chemical_formula_sum   'Ag8 H64 O36'
_cell_volume   973.51982347
_cell_formula_units_Z   4
loop_
 _symmetry_equiv_pos_site_id
 _symmetry_equiv_pos_as_xyz
  1  'x, y, z'
loop_
 _atom_site_type_symbol
 _atom_site_label
 _atom_site_symmetry_multiplicity
 _atom_site_fract_x
 _atom_site_fract_y
 _atom_site_fract_z
 _atom_site_occupancy
  Ag  Ag0  1  0.416759  0.321221  0.899909  1
  Ag  Ag1  1  0.406002  0.791249  0.835120  1
  Ag  Ag2  1  0.416759  0.178779  0.399909  1
  Ag  Ag3  1  0.406002  0.708751  0.335120  1
  Ag  Ag4  1  0.593998  0.291249  0.664880  1
  Ag  Ag5  1  0.583241  0.821221  0.600091  1
  Ag  Ag6  1  0.593998  0.208751  0.164880  1
  Ag  Ag7  1  0.583241  0.678779  0.100091  1
  H  H8  1  0.032124  0.445836  0.899099  1
  H  H9  1  0.015342  0.085849  0.732321  1
  H  H10  1  0.154309  0.926558  0.941799  1
  H  H11  1  0.103051  0.948329  0.801818  1
  H  H12  1  0.218177  0.596278  0.908976  1
  H  H13  1  0.122761  0.305089  0.675141  1
  H  H14  1  0.110307  0.781013  0.603580  1
  H  H15  1  0.032124  0.054164  0.399099  1
  H  H16  1  0.095517  0.100595  0.527430  1
  H  H17  1  0.138078  0.494395  0.594615  1
  H  H18  1  0.198225  0.184793  0.694461  1
  H  H19  1  0.015342  0.414151  0.232321  1
  H  H20  1  0.220678  0.664367  0.614766  1
  H  H21  1  0.154309  0.573442  0.441799  1
  H  H22  1  0.103051  0.551671  0.301818  1
  H  H23  1  0.336972  0.009162  0.711485  1
  H  H24  1  0.218177  0.903722  0.408976  1
  H  H25  1  0.423099  0.562231  0.871142  1
  H  H26  1  0.122761  0.194911  0.175141  1
  H  H27  1  0.110307  0.718987  0.103580  1
  H  H28  1  0.095517  0.399405  0.027430  1
  H  H29  1  0.138078  0.005605  0.094615  1
  H  H30  1  0.521474  0.096353  0.950179  1
  H  H31  1  0.198225  0.315207  0.194461  1
  H  H32  1  0.337920  0.427403  0.509676  1
  H  H33  1  0.430514  0.502290  0.704019  1
  H  H34  1  0.220678  0.835633  0.114766  1
  H  H35  1  0.569486  0.002290  0.795981  1
  H  H36  1  0.662080  0.927403  0.990324  1
  H  H37  1  0.478526  0.596353  0.549821  1
  H  H38  1  0.336972  0.490838  0.211485  1
  H  H39  1  0.423099  0.937769  0.371142  1
  H  H40  1  0.576901  0.062231  0.628858  1
  H  H41  1  0.663028  0.509162  0.788515  1
  H  H42  1  0.521474  0.403647  0.450179  1
  H  H43  1  0.337920  0.072597  0.009676  1
  H  H44  1  0.430514  0.997710  0.204019  1
  H  H45  1  0.779322  0.164367  0.885234  1
  H  H46  1  0.569486  0.497710  0.295981  1
  H  H47  1  0.662080  0.572597  0.490324  1
  H  H48  1  0.801775  0.684793  0.805539  1
  H  H49  1  0.478526  0.903647  0.049821  1
  H  H50  1  0.861922  0.994395  0.905385  1
  H  H51  1  0.904483  0.600595  0.972570  1
  H  H52  1  0.889693  0.281013  0.896420  1
  H  H53  1  0.877239  0.805089  0.824859  1
  H  H54  1  0.576901  0.437769  0.128858  1
  H  H55  1  0.781823  0.096278  0.591024  1
  H  H56  1  0.663028  0.990838  0.288515  1
  H  H57  1  0.896949  0.448329  0.698182  1
  H  H58  1  0.845691  0.426558  0.558201  1
  H  H59  1  0.779322  0.335633  0.385234  1
  H  H60  1  0.984658  0.585849  0.767679  1
  H  H61  1  0.801775  0.815207  0.305539  1
  H  H62  1  0.861922  0.505605  0.405385  1
  H  H63  1  0.904483  0.899405  0.472570  1
  H  H64  1  0.967876  0.945836  0.600901  1
  H  H65  1  0.889693  0.218987  0.396420  1
  H  H66  1  0.877239  0.694911  0.324859  1
  H  H67  1  0.781823  0.403722  0.091024  1
  H  H68  1  0.896949  0.051671  0.198182  1
  H  H69  1  0.845691  0.073442  0.058201  1
  H  H70  1  0.984658  0.914151  0.267679  1
  H  H71  1  0.967876  0.554164  0.100901  1
  O  O72  1  0.083564  0.380363  0.945422  1
  O  O73  1  0.086234  0.896812  0.861557  1
  O  O74  1  0.081836  0.052464  0.676836  1
  O  O75  1  0.083564  0.119637  0.445422  1
  O  O76  1  0.086234  0.603188  0.361557  1
  O  O77  1  0.245515  0.259558  0.704704  1
  O  O78  1  0.236415  0.739979  0.640224  1
  O  O79  1  0.365079  0.614690  0.918441  1
  O  O80  1  0.408815  0.131137  0.976411  1
  O  O81  1  0.250548  0.532933  0.572114  1
  O  O82  1  0.081836  0.447536  0.176836  1
  O  O83  1  0.245515  0.240442  0.204704  1
  O  O84  1  0.482724  0.984687  0.716795  1
  O  O85  1  0.517276  0.484687  0.783205  1
  O  O86  1  0.236415  0.760021  0.140224  1
  O  O87  1  0.365079  0.885310  0.418441  1
  O  O88  1  0.408815  0.368863  0.476411  1
  O  O89  1  0.250548  0.967067  0.072114  1
  O  O90  1  0.749452  0.032933  0.927886  1
  O  O91  1  0.591185  0.631137  0.523589  1
  O  O92  1  0.634921  0.114690  0.581559  1
  O  O93  1  0.763585  0.239979  0.859776  1
  O  O94  1  0.482724  0.515313  0.216795  1
  O  O95  1  0.517276  0.015313  0.283205  1
  O  O96  1  0.754485  0.759558  0.795296  1
  O  O97  1  0.918164  0.552464  0.823164  1
  O  O98  1  0.749452  0.467067  0.427886  1
  O  O99  1  0.591185  0.868863  0.023589  1
  O  O100  1  0.634921  0.385310  0.081559  1
  O  O101  1  0.763585  0.260021  0.359776  1
  O  O102  1  0.754485  0.740442  0.295296  1
  O  O103  1  0.913766  0.396812  0.638443  1
  O  O104  1  0.916436  0.880363  0.554578  1
  O  O105  1  0.918164  0.947536  0.323164  1
  O  O106  1  0.913766  0.103188  0.138443  1
  O  O107  1  0.916436  0.619637  0.054578  1
