# generated using pymatgen
data_Si2As2O7
_symmetry_space_group_name_H-M   'P 1'
_cell_length_a   7.17574759
_cell_length_b   7.35409301
_cell_length_c   12.98680331
_cell_angle_alpha   93.80889515
_cell_angle_beta   96.51133154
_cell_angle_gamma   93.56450995
_symmetry_Int_Tables_number   1
_chemical_formula_structural   Si2As2O7
_chemical_formula_sum   'Si8 As8 O28'
_cell_volume   677.72179131
_cell_formula_units_Z   4
loop_
 _symmetry_equiv_pos_site_id
 _symmetry_equiv_pos_as_xyz
  1  'x, y, z'
loop_
 _atom_site_type_symbol
 _atom_site_label
 _atom_site_symmetry_multiplicity
 _atom_site_fract_x
 _atom_site_fract_y
 _atom_site_fract_z
 _atom_site_occupancy
  Si  Si0  1  0.187398  0.365687  0.614141  1
  Si  Si1  1  0.022486  0.815969  0.129181  1
  Si  Si2  1  0.338692  0.240869  0.403356  1
  Si  Si3  1  0.419366  0.313180  0.192339  1
  Si  Si4  1  0.580634  0.686820  0.807661  1
  Si  Si5  1  0.661308  0.759131  0.596644  1
  Si  Si6  1  0.977514  0.184031  0.870819  1
  Si  Si7  1  0.812602  0.634313  0.385859  1
  As  As8  1  0.997183  0.754335  0.881270  1
  As  As9  1  0.259058  0.817135  0.655904  1
  As  As10  1  0.385886  0.278900  0.836298  1
  As  As11  1  0.247163  0.805183  0.356349  1
  As  As12  1  0.752837  0.194817  0.643651  1
  As  As13  1  0.614114  0.721100  0.163702  1
  As  As14  1  0.740942  0.182865  0.344096  1
  As  As15  1  0.002817  0.245665  0.118730  1
  O  O16  1  0.942875  0.017058  0.154203  1
  O  O17  1  0.151443  0.337165  0.862009  1
  O  O18  1  0.021530  0.740012  0.397333  1
  O  O19  1  0.174516  0.579920  0.653446  1
  O  O20  1  0.209791  0.048891  0.375822  1
  O  O21  1  0.096727  0.790471  0.015282  1
  O  O22  1  0.336436  0.262940  0.693798  1
  O  O23  1  0.263235  0.355669  0.499739  1
  O  O24  1  0.253117  0.216414  0.104473  1
  O  O25  1  0.201477  0.781429  0.214801  1
  O  O26  1  0.486826  0.510018  0.856431  1
  O  O27  1  0.418687  0.831085  0.777155  1
  O  O28  1  0.324330  0.364083  0.300821  1
  O  O29  1  0.437337  0.795528  0.566307  1
  O  O30  1  0.562663  0.204472  0.433693  1
  O  O31  1  0.675670  0.635917  0.699179  1
  O  O32  1  0.581313  0.168915  0.222845  1
  O  O33  1  0.513174  0.489982  0.143569  1
  O  O34  1  0.798523  0.218571  0.785199  1
  O  O35  1  0.746883  0.783586  0.895527  1
  O  O36  1  0.736765  0.644331  0.500261  1
  O  O37  1  0.663564  0.737060  0.306202  1
  O  O38  1  0.903273  0.209529  0.984718  1
  O  O39  1  0.790209  0.951109  0.624178  1
  O  O40  1  0.825484  0.420080  0.346554  1
  O  O41  1  0.978470  0.259988  0.602667  1
  O  O42  1  0.848557  0.662835  0.137991  1
  O  O43  1  0.057125  0.982942  0.845797  1
