# generated using pymatgen
data_Na2SbAu
_symmetry_space_group_name_H-M   'P 1'
_cell_length_a   6.03921343
_cell_length_b   6.03921343
_cell_length_c   5.92943061
_cell_angle_alpha   90.00000000
_cell_angle_beta   90.00000000
_cell_angle_gamma   102.07586927
_symmetry_Int_Tables_number   1
_chemical_formula_structural   Na2SbAu
_chemical_formula_sum   'Na4 Sb2 Au2'
_cell_volume   211.47328249
_cell_formula_units_Z   2
loop_
 _symmetry_equiv_pos_site_id
 _symmetry_equiv_pos_as_xyz
  1  'x, y, z'
loop_
 _atom_site_type_symbol
 _atom_site_label
 _atom_site_symmetry_multiplicity
 _atom_site_fract_x
 _atom_site_fract_y
 _atom_site_fract_z
 _atom_site_occupancy
  Na  Na0  1  0.015517  0.656409  0.250000  1
  Na  Na1  1  0.984483  0.343591  0.750000  1
  Na  Na2  1  0.656409  0.015517  0.250000  1
  Na  Na3  1  0.343591  0.984483  0.750000  1
  Sb  Sb4  1  0.798126  0.798126  0.750000  1
  Sb  Sb5  1  0.201874  0.201874  0.250000  1
  Au  Au6  1  0.500000  0.500000  0.500000  1
  Au  Au7  1  0.500000  0.500000  1.000000  1
