# generated using pymatgen
data_MnCu3(PO4)4
_symmetry_space_group_name_H-M   'P 1'
_cell_length_a   4.88253015
_cell_length_b   5.94054339
_cell_length_c   9.74890536
_cell_angle_alpha   90.00000000
_cell_angle_beta   90.94336328
_cell_angle_gamma   90.00000000
_symmetry_Int_Tables_number   1
_chemical_formula_structural   MnCu3(PO4)4
_chemical_formula_sum   'Mn1 Cu3 P4 O16'
_cell_volume   282.72752489
_cell_formula_units_Z   1
loop_
 _symmetry_equiv_pos_site_id
 _symmetry_equiv_pos_as_xyz
  1  'x, y, z'
loop_
 _atom_site_type_symbol
 _atom_site_label
 _atom_site_symmetry_multiplicity
 _atom_site_fract_x
 _atom_site_fract_y
 _atom_site_fract_z
 _atom_site_occupancy
  Mn  Mn0  1  0.061445  0.000000  0.285085  1
  Cu  Cu1  1  0.929177  0.500000  0.715021  1
  Cu  Cu2  1  0.597425  0.500000  0.210749  1
  Cu  Cu3  1  0.425860  0.000000  0.782570  1
  P  P4  1  0.907676  0.000000  0.598348  1
  P  P5  1  0.582789  0.000000  0.096327  1
  P  P6  1  0.422622  0.500000  0.899984  1
  P  P7  1  0.083823  0.500000  0.403350  1
  O  O8  1  0.837634  0.000000  0.442822  1
  O  O9  1  0.761647  0.202441  0.670386  1
  O  O10  1  0.761647  0.797559  0.670386  1
  O  O11  1  0.767947  0.500000  0.383359  1
  O  O12  1  0.734817  0.500000  0.880888  1
  O  O13  1  0.741060  0.199384  0.170063  1
  O  O14  1  0.741060  0.800616  0.170063  1
  O  O15  1  0.647872  0.000000  0.942164  1
  O  O16  1  0.369024  0.500000  0.056358  1
  O  O17  1  0.266349  0.702119  0.830291  1
  O  O18  1  0.266349  0.297881  0.830291  1
  O  O19  1  0.274189  0.000000  0.120546  1
  O  O20  1  0.222623  0.000000  0.614917  1
  O  O21  1  0.224857  0.705088  0.333331  1
  O  O22  1  0.224857  0.294912  0.333331  1
  O  O23  1  0.147246  0.500000  0.559375  1
