# generated using pymatgen
data_Na2InPCO7
_symmetry_space_group_name_H-M   'P 1'
_cell_length_a   5.27396637
_cell_length_b   6.82775288
_cell_length_c   9.13950751
_cell_angle_alpha   90.00000000
_cell_angle_beta   90.43282415
_cell_angle_gamma   90.00000000
_symmetry_Int_Tables_number   1
_chemical_formula_structural   Na2InPCO7
_chemical_formula_sum   'Na4 In2 P2 C2 O14'
_cell_volume   329.09823425
_cell_formula_units_Z   2
loop_
 _symmetry_equiv_pos_site_id
 _symmetry_equiv_pos_as_xyz
  1  'x, y, z'
loop_
 _atom_site_type_symbol
 _atom_site_label
 _atom_site_symmetry_multiplicity
 _atom_site_fract_x
 _atom_site_fract_y
 _atom_site_fract_z
 _atom_site_occupancy
  Na  Na0  1  0.232452  0.497662  0.220925  1
  Na  Na1  1  0.232452  0.002338  0.220925  1
  Na  Na2  1  0.767548  0.502338  0.779075  1
  Na  Na3  1  0.767548  0.997662  0.779075  1
  In  In4  1  0.773477  0.750000  0.359560  1
  In  In5  1  0.226523  0.250000  0.640440  1
  P  P6  1  0.712537  0.250000  0.421428  1
  P  P7  1  0.287463  0.750000  0.578572  1
  C  C8  1  0.730990  0.750000  0.069733  1
  C  C9  1  0.269010  0.250000  0.930267  1
  O  O10  1  0.297253  0.250000  0.066701  1
  O  O11  1  0.953364  0.750000  0.135608  1
  O  O12  1  0.533224  0.750000  0.160169  1
  O  O13  1  0.801847  0.067104  0.336855  1
  O  O14  1  0.801847  0.432896  0.336855  1
  O  O15  1  0.179002  0.750000  0.418715  1
  O  O16  1  0.413990  0.250000  0.432338  1
  O  O17  1  0.586010  0.750000  0.567662  1
  O  O18  1  0.820998  0.250000  0.581285  1
  O  O19  1  0.198153  0.567104  0.663145  1
  O  O20  1  0.198153  0.932896  0.663145  1
  O  O21  1  0.466776  0.250000  0.839831  1
  O  O22  1  0.046636  0.250000  0.864392  1
  O  O23  1  0.702747  0.750000  0.933299  1
