# generated using pymatgen
data_Li2Cu3F11
_symmetry_space_group_name_H-M   'P 1'
_cell_length_a   6.20153966
_cell_length_b   7.29583904
_cell_length_c   9.13346434
_cell_angle_alpha   90.00000000
_cell_angle_beta   93.58824263
_cell_angle_gamma   90.00000000
_symmetry_Int_Tables_number   1
_chemical_formula_structural   Li2Cu3F11
_chemical_formula_sum   'Li4 Cu6 F22'
_cell_volume   412.43743516
_cell_formula_units_Z   2
loop_
 _symmetry_equiv_pos_site_id
 _symmetry_equiv_pos_as_xyz
  1  'x, y, z'
loop_
 _atom_site_type_symbol
 _atom_site_label
 _atom_site_symmetry_multiplicity
 _atom_site_fract_x
 _atom_site_fract_y
 _atom_site_fract_z
 _atom_site_occupancy
  Li  Li0  1  0.152516  0.000000  0.141184  1
  Li  Li1  1  0.239965  0.500000  0.244189  1
  Li  Li2  1  0.763894  0.000000  0.739967  1
  Li  Li3  1  0.869327  0.500000  0.839859  1
  Cu  Cu4  1  0.682855  0.750925  0.117510  1
  Cu  Cu5  1  0.682855  0.249075  0.117510  1
  Cu  Cu6  1  0.518512  0.750156  0.492916  1
  Cu  Cu7  1  0.518512  0.249844  0.492916  1
  Cu  Cu8  1  0.341843  0.748563  0.868822  1
  Cu  Cu9  1  0.341843  0.251437  0.868822  1
  F  F10  1  0.758129  0.500000  0.056762  1
  F  F11  1  0.976510  0.206907  0.146606  1
  F  F12  1  0.976510  0.793093  0.146606  1
  F  F13  1  0.589914  0.000000  0.154362  1
  F  F14  1  0.372336  0.306768  0.084733  1
  F  F15  1  0.372336  0.693232  0.084733  1
  F  F16  1  0.666931  0.305794  0.318563  1
  F  F17  1  0.666931  0.694206  0.318563  1
  F  F18  1  0.470644  0.000000  0.433751  1
  F  F19  1  0.264763  0.307863  0.393551  1
  F  F20  1  0.264763  0.692137  0.393551  1
  F  F21  1  0.567106  0.500000  0.550992  1
  F  F22  1  0.770505  0.807654  0.592308  1
  F  F23  1  0.770505  0.192346  0.592308  1
  F  F24  1  0.372683  0.808925  0.668424  1
  F  F25  1  0.372683  0.191075  0.668424  1
  F  F26  1  0.652125  0.805288  0.902089  1
  F  F27  1  0.652125  0.194712  0.902089  1
  F  F28  1  0.433530  0.500000  0.828357  1
  F  F29  1  0.049769  0.295848  0.836266  1
  F  F30  1  0.049769  0.704152  0.836266  1
  F  F31  1  0.262659  0.000000  0.928381  1
