# generated using pymatgen
data_Li4Cr2Fe3Sn3O16
_symmetry_space_group_name_H-M   'P 1'
_cell_length_a   6.12183871
_cell_length_b   6.12183871
_cell_length_c   9.66941777
_cell_angle_alpha   89.77475679
_cell_angle_beta   90.22524321
_cell_angle_gamma   120.05210491
_symmetry_Int_Tables_number   1
_chemical_formula_structural   Li4Cr2Fe3Sn3O16
_chemical_formula_sum   'Li4 Cr2 Fe3 Sn3 O16'
_cell_volume   313.66205783
_cell_formula_units_Z   1
loop_
 _symmetry_equiv_pos_site_id
 _symmetry_equiv_pos_as_xyz
  1  'x, y, z'
loop_
 _atom_site_type_symbol
 _atom_site_label
 _atom_site_symmetry_multiplicity
 _atom_site_fract_x
 _atom_site_fract_y
 _atom_site_fract_z
 _atom_site_occupancy
  Li  Li0  1  0.669387  0.330613  0.111855  1
  Li  Li1  1  0.988646  0.011354  0.008684  1
  Li  Li2  1  0.991034  0.008966  0.499803  1
  Li  Li3  1  0.334281  0.665719  0.604550  1
  Cr  Cr4  1  0.669106  0.330894  0.510291  1
  Cr  Cr5  1  0.338272  0.661728  0.017540  1
  Fe  Fe6  1  0.831240  0.168760  0.784731  1
  Fe  Fe7  1  0.659606  0.829460  0.285574  1
  Fe  Fe8  1  0.170540  0.340394  0.285574  1
  Sn  Sn9  1  0.831631  0.660861  0.787069  1
  Sn  Sn10  1  0.339139  0.168369  0.787069  1
  Sn  Sn11  1  0.170931  0.829069  0.287473  1
  O  O12  1  0.833932  0.669795  0.403149  1
  O  O13  1  0.519825  0.480175  0.652437  1
  O  O14  1  0.671872  0.328128  0.902311  1
  O  O15  1  0.996749  0.003251  0.684924  1
  O  O16  1  0.994939  0.005061  0.194034  1
  O  O17  1  0.330205  0.166068  0.403149  1
  O  O18  1  0.958659  0.476085  0.654324  1
  O  O19  1  0.523915  0.041341  0.654324  1
  O  O20  1  0.163282  0.836718  0.905992  1
  O  O21  1  0.832238  0.167762  0.397403  1
  O  O22  1  0.484075  0.957325  0.155664  1
  O  O23  1  0.042675  0.515925  0.155664  1
  O  O24  1  0.340569  0.659431  0.398052  1
  O  O25  1  0.671401  0.836806  0.900665  1
  O  O26  1  0.479850  0.520150  0.159189  1
  O  O27  1  0.163194  0.328599  0.900665  1
