# generated using pymatgen
data_LiFe2(BO3)2
_symmetry_space_group_name_H-M   'P 1'
_cell_length_a   5.28148806
_cell_length_b   9.11018452
_cell_length_c   10.11292465
_cell_angle_alpha   89.38250068
_cell_angle_beta   89.16794409
_cell_angle_gamma   89.01671844
_symmetry_Int_Tables_number   1
_chemical_formula_structural   LiFe2(BO3)2
_chemical_formula_sum   'Li4 Fe8 B8 O24'
_cell_volume   486.43678801
_cell_formula_units_Z   4
loop_
 _symmetry_equiv_pos_site_id
 _symmetry_equiv_pos_as_xyz
  1  'x, y, z'
loop_
 _atom_site_type_symbol
 _atom_site_label
 _atom_site_symmetry_multiplicity
 _atom_site_fract_x
 _atom_site_fract_y
 _atom_site_fract_z
 _atom_site_occupancy
  Li  Li0  1  0.183371  0.162172  0.158616  1
  Li  Li1  1  0.333309  0.324775  0.886241  1
  Li  Li2  1  0.684703  0.667598  0.151000  1
  Li  Li3  1  0.823937  0.835510  0.410758  1
  Fe  Fe4  1  0.170157  0.833332  0.637295  1
  Fe  Fe5  1  0.180147  0.496293  0.130431  1
  Fe  Fe6  1  0.316065  0.997314  0.878657  1
  Fe  Fe7  1  0.325321  0.657946  0.378756  1
  Fe  Fe8  1  0.671357  0.338942  0.628538  1
  Fe  Fe9  1  0.688282  0.997747  0.120472  1
  Fe  Fe10  1  0.827734  0.164899  0.380937  1
  Fe  Fe11  1  0.827940  0.504254  0.878755  1
  B  B12  1  0.165328  0.499695  0.635187  1
  B  B13  1  0.176758  0.831113  0.134522  1
  B  B14  1  0.335825  0.990618  0.372777  1
  B  B15  1  0.325613  0.659412  0.874347  1
  B  B16  1  0.663954  0.999383  0.625956  1
  B  B17  1  0.669841  0.331663  0.120867  1
  B  B18  1  0.833186  0.505348  0.381849  1
  B  B19  1  0.831168  0.173417  0.880869  1
  O  O20  1  0.085501  0.506272  0.339744  1
  O  O21  1  0.088696  0.175598  0.886241  1
  O  O22  1  0.197117  0.783183  0.828698  1
  O  O23  1  0.222374  0.858667  0.424779  1
  O  O24  1  0.185916  0.109234  0.349550  1
  O  O25  1  0.184460  0.536961  0.915622  1
  O  O26  1  0.323343  0.383392  0.655490  1
  O  O27  1  0.301342  0.955725  0.091695  1
  O  O28  1  0.250824  0.630123  0.576363  1
  O  O29  1  0.322001  0.706174  0.177297  1
  O  O30  1  0.410783  0.325200  0.106318  1
  O  O31  1  0.413246  0.984231  0.666143  1
  O  O32  1  0.593164  0.985947  0.344645  1
  O  O33  1  0.582951  0.654053  0.882318  1
  O  O34  1  0.697623  0.306080  0.839355  1
  O  O35  1  0.730093  0.380547  0.436561  1
  O  O36  1  0.688699  0.632552  0.363373  1
  O  O37  1  0.684779  0.056894  0.917033  1
  O  O38  1  0.796280  0.462936  0.084265  1
  O  O39  1  0.821378  0.878676  0.609807  1
  O  O40  1  0.752423  0.138105  0.593025  1
  O  O41  1  0.808989  0.212448  0.166879  1
  O  O42  1  0.918723  0.822372  0.138844  1
  O  O43  1  0.911191  0.496472  0.677613  1
