# generated using pymatgen
data_LiMnF4
_symmetry_space_group_name_H-M   'P 1'
_cell_length_a   4.66514694
_cell_length_b   4.66514694
_cell_length_c   3.19117763
_cell_angle_alpha   87.21934085
_cell_angle_beta   92.78065915
_cell_angle_gamma   93.31370470
_symmetry_Int_Tables_number   1
_chemical_formula_structural   LiMnF4
_chemical_formula_sum   'Li1 Mn1 F4'
_cell_volume   69.18094491
_cell_formula_units_Z   1
loop_
 _symmetry_equiv_pos_site_id
 _symmetry_equiv_pos_as_xyz
  1  'x, y, z'
loop_
 _atom_site_type_symbol
 _atom_site_label
 _atom_site_symmetry_multiplicity
 _atom_site_fract_x
 _atom_site_fract_y
 _atom_site_fract_z
 _atom_site_occupancy
  Li  Li0  1  0.000000  0.000000  0.500000  1
  Mn  Mn1  1  0.500000  0.500000  0.000000  1
  F  F2  1  0.208730  0.208730  0.000000  1
  F  F3  1  0.791270  0.791270  0.000000  1
  F  F4  1  0.306424  0.693576  0.536235  1
  F  F5  1  0.693576  0.306424  0.463765  1
