# generated using pymatgen
data_BaLu2O4
_symmetry_space_group_name_H-M   'P 1'
_cell_length_a   5.81721739
_cell_length_b   5.81721739
_cell_length_c   11.31706785
_cell_angle_alpha   90.00000000
_cell_angle_beta   90.00000000
_cell_angle_gamma   146.20076185
_symmetry_Int_Tables_number   1
_chemical_formula_structural   BaLu2O4
_chemical_formula_sum   'Ba2 Lu4 O8'
_cell_volume   213.04017852
_cell_formula_units_Z   2
loop_
 _symmetry_equiv_pos_site_id
 _symmetry_equiv_pos_as_xyz
  1  'x, y, z'
loop_
 _atom_site_type_symbol
 _atom_site_label
 _atom_site_symmetry_multiplicity
 _atom_site_fract_x
 _atom_site_fract_y
 _atom_site_fract_z
 _atom_site_occupancy
  Ba  Ba0  1  0.889651  0.110349  0.250000  1
  Ba  Ba1  1  0.110349  0.889651  0.750000  1
  Lu  Lu2  1  0.635684  0.364316  0.430046  1
  Lu  Lu3  1  0.635684  0.364316  0.069954  1
  Lu  Lu4  1  0.364316  0.635684  0.569954  1
  Lu  Lu5  1  0.364316  0.635684  0.930046  1
  O  O6  1  0.000000  0.000000  0.000000  1
  O  O7  1  0.000000  0.000000  0.500000  1
  O  O8  1  0.569383  0.430617  0.250000  1
  O  O9  1  0.740445  0.259555  0.600142  1
  O  O10  1  0.740445  0.259555  0.899858  1
  O  O11  1  0.430617  0.569383  0.750000  1
  O  O12  1  0.259555  0.740445  0.399858  1
  O  O13  1  0.259555  0.740445  0.100142  1
