# generated using pymatgen
data_Li4VF7
_symmetry_space_group_name_H-M   'P 1'
_cell_length_a   7.69313045
_cell_length_b   7.69313045
_cell_length_c   5.54265563
_cell_angle_alpha   79.57252234
_cell_angle_beta   100.42747766
_cell_angle_gamma   110.88570795
_symmetry_Int_Tables_number   1
_chemical_formula_structural   Li4VF7
_chemical_formula_sum   'Li8 V2 F14'
_cell_volume   298.99096498
_cell_formula_units_Z   2
loop_
 _symmetry_equiv_pos_site_id
 _symmetry_equiv_pos_as_xyz
  1  'x, y, z'
loop_
 _atom_site_type_symbol
 _atom_site_label
 _atom_site_symmetry_multiplicity
 _atom_site_fract_x
 _atom_site_fract_y
 _atom_site_fract_z
 _atom_site_occupancy
  Li  Li0  1  0.255075  0.943095  0.334849  1
  Li  Li1  1  0.056905  0.744925  0.834849  1
  Li  Li2  1  0.426428  0.694319  0.764192  1
  Li  Li3  1  0.305681  0.573572  0.264192  1
  Li  Li4  1  0.694319  0.426428  0.735808  1
  Li  Li5  1  0.573572  0.305681  0.235808  1
  Li  Li6  1  0.943095  0.255075  0.165151  1
  Li  Li7  1  0.744925  0.056905  0.665151  1
  V  V8  1  0.771006  0.771006  0.250000  1
  V  V9  1  0.228994  0.228994  0.750000  1
  F  F10  1  0.194986  0.995773  0.644141  1
  F  F11  1  0.004227  0.805014  0.144141  1
  F  F12  1  0.665615  0.850179  0.906993  1
  F  F13  1  0.384216  0.779512  0.433916  1
  F  F14  1  0.220488  0.615784  0.933916  1
  F  F15  1  0.850179  0.665615  0.593007  1
  F  F16  1  0.552736  0.552736  0.250000  1
  F  F17  1  0.447264  0.447264  0.750000  1
  F  F18  1  0.149821  0.334385  0.406993  1
  F  F19  1  0.779512  0.384216  0.066084  1
  F  F20  1  0.615784  0.220488  0.566084  1
  F  F21  1  0.334385  0.149821  0.093007  1
  F  F22  1  0.995773  0.194986  0.855859  1
  F  F23  1  0.805014  0.004227  0.355859  1
