# generated using pymatgen
data_V6O7F5
_symmetry_space_group_name_H-M   'P 1'
_cell_length_a   5.59434142
_cell_length_b   5.60243886
_cell_length_c   7.43806749
_cell_angle_alpha   71.78311844
_cell_angle_beta   72.22953224
_cell_angle_gamma   71.01442892
_symmetry_Int_Tables_number   1
_chemical_formula_structural   V6O7F5
_chemical_formula_sum   'V6 O7 F5'
_cell_volume   203.94822736
_cell_formula_units_Z   1
loop_
 _symmetry_equiv_pos_site_id
 _symmetry_equiv_pos_as_xyz
  1  'x, y, z'
loop_
 _atom_site_type_symbol
 _atom_site_label
 _atom_site_symmetry_multiplicity
 _atom_site_fract_x
 _atom_site_fract_y
 _atom_site_fract_z
 _atom_site_occupancy
  V  V0  1  0.672099  0.671377  0.829764  1
  V  V1  1  0.330517  0.335255  0.664645  1
  V  V2  1  0.673215  0.623707  0.328087  1
  V  V3  1  0.335273  0.357422  0.151122  1
  V  V4  1  0.980653  0.997140  0.508313  1
  V  V5  1  0.010006  0.023087  0.007500  1
  O  O6  1  0.030256  0.641567  0.666619  1
  O  O7  1  0.235304  0.239215  0.971485  1
  O  O8  1  0.431726  0.426340  0.363657  1
  O  O9  1  0.300258  0.702448  0.000256  1
  O  O10  1  0.622574  0.031642  0.670112  1
  O  O11  1  0.983365  0.351286  0.331233  1
  O  O12  1  0.694600  0.311080  0.002585  1
  F  F13  1  0.373758  0.957675  0.333491  1
  F  F14  1  0.572851  0.562117  0.626579  1
  F  F15  1  0.888717  0.889735  0.304725  1
  F  F16  1  0.090075  0.103622  0.705776  1
  F  F17  1  0.774752  0.775288  0.034049  1
