# generated using pymatgen
data_BaLaCl5
_symmetry_space_group_name_H-M   'P 1'
_cell_length_a   9.28484740
_cell_length_b   10.79013703
_cell_length_c   13.45005294
_cell_angle_alpha   78.29644202
_cell_angle_beta   76.87353579
_cell_angle_gamma   71.21904503
_symmetry_Int_Tables_number   1
_chemical_formula_structural   BaLaCl5
_chemical_formula_sum   'Ba6 La6 Cl30'
_cell_volume   1230.05142070
_cell_formula_units_Z   6
loop_
 _symmetry_equiv_pos_site_id
 _symmetry_equiv_pos_as_xyz
  1  'x, y, z'
loop_
 _atom_site_type_symbol
 _atom_site_label
 _atom_site_symmetry_multiplicity
 _atom_site_fract_x
 _atom_site_fract_y
 _atom_site_fract_z
 _atom_site_occupancy
  Ba  Ba0  1  0.227108  0.193092  0.557682  1
  Ba  Ba1  1  0.276545  0.498760  0.230649  1
  Ba  Ba2  1  0.747160  0.153113  0.062793  1
  Ba  Ba3  1  0.252840  0.846887  0.937207  1
  Ba  Ba4  1  0.723455  0.501240  0.769351  1
  Ba  Ba5  1  0.772892  0.806908  0.442318  1
  La  La6  1  0.216406  0.349858  0.921962  1
  La  La7  1  0.253323  0.665763  0.573041  1
  La  La8  1  0.280387  0.976835  0.255080  1
  La  La9  1  0.719613  0.023165  0.744920  1
  La  La10  1  0.746677  0.334237  0.426959  1
  La  La11  1  0.783594  0.650142  0.078038  1
  Cl  Cl12  1  0.010674  0.109476  0.393039  1
  Cl  Cl13  1  0.017137  0.393509  0.116856  1
  Cl  Cl14  1  0.347345  0.119497  0.056645  1
  Cl  Cl15  1  0.341688  0.196188  0.296960  1
  Cl  Cl16  1  0.978456  0.282151  0.876991  1
  Cl  Cl17  1  0.997900  0.562851  0.603422  1
  Cl  Cl18  1  0.035377  0.003621  0.154175  1
  Cl  Cl19  1  0.147101  0.750243  0.369547  1
  Cl  Cl20  1  0.361209  0.098295  0.789531  1
  Cl  Cl21  1  0.384604  0.428116  0.456157  1
  Cl  Cl22  1  0.405665  0.750768  0.133800  1
  Cl  Cl23  1  0.331874  0.433488  0.714991  1
  Cl  Cl24  1  0.668268  0.474428  0.018539  1
  Cl  Cl25  1  0.681200  0.240698  0.273660  1
  Cl  Cl26  1  0.611238  0.109016  0.542579  1
  Cl  Cl27  1  0.388762  0.890984  0.457421  1
  Cl  Cl28  1  0.318800  0.759302  0.726340  1
  Cl  Cl29  1  0.331732  0.525572  0.981461  1
  Cl  Cl30  1  0.668126  0.566512  0.285009  1
  Cl  Cl31  1  0.594335  0.249232  0.866200  1
  Cl  Cl32  1  0.615396  0.571884  0.543843  1
  Cl  Cl33  1  0.638791  0.901705  0.210469  1
  Cl  Cl34  1  0.852899  0.249757  0.630453  1
  Cl  Cl35  1  0.964623  0.996379  0.845825  1
  Cl  Cl36  1  0.002100  0.437149  0.396578  1
  Cl  Cl37  1  0.021544  0.717849  0.123009  1
  Cl  Cl38  1  0.658312  0.803812  0.703040  1
  Cl  Cl39  1  0.652655  0.880503  0.943355  1
  Cl  Cl40  1  0.982863  0.606491  0.883144  1
  Cl  Cl41  1  0.989326  0.890524  0.606961  1
