# generated using pymatgen
data_Ti4(Fe2O5)3
_symmetry_space_group_name_H-M   'P 1'
_cell_length_a   7.64729480
_cell_length_b   8.91544837
_cell_length_c   9.16157631
_cell_angle_alpha   80.67705094
_cell_angle_beta   71.48277710
_cell_angle_gamma   66.50588113
_symmetry_Int_Tables_number   1
_chemical_formula_structural   Ti4(Fe2O5)3
_chemical_formula_sum   'Ti8 Fe12 O30'
_cell_volume   542.73938449
_cell_formula_units_Z   2
loop_
 _symmetry_equiv_pos_site_id
 _symmetry_equiv_pos_as_xyz
  1  'x, y, z'
loop_
 _atom_site_type_symbol
 _atom_site_label
 _atom_site_symmetry_multiplicity
 _atom_site_fract_x
 _atom_site_fract_y
 _atom_site_fract_z
 _atom_site_occupancy
  Ti  Ti0  1  0.759623  0.943510  0.325809  1
  Ti  Ti1  1  0.643098  0.855402  0.074980  1
  Ti  Ti2  1  0.240377  0.056490  0.674191  1
  Ti  Ti3  1  0.356902  0.144598  0.925020  1
  Ti  Ti4  1  0.963097  0.339200  0.521897  1
  Ti  Ti5  1  0.431781  0.460700  0.872762  1
  Ti  Ti6  1  0.568219  0.539300  0.127238  1
  Ti  Ti7  1  0.036903  0.660800  0.478103  1
  Fe  Fe8  1  0.742938  0.055046  0.677298  1
  Fe  Fe9  1  0.139030  0.857141  0.074228  1
  Fe  Fe10  1  0.257062  0.944954  0.322702  1
  Fe  Fe11  1  0.833858  0.260973  0.276385  1
  Fe  Fe12  1  0.938255  0.459254  0.872815  1
  Fe  Fe13  1  0.337398  0.255933  0.276033  1
  Fe  Fe14  1  0.463279  0.340123  0.523202  1
  Fe  Fe15  1  0.860970  0.142859  0.925772  1
  Fe  Fe16  1  0.166142  0.739027  0.723615  1
  Fe  Fe17  1  0.061745  0.540746  0.127185  1
  Fe  Fe18  1  0.536721  0.659877  0.476798  1
  Fe  Fe19  1  0.662602  0.744067  0.723967  1
  O  O20  1  0.923612  0.814990  0.655448  1
  O  O21  1  0.106648  0.918979  0.861511  1
  O  O22  1  0.289836  0.887889  0.552080  1
  O  O23  1  0.063636  0.826773  0.317988  1
  O  O24  1  0.471408  0.990158  0.738511  1
  O  O25  1  0.528592  0.009842  0.261489  1
  O  O26  1  0.122229  0.209483  0.867627  1
  O  O27  1  0.330376  0.967520  0.066223  1
  O  O28  1  0.936364  0.173227  0.682012  1
  O  O29  1  0.710164  0.112111  0.447920  1
  O  O30  1  0.490492  0.281824  0.753160  1
  O  O31  1  0.893352  0.081021  0.138489  1
  O  O32  1  0.669624  0.032480  0.933777  1
  O  O33  1  0.265966  0.226164  0.530003  1
  O  O34  1  0.076388  0.185010  0.344552  1
  O  O35  1  0.724914  0.414006  0.467321  1
  O  O36  1  0.530752  0.375157  0.270362  1
  O  O37  1  0.143057  0.561451  0.878440  1
  O  O38  1  0.312634  0.308212  0.051610  1
  O  O39  1  0.916429  0.510342  0.648753  1
  O  O40  1  0.083571  0.489658  0.351247  1
  O  O41  1  0.469248  0.624843  0.729638  1
  O  O42  1  0.856943  0.438549  0.121560  1
  O  O43  1  0.672740  0.377528  0.940876  1
  O  O44  1  0.275086  0.585994  0.532679  1
  O  O45  1  0.327260  0.622472  0.059124  1
  O  O46  1  0.734034  0.773836  0.469997  1
  O  O47  1  0.509508  0.718176  0.246840  1
  O  O48  1  0.687366  0.691788  0.948390  1
  O  O49  1  0.877771  0.790517  0.132373  1
