# generated using pymatgen
data_V4(OF3)3
_symmetry_space_group_name_H-M   'P 1'
_cell_length_a   5.23734027
_cell_length_b   5.38943352
_cell_length_c   17.42589671
_cell_angle_alpha   89.36880322
_cell_angle_beta   97.81421046
_cell_angle_gamma   118.44712496
_symmetry_Int_Tables_number   1
_chemical_formula_structural   V4(OF3)3
_chemical_formula_sum   'V8 O6 F18'
_cell_volume   427.64656217
_cell_formula_units_Z   2
loop_
 _symmetry_equiv_pos_site_id
 _symmetry_equiv_pos_as_xyz
  1  'x, y, z'
loop_
 _atom_site_type_symbol
 _atom_site_label
 _atom_site_symmetry_multiplicity
 _atom_site_fract_x
 _atom_site_fract_y
 _atom_site_fract_z
 _atom_site_occupancy
  V  V0  1  0.751456  0.367806  0.124760  1
  V  V1  1  0.747707  0.912968  0.621954  1
  V  V2  1  0.513279  0.720024  0.248169  1
  V  V3  1  0.512710  0.249226  0.747519  1
  V  V4  1  0.249629  0.088636  0.379084  1
  V  V5  1  0.244438  0.643935  0.882290  1
  V  V6  1  0.989352  0.014382  0.001639  1
  V  V7  1  0.998455  0.499413  0.500204  1
  O  O8  1  0.790018  0.177279  0.564501  1
  O  O9  1  0.849478  0.198805  0.040699  1
  O  O10  1  0.170536  0.789184  0.955622  1
  O  O11  1  0.655666  0.539755  0.208838  1
  O  O12  1  0.655034  0.065007  0.708552  1
  O  O13  1  0.207737  0.821650  0.435084  1
  F  F14  1  0.328232  0.148044  0.084794  1
  F  F15  1  0.776774  0.677968  0.059038  1
  F  F16  1  0.721509  0.058421  0.190138  1
  F  F17  1  0.332344  0.950005  0.287780  1
  F  F18  1  0.323076  0.666540  0.586734  1
  F  F19  1  0.335092  0.462986  0.792884  1
  F  F20  1  0.173735  0.591106  0.165366  1
  F  F21  1  0.168887  0.094905  0.664841  1
  F  F22  1  0.180531  0.296817  0.459783  1
  F  F23  1  0.284806  0.426473  0.315107  1
  F  F24  1  0.712693  0.585095  0.688369  1
  F  F25  1  0.825793  0.914150  0.336671  1
  F  F26  1  0.819021  0.703266  0.540646  1
  F  F27  1  0.827474  0.409191  0.837713  1
  F  F28  1  0.674788  0.330916  0.412964  1
  F  F29  1  0.271505  0.936196  0.810421  1
  F  F30  1  0.232082  0.316401  0.937001  1
  F  F31  1  0.676167  0.843448  0.910837  1
