# generated using pymatgen
data_Li8MnFe7(BO3)8
_symmetry_space_group_name_H-M   'P 1'
_cell_length_a   5.22953489
_cell_length_b   9.05502399
_cell_length_c   10.39205406
_cell_angle_alpha   88.77532026
_cell_angle_beta   89.38510321
_cell_angle_gamma   89.90841638
_symmetry_Int_Tables_number   1
_chemical_formula_structural   Li8MnFe7(BO3)8
_chemical_formula_sum   'Li8 Mn1 Fe7 B8 O24'
_cell_volume   491.95959186
_cell_formula_units_Z   1
loop_
 _symmetry_equiv_pos_site_id
 _symmetry_equiv_pos_as_xyz
  1  'x, y, z'
loop_
 _atom_site_type_symbol
 _atom_site_label
 _atom_site_symmetry_multiplicity
 _atom_site_fract_x
 _atom_site_fract_y
 _atom_site_fract_z
 _atom_site_occupancy
  Li  Li0  1  0.152609  0.174294  0.667402  1
  Li  Li1  1  0.183551  0.161891  0.166860  1
  Li  Li2  1  0.319433  0.330099  0.415316  1
  Li  Li3  1  0.336204  0.322633  0.914256  1
  Li  Li4  1  0.652947  0.673886  0.668378  1
  Li  Li5  1  0.683644  0.662978  0.165790  1
  Li  Li6  1  0.821629  0.832276  0.416229  1
  Li  Li7  1  0.835373  0.824553  0.916133  1
  Mn  Mn8  1  0.328038  0.664826  0.384471  1
  Fe  Fe9  1  0.180801  0.497595  0.132261  1
  Fe  Fe10  1  0.158351  0.843115  0.632390  1
  Fe  Fe11  1  0.339838  0.995602  0.884900  1
  Fe  Fe12  1  0.660616  0.340625  0.633219  1
  Fe  Fe13  1  0.680663  0.000366  0.133295  1
  Fe  Fe14  1  0.824355  0.168433  0.384037  1
  Fe  Fe15  1  0.838544  0.497118  0.884560  1
  B  B16  1  0.169130  0.831939  0.125287  1
  B  B17  1  0.163248  0.501384  0.627879  1
  B  B18  1  0.333723  0.999336  0.376790  1
  B  B19  1  0.327655  0.664864  0.875749  1
  B  B20  1  0.670078  0.332031  0.124548  1
  B  B21  1  0.662869  0.002165  0.626708  1
  B  B22  1  0.836200  0.496439  0.374293  1
  B  B23  1  0.828782  0.165556  0.875133  1
  O  O24  1  0.096012  0.480351  0.343707  1
  O  O25  1  0.089643  0.171466  0.861574  1
  O  O26  1  0.177948  0.789992  0.847685  1
  O  O27  1  0.193241  0.876396  0.419755  1
  O  O28  1  0.214194  0.134000  0.360969  1
  O  O29  1  0.211755  0.532328  0.915676  1
  O  O30  1  0.279340  0.364690  0.614228  1
  O  O31  1  0.290839  0.965973  0.096676  1
  O  O32  1  0.303248  0.629843  0.599010  1
  O  O33  1  0.311205  0.708436  0.164104  1
  O  O34  1  0.406701  0.319739  0.111959  1
  O  O35  1  0.408264  0.013028  0.665482  1
  O  O36  1  0.595316  0.984590  0.347018  1
  O  O37  1  0.590547  0.671765  0.862357  1
  O  O38  1  0.677743  0.289933  0.845791  1
  O  O39  1  0.694214  0.373822  0.416243  1
  O  O40  1  0.721406  0.633672  0.361881  1
  O  O41  1  0.711080  0.033520  0.916837  1
  O  O42  1  0.788718  0.467133  0.096020  1
  O  O43  1  0.777050  0.864059  0.615462  1
  O  O44  1  0.806040  0.128859  0.596335  1
  O  O45  1  0.813772  0.209591  0.163883  1
  O  O46  1  0.905547  0.821340  0.113570  1
  O  O47  1  0.907292  0.510865  0.665494  1
