# generated using pymatgen
data_Ba8Nb7O24
_symmetry_space_group_name_H-M   'P 1'
_cell_length_a   5.93495887
_cell_length_b   5.93495887
_cell_length_c   19.23357270
_cell_angle_alpha   90.00000000
_cell_angle_beta   90.00000000
_cell_angle_gamma   120.00000000
_symmetry_Int_Tables_number   1
_chemical_formula_structural   Ba8Nb7O24
_chemical_formula_sum   'Ba8 Nb7 O24'
_cell_volume   586.71341942
_cell_formula_units_Z   1
loop_
 _symmetry_equiv_pos_site_id
 _symmetry_equiv_pos_as_xyz
  1  'x, y, z'
loop_
 _atom_site_type_symbol
 _atom_site_label
 _atom_site_symmetry_multiplicity
 _atom_site_fract_x
 _atom_site_fract_y
 _atom_site_fract_z
 _atom_site_occupancy
  Ba  Ba0  1  0.666667  0.333333  0.132209  1
  Ba  Ba1  1  0.666667  0.333333  0.755254  1
  Ba  Ba2  1  0.333333  0.666667  0.985641  1
  Ba  Ba3  1  0.666667  0.333333  0.365982  1
  Ba  Ba4  1  0.333333  0.666667  0.504312  1
  Ba  Ba5  1  0.000000  0.000000  0.249152  1
  Ba  Ba6  1  0.000000  0.000000  0.854575  1
  Ba  Ba7  1  0.000000  0.000000  0.632481  1
  Nb  Nb8  1  0.666667  0.333333  0.563397  1
  Nb  Nb9  1  0.333333  0.666667  0.182707  1
  Nb  Nb10  1  0.333333  0.666667  0.318165  1
  Nb  Nb11  1  0.333333  0.666667  0.697347  1
  Nb  Nb12  1  0.666667  0.333333  0.933661  1
  Nb  Nb13  1  0.000000  0.000000  0.059469  1
  Nb  Nb14  1  0.000000  0.000000  0.438923  1
  O  O15  1  0.494515  0.505485  0.250413  1
  O  O16  1  0.328455  0.164227  0.007601  1
  O  O17  1  0.334686  0.167343  0.498809  1
  O  O18  1  0.503340  0.496660  0.620536  1
  O  O19  1  0.509824  0.490176  0.883268  1
  O  O20  1  0.503340  0.006679  0.620536  1
  O  O21  1  0.509824  0.019647  0.883268  1
  O  O22  1  0.494515  0.989030  0.250413  1
  O  O23  1  0.660520  0.830260  0.741279  1
  O  O24  1  0.993321  0.496660  0.620536  1
  O  O25  1  0.980353  0.490176  0.883268  1
  O  O26  1  0.835773  0.164227  0.007601  1
  O  O27  1  0.832657  0.167343  0.498809  1
  O  O28  1  0.672984  0.836492  0.126972  1
  O  O29  1  0.671947  0.835974  0.376866  1
  O  O30  1  0.010970  0.505485  0.250413  1
  O  O31  1  0.164026  0.328053  0.376866  1
  O  O32  1  0.835773  0.671545  0.007601  1
  O  O33  1  0.832657  0.665314  0.498809  1
  O  O34  1  0.163508  0.327016  0.126972  1
  O  O35  1  0.169740  0.339480  0.741279  1
  O  O36  1  0.163508  0.836492  0.126972  1
  O  O37  1  0.164026  0.835974  0.376866  1
  O  O38  1  0.169740  0.830260  0.741279  1
