# generated using pymatgen
data_Li3FePCO7
_symmetry_space_group_name_H-M   'P 1'
_cell_length_a   9.53876437
_cell_length_b   6.44768333
_cell_length_c   9.72039837
_cell_angle_alpha   90.00000000
_cell_angle_beta   115.48909836
_cell_angle_gamma   90.00000000
_symmetry_Int_Tables_number   1
_chemical_formula_structural   Li3FePCO7
_chemical_formula_sum   'Li12 Fe4 P4 C4 O28'
_cell_volume   539.64422896
_cell_formula_units_Z   4
loop_
 _symmetry_equiv_pos_site_id
 _symmetry_equiv_pos_as_xyz
  1  'x, y, z'
loop_
 _atom_site_type_symbol
 _atom_site_label
 _atom_site_symmetry_multiplicity
 _atom_site_fract_x
 _atom_site_fract_y
 _atom_site_fract_z
 _atom_site_occupancy
  Li  Li0  1  0.107731  0.250669  0.694646  1
  Li  Li1  1  0.107731  0.249331  0.194646  1
  Li  Li2  1  0.287485  0.011333  0.510803  1
  Li  Li3  1  0.287485  0.488667  0.010803  1
  Li  Li4  1  0.359533  0.754498  0.320389  1
  Li  Li5  1  0.359533  0.745502  0.820389  1
  Li  Li6  1  0.640467  0.245502  0.679611  1
  Li  Li7  1  0.640467  0.254498  0.179611  1
  Li  Li8  1  0.712515  0.988667  0.489197  1
  Li  Li9  1  0.712515  0.511333  0.989197  1
  Li  Li10  1  0.892269  0.749331  0.305354  1
  Li  Li11  1  0.892269  0.750669  0.805354  1
  Fe  Fe12  1  0.265032  0.502949  0.513571  1
  Fe  Fe13  1  0.265032  0.997051  0.013571  1
  Fe  Fe14  1  0.734968  0.497051  0.486429  1
  Fe  Fe15  1  0.734968  0.002949  0.986429  1
  P  P16  1  0.407063  0.248650  0.314052  1
  P  P17  1  0.407063  0.251350  0.814052  1
  P  P18  1  0.592937  0.751350  0.685948  1
  P  P19  1  0.592937  0.748650  0.185948  1
  C  C20  1  0.043042  0.742602  0.621667  1
  C  C21  1  0.043042  0.757398  0.121667  1
  C  C22  1  0.956958  0.257398  0.378333  1
  C  C23  1  0.956958  0.242602  0.878333  1
  O  O24  1  0.068339  0.740354  0.261451  1
  O  O25  1  0.068339  0.759646  0.761451  1
  O  O26  1  0.100634  0.261555  0.486990  1
  O  O27  1  0.157386  0.734438  0.582314  1
  O  O28  1  0.100634  0.238445  0.986990  1
  O  O29  1  0.157386  0.765562  0.082314  1
  O  O30  1  0.307536  0.059762  0.314942  1
  O  O31  1  0.313603  0.441426  0.327347  1
  O  O32  1  0.313603  0.058574  0.827347  1
  O  O33  1  0.307536  0.440238  0.814942  1
  O  O34  1  0.426379  0.755521  0.555660  1
  O  O35  1  0.416862  0.246026  0.657561  1
  O  O36  1  0.426379  0.744479  0.055660  1
  O  O37  1  0.416862  0.253974  0.157561  1
  O  O38  1  0.583138  0.753974  0.342439  1
  O  O39  1  0.573621  0.244479  0.444340  1
  O  O40  1  0.583138  0.746026  0.842439  1
  O  O41  1  0.573621  0.255521  0.944340  1
  O  O42  1  0.692464  0.940238  0.685058  1
  O  O43  1  0.686397  0.558574  0.672653  1
  O  O44  1  0.686397  0.941426  0.172653  1
  O  O45  1  0.692464  0.559762  0.185058  1
  O  O46  1  0.842614  0.265562  0.417686  1
  O  O47  1  0.899366  0.738445  0.513010  1
  O  O48  1  0.842614  0.234438  0.917686  1
  O  O49  1  0.899366  0.761555  0.013010  1
  O  O50  1  0.931661  0.259646  0.738549  1
  O  O51  1  0.931661  0.240354  0.238549  1
