# generated using pymatgen
data_LiFe2OF3
_symmetry_space_group_name_H-M   'P 1'
_cell_length_a   5.18074362
_cell_length_b   6.24199125
_cell_length_c   10.48246398
_cell_angle_alpha   90.00000000
_cell_angle_beta   90.00000000
_cell_angle_gamma   90.00000000
_symmetry_Int_Tables_number   1
_chemical_formula_structural   LiFe2OF3
_chemical_formula_sum   'Li4 Fe8 O4 F12'
_cell_volume   338.98355911
_cell_formula_units_Z   4
loop_
 _symmetry_equiv_pos_site_id
 _symmetry_equiv_pos_as_xyz
  1  'x, y, z'
loop_
 _atom_site_type_symbol
 _atom_site_label
 _atom_site_symmetry_multiplicity
 _atom_site_fract_x
 _atom_site_fract_y
 _atom_site_fract_z
 _atom_site_occupancy
  Li  Li0  1  0.977644  0.250000  0.591883  1
  Li  Li1  1  0.522356  0.250000  0.091883  1
  Li  Li2  1  0.477644  0.750000  0.908117  1
  Li  Li3  1  0.022356  0.750000  0.408117  1
  Fe  Fe4  1  0.000000  0.500000  0.000000  1
  Fe  Fe5  1  0.000000  0.000000  0.000000  1
  Fe  Fe6  1  0.999639  0.750000  0.740578  1
  Fe  Fe7  1  0.500361  0.750000  0.240578  1
  Fe  Fe8  1  0.500000  0.000000  0.500000  1
  Fe  Fe9  1  0.500000  0.500000  0.500000  1
  Fe  Fe10  1  0.499639  0.250000  0.759422  1
  Fe  Fe11  1  0.000361  0.250000  0.259422  1
  O  O12  1  0.844187  0.750000  0.913961  1
  O  O13  1  0.655813  0.750000  0.413961  1
  O  O14  1  0.344187  0.250000  0.586039  1
  O  O15  1  0.155813  0.250000  0.086039  1
  F  F16  1  0.795399  0.250000  0.427330  1
  F  F17  1  0.775590  0.483131  0.666414  1
  F  F18  1  0.775590  0.016869  0.666414  1
  F  F19  1  0.724410  0.483131  0.166414  1
  F  F20  1  0.724410  0.016869  0.166414  1
  F  F21  1  0.704601  0.250000  0.927330  1
  F  F22  1  0.295399  0.750000  0.072670  1
  F  F23  1  0.275590  0.516869  0.833586  1
  F  F24  1  0.275590  0.983131  0.833586  1
  F  F25  1  0.224410  0.983131  0.333586  1
  F  F26  1  0.224410  0.516869  0.333586  1
  F  F27  1  0.204601  0.750000  0.572670  1
