# generated using pymatgen
data_Mn3NiO8
_symmetry_space_group_name_H-M   'P 1'
_cell_length_a   8.14196987
_cell_length_b   8.14196987
_cell_length_c   8.14196987
_cell_angle_alpha   90.00000000
_cell_angle_beta   90.00000000
_cell_angle_gamma   90.00000000
_symmetry_Int_Tables_number   1
_chemical_formula_structural   Mn3NiO8
_chemical_formula_sum   'Mn12 Ni4 O32'
_cell_volume   539.74480716
_cell_formula_units_Z   4
loop_
 _symmetry_equiv_pos_site_id
 _symmetry_equiv_pos_as_xyz
  1  'x, y, z'
loop_
 _atom_site_type_symbol
 _atom_site_label
 _atom_site_symmetry_multiplicity
 _atom_site_fract_x
 _atom_site_fract_y
 _atom_site_fract_z
 _atom_site_occupancy
  Mn  Mn0  1  0.628080  0.621920  0.125000  1
  Mn  Mn1  1  0.625000  0.871920  0.378080  1
  Mn  Mn2  1  0.621920  0.125000  0.628080  1
  Mn  Mn3  1  0.878080  0.875000  0.128080  1
  Mn  Mn4  1  0.875000  0.128080  0.878080  1
  Mn  Mn5  1  0.871920  0.378080  0.625000  1
  Mn  Mn6  1  0.128080  0.878080  0.875000  1
  Mn  Mn7  1  0.125000  0.628080  0.621920  1
  Mn  Mn8  1  0.121920  0.375000  0.371920  1
  Mn  Mn9  1  0.378080  0.625000  0.871920  1
  Mn  Mn10  1  0.375000  0.371920  0.121920  1
  Mn  Mn11  1  0.371920  0.121920  0.375000  1
  Ni  Ni12  1  0.625000  0.375000  0.875000  1
  Ni  Ni13  1  0.875000  0.625000  0.375000  1
  Ni  Ni14  1  0.125000  0.125000  0.125000  1
  Ni  Ni15  1  0.375000  0.875000  0.625000  1
  O  O16  1  0.614525  0.607738  0.887952  1
  O  O17  1  0.612048  0.385475  0.107738  1
  O  O18  1  0.609647  0.109647  0.390353  1
  O  O19  1  0.607738  0.887952  0.614525  1
  O  O20  1  0.642262  0.635475  0.362048  1
  O  O21  1  0.640353  0.859647  0.140353  1
  O  O22  1  0.637952  0.142262  0.864525  1
  O  O23  1  0.635475  0.362048  0.642262  1
  O  O24  1  0.864525  0.637952  0.142262  1
  O  O25  1  0.862048  0.857738  0.364525  1
  O  O26  1  0.859647  0.140353  0.640353  1
  O  O27  1  0.857738  0.364525  0.862048  1
  O  O28  1  0.892262  0.112048  0.114525  1
  O  O29  1  0.890353  0.890353  0.890353  1
  O  O30  1  0.887952  0.614525  0.607738  1
  O  O31  1  0.885475  0.392262  0.387952  1
  O  O32  1  0.114525  0.892262  0.112048  1
  O  O33  1  0.112048  0.114525  0.892262  1
  O  O34  1  0.109647  0.390353  0.609647  1
  O  O35  1  0.107738  0.612048  0.385475  1
  O  O36  1  0.142262  0.864525  0.637952  1
  O  O37  1  0.140353  0.640353  0.859647  1
  O  O38  1  0.137952  0.357738  0.135475  1
  O  O39  1  0.135475  0.137952  0.357738  1
  O  O40  1  0.364525  0.862048  0.857738  1
  O  O41  1  0.362048  0.642262  0.635475  1
  O  O42  1  0.359647  0.359647  0.359647  1
  O  O43  1  0.357738  0.135475  0.137952  1
  O  O44  1  0.392262  0.387952  0.885475  1
  O  O45  1  0.390353  0.609647  0.109647  1
  O  O46  1  0.387952  0.885475  0.392262  1
  O  O47  1  0.385475  0.107738  0.612048  1
