# generated using pymatgen
data_Li2VP4(HO2)8
_symmetry_space_group_name_H-M   'P 1'
_cell_length_a   6.76021641
_cell_length_b   7.13158208
_cell_length_c   7.34578451
_cell_angle_alpha   79.30717906
_cell_angle_beta   77.41053693
_cell_angle_gamma   79.39339605
_symmetry_Int_Tables_number   1
_chemical_formula_structural   Li2VP4(HO2)8
_chemical_formula_sum   'Li2 V1 P4 H8 O16'
_cell_volume   335.80120158
_cell_formula_units_Z   1
loop_
 _symmetry_equiv_pos_site_id
 _symmetry_equiv_pos_as_xyz
  1  'x, y, z'
loop_
 _atom_site_type_symbol
 _atom_site_label
 _atom_site_symmetry_multiplicity
 _atom_site_fract_x
 _atom_site_fract_y
 _atom_site_fract_z
 _atom_site_occupancy
  Li  Li0  1  0.185617  0.723415  0.288851  1
  Li  Li1  1  0.814383  0.276585  0.711149  1
  V  V2  1  0.500000  0.500000  0.500000  1
  P  P3  1  0.305353  0.282770  0.233073  1
  P  P4  1  0.240498  0.820721  0.769646  1
  P  P5  1  0.759502  0.179279  0.230354  1
  P  P6  1  0.694647  0.717230  0.766927  1
  H  H7  1  0.041051  0.274004  0.043374  1
  H  H8  1  0.226861  0.061161  0.484298  1
  H  H9  1  0.402051  0.172472  0.719640  1
  H  H10  1  0.384796  0.316531  0.859881  1
  H  H11  1  0.615204  0.683469  0.140119  1
  H  H12  1  0.597949  0.827528  0.280360  1
  H  H13  1  0.773139  0.938839  0.515702  1
  H  H14  1  0.958949  0.725996  0.956626  1
  O  O15  1  0.216900  0.348937  0.054822  1
  O  O16  1  0.232338  0.087503  0.336429  1
  O  O17  1  0.089406  0.785590  0.963287  1
  O  O18  1  0.221108  0.034813  0.684218  1
  O  O19  1  0.271046  0.433161  0.363767  1
  O  O20  1  0.239393  0.688443  0.630368  1
  O  O21  1  0.547491  0.234438  0.150812  1
  O  O22  1  0.525359  0.726898  0.257719  1
  O  O23  1  0.474641  0.273102  0.742281  1
  O  O24  1  0.452509  0.765562  0.849188  1
  O  O25  1  0.760607  0.311557  0.369632  1
  O  O26  1  0.728954  0.566839  0.636233  1
  O  O27  1  0.778892  0.965187  0.315782  1
  O  O28  1  0.910594  0.214410  0.036713  1
  O  O29  1  0.767662  0.912497  0.663571  1
  O  O30  1  0.783100  0.651063  0.945178  1
