# generated using pymatgen
data_Rb4PbO4
_symmetry_space_group_name_H-M   'P 1'
_cell_length_a   6.99879988
_cell_length_b   19.66310935
_cell_length_c   7.01515577
_cell_angle_alpha   90.00000000
_cell_angle_beta   112.86154543
_cell_angle_gamma   90.00000000
_symmetry_Int_Tables_number   1
_chemical_formula_structural   Rb4PbO4
_chemical_formula_sum   'Rb16 Pb4 O16'
_cell_volume   889.57618679
_cell_formula_units_Z   4
loop_
 _symmetry_equiv_pos_site_id
 _symmetry_equiv_pos_as_xyz
  1  'x, y, z'
loop_
 _atom_site_type_symbol
 _atom_site_label
 _atom_site_symmetry_multiplicity
 _atom_site_fract_x
 _atom_site_fract_y
 _atom_site_fract_z
 _atom_site_occupancy
  Rb  Rb0  1  0.318845  0.809993  0.806795  1
  Rb  Rb1  1  0.245083  0.015585  0.780553  1
  Rb  Rb2  1  0.178242  0.215660  0.698261  1
  Rb  Rb3  1  0.212472  0.418400  0.640843  1
  Rb  Rb4  1  0.818845  0.690007  0.806795  1
  Rb  Rb5  1  0.745083  0.484415  0.780553  1
  Rb  Rb6  1  0.678242  0.284340  0.698261  1
  Rb  Rb7  1  0.712472  0.081600  0.640843  1
  Rb  Rb8  1  0.287528  0.918400  0.359157  1
  Rb  Rb9  1  0.321758  0.715660  0.301739  1
  Rb  Rb10  1  0.254917  0.515585  0.219447  1
  Rb  Rb11  1  0.181155  0.309993  0.193205  1
  Rb  Rb12  1  0.787528  0.581600  0.359157  1
  Rb  Rb13  1  0.821758  0.784340  0.301739  1
  Rb  Rb14  1  0.754917  0.984415  0.219447  1
  Rb  Rb15  1  0.681155  0.190007  0.193205  1
  Pb  Pb16  1  0.309552  0.623147  0.752547  1
  Pb  Pb17  1  0.809552  0.876853  0.752547  1
  Pb  Pb18  1  0.190448  0.123147  0.247453  1
  Pb  Pb19  1  0.690448  0.376853  0.247453  1
  O  O20  1  0.486247  0.330731  0.969602  1
  O  O21  1  0.115979  0.546639  0.792815  1
  O  O22  1  0.989722  0.906235  0.582469  1
  O  O23  1  0.986247  0.169269  0.969602  1
  O  O24  1  0.615979  0.953361  0.792815  1
  O  O25  1  0.091933  0.694605  0.560738  1
  O  O26  1  0.489722  0.593765  0.582469  1
  O  O27  1  0.591933  0.805395  0.560738  1
  O  O28  1  0.408067  0.194605  0.439262  1
  O  O29  1  0.510278  0.406235  0.417531  1
  O  O30  1  0.908067  0.305395  0.439262  1
  O  O31  1  0.384021  0.046639  0.207185  1
  O  O32  1  0.013753  0.830731  0.030398  1
  O  O33  1  0.010278  0.093765  0.417531  1
  O  O34  1  0.884021  0.453361  0.207185  1
  O  O35  1  0.513753  0.669269  0.030398  1
