# generated using pymatgen
data_Li3V4(PO4)6
_symmetry_space_group_name_H-M   'P 1'
_cell_length_a   6.41112777
_cell_length_b   8.46987342
_cell_length_c   8.73883119
_cell_angle_alpha   91.82770238
_cell_angle_beta   107.14934523
_cell_angle_gamma   105.96505387
_symmetry_Int_Tables_number   1
_chemical_formula_structural   Li3V4(PO4)6
_chemical_formula_sum   'Li3 V4 P6 O24'
_cell_volume   432.63394080
_cell_formula_units_Z   1
loop_
 _symmetry_equiv_pos_site_id
 _symmetry_equiv_pos_as_xyz
  1  'x, y, z'
loop_
 _atom_site_type_symbol
 _atom_site_label
 _atom_site_symmetry_multiplicity
 _atom_site_fract_x
 _atom_site_fract_y
 _atom_site_fract_z
 _atom_site_occupancy
  Li  Li0  1  0.749613  0.717039  0.300238  1
  Li  Li1  1  0.000000  0.500000  0.500000  1
  Li  Li2  1  0.250387  0.282961  0.699762  1
  V  V3  1  0.369073  0.944790  0.621353  1
  V  V4  1  0.867649  0.630739  0.939852  1
  V  V5  1  0.132351  0.369261  0.060148  1
  V  V6  1  0.630927  0.055210  0.378647  1
  P  P7  1  0.248686  0.708362  0.284740  1
  P  P8  1  0.878651  0.859362  0.649523  1
  P  P9  1  0.353920  0.646955  0.850332  1
  P  P10  1  0.646080  0.353045  0.149668  1
  P  P11  1  0.121349  0.140638  0.350477  1
  P  P12  1  0.751314  0.291638  0.715260  1
  O  O13  1  0.103454  0.996632  0.662645  1
  O  O14  1  0.682185  0.947856  0.592278  1
  O  O15  1  0.030425  0.732819  0.158760  1
  O  O16  1  0.470813  0.826455  0.267808  1
  O  O17  1  0.378223  0.823885  0.800741  1
  O  O18  1  0.231869  0.733150  0.454698  1
  O  O19  1  0.884249  0.814336  0.822690  1
  O  O20  1  0.830205  0.709472  0.533912  1
  O  O21  1  0.181938  0.604113  0.953232  1
  O  O22  1  0.590770  0.650851  0.969701  1
  O  O23  1  0.253450  0.527408  0.246913  1
  O  O24  1  0.265681  0.517883  0.706101  1
  O  O25  1  0.734319  0.482117  0.293899  1
  O  O26  1  0.746550  0.472592  0.753087  1
  O  O27  1  0.409230  0.349149  0.030299  1
  O  O28  1  0.818062  0.395887  0.046768  1
  O  O29  1  0.169795  0.290528  0.466088  1
  O  O30  1  0.115751  0.185664  0.177310  1
  O  O31  1  0.768131  0.266850  0.545302  1
  O  O32  1  0.621777  0.176115  0.199259  1
  O  O33  1  0.529187  0.173545  0.732192  1
  O  O34  1  0.969575  0.267181  0.841240  1
  O  O35  1  0.317815  0.052144  0.407722  1
  O  O36  1  0.896546  0.003368  0.337355  1
