# generated using pymatgen
data_Cr4OF11
_symmetry_space_group_name_H-M   'P 1'
_cell_length_a   5.36447841
_cell_length_b   5.09924301
_cell_length_c   7.29265032
_cell_angle_alpha   90.00000000
_cell_angle_beta   94.06060400
_cell_angle_gamma   90.00000000
_symmetry_Int_Tables_number   1
_chemical_formula_structural   Cr4OF11
_chemical_formula_sum   'Cr4 O1 F11'
_cell_volume   198.98806263
_cell_formula_units_Z   1
loop_
 _symmetry_equiv_pos_site_id
 _symmetry_equiv_pos_as_xyz
  1  'x, y, z'
loop_
 _atom_site_type_symbol
 _atom_site_label
 _atom_site_symmetry_multiplicity
 _atom_site_fract_x
 _atom_site_fract_y
 _atom_site_fract_z
 _atom_site_occupancy
  Cr  Cr0  1  0.499460  0.498087  0.761281  1
  Cr  Cr1  1  0.500540  0.498087  0.238719  1
  Cr  Cr2  1  0.998986  0.001467  0.749590  1
  Cr  Cr3  1  0.001014  0.001467  0.250410  1
  O  O4  1  0.500000  0.379118  0.000000  1
  F  F5  1  0.000000  0.129110  0.000000  1
  F  F6  1  0.309367  0.192266  0.309685  1
  F  F7  1  0.690633  0.192266  0.690315  1
  F  F8  1  0.190823  0.310765  0.689573  1
  F  F9  1  0.809177  0.310765  0.310427  1
  F  F10  1  0.500000  0.607114  0.500000  1
  F  F11  1  0.189984  0.690551  0.188656  1
  F  F12  1  0.810016  0.690551  0.811344  1
  F  F13  1  0.310150  0.812062  0.811170  1
  F  F14  1  0.689850  0.812062  0.188830  1
  F  F15  1  0.000000  0.874258  0.500000  1
