# generated using pymatgen
data_Na5Ni2P2(CO7)2
_symmetry_space_group_name_H-M   'P 1'
_cell_length_a   5.18796804
_cell_length_b   6.66840753
_cell_length_c   8.82797775
_cell_angle_alpha   90.00000000
_cell_angle_beta   91.62806509
_cell_angle_gamma   90.00000000
_symmetry_Int_Tables_number   1
_chemical_formula_structural   Na5Ni2P2(CO7)2
_chemical_formula_sum   'Na5 Ni2 P2 C2 O14'
_cell_volume   305.28488563
_cell_formula_units_Z   1
loop_
 _symmetry_equiv_pos_site_id
 _symmetry_equiv_pos_as_xyz
  1  'x, y, z'
loop_
 _atom_site_type_symbol
 _atom_site_label
 _atom_site_symmetry_multiplicity
 _atom_site_fract_x
 _atom_site_fract_y
 _atom_site_fract_z
 _atom_site_occupancy
  Na  Na0  1  0.253923  0.262977  0.734119  1
  Na  Na1  1  0.253923  0.737023  0.734119  1
  Na  Na2  1  0.745638  0.759166  0.267651  1
  Na  Na3  1  0.745638  0.240834  0.267651  1
  Na  Na4  1  0.222694  0.000000  0.080185  1
  Ni  Ni5  1  0.777416  0.000000  0.654070  1
  Ni  Ni6  1  0.221633  0.500000  0.345632  1
  P  P7  1  0.721386  0.500000  0.580755  1
  P  P8  1  0.282160  0.000000  0.417193  1
  C  C9  1  0.711245  0.000000  0.936622  1
  C  C10  1  0.287637  0.500000  0.068248  1
  O  O11  1  0.316832  0.500000  0.926807  1
  O  O12  1  0.936771  0.000000  0.877040  1
  O  O13  1  0.510943  0.000000  0.844164  1
  O  O14  1  0.788216  0.312308  0.675754  1
  O  O15  1  0.788216  0.687692  0.675754  1
  O  O16  1  0.142285  0.000000  0.568881  1
  O  O17  1  0.423876  0.500000  0.540858  1
  O  O18  1  0.579094  0.000000  0.451090  1
  O  O19  1  0.864786  0.500000  0.428488  1
  O  O20  1  0.210357  0.814970  0.317121  1
  O  O21  1  0.210357  0.185030  0.317121  1
  O  O22  1  0.480279  0.500000  0.166512  1
  O  O23  1  0.061695  0.500000  0.127831  1
  O  O24  1  0.686053  0.000000  0.081377  1
