# generated using pymatgen
data_Li3Ti(CoO3)2
_symmetry_space_group_name_H-M   'P 1'
_cell_length_a   6.59785317
_cell_length_b   6.59785317
_cell_length_c   5.97896676
_cell_angle_alpha   75.97299557
_cell_angle_beta   104.02700443
_cell_angle_gamma   153.95009799
_symmetry_Int_Tables_number   1
_chemical_formula_structural   Li3Ti(CoO3)2
_chemical_formula_sum   'Li3 Ti1 Co2 O6'
_cell_volume   110.70688432
_cell_formula_units_Z   1
loop_
 _symmetry_equiv_pos_site_id
 _symmetry_equiv_pos_as_xyz
  1  'x, y, z'
loop_
 _atom_site_type_symbol
 _atom_site_label
 _atom_site_symmetry_multiplicity
 _atom_site_fract_x
 _atom_site_fract_y
 _atom_site_fract_z
 _atom_site_occupancy
  Li  Li0  1  0.000000  0.000000  0.000000  1
  Li  Li1  1  0.330151  0.669849  0.665287  1
  Li  Li2  1  0.669849  0.330151  0.334713  1
  Ti  Ti3  1  0.000000  0.000000  0.500000  1
  Co  Co4  1  0.326567  0.673433  0.157083  1
  Co  Co5  1  0.673433  0.326567  0.842917  1
  O  O6  1  0.843038  0.156962  0.410234  1
  O  O7  1  0.168117  0.831883  0.076867  1
  O  O8  1  0.156962  0.843038  0.589766  1
  O  O9  1  0.500709  0.499291  0.725461  1
  O  O10  1  0.499291  0.500709  0.274539  1
  O  O11  1  0.831883  0.168117  0.923133  1
