# generated using pymatgen
data_Li4Ti2V3(Fe2O9)2
_symmetry_space_group_name_H-M   'P 1'
_cell_length_a   2.96500481
_cell_length_b   9.13239903
_cell_length_c   25.56661385
_cell_angle_alpha   90.00000000
_cell_angle_beta   90.00000000
_cell_angle_gamma   90.00000000
_symmetry_Int_Tables_number   1
_chemical_formula_structural   Li4Ti2V3(Fe2O9)2
_chemical_formula_sum   'Li8 Ti4 V6 Fe8 O36'
_cell_volume   692.28272380
_cell_formula_units_Z   2
loop_
 _symmetry_equiv_pos_site_id
 _symmetry_equiv_pos_as_xyz
  1  'x, y, z'
loop_
 _atom_site_type_symbol
 _atom_site_label
 _atom_site_symmetry_multiplicity
 _atom_site_fract_x
 _atom_site_fract_y
 _atom_site_fract_z
 _atom_site_occupancy
  Li  Li0  1  0.500000  0.196201  0.490648  1
  Li  Li1  1  0.500000  0.194100  0.685173  1
  Li  Li2  1  0.500000  0.305900  0.185173  1
  Li  Li3  1  0.500000  0.303799  0.990648  1
  Li  Li4  1  0.500000  0.696201  0.009352  1
  Li  Li5  1  0.500000  0.694100  0.814827  1
  Li  Li6  1  0.500000  0.805900  0.314827  1
  Li  Li7  1  0.500000  0.803799  0.509352  1
  Ti  Ti8  1  0.500000  0.996000  0.599725  1
  Ti  Ti9  1  0.500000  0.504000  0.099725  1
  Ti  Ti10  1  0.500000  0.496000  0.900275  1
  Ti  Ti11  1  0.500000  0.004000  0.400275  1
  V  V12  1  0.500000  0.000000  0.000000  1
  V  V13  1  0.000000  0.149877  0.309134  1
  V  V14  1  0.000000  0.350123  0.809134  1
  V  V15  1  0.500000  0.500000  0.500000  1
  V  V16  1  0.000000  0.649877  0.190866  1
  V  V17  1  0.000000  0.850123  0.690866  1
  Fe  Fe18  1  0.500000  0.007514  0.804597  1
  Fe  Fe19  1  0.000000  0.147673  0.087534  1
  Fe  Fe20  1  0.000000  0.352327  0.587534  1
  Fe  Fe21  1  0.500000  0.492486  0.304597  1
  Fe  Fe22  1  0.500000  0.507514  0.695403  1
  Fe  Fe23  1  0.000000  0.647673  0.412466  1
  Fe  Fe24  1  0.000000  0.852327  0.912466  1
  Fe  Fe25  1  0.500000  0.992486  0.195403  1
  O  O26  1  0.500000  0.997427  0.925799  1
  O  O27  1  0.500000  0.002573  0.074201  1
  O  O28  1  0.000000  0.058372  0.443543  1
  O  O29  1  0.000000  0.044211  0.656772  1
  O  O30  1  0.000000  0.118033  0.166201  1
  O  O31  1  0.500000  0.088951  0.262815  1
  O  O32  1  0.000000  0.149478  0.004665  1
  O  O33  1  0.000000  0.150894  0.789720  1
  O  O34  1  0.500000  0.184545  0.358677  1
  O  O35  1  0.500000  0.202030  0.585858  1
  O  O36  1  0.500000  0.297970  0.085858  1
  O  O37  1  0.500000  0.315455  0.858677  1
  O  O38  1  0.000000  0.349106  0.289720  1
  O  O39  1  0.000000  0.350522  0.504665  1
  O  O40  1  0.500000  0.411049  0.762815  1
  O  O41  1  0.000000  0.381967  0.666201  1
  O  O42  1  0.000000  0.455789  0.156772  1
  O  O43  1  0.000000  0.441628  0.943543  1
  O  O44  1  0.500000  0.497427  0.574201  1
  O  O45  1  0.500000  0.502573  0.425799  1
  O  O46  1  0.000000  0.558372  0.056457  1
  O  O47  1  0.000000  0.544211  0.843228  1
  O  O48  1  0.000000  0.618033  0.333799  1
  O  O49  1  0.500000  0.588951  0.237185  1
  O  O50  1  0.000000  0.649478  0.495335  1
  O  O51  1  0.000000  0.650894  0.710280  1
  O  O52  1  0.500000  0.684545  0.141323  1
  O  O53  1  0.500000  0.702030  0.914142  1
  O  O54  1  0.500000  0.797970  0.414142  1
  O  O55  1  0.500000  0.815455  0.641323  1
  O  O56  1  0.000000  0.849106  0.210280  1
  O  O57  1  0.000000  0.850522  0.995335  1
  O  O58  1  0.500000  0.911049  0.737185  1
  O  O59  1  0.000000  0.881967  0.833799  1
  O  O60  1  0.000000  0.955789  0.343228  1
  O  O61  1  0.000000  0.941628  0.556457  1
