# generated using pymatgen
data_CoSn3(PO4)4
_symmetry_space_group_name_H-M   'P 1'
_cell_length_a   5.07085415
_cell_length_b   6.19685253
_cell_length_c   10.45023161
_cell_angle_alpha   90.00000000
_cell_angle_beta   90.35846326
_cell_angle_gamma   90.00000000
_symmetry_Int_Tables_number   1
_chemical_formula_structural   CoSn3(PO4)4
_chemical_formula_sum   'Co1 Sn3 P4 O16'
_cell_volume   328.37470547
_cell_formula_units_Z   1
loop_
 _symmetry_equiv_pos_site_id
 _symmetry_equiv_pos_as_xyz
  1  'x, y, z'
loop_
 _atom_site_type_symbol
 _atom_site_label
 _atom_site_symmetry_multiplicity
 _atom_site_fract_x
 _atom_site_fract_y
 _atom_site_fract_z
 _atom_site_occupancy
  Co  Co0  1  0.054550  0.000000  0.725648  1
  Sn  Sn1  1  0.455265  0.000000  0.212935  1
  Sn  Sn2  1  0.547628  0.500000  0.785424  1
  Sn  Sn3  1  0.959155  0.500000  0.282984  1
  P  P4  1  0.108487  0.500000  0.616072  1
  P  P5  1  0.431816  0.500000  0.081913  1
  P  P6  1  0.581753  0.000000  0.901485  1
  P  P7  1  0.876048  0.000000  0.401607  1
  O  O8  1  0.174208  0.500000  0.476520  1
  O  O9  1  0.247018  0.305476  0.689380  1
  O  O10  1  0.247018  0.694524  0.689380  1
  O  O11  1  0.159357  0.000000  0.346399  1
  O  O12  1  0.285072  0.000000  0.885692  1
  O  O13  1  0.305233  0.300796  0.154896  1
  O  O14  1  0.305233  0.699204  0.154896  1
  O  O15  1  0.317581  0.500000  0.943371  1
  O  O16  1  0.667574  0.000000  0.045472  1
  O  O17  1  0.723699  0.803381  0.832532  1
  O  O18  1  0.723699  0.196619  0.832532  1
  O  O19  1  0.728393  0.500000  0.082919  1
  O  O20  1  0.804549  0.500000  0.636517  1
  O  O21  1  0.706701  0.810322  0.337853  1
  O  O22  1  0.706701  0.189678  0.337853  1
  O  O23  1  0.883261  0.000000  0.545721  1
