# generated using pymatgen
data_Li2CrO3
_symmetry_space_group_name_H-M   'P 1'
_cell_length_a   4.93987732
_cell_length_b   4.99909738
_cell_length_c   8.37457493
_cell_angle_alpha   90.00000000
_cell_angle_beta   90.00000000
_cell_angle_gamma   90.00000000
_symmetry_Int_Tables_number   1
_chemical_formula_structural   Li2CrO3
_chemical_formula_sum   'Li8 Cr4 O12'
_cell_volume   206.80952295
_cell_formula_units_Z   4
loop_
 _symmetry_equiv_pos_site_id
 _symmetry_equiv_pos_as_xyz
  1  'x, y, z'
loop_
 _atom_site_type_symbol
 _atom_site_label
 _atom_site_symmetry_multiplicity
 _atom_site_fract_x
 _atom_site_fract_y
 _atom_site_fract_z
 _atom_site_occupancy
  Li  Li0  1  0.000000  0.750000  0.072628  1
  Li  Li1  1  0.500000  0.750000  0.427372  1
  Li  Li2  1  0.500000  0.750000  0.736776  1
  Li  Li3  1  0.000000  0.750000  0.763224  1
  Li  Li4  1  0.500000  0.250000  0.263224  1
  Li  Li5  1  0.000000  0.250000  0.236776  1
  Li  Li6  1  0.000000  0.250000  0.927372  1
  Li  Li7  1  0.500000  0.250000  0.572628  1
  Cr  Cr8  1  0.500000  0.750000  0.087123  1
  Cr  Cr9  1  0.000000  0.750000  0.412877  1
  Cr  Cr10  1  0.500000  0.250000  0.912877  1
  Cr  Cr11  1  0.000000  0.250000  0.587123  1
  O  O12  1  0.750000  0.893267  0.250000  1
  O  O13  1  0.781076  0.917033  0.572186  1
  O  O14  1  0.718924  0.917033  0.927814  1
  O  O15  1  0.218924  0.082967  0.427814  1
  O  O16  1  0.281076  0.082967  0.072186  1
  O  O17  1  0.250000  0.106733  0.750000  1
  O  O18  1  0.750000  0.393267  0.750000  1
  O  O19  1  0.718924  0.417033  0.072186  1
  O  O20  1  0.781076  0.417033  0.427814  1
  O  O21  1  0.281076  0.582967  0.927814  1
  O  O22  1  0.218924  0.582967  0.572186  1
  O  O23  1  0.250000  0.606733  0.250000  1
