# generated using pymatgen
data_Cu(SbO2)2
_symmetry_space_group_name_H-M   'P 1'
_cell_length_a   8.91459502
_cell_length_b   8.91459502
_cell_length_c   5.89161634
_cell_angle_alpha   90.00000000
_cell_angle_beta   90.00000000
_cell_angle_gamma   90.00000000
_symmetry_Int_Tables_number   1
_chemical_formula_structural   Cu(SbO2)2
_chemical_formula_sum   'Cu4 Sb8 O16'
_cell_volume   468.20677632
_cell_formula_units_Z   4
loop_
 _symmetry_equiv_pos_site_id
 _symmetry_equiv_pos_as_xyz
  1  'x, y, z'
loop_
 _atom_site_type_symbol
 _atom_site_label
 _atom_site_symmetry_multiplicity
 _atom_site_fract_x
 _atom_site_fract_y
 _atom_site_fract_z
 _atom_site_occupancy
  Cu  Cu0  1  0.500000  0.000000  0.250000  1
  Cu  Cu1  1  0.500000  0.000000  0.750000  1
  Cu  Cu2  1  0.000000  0.500000  0.250000  1
  Cu  Cu3  1  0.000000  0.500000  0.750000  1
  Sb  Sb4  1  0.811062  0.152337  0.500000  1
  Sb  Sb5  1  0.152337  0.188938  0.000000  1
  Sb  Sb6  1  0.652337  0.311062  0.000000  1
  Sb  Sb7  1  0.311062  0.347663  0.500000  1
  Sb  Sb8  1  0.688938  0.652337  0.500000  1
  Sb  Sb9  1  0.347663  0.688938  0.000000  1
  Sb  Sb10  1  0.847663  0.811062  0.000000  1
  Sb  Sb11  1  0.188938  0.847663  0.500000  1
  O  O12  1  0.619194  0.091175  0.000000  1
  O  O13  1  0.591175  0.119194  0.500000  1
  O  O14  1  0.303584  0.196416  0.250000  1
  O  O15  1  0.303584  0.196416  0.750000  1
  O  O16  1  0.803584  0.303584  0.250000  1
  O  O17  1  0.803584  0.303584  0.750000  1
  O  O18  1  0.091175  0.380806  0.500000  1
  O  O19  1  0.119194  0.408825  0.000000  1
  O  O20  1  0.880806  0.591175  0.000000  1
  O  O21  1  0.908825  0.619194  0.500000  1
  O  O22  1  0.196416  0.696416  0.250000  1
  O  O23  1  0.196416  0.696416  0.750000  1
  O  O24  1  0.696416  0.803584  0.250000  1
  O  O25  1  0.696416  0.803584  0.750000  1
  O  O26  1  0.408825  0.880806  0.500000  1
  O  O27  1  0.380806  0.908825  0.000000  1
