# generated using pymatgen
data_Gd6WO12
_symmetry_space_group_name_H-M   'P 1'
_cell_length_a   6.58206524
_cell_length_b   6.58206524
_cell_length_c   6.58206524
_cell_angle_alpha   98.61807732
_cell_angle_beta   98.61807732
_cell_angle_gamma   98.61807732
_symmetry_Int_Tables_number   1
_chemical_formula_structural   Gd6WO12
_chemical_formula_sum   'Gd6 W1 O12'
_cell_volume   274.39137469
_cell_formula_units_Z   1
loop_
 _symmetry_equiv_pos_site_id
 _symmetry_equiv_pos_as_xyz
  1  'x, y, z'
loop_
 _atom_site_type_symbol
 _atom_site_label
 _atom_site_symmetry_multiplicity
 _atom_site_fract_x
 _atom_site_fract_y
 _atom_site_fract_z
 _atom_site_occupancy
  Gd  Gd0  1  0.687468  0.856529  0.389308  1
  Gd  Gd1  1  0.143471  0.610692  0.312532  1
  Gd  Gd2  1  0.610692  0.312532  0.143471  1
  Gd  Gd3  1  0.389308  0.687468  0.856529  1
  Gd  Gd4  1  0.856529  0.389308  0.687468  1
  Gd  Gd5  1  0.312532  0.143471  0.610692  1
  W  W6  1  0.000000  0.000000  0.000000  1
  O  O7  1  0.706407  0.926494  0.032214  1
  O  O8  1  0.073506  0.967786  0.293593  1
  O  O9  1  0.434173  0.591478  0.177167  1
  O  O10  1  0.408522  0.822833  0.565827  1
  O  O11  1  0.967786  0.293593  0.073506  1
  O  O12  1  0.822833  0.565827  0.408522  1
  O  O13  1  0.177167  0.434173  0.591478  1
  O  O14  1  0.032214  0.706407  0.926494  1
  O  O15  1  0.591478  0.177167  0.434173  1
  O  O16  1  0.565827  0.408522  0.822833  1
  O  O17  1  0.926494  0.032214  0.706407  1
  O  O18  1  0.293593  0.073506  0.967786  1
