# generated using pymatgen
data_Fe5(OF4)2
_symmetry_space_group_name_H-M   'P 1'
_cell_length_a   4.82797206
_cell_length_b   8.00856186
_cell_length_c   10.17306610
_cell_angle_alpha   70.64696540
_cell_angle_beta   87.93444970
_cell_angle_gamma   88.54978585
_symmetry_Int_Tables_number   1
_chemical_formula_structural   Fe5(OF4)2
_chemical_formula_sum   'Fe10 O4 F16'
_cell_volume   370.83837554
_cell_formula_units_Z   2
loop_
 _symmetry_equiv_pos_site_id
 _symmetry_equiv_pos_as_xyz
  1  'x, y, z'
loop_
 _atom_site_type_symbol
 _atom_site_label
 _atom_site_symmetry_multiplicity
 _atom_site_fract_x
 _atom_site_fract_y
 _atom_site_fract_z
 _atom_site_occupancy
  Fe  Fe0  1  0.517221  0.703160  0.888825  1
  Fe  Fe1  1  0.446321  0.904595  0.290869  1
  Fe  Fe2  1  0.512391  0.105226  0.703249  1
  Fe  Fe3  1  0.495123  0.299681  0.103341  1
  Fe  Fe4  1  0.484990  0.493970  0.511209  1
  Fe  Fe5  1  0.024585  0.387492  0.794861  1
  Fe  Fe6  1  0.967158  0.807387  0.610290  1
  Fe  Fe7  1  0.021687  0.196179  0.386190  1
  Fe  Fe8  1  0.007024  0.614434  0.199024  1
  Fe  Fe9  1  0.017402  0.992040  0.013201  1
  O  O10  1  0.203419  0.840266  0.185103  1
  O  O11  1  0.321736  0.320097  0.677709  1
  O  O12  1  0.307989  0.135205  0.286861  1
  O  O13  1  0.692107  0.879380  0.711754  1
  F  F14  1  0.200463  0.238369  0.980043  1
  F  F15  1  0.187218  0.037444  0.574179  1
  F  F16  1  0.182576  0.431462  0.377797  1
  F  F17  1  0.182899  0.648066  0.767751  1
  F  F18  1  0.297472  0.950263  0.868090  1
  F  F19  1  0.304200  0.548331  0.064303  1
  F  F20  1  0.286338  0.754068  0.485357  1
  F  F21  1  0.720863  0.245490  0.516142  1
  F  F22  1  0.675610  0.666203  0.334798  1
  F  F23  1  0.698183  0.050575  0.133486  1
  F  F24  1  0.706608  0.450060  0.917727  1
  F  F25  1  0.814550  0.575498  0.616845  1
  F  F26  1  0.811190  0.960694  0.422128  1
  F  F27  1  0.800311  0.151361  0.826126  1
  F  F28  1  0.800656  0.754304  0.024264  1
  F  F29  1  0.811706  0.358697  0.228481  1
