# generated using pymatgen
data_VOF3
_symmetry_space_group_name_H-M   'P 1'
_cell_length_a   4.60213377
_cell_length_b   4.82735365
_cell_length_c   12.84037105
_cell_angle_alpha   90.00000000
_cell_angle_beta   110.32855509
_cell_angle_gamma   90.00000000
_symmetry_Int_Tables_number   1
_chemical_formula_structural   VOF3
_chemical_formula_sum   'V4 O4 F12'
_cell_volume   267.49595185
_cell_formula_units_Z   4
loop_
 _symmetry_equiv_pos_site_id
 _symmetry_equiv_pos_as_xyz
  1  'x, y, z'
loop_
 _atom_site_type_symbol
 _atom_site_label
 _atom_site_symmetry_multiplicity
 _atom_site_fract_x
 _atom_site_fract_y
 _atom_site_fract_z
 _atom_site_occupancy
  V  V0  1  0.292144  0.699908  0.318771  1
  V  V1  1  0.707856  0.199908  0.181229  1
  V  V2  1  0.292144  0.800092  0.818771  1
  V  V3  1  0.707856  0.300092  0.681229  1
  O  O4  1  0.962164  0.948778  0.196730  1
  O  O5  1  0.037836  0.448778  0.303270  1
  O  O6  1  0.962164  0.551222  0.696730  1
  O  O7  1  0.037836  0.051222  0.803270  1
  F  F8  1  0.797309  0.428401  0.089267  1
  F  F9  1  0.202691  0.928401  0.410733  1
  F  F10  1  0.366021  0.418925  0.579571  1
  F  F11  1  0.566301  0.408468  0.794936  1
  F  F12  1  0.433699  0.908468  0.705064  1
  F  F13  1  0.633979  0.918925  0.920429  1
  F  F14  1  0.366021  0.081075  0.079571  1
  F  F15  1  0.566301  0.091532  0.294936  1
  F  F16  1  0.433699  0.591532  0.205064  1
  F  F17  1  0.633979  0.581075  0.420429  1
  F  F18  1  0.797309  0.071599  0.589267  1
  F  F19  1  0.202691  0.571599  0.910733  1
