# generated using pymatgen
data_Li3Zn(Fe5O8)4
_symmetry_space_group_name_H-M   'P 1'
_cell_length_a   8.47291228
_cell_length_b   8.47291228
_cell_length_c   8.47713854
_cell_angle_alpha   89.62028483
_cell_angle_beta   90.37971517
_cell_angle_gamma   89.60690348
_symmetry_Int_Tables_number   1
_chemical_formula_structural   Li3Zn(Fe5O8)4
_chemical_formula_sum   'Li3 Zn1 Fe20 O32'
_cell_volume   608.53459486
_cell_formula_units_Z   1
loop_
 _symmetry_equiv_pos_site_id
 _symmetry_equiv_pos_as_xyz
  1  'x, y, z'
loop_
 _atom_site_type_symbol
 _atom_site_label
 _atom_site_symmetry_multiplicity
 _atom_site_fract_x
 _atom_site_fract_y
 _atom_site_fract_z
 _atom_site_occupancy
  Li  Li0  1  0.126077  0.372437  0.124652  1
  Li  Li1  1  0.624720  0.375280  0.626119  1
  Li  Li2  1  0.627563  0.873923  0.124652  1
  Zn  Zn3  1  0.005515  0.994485  0.006510  1
  Fe  Fe4  1  0.001994  0.493086  0.503705  1
  Fe  Fe5  1  0.127009  0.872991  0.626870  1
  Fe  Fe6  1  0.123639  0.127666  0.367674  1
  Fe  Fe7  1  0.131226  0.621509  0.879004  1
  Fe  Fe8  1  0.247843  0.252849  0.749375  1
  Fe  Fe9  1  0.248865  0.751135  0.238927  1
  Fe  Fe10  1  0.375064  0.374640  0.376883  1
  Fe  Fe11  1  0.378491  0.868774  0.879004  1
  Fe  Fe12  1  0.374380  0.123223  0.123234  1
  Fe  Fe13  1  0.380783  0.619217  0.626834  1
  Fe  Fe14  1  0.506914  0.998006  0.503705  1
  Fe  Fe15  1  0.505311  0.494689  0.006652  1
  Fe  Fe16  1  0.624621  0.122540  0.875574  1
  Fe  Fe17  1  0.625360  0.624936  0.376883  1
  Fe  Fe18  1  0.744162  0.255838  0.242661  1
  Fe  Fe19  1  0.747151  0.752157  0.749375  1
  Fe  Fe20  1  0.872069  0.127931  0.626283  1
  Fe  Fe21  1  0.876777  0.625620  0.123234  1
  Fe  Fe22  1  0.877460  0.375379  0.875574  1
  Fe  Fe23  1  0.872334  0.876361  0.367674  1
  O  O24  1  0.116025  0.112530  0.617553  1
  O  O25  1  0.114504  0.385250  0.873650  1
  O  O26  1  0.118661  0.881339  0.384271  1
  O  O27  1  0.136771  0.364527  0.378123  1
  O  O28  1  0.112317  0.624074  0.113712  1
  O  O29  1  0.126700  0.634778  0.634127  1
  O  O30  1  0.140996  0.127622  0.141014  1
  O  O31  1  0.141366  0.858634  0.864249  1
  O  O32  1  0.371852  0.127932  0.370056  1
  O  O33  1  0.365222  0.873300  0.634127  1
  O  O34  1  0.375907  0.363470  0.134370  1
  O  O35  1  0.373501  0.370625  0.612807  1
  O  O36  1  0.366823  0.633177  0.878568  1
  O  O37  1  0.379560  0.111792  0.881092  1
  O  O38  1  0.382116  0.617884  0.368276  1
  O  O39  1  0.375926  0.887683  0.113712  1
  O  O40  1  0.616340  0.383660  0.375464  1
  O  O41  1  0.613229  0.122030  0.114957  1
  O  O42  1  0.629375  0.626499  0.612807  1
  O  O43  1  0.635486  0.122725  0.634543  1
  O  O44  1  0.614750  0.885496  0.873650  1
  O  O45  1  0.635473  0.863229  0.378123  1
  O  O46  1  0.635291  0.364709  0.873952  1
  O  O47  1  0.636530  0.624093  0.134370  1
  O  O48  1  0.877275  0.364514  0.634543  1
  O  O49  1  0.872068  0.628148  0.370056  1
  O  O50  1  0.866783  0.133217  0.865399  1
  O  O51  1  0.881626  0.118374  0.381300  1
  O  O52  1  0.872378  0.859004  0.141014  1
  O  O53  1  0.877970  0.386771  0.114957  1
  O  O54  1  0.887470  0.883975  0.617553  1
  O  O55  1  0.888208  0.620440  0.881092  1
