# generated using pymatgen
data_FeP3(H2O3)3
_symmetry_space_group_name_H-M   'P 1'
_cell_length_a   7.61364970
_cell_length_b   7.61364970
_cell_length_c   9.88071475
_cell_angle_alpha   75.68117686
_cell_angle_beta   104.31882314
_cell_angle_gamma   129.69273189
_symmetry_Int_Tables_number   1
_chemical_formula_structural   FeP3(H2O3)3
_chemical_formula_sum   'Fe2 P6 H12 O18'
_cell_volume   423.95923874
_cell_formula_units_Z   2
loop_
 _symmetry_equiv_pos_site_id
 _symmetry_equiv_pos_as_xyz
  1  'x, y, z'
loop_
 _atom_site_type_symbol
 _atom_site_label
 _atom_site_symmetry_multiplicity
 _atom_site_fract_x
 _atom_site_fract_y
 _atom_site_fract_z
 _atom_site_occupancy
  Fe  Fe0  1  0.296224  0.903078  0.643059  1
  Fe  Fe1  1  0.096922  0.703776  0.143059  1
  P  P2  1  0.611115  0.212244  0.064729  1
  P  P3  1  0.787756  0.388885  0.564729  1
  P  P4  1  0.136208  0.047559  0.319969  1
  P  P5  1  0.952441  0.863792  0.819969  1
  P  P6  1  0.388605  0.671033  0.446057  1
  P  P7  1  0.328967  0.611395  0.946057  1
  H  H8  1  0.722943  0.151193  0.017639  1
  H  H9  1  0.848807  0.277057  0.517639  1
  H  H10  1  0.343778  0.206812  0.261518  1
  H  H11  1  0.793188  0.656222  0.761518  1
  H  H12  1  0.603958  0.780497  0.404695  1
  H  H13  1  0.219503  0.396042  0.904695  1
  H  H14  1  0.404755  0.198537  0.862311  1
  H  H15  1  0.801463  0.595245  0.362311  1
  H  H16  1  0.722200  0.954766  0.778107  1
  H  H17  1  0.045234  0.277800  0.278107  1
  H  H18  1  0.671396  0.705153  0.042528  1
  H  H19  1  0.294847  0.328604  0.542528  1
  O  O20  1  0.411481  0.996759  0.140602  1
  O  O21  1  0.003241  0.588519  0.640602  1
  O  O22  1  0.596510  0.217181  0.658594  1
  O  O23  1  0.782819  0.403490  0.158594  1
  O  O24  1  0.523150  0.313215  0.931139  1
  O  O25  1  0.686785  0.476850  0.431139  1
  O  O26  1  0.179089  0.050354  0.480106  1
  O  O27  1  0.949646  0.820911  0.980106  1
  O  O28  1  0.188023  0.986409  0.773767  1
  O  O29  1  0.013591  0.811977  0.273767  1
  O  O30  1  0.874081  0.019159  0.752735  1
  O  O31  1  0.980841  0.125919  0.252735  1
  O  O32  1  0.435198  0.797192  0.819608  1
  O  O33  1  0.202808  0.564802  0.319608  1
  O  O34  1  0.528359  0.659122  0.068924  1
  O  O35  1  0.340878  0.471641  0.568924  1
  O  O36  1  0.410690  0.849102  0.508016  1
  O  O37  1  0.150898  0.589310  0.008016  1
