# generated using pymatgen
data_Li2VF4
_symmetry_space_group_name_H-M   'P 1'
_cell_length_a   5.26778306
_cell_length_b   5.26778306
_cell_length_c   3.13625051
_cell_angle_alpha   90.00000000
_cell_angle_beta   90.00000000
_cell_angle_gamma   111.72446031
_symmetry_Int_Tables_number   1
_chemical_formula_structural   Li2VF4
_chemical_formula_sum   'Li2 V1 F4'
_cell_volume   80.84820184
_cell_formula_units_Z   1
loop_
 _symmetry_equiv_pos_site_id
 _symmetry_equiv_pos_as_xyz
  1  'x, y, z'
loop_
 _atom_site_type_symbol
 _atom_site_label
 _atom_site_symmetry_multiplicity
 _atom_site_fract_x
 _atom_site_fract_y
 _atom_site_fract_z
 _atom_site_occupancy
  Li  Li0  1  0.500000  1.000000  0.500000  1
  Li  Li1  1  0.000000  0.500000  0.500000  1
  V  V2  1  0.000000  0.000000  0.000000  1
  F  F3  1  0.760351  0.239649  1.000000  1
  F  F4  1  0.233757  0.233757  0.500000  1
  F  F5  1  0.766243  0.766243  0.500000  1
  F  F6  1  0.239649  0.760351  0.000000  1
