# generated using pymatgen
data_Mn6O7F5
_symmetry_space_group_name_H-M   'P 1'
_cell_length_a   5.58187997
_cell_length_b   5.58187997
_cell_length_c   7.32999858
_cell_angle_alpha   72.55314243
_cell_angle_beta   107.44685757
_cell_angle_gamma   108.64422237
_symmetry_Int_Tables_number   1
_chemical_formula_structural   Mn6O7F5
_chemical_formula_sum   'Mn6 O7 F5'
_cell_volume   201.11870772
_cell_formula_units_Z   1
loop_
 _symmetry_equiv_pos_site_id
 _symmetry_equiv_pos_as_xyz
  1  'x, y, z'
loop_
 _atom_site_type_symbol
 _atom_site_label
 _atom_site_symmetry_multiplicity
 _atom_site_fract_x
 _atom_site_fract_y
 _atom_site_fract_z
 _atom_site_occupancy
  Mn  Mn0  1  0.301641  0.698359  0.827094  1
  Mn  Mn1  1  0.662334  0.337666  0.673161  1
  Mn  Mn2  1  0.351826  0.648174  0.317376  1
  Mn  Mn3  1  0.685492  0.314508  0.180503  1
  Mn  Mn4  1  0.002497  0.997503  0.494680  1
  Mn  Mn5  1  0.994557  0.005443  0.000596  1
  O  O6  1  0.965205  0.647200  0.665473  1
  O  O7  1  0.649783  0.955299  0.332810  1
  O  O8  1  0.770757  0.229243  0.966874  1
  O  O9  1  0.217030  0.782970  0.023376  1
  O  O10  1  0.577660  0.422340  0.378863  1
  O  O11  1  0.044701  0.350217  0.332810  1
  O  O12  1  0.352800  0.034795  0.665473  1
  F  F13  1  0.119282  0.880718  0.294736  1
  F  F14  1  0.422207  0.577793  0.640028  1
  F  F15  1  0.898744  0.101256  0.707756  1
  F  F16  1  0.676722  0.693239  0.999195  1
  F  F17  1  0.306761  0.323278  0.999195  1
