# generated using pymatgen
data_TeH9SN2O5F3
_symmetry_space_group_name_H-M   'P 1'
_cell_length_a   7.12313170
_cell_length_b   7.60776325
_cell_length_c   8.82136489
_cell_angle_alpha   101.54478878
_cell_angle_beta   86.99053877
_cell_angle_gamma   107.52602624
_symmetry_Int_Tables_number   1
_chemical_formula_structural   TeH9SN2O5F3
_chemical_formula_sum   'Te2 H18 S2 N4 O10 F6'
_cell_volume   446.61107715
_cell_formula_units_Z   2
loop_
 _symmetry_equiv_pos_site_id
 _symmetry_equiv_pos_as_xyz
  1  'x, y, z'
loop_
 _atom_site_type_symbol
 _atom_site_label
 _atom_site_symmetry_multiplicity
 _atom_site_fract_x
 _atom_site_fract_y
 _atom_site_fract_z
 _atom_site_occupancy
  Te  Te0  1  0.996361  0.000015  0.011534  1
  Te  Te1  1  0.363079  0.391967  0.510252  1
  H  H2  1  0.852230  0.482746  0.154766  1
  H  H3  1  0.969913  0.623985  0.315207  1
  H  H4  1  0.404380  0.777892  0.198255  1
  H  H5  1  0.520873  0.925812  0.357461  1
  H  H6  1  0.788306  0.436330  0.832681  1
  H  H7  1  0.577049  0.931418  0.851638  1
  H  H8  1  0.283084  0.910063  0.318672  1
  H  H9  1  0.705568  0.709461  0.008576  1
  H  H10  1  0.095551  0.509532  0.182562  1
  H  H11  1  0.927298  0.350215  0.685808  1
  H  H12  1  0.341012  0.389374  0.794292  1
  H  H13  1  0.407211  0.790226  0.719700  1
  H  H14  1  0.812066  0.507758  0.661194  1
  H  H15  1  0.923662  0.384183  0.287726  1
  H  H16  1  0.468037  0.016433  0.211332  1
  H  H17  1  0.569448  0.981400  0.673870  1
  H  H18  1  0.392436  0.007811  0.803175  1
  H  H19  1  0.004644  0.573310  0.785547  1
  S  S20  1  0.922173  0.045298  0.423516  1
  S  S21  1  0.459124  0.377929  0.069986  1
  N  N22  1  0.960120  0.500892  0.235828  1
  N  N23  1  0.418859  0.907048  0.270820  1
  N  N24  1  0.485467  0.927818  0.763296  1
  N  N25  1  0.882603  0.465962  0.740690  1
  O  O26  1  0.727934  0.961618  0.486682  1
  O  O27  1  0.345235  0.251049  0.929353  1
  O  O28  1  0.659784  0.484037  0.016952  1
  O  O29  1  0.042512  0.198979  0.552225  1
  O  O30  1  0.482794  0.262303  0.179827  1
  O  O31  1  0.354179  0.514571  0.140685  1
  O  O32  1  0.900633  0.137245  0.291848  1
  O  O33  1  0.027417  0.904453  0.367871  1
  O  O34  1  0.725745  0.843760  0.996790  1
  O  O35  1  0.339383  0.482946  0.728274  1
  F  F36  1  0.080006  0.765716  0.012751  1
  F  F37  1  0.473309  0.203758  0.571532  1
  F  F38  1  0.279127  0.623167  0.505104  1
  F  F39  1  0.878446  0.180808  0.949655  1
  F  F40  1  0.642431  0.548547  0.518923  1
  F  F41  1  0.038091  0.926425  0.792440  1
