# generated using pymatgen
data_V3CrSn2(PO4)6
_symmetry_space_group_name_H-M   'P 1'
_cell_length_a   8.99529603
_cell_length_b   8.99529603
_cell_length_c   8.99529603
_cell_angle_alpha   57.14104049
_cell_angle_beta   57.14104049
_cell_angle_gamma   57.14104049
_symmetry_Int_Tables_number   1
_chemical_formula_structural   V3CrSn2(PO4)6
_chemical_formula_sum   'V3 Cr1 Sn2 P6 O24'
_cell_volume   480.76903264
_cell_formula_units_Z   1
loop_
 _symmetry_equiv_pos_site_id
 _symmetry_equiv_pos_as_xyz
  1  'x, y, z'
loop_
 _atom_site_type_symbol
 _atom_site_label
 _atom_site_symmetry_multiplicity
 _atom_site_fract_x
 _atom_site_fract_y
 _atom_site_fract_z
 _atom_site_occupancy
  V  V0  1  0.647905  0.647905  0.647905  1
  V  V1  1  0.852990  0.852990  0.852990  1
  V  V2  1  0.351944  0.351944  0.351944  1
  Cr  Cr3  1  0.147049  0.147049  0.147049  1
  Sn  Sn4  1  0.001963  0.001963  0.001963  1
  Sn  Sn5  1  0.500888  0.500888  0.500888  1
  P  P6  1  0.249767  0.534329  0.963931  1
  P  P7  1  0.963931  0.249767  0.534329  1
  P  P8  1  0.534329  0.963931  0.249767  1
  P  P9  1  0.463843  0.036619  0.749903  1
  P  P10  1  0.036619  0.749903  0.463843  1
  P  P11  1  0.749903  0.463843  0.036619  1
  O  O12  1  0.129540  0.283389  0.508332  1
  O  O13  1  0.508332  0.129540  0.283389  1
  O  O14  1  0.283389  0.508332  0.129540  1
  O  O15  1  0.076363  0.720153  0.937725  1
  O  O16  1  0.221765  0.370447  0.986469  1
  O  O17  1  0.424836  0.564562  0.779299  1
  O  O18  1  0.937725  0.076363  0.720153  1
  O  O19  1  0.779299  0.424836  0.564562  1
  O  O20  1  0.629051  0.008901  0.783383  1
  O  O21  1  0.564562  0.779299  0.424836  1
  O  O22  1  0.279652  0.058701  0.923511  1
  O  O23  1  0.008901  0.783383  0.629051  1
  O  O24  1  0.986469  0.221765  0.370447  1
  O  O25  1  0.720153  0.937725  0.076363  1
  O  O26  1  0.438371  0.220618  0.575112  1
  O  O27  1  0.370447  0.986469  0.221765  1
  O  O28  1  0.220618  0.575112  0.438371  1
  O  O29  1  0.058701  0.923511  0.279652  1
  O  O30  1  0.575112  0.438371  0.220618  1
  O  O31  1  0.783383  0.629051  0.008901  1
  O  O32  1  0.923511  0.279652  0.058701  1
  O  O33  1  0.712763  0.494245  0.871655  1
  O  O34  1  0.494245  0.871655  0.712763  1
  O  O35  1  0.871655  0.712763  0.494245  1
