# generated using pymatgen
data_Li3Fe9O5F11
_symmetry_space_group_name_H-M   'P 1'
_cell_length_a   6.16170929
_cell_length_b   6.22139593
_cell_length_c   10.73009462
_cell_angle_alpha   90.59476468
_cell_angle_beta   105.49058100
_cell_angle_gamma   118.32047095
_symmetry_Int_Tables_number   1
_chemical_formula_structural   Li3Fe9O5F11
_chemical_formula_sum   'Li3 Fe9 O5 F11'
_cell_volume   344.35943051
_cell_formula_units_Z   1
loop_
 _symmetry_equiv_pos_site_id
 _symmetry_equiv_pos_as_xyz
  1  'x, y, z'
loop_
 _atom_site_type_symbol
 _atom_site_label
 _atom_site_symmetry_multiplicity
 _atom_site_fract_x
 _atom_site_fract_y
 _atom_site_fract_z
 _atom_site_occupancy
  Li  Li0  1  0.610392  0.046521  0.195973  1
  Li  Li1  1  0.605209  0.561902  0.194609  1
  Li  Li2  1  0.638265  0.792858  0.425255  1
  Fe  Fe3  1  0.633079  0.299404  0.936617  1
  Fe  Fe4  1  0.632226  0.076805  0.691156  1
  Fe  Fe5  1  0.999923  0.983489  0.976437  1
  Fe  Fe6  1  0.637967  0.562268  0.690322  1
  Fe  Fe7  1  0.136379  0.058546  0.689661  1
  Fe  Fe8  1  0.261624  0.170949  0.390691  1
  Fe  Fe9  1  0.222239  0.658572  0.877790  1
  Fe  Fe10  1  0.029488  0.487717  0.481133  1
  Fe  Fe11  1  0.130798  0.552391  0.201041  1
  O  O12  1  0.391637  0.211181  0.585631  1
  O  O13  1  0.392970  0.964750  0.815585  1
  O  O14  1  0.855640  0.428799  0.818464  1
  O  O15  1  0.858393  0.924085  0.783000  1
  O  O16  1  0.375895  0.467611  0.312509  1
  F  F17  1  0.384741  0.436563  0.823679  1
  F  F18  1  0.858453  0.158920  0.546679  1
  F  F19  1  0.410151  0.710345  0.556875  1
  F  F20  1  0.821140  0.405443  0.291154  1
  F  F21  1  0.873282  0.182381  0.072363  1
  F  F22  1  0.896744  0.688382  0.558883  1
  F  F23  1  0.870424  0.661757  0.073089  1
  F  F24  1  0.390093  0.197821  0.062191  1
  F  F25  1  0.851758  0.933549  0.309181  1
  F  F26  1  0.343094  0.918596  0.307028  1
  F  F27  1  0.387997  0.708392  0.083001  1
