# generated using pymatgen
data_Li2VP4O13
_symmetry_space_group_name_H-M   'P 1'
_cell_length_a   5.08160622
_cell_length_b   7.94173451
_cell_length_c   13.74487623
_cell_angle_alpha   80.31637258
_cell_angle_beta   82.53432569
_cell_angle_gamma   81.24837664
_symmetry_Int_Tables_number   1
_chemical_formula_structural   Li2VP4O13
_chemical_formula_sum   'Li4 V2 P8 O26'
_cell_volume   537.32089096
_cell_formula_units_Z   2
loop_
 _symmetry_equiv_pos_site_id
 _symmetry_equiv_pos_as_xyz
  1  'x, y, z'
loop_
 _atom_site_type_symbol
 _atom_site_label
 _atom_site_symmetry_multiplicity
 _atom_site_fract_x
 _atom_site_fract_y
 _atom_site_fract_z
 _atom_site_occupancy
  Li  Li0  1  0.079259  0.321514  0.004531  1
  Li  Li1  1  0.644954  0.648057  0.515459  1
  Li  Li2  1  0.920741  0.678486  0.995469  1
  Li  Li3  1  0.355046  0.351943  0.484541  1
  V  V4  1  0.438315  0.054230  0.258387  1
  V  V5  1  0.561685  0.945770  0.741613  1
  P  P6  1  0.296828  0.667371  0.299126  1
  P  P7  1  0.660015  0.422542  0.181662  1
  P  P8  1  0.339985  0.577458  0.818338  1
  P  P9  1  0.992655  0.100521  0.849504  1
  P  P10  1  0.703172  0.332629  0.700874  1
  P  P11  1  0.007345  0.899479  0.150496  1
  P  P12  1  0.863891  0.211134  0.362157  1
  P  P13  1  0.136109  0.788866  0.637843  1
  O  O14  1  0.499296  0.398658  0.791400  1
  O  O15  1  0.742609  0.290142  0.451617  1
  O  O16  1  0.705105  0.969819  0.162552  1
  O  O17  1  0.709107  0.070014  0.341051  1
  O  O18  1  0.290893  0.929986  0.658949  1
  O  O19  1  0.419296  0.815938  0.326047  1
  O  O20  1  0.966027  0.255887  0.753629  1
  O  O21  1  0.859466  0.361602  0.264548  1
  O  O22  1  0.170713  0.037870  0.169939  1
  O  O23  1  0.761034  0.473978  0.619496  1
  O  O24  1  0.140534  0.638398  0.735452  1
  O  O25  1  0.537030  0.707430  0.810257  1
  O  O26  1  0.184306  0.533911  0.916832  1
  O  O27  1  0.462970  0.292570  0.189743  1
  O  O28  1  0.257391  0.709858  0.548383  1
  O  O29  1  0.238966  0.526022  0.380504  1
  O  O30  1  0.294895  0.030181  0.837448  1
  O  O31  1  0.834002  0.859106  0.639623  1
  O  O32  1  0.500704  0.601342  0.208600  1
  O  O33  1  0.815694  0.466089  0.083168  1
  O  O34  1  0.910591  0.175756  0.942401  1
  O  O35  1  0.033973  0.744113  0.246371  1
  O  O36  1  0.165998  0.140894  0.360377  1
  O  O37  1  0.580704  0.184062  0.673953  1
  O  O38  1  0.829287  0.962130  0.830061  1
  O  O39  1  0.089409  0.824244  0.057599  1
