# generated using pymatgen
data_Ca6Al7O16
_symmetry_space_group_name_H-M   'P 1'
_cell_length_a   10.47892072
_cell_length_b   10.47892072
_cell_length_c   10.47892072
_cell_angle_alpha   109.47122063
_cell_angle_beta   109.47122063
_cell_angle_gamma   109.47122063
_symmetry_Int_Tables_number   1
_chemical_formula_structural   Ca6Al7O16
_chemical_formula_sum   'Ca12 Al14 O32'
_cell_volume   885.78388208
_cell_formula_units_Z   2
loop_
 _symmetry_equiv_pos_site_id
 _symmetry_equiv_pos_as_xyz
  1  'x, y, z'
loop_
 _atom_site_type_symbol
 _atom_site_label
 _atom_site_symmetry_multiplicity
 _atom_site_fract_x
 _atom_site_fract_y
 _atom_site_fract_z
 _atom_site_occupancy
  Ca  Ca0  1  0.640493  0.250000  0.890493  1
  Ca  Ca1  1  0.859507  0.750000  0.609507  1
  Ca  Ca2  1  0.390493  0.750000  0.140493  1
  Ca  Ca3  1  0.109507  0.250000  0.359507  1
  Ca  Ca4  1  0.890493  0.640493  0.250000  1
  Ca  Ca5  1  0.609507  0.859507  0.750000  1
  Ca  Ca6  1  0.140493  0.390493  0.750000  1
  Ca  Ca7  1  0.359507  0.109507  0.250000  1
  Ca  Ca8  1  0.250000  0.890493  0.640493  1
  Ca  Ca9  1  0.750000  0.609507  0.859507  1
  Ca  Ca10  1  0.750000  0.140493  0.390493  1
  Ca  Ca11  1  0.250000  0.359507  0.109507  1
  Al  Al12  1  0.375000  0.250000  0.625000  1
  Al  Al13  1  0.125000  0.750000  0.875000  1
  Al  Al14  1  0.625000  0.375000  0.250000  1
  Al  Al15  1  0.875000  0.125000  0.750000  1
  Al  Al16  1  0.250000  0.625000  0.375000  1
  Al  Al17  1  0.750000  0.875000  0.125000  1
  Al  Al18  1  0.500000  0.000000  0.036496  1
  Al  Al19  1  0.036496  0.500000  0.000000  1
  Al  Al20  1  0.000000  0.036496  0.500000  1
  Al  Al21  1  0.463504  0.463504  0.463504  1
  Al  Al22  1  0.536496  0.500000  0.000000  1
  Al  Al23  1  0.500000  0.000000  0.536496  1
  Al  Al24  1  0.000000  0.536496  0.500000  1
  Al  Al25  1  0.963504  0.963504  0.963504  1
  O  O26  1  0.500000  0.000000  0.870687  1
  O  O27  1  0.870687  0.500000  0.000000  1
  O  O28  1  0.000000  0.870687  0.500000  1
  O  O29  1  0.629313  0.629313  0.629313  1
  O  O30  1  0.370687  0.500000  0.000000  1
  O  O31  1  0.500000  0.000000  0.370687  1
  O  O32  1  0.000000  0.370687  0.500000  1
  O  O33  1  0.129313  0.129313  0.129313  1
  O  O34  1  0.408053  0.093798  0.616892  1
  O  O35  1  0.523094  0.406202  0.814254  1
  O  O36  1  0.091947  0.708839  0.685746  1
  O  O37  1  0.976906  0.791161  0.883108  1
  O  O38  1  0.116892  0.593798  0.908053  1
  O  O39  1  0.314254  0.906202  0.023094  1
  O  O40  1  0.185746  0.208839  0.591947  1
  O  O41  1  0.383108  0.291161  0.476906  1
  O  O42  1  0.616892  0.408053  0.093798  1
  O  O43  1  0.814254  0.523094  0.406202  1
  O  O44  1  0.685746  0.091947  0.708839  1
  O  O45  1  0.883108  0.976906  0.791161  1
  O  O46  1  0.908053  0.116892  0.593798  1
  O  O47  1  0.023094  0.314254  0.906202  1
  O  O48  1  0.591947  0.185746  0.208839  1
  O  O49  1  0.476906  0.383108  0.291161  1
  O  O50  1  0.093798  0.616892  0.408053  1
  O  O51  1  0.406202  0.814254  0.523094  1
  O  O52  1  0.708839  0.685746  0.091947  1
  O  O53  1  0.791161  0.883108  0.976906  1
  O  O54  1  0.593798  0.908053  0.116892  1
  O  O55  1  0.906202  0.023094  0.314254  1
  O  O56  1  0.208839  0.591947  0.185746  1
  O  O57  1  0.291161  0.476906  0.383108  1
