# generated using pymatgen
data_Mn7P6(HO6)4
_symmetry_space_group_name_H-M   'P 1'
_cell_length_a   6.64333634
_cell_length_b   8.14696522
_cell_length_c   9.96718879
_cell_angle_alpha   104.44937150
_cell_angle_beta   108.97092247
_cell_angle_gamma   101.33285641
_symmetry_Int_Tables_number   1
_chemical_formula_structural   Mn7P6(HO6)4
_chemical_formula_sum   'Mn7 P6 H4 O24'
_cell_volume   470.76762549
_cell_formula_units_Z   1
loop_
 _symmetry_equiv_pos_site_id
 _symmetry_equiv_pos_as_xyz
  1  'x, y, z'
loop_
 _atom_site_type_symbol
 _atom_site_label
 _atom_site_symmetry_multiplicity
 _atom_site_fract_x
 _atom_site_fract_y
 _atom_site_fract_z
 _atom_site_occupancy
  Mn  Mn0  1  0.000000  0.000000  0.000000  1
  Mn  Mn1  1  0.039777  0.717785  0.511767  1
  Mn  Mn2  1  0.960223  0.282215  0.488233  1
  Mn  Mn3  1  0.287288  0.814771  0.285185  1
  Mn  Mn4  1  0.712712  0.185229  0.714815  1
  Mn  Mn5  1  0.380601  0.454958  0.105480  1
  Mn  Mn6  1  0.619399  0.545042  0.894520  1
  P  P7  1  0.227271  0.144541  0.781925  1
  P  P8  1  0.772729  0.855459  0.218075  1
  P  P9  1  0.591653  0.771187  0.614682  1
  P  P10  1  0.408347  0.228813  0.385318  1
  P  P11  1  0.083175  0.582515  0.821824  1
  P  P12  1  0.916825  0.417485  0.178176  1
  H  H13  1  0.582379  0.503359  0.402269  1
  H  H14  1  0.417621  0.496641  0.597731  1
  H  H15  1  0.179959  0.876024  0.807658  1
  H  H16  1  0.820041  0.123976  0.192342  1
  O  O17  1  0.298056  0.543107  0.908857  1
  O  O18  1  0.701944  0.456893  0.091143  1
  O  O19  1  0.123833  0.535698  0.168286  1
  O  O20  1  0.876167  0.464302  0.831714  1
  O  O21  1  0.021037  0.169648  0.670573  1
  O  O22  1  0.978963  0.830352  0.329427  1
  O  O23  1  0.553823  0.754249  0.221562  1
  O  O24  1  0.446177  0.245751  0.778438  1
  O  O25  1  0.102486  0.782083  0.892570  1
  O  O26  1  0.897514  0.217917  0.107430  1
  O  O27  1  0.487741  0.382588  0.321348  1
  O  O28  1  0.512259  0.617412  0.678652  1
  O  O29  1  0.719635  0.703515  0.521249  1
  O  O30  1  0.280365  0.296485  0.478751  1
  O  O31  1  0.274542  0.061728  0.243735  1
  O  O32  1  0.725458  0.938272  0.756265  1
  O  O33  1  0.618665  0.199774  0.489623  1
  O  O34  1  0.381335  0.800226  0.510377  1
  O  O35  1  0.052562  0.544172  0.654628  1
  O  O36  1  0.947438  0.455828  0.345372  1
  O  O37  1  0.221232  0.186637  0.941700  1
  O  O38  1  0.778768  0.813363  0.058300  1
  O  O39  1  0.788361  0.061102  0.268373  1
  O  O40  1  0.211639  0.938898  0.731627  1
