# generated using pymatgen
data_BiSbO3
_symmetry_space_group_name_H-M   'P 1'
_cell_length_a   5.97957118
_cell_length_b   5.97957118
_cell_length_c   5.97957118
_cell_angle_alpha   64.73478405
_cell_angle_beta   64.73478405
_cell_angle_gamma   64.73478405
_symmetry_Int_Tables_number   1
_chemical_formula_structural   BiSbO3
_chemical_formula_sum   'Bi2 Sb2 O6'
_cell_volume   166.84747706
_cell_formula_units_Z   2
loop_
 _symmetry_equiv_pos_site_id
 _symmetry_equiv_pos_as_xyz
  1  'x, y, z'
loop_
 _atom_site_type_symbol
 _atom_site_label
 _atom_site_symmetry_multiplicity
 _atom_site_fract_x
 _atom_site_fract_y
 _atom_site_fract_z
 _atom_site_occupancy
  Bi  Bi0  1  0.866886  0.866886  0.866886  1
  Bi  Bi1  1  0.133114  0.133114  0.133114  1
  Sb  Sb2  1  0.647800  0.647800  0.647800  1
  Sb  Sb3  1  0.352200  0.352200  0.352200  1
  O  O4  1  0.022837  0.231181  0.510432  1
  O  O5  1  0.510432  0.022837  0.231181  1
  O  O6  1  0.231181  0.510432  0.022837  1
  O  O7  1  0.768819  0.489568  0.977163  1
  O  O8  1  0.489568  0.977163  0.768819  1
  O  O9  1  0.977163  0.768819  0.489568  1
