# generated using pymatgen
data_CrP2H17N4O9
_symmetry_space_group_name_H-M   'P 1'
_cell_length_a   7.57404564
_cell_length_b   13.89442963
_cell_length_c   11.70582726
_cell_angle_alpha   90.00000000
_cell_angle_beta   93.56417961
_cell_angle_gamma   90.00000000
_symmetry_Int_Tables_number   1
_chemical_formula_structural   CrP2H17N4O9
_chemical_formula_sum   'Cr4 P8 H68 N16 O36'
_cell_volume   1229.50393152
_cell_formula_units_Z   4
loop_
 _symmetry_equiv_pos_site_id
 _symmetry_equiv_pos_as_xyz
  1  'x, y, z'
loop_
 _atom_site_type_symbol
 _atom_site_label
 _atom_site_symmetry_multiplicity
 _atom_site_fract_x
 _atom_site_fract_y
 _atom_site_fract_z
 _atom_site_occupancy
  Cr  Cr0  1  0.613571  0.955170  0.718044  1
  Cr  Cr1  1  0.386429  0.455170  0.781956  1
  Cr  Cr2  1  0.386429  0.044830  0.281956  1
  Cr  Cr3  1  0.613571  0.544830  0.218044  1
  P  P4  1  0.339309  0.807781  0.594796  1
  P  P5  1  0.660691  0.307781  0.905204  1
  P  P6  1  0.660691  0.192219  0.405204  1
  P  P7  1  0.339309  0.692219  0.094796  1
  P  P8  1  0.229104  0.913047  0.797814  1
  P  P9  1  0.770896  0.413047  0.702186  1
  P  P10  1  0.770896  0.086953  0.202186  1
  P  P11  1  0.229104  0.586953  0.297814  1
  H  H12  1  0.187339  0.794158  0.928087  1
  H  H13  1  0.812661  0.294158  0.571913  1
  H  H14  1  0.812661  0.205842  0.071913  1
  H  H15  1  0.187339  0.705842  0.428087  1
  H  H16  1  0.724224  0.978323  0.929665  1
  H  H17  1  0.275776  0.478323  0.570335  1
  H  H18  1  0.275776  0.021677  0.070335  1
  H  H19  1  0.724224  0.521677  0.429665  1
  H  H20  1  0.706702  0.088751  0.872272  1
  H  H21  1  0.293298  0.588751  0.627728  1
  H  H22  1  0.293298  0.911249  0.127728  1
  H  H23  1  0.706702  0.411249  0.372272  1
  H  H24  1  0.883503  0.020038  0.851085  1
  H  H25  1  0.116497  0.520038  0.648915  1
  H  H26  1  0.116497  0.979962  0.148915  1
  H  H27  1  0.883503  0.479962  0.351085  1
  H  H28  1  0.933886  0.001313  0.661607  1
  H  H29  1  0.066114  0.501313  0.838393  1
  H  H30  1  0.066114  0.998687  0.338393  1
  H  H31  1  0.933886  0.498687  0.161607  1
  H  H32  1  0.831148  0.937465  0.555318  1
  H  H33  1  0.168852  0.437465  0.944682  1
  H  H34  1  0.168852  0.062535  0.444682  1
  H  H35  1  0.831148  0.562535  0.055318  1
  H  H36  1  0.789092  0.056347  0.571460  1
  H  H37  1  0.210908  0.556347  0.928540  1
  H  H38  1  0.210908  0.943653  0.428540  1
  H  H39  1  0.789092  0.443653  0.071460  1
  H  H40  1  0.487266  0.095533  0.585841  1
  H  H41  1  0.512734  0.595533  0.914159  1
  H  H42  1  0.512734  0.904467  0.414159  1
  H  H43  1  0.487266  0.404467  0.085841  1
  H  H44  1  0.529201  0.139523  0.719006  1
  H  H45  1  0.470799  0.639523  0.780994  1
  H  H46  1  0.470799  0.860477  0.280994  1
  H  H47  1  0.529201  0.360477  0.219006  1
  H  H48  1  0.347302  0.075562  0.687110  1
  H  H49  1  0.652698  0.575562  0.812890  1
  H  H50  1  0.652698  0.924438  0.312890  1
  H  H51  1  0.347302  0.424438  0.187110  1
  H  H52  1  0.849227  0.836317  0.827008  1
  H  H53  1  0.150773  0.336317  0.672992  1
  H  H54  1  0.150773  0.163683  0.172992  1
  H  H55  1  0.849227  0.663683  0.327008  1
  H  H56  1  0.662456  0.779816  0.789443  1
  H  H57  1  0.337544  0.279816  0.710557  1
  H  H58  1  0.337544  0.220184  0.210557  1
  H  H59  1  0.662456  0.720184  0.289443  1
  H  H60  1  0.810093  0.798075  0.694103  1
  H  H61  1  0.189907  0.298075  0.805897  1
  H  H62  1  0.189907  0.201925  0.305897  1
  H  H63  1  0.810093  0.701925  0.194103  1
  H  H64  1  0.787154  0.896249  0.113072  1
  H  H65  1  0.212846  0.396249  0.386928  1
  H  H66  1  0.212846  0.103751  0.886928  1
  H  H67  1  0.787154  0.603751  0.613072  1
  H  H68  1  0.616201  0.837039  0.073515  1
  H  H69  1  0.383799  0.337039  0.426485  1
  H  H70  1  0.383799  0.162961  0.926485  1
  H  H71  1  0.616201  0.662961  0.573515  1
  H  H72  1  0.990138  0.817615  0.466886  1
  H  H73  1  0.009862  0.317615  0.033114  1
  H  H74  1  0.009862  0.182385  0.533114  1
  H  H75  1  0.990138  0.682385  0.966886  1
  H  H76  1  0.823397  0.760705  0.500976  1
  H  H77  1  0.176603  0.260705  0.999024  1
  H  H78  1  0.176603  0.239295  0.499024  1
  H  H79  1  0.823397  0.739295  0.000976  1
  N  N80  1  0.749414  0.019275  0.859261  1
  N  N81  1  0.250586  0.519275  0.640739  1
  N  N82  1  0.250586  0.980725  0.140739  1
  N  N83  1  0.749414  0.480725  0.359261  1
  N  N84  1  0.816101  0.992682  0.613650  1
  N  N85  1  0.183899  0.492682  0.886350  1
  N  N86  1  0.183899  0.007318  0.386350  1
  N  N87  1  0.816101  0.507318  0.113650  1
  N  N88  1  0.478878  0.082214  0.671824  1
  N  N89  1  0.521122  0.582214  0.828176  1
  N  N90  1  0.521122  0.917786  0.328176  1
  N  N91  1  0.478878  0.417786  0.171824  1
  N  N92  1  0.752769  0.828035  0.762377  1
  N  N93  1  0.247231  0.328035  0.737623  1
  N  N94  1  0.247231  0.171965  0.237623  1
  N  N95  1  0.752769  0.671965  0.262377  1
  O  O96  1  0.476329  0.889635  0.586551  1
  O  O97  1  0.523671  0.389635  0.913449  1
  O  O98  1  0.523671  0.110365  0.413449  1
  O  O99  1  0.476329  0.610365  0.086551  1
  O  O100  1  0.231168  0.799603  0.479984  1
  O  O101  1  0.768832  0.299603  0.020016  1
  O  O102  1  0.768832  0.200397  0.520016  1
  O  O103  1  0.231168  0.700397  0.979984  1
  O  O104  1  0.417494  0.713766  0.641095  1
  O  O105  1  0.582506  0.213766  0.858905  1
  O  O106  1  0.582506  0.286234  0.358905  1
  O  O107  1  0.417494  0.786234  0.141095  1
  O  O108  1  0.193508  0.846394  0.684287  1
  O  O109  1  0.806492  0.346394  0.815713  1
  O  O110  1  0.806492  0.153606  0.315713  1
  O  O111  1  0.193508  0.653606  0.184287  1
  O  O112  1  0.428496  0.916952  0.825762  1
  O  O113  1  0.571504  0.416952  0.674238  1
  O  O114  1  0.571504  0.083048  0.174238  1
  O  O115  1  0.428496  0.583048  0.325762  1
  O  O116  1  0.137328  0.009137  0.776801  1
  O  O117  1  0.862672  0.509137  0.723199  1
  O  O118  1  0.862672  0.990863  0.223199  1
  O  O119  1  0.137328  0.490863  0.276801  1
  O  O120  1  0.134631  0.859143  0.894558  1
  O  O121  1  0.865369  0.359143  0.605442  1
  O  O122  1  0.865369  0.140857  0.105442  1
  O  O123  1  0.134631  0.640857  0.394558  1
  O  O124  1  0.736151  0.854699  0.050958  1
  O  O125  1  0.263849  0.354699  0.449042  1
  O  O126  1  0.263849  0.145301  0.949042  1
  O  O127  1  0.736151  0.645301  0.550958  1
  O  O128  1  0.860510  0.823088  0.469325  1
  O  O129  1  0.139490  0.323088  0.030675  1
  O  O130  1  0.139490  0.176912  0.530675  1
  O  O131  1  0.860510  0.676912  0.969325  1
