# generated using pymatgen
data_Ca4Ta2O9
_symmetry_space_group_name_H-M   'P 1'
_cell_length_a   5.76092640
_cell_length_b   5.76243511
_cell_length_c   14.87329634
_cell_angle_alpha   89.90478878
_cell_angle_beta   90.19984579
_cell_angle_gamma   119.95415965
_symmetry_Int_Tables_number   1
_chemical_formula_structural   Ca4Ta2O9
_chemical_formula_sum   'Ca8 Ta4 O18'
_cell_volume   427.79333781
_cell_formula_units_Z   2
loop_
 _symmetry_equiv_pos_site_id
 _symmetry_equiv_pos_as_xyz
  1  'x, y, z'
loop_
 _atom_site_type_symbol
 _atom_site_label
 _atom_site_symmetry_multiplicity
 _atom_site_fract_x
 _atom_site_fract_y
 _atom_site_fract_z
 _atom_site_occupancy
  Ca  Ca0  1  0.000742  0.997997  0.255225  1
  Ca  Ca1  1  0.000000  0.000000  0.500000  1
  Ca  Ca2  1  0.000000  0.000000  0.000000  1
  Ca  Ca3  1  0.334420  0.666589  0.343792  1
  Ca  Ca4  1  0.339936  0.667278  0.094956  1
  Ca  Ca5  1  0.660064  0.332722  0.905044  1
  Ca  Ca6  1  0.665580  0.333411  0.656208  1
  Ca  Ca7  1  0.999258  0.002003  0.744775  1
  Ta  Ta8  1  0.328480  0.665007  0.849173  1
  Ta  Ta9  1  0.332994  0.667262  0.649255  1
  Ta  Ta10  1  0.667006  0.332738  0.350745  1
  Ta  Ta11  1  0.671520  0.334993  0.150827  1
  O  O12  1  0.039057  0.619410  0.752183  1
  O  O13  1  0.293884  0.948415  0.598844  1
  O  O14  1  0.282612  0.932254  0.910230  1
  O  O15  1  0.051093  0.344231  0.600315  1
  O  O16  1  0.060329  0.354158  0.910960  1
  O  O17  1  0.575113  0.956897  0.753073  1
  O  O18  1  0.381544  0.423349  0.753988  1
  O  O19  1  0.366000  0.291108  0.084639  1
  O  O20  1  0.347182  0.294290  0.400673  1
  O  O21  1  0.652818  0.705710  0.599327  1
  O  O22  1  0.634000  0.708892  0.915361  1
  O  O23  1  0.618456  0.576651  0.246012  1
  O  O24  1  0.424887  0.043103  0.246927  1
  O  O25  1  0.939671  0.645842  0.089040  1
  O  O26  1  0.948907  0.655769  0.399685  1
  O  O27  1  0.717388  0.067746  0.089770  1
  O  O28  1  0.706116  0.051585  0.401156  1
  O  O29  1  0.960943  0.380590  0.247817  1
