# generated using pymatgen
data_Mn8O13F3
_symmetry_space_group_name_H-M   'P 1'
_cell_length_a   4.49561143
_cell_length_b   4.97141371
_cell_length_c   11.05410140
_cell_angle_alpha   89.55388567
_cell_angle_beta   87.76096935
_cell_angle_gamma   89.41852428
_symmetry_Int_Tables_number   1
_chemical_formula_structural   Mn8O13F3
_chemical_formula_sum   'Mn8 O13 F3'
_cell_volume   246.84604758
_cell_formula_units_Z   1
loop_
 _symmetry_equiv_pos_site_id
 _symmetry_equiv_pos_as_xyz
  1  'x, y, z'
loop_
 _atom_site_type_symbol
 _atom_site_label
 _atom_site_symmetry_multiplicity
 _atom_site_fract_x
 _atom_site_fract_y
 _atom_site_fract_z
 _atom_site_occupancy
  Mn  Mn0  1  0.017689  0.246892  0.433445  1
  Mn  Mn1  1  0.011968  0.744140  0.083524  1
  Mn  Mn2  1  0.981734  0.751449  0.565409  1
  Mn  Mn3  1  0.009514  0.265480  0.926000  1
  Mn  Mn4  1  0.497397  0.746223  0.826526  1
  Mn  Mn5  1  0.510514  0.235182  0.677682  1
  Mn  Mn6  1  0.491201  0.244627  0.167432  1
  Mn  Mn7  1  0.493588  0.762943  0.324769  1
  O  O8  1  0.228286  0.077396  0.054370  1
  O  O9  1  0.233047  0.579504  0.443935  1
  O  O10  1  0.228426  0.070365  0.555750  1
  O  O11  1  0.226184  0.582650  0.944207  1
  O  O12  1  0.276137  0.578374  0.195144  1
  O  O13  1  0.269076  0.086209  0.307256  1
  O  O14  1  0.263662  0.079019  0.805541  1
  O  O15  1  0.732634  0.923368  0.194678  1
  O  O16  1  0.730256  0.912567  0.692218  1
  O  O17  1  0.725221  0.416063  0.804823  1
  O  O18  1  0.773798  0.928133  0.443822  1
  O  O19  1  0.770274  0.427452  0.056421  1
  O  O20  1  0.762246  0.419554  0.554409  1
  F  F21  1  0.248105  0.567423  0.683797  1
  F  F22  1  0.745584  0.421478  0.311412  1
  F  F23  1  0.773462  0.933505  0.947432  1
