# generated using pymatgen
data_Ba4Ti3O10
_symmetry_space_group_name_H-M   'P 1'
_cell_length_a   14.97284672
_cell_length_b   14.97034256
_cell_length_c   4.09626517
_cell_angle_alpha   82.17190945
_cell_angle_beta   82.10251484
_cell_angle_gamma   15.72557570
_symmetry_Int_Tables_number   1
_chemical_formula_structural   Ba4Ti3O10
_chemical_formula_sum   'Ba4 Ti3 O10'
_cell_volume   246.46553781
_cell_formula_units_Z   1
loop_
 _symmetry_equiv_pos_site_id
 _symmetry_equiv_pos_as_xyz
  1  'x, y, z'
loop_
 _atom_site_type_symbol
 _atom_site_label
 _atom_site_symmetry_multiplicity
 _atom_site_fract_x
 _atom_site_fract_y
 _atom_site_fract_z
 _atom_site_occupancy
  Ba  Ba0  1  0.939524  0.925190  0.074810  1
  Ba  Ba1  1  0.803491  0.793913  0.206087  1
  Ba  Ba2  1  0.074810  0.060476  0.939524  1
  Ba  Ba3  1  0.206087  0.196509  0.803491  1
  Ti  Ti4  1  0.523549  0.476451  0.523549  1
  Ti  Ti5  1  0.659392  0.615276  0.384724  1
  Ti  Ti6  1  0.384724  0.340608  0.659392  1
  O  O7  1  0.286036  0.306716  0.693284  1
  O  O8  1  0.558933  0.577228  0.422772  1
  O  O9  1  0.493986  0.506014  0.977454  1
  O  O10  1  0.977454  0.022546  0.493986  1
  O  O11  1  0.634601  0.639359  0.843817  1
  O  O12  1  0.117777  0.156183  0.360641  1
  O  O13  1  0.360641  0.365399  0.117777  1
  O  O14  1  0.843817  0.882223  0.634601  1
  O  O15  1  0.693284  0.713964  0.286036  1
  O  O16  1  0.422772  0.441067  0.558933  1
