# generated using pymatgen
data_LiFe2(BO3)2
_symmetry_space_group_name_H-M   'P 1'
_cell_length_a   5.27989035
_cell_length_b   9.07025620
_cell_length_c   11.40904827
_cell_angle_alpha   113.38133788
_cell_angle_beta   102.61024839
_cell_angle_gamma   89.81587103
_symmetry_Int_Tables_number   1
_chemical_formula_structural   LiFe2(BO3)2
_chemical_formula_sum   'Li4 Fe8 B8 O24'
_cell_volume   487.28747031
_cell_formula_units_Z   4
loop_
 _symmetry_equiv_pos_site_id
 _symmetry_equiv_pos_as_xyz
  1  'x, y, z'
loop_
 _atom_site_type_symbol
 _atom_site_label
 _atom_site_symmetry_multiplicity
 _atom_site_fract_x
 _atom_site_fract_y
 _atom_site_fract_z
 _atom_site_occupancy
  Li  Li0  1  0.646991  0.303818  0.591937  1
  Li  Li1  1  0.386046  0.048768  0.091205  1
  Li  Li2  1  0.315621  0.678430  0.334819  1
  Li  Li3  1  0.576224  0.912876  0.842233  1
  Fe  Fe4  1  0.599627  0.593455  0.868029  1
  Fe  Fe5  1  0.901502  0.893061  0.128123  1
  Fe  Fe6  1  0.149814  0.474865  0.621916  1
  Fe  Fe7  1  0.343743  0.034715  0.372004  1
  Fe  Fe8  1  0.656550  0.975285  0.620359  1
  Fe  Fe9  1  0.842309  0.510321  0.368627  1
  Fe  Fe10  1  0.091545  0.102957  0.869382  1
  Fe  Fe11  1  0.400743  0.401118  0.118192  1
  B  B12  1  0.360320  0.366269  0.376566  1
  B  B13  1  0.115027  0.770963  0.876470  1
  B  B14  1  0.845187  0.842472  0.369992  1
  B  B15  1  0.590608  0.261790  0.865170  1
  B  B16  1  0.140547  0.141783  0.618559  1
  B  B17  1  0.398373  0.739618  0.122481  1
  B  B18  1  0.656654  0.643332  0.625482  1
  B  B19  1  0.902559  0.221740  0.127021  1
  O  O20  1  0.869906  0.775718  0.910114  1
  O  O21  1  0.557945  0.535192  0.669509  1
  O  O22  1  0.764268  0.081427  0.112796  1
  O  O23  1  0.492248  0.240826  0.386842  1
  O  O24  1  0.128262  0.395962  0.415961  1
  O  O25  1  0.224139  0.625297  0.832216  1
  O  O26  1  0.700908  0.389442  0.852077  1
  O  O27  1  0.946968  0.942017  0.319923  1
  O  O28  1  0.284498  0.888755  0.153405  1
  O  O29  1  0.384913  0.114831  0.584140  1
  O  O30  1  0.012165  0.269499  0.614527  1
  O  O31  1  0.615167  0.725453  0.065870  1
  O  O32  1  0.381154  0.275498  0.920635  1
  O  O33  1  0.615903  0.877857  0.417294  1
  O  O34  1  0.692456  0.109775  0.820136  1
  O  O35  1  0.030150  0.030035  0.654585  1
  O  O36  1  0.307370  0.622847  0.149725  1
  O  O37  1  0.796083  0.367482  0.175267  1
  O  O38  1  0.855628  0.597675  0.562703  1
  O  O39  1  0.558214  0.790794  0.649501  1
  O  O40  1  0.969668  0.709376  0.369251  1
  O  O41  1  0.244819  0.910640  0.892208  1
  O  O42  1  0.459126  0.476693  0.335248  1
  O  O43  1  0.135953  0.210030  0.089013  1
