# generated using pymatgen
data_Li2FeSi3O8
_symmetry_space_group_name_H-M   'P 1'
_cell_length_a   5.14754451
_cell_length_b   6.25473100
_cell_length_c   6.34066539
_cell_angle_alpha   76.54668566
_cell_angle_beta   73.76364641
_cell_angle_gamma   73.72935607
_symmetry_Int_Tables_number   1
_chemical_formula_structural   Li2FeSi3O8
_chemical_formula_sum   'Li2 Fe1 Si3 O8'
_cell_volume   185.49888093
_cell_formula_units_Z   1
loop_
 _symmetry_equiv_pos_site_id
 _symmetry_equiv_pos_as_xyz
  1  'x, y, z'
loop_
 _atom_site_type_symbol
 _atom_site_label
 _atom_site_symmetry_multiplicity
 _atom_site_fract_x
 _atom_site_fract_y
 _atom_site_fract_z
 _atom_site_occupancy
  Li  Li0  1  0.285598  0.632465  0.150334  1
  Li  Li1  1  0.801806  0.308323  0.876873  1
  Fe  Fe2  1  0.662179  0.297537  0.372564  1
  Si  Si3  1  0.305772  0.118114  0.182299  1
  Si  Si4  1  0.315445  0.752911  0.601808  1
  Si  Si5  1  0.708238  0.888148  0.803055  1
  O  O6  1  0.998839  0.199644  0.132126  1
  O  O7  1  0.035701  0.756670  0.817905  1
  O  O8  1  0.463418  0.322977  0.118816  1
  O  O9  1  0.347044  0.563115  0.459266  1
  O  O10  1  0.702279  0.142029  0.675157  1
  O  O11  1  0.283120  0.006871  0.450147  1
  O  O12  1  0.497493  0.896372  0.054202  1
  O  O13  1  0.593067  0.713426  0.706848  1
