# generated using pymatgen
data_ErInO3
_symmetry_space_group_name_H-M   'P 1'
_cell_length_a   6.32568326
_cell_length_b   6.32568326
_cell_length_c   12.27734869
_cell_angle_alpha   90.00000000
_cell_angle_beta   90.00000000
_cell_angle_gamma   120.00000000
_symmetry_Int_Tables_number   1
_chemical_formula_structural   ErInO3
_chemical_formula_sum   'Er6 In6 O18'
_cell_volume   425.45154629
_cell_formula_units_Z   6
loop_
 _symmetry_equiv_pos_site_id
 _symmetry_equiv_pos_as_xyz
  1  'x, y, z'
loop_
 _atom_site_type_symbol
 _atom_site_label
 _atom_site_symmetry_multiplicity
 _atom_site_fract_x
 _atom_site_fract_y
 _atom_site_fract_z
 _atom_site_occupancy
  Er  Er0  1  0.333333  0.666667  0.230127  1
  Er  Er1  1  0.000000  0.000000  0.264724  1
  Er  Er2  1  0.000000  0.000000  0.764724  1
  Er  Er3  1  0.333333  0.666667  0.730127  1
  Er  Er4  1  0.666667  0.333333  0.730127  1
  Er  Er5  1  0.666667  0.333333  0.230127  1
  In  In6  1  0.000000  0.666358  0.495910  1
  In  In7  1  0.000000  0.333642  0.995910  1
  In  In8  1  0.333642  0.333642  0.495910  1
  In  In9  1  0.666358  0.666358  0.995910  1
  In  In10  1  0.333642  0.000000  0.995910  1
  In  In11  1  0.666358  0.000000  0.495910  1
  O  O12  1  0.000000  0.695066  0.669152  1
  O  O13  1  0.000000  0.636254  0.324609  1
  O  O14  1  0.000000  0.363746  0.824609  1
  O  O15  1  0.000000  0.304934  0.169152  1
  O  O16  1  0.333333  0.666667  0.028219  1
  O  O17  1  0.000000  0.000000  0.460830  1
  O  O18  1  0.000000  0.000000  0.960830  1
  O  O19  1  0.333333  0.666667  0.528219  1
  O  O20  1  0.304934  0.304934  0.669152  1
  O  O21  1  0.363746  0.363746  0.324609  1
  O  O22  1  0.304934  0.000000  0.169152  1
  O  O23  1  0.636254  0.636254  0.824609  1
  O  O24  1  0.695066  0.695066  0.169152  1
  O  O25  1  0.363746  0.000000  0.824609  1
  O  O26  1  0.666667  0.333333  0.528219  1
  O  O27  1  0.666667  0.333333  0.028219  1
  O  O28  1  0.636254  0.000000  0.324609  1
  O  O29  1  0.695066  0.000000  0.669152  1
