# generated using pymatgen
data_Li2BiPCO7
_symmetry_space_group_name_H-M   'P 1'
_cell_length_a   5.08395803
_cell_length_b   7.11007921
_cell_length_c   8.99035820
_cell_angle_alpha   90.00000000
_cell_angle_beta   96.30665564
_cell_angle_gamma   90.00000000
_symmetry_Int_Tables_number   1
_chemical_formula_structural   Li2BiPCO7
_chemical_formula_sum   'Li4 Bi2 P2 C2 O14'
_cell_volume   323.01087422
_cell_formula_units_Z   2
loop_
 _symmetry_equiv_pos_site_id
 _symmetry_equiv_pos_as_xyz
  1  'x, y, z'
loop_
 _atom_site_type_symbol
 _atom_site_label
 _atom_site_symmetry_multiplicity
 _atom_site_fract_x
 _atom_site_fract_y
 _atom_site_fract_z
 _atom_site_occupancy
  Li  Li0  1  0.764006  0.258157  0.908912  1
  Li  Li1  1  0.243729  0.072161  0.729248  1
  Li  Li2  1  0.756271  0.572161  0.270752  1
  Li  Li3  1  0.235994  0.758157  0.091088  1
  Bi  Bi4  1  0.787982  0.736683  0.669736  1
  Bi  Bi5  1  0.212018  0.236683  0.330264  1
  P  P6  1  0.716221  0.243739  0.596772  1
  P  P7  1  0.283779  0.743739  0.403228  1
  C  C8  1  0.686466  0.749050  0.970200  1
  C  C9  1  0.313534  0.249050  0.029800  1
  O  O10  1  0.933690  0.744508  0.940656  1
  O  O11  1  0.380068  0.213771  0.899619  1
  O  O12  1  0.504244  0.787353  0.859359  1
  O  O13  1  0.859504  0.072403  0.678971  1
  O  O14  1  0.783655  0.411740  0.705874  1
  O  O15  1  0.205577  0.776633  0.563266  1
  O  O16  1  0.411724  0.205789  0.578387  1
  O  O17  1  0.588276  0.705789  0.421613  1
  O  O18  1  0.794423  0.276633  0.436734  1
  O  O19  1  0.216345  0.911740  0.294126  1
  O  O20  1  0.140496  0.572403  0.321029  1
  O  O21  1  0.495756  0.287353  0.140641  1
  O  O22  1  0.619932  0.713771  0.100381  1
  O  O23  1  0.066310  0.244508  0.059344  1
