# generated using pymatgen
data_Li4Mn3Ni3(SnO8)2
_symmetry_space_group_name_H-M   'P 1'
_cell_length_a   5.92104694
_cell_length_b   5.92104694
_cell_length_c   9.65890285
_cell_angle_alpha   88.32201792
_cell_angle_beta   91.67798208
_cell_angle_gamma   121.23499451
_symmetry_Int_Tables_number   1
_chemical_formula_structural   Li4Mn3Ni3(SnO8)2
_chemical_formula_sum   'Li4 Mn3 Ni3 Sn2 O16'
_cell_volume   289.38085159
_cell_formula_units_Z   1
loop_
 _symmetry_equiv_pos_site_id
 _symmetry_equiv_pos_as_xyz
  1  'x, y, z'
loop_
 _atom_site_type_symbol
 _atom_site_label
 _atom_site_symmetry_multiplicity
 _atom_site_fract_x
 _atom_site_fract_y
 _atom_site_fract_z
 _atom_site_occupancy
  Li  Li0  1  0.661719  0.338281  0.890642  1
  Li  Li1  1  0.997308  0.002692  0.993116  1
  Li  Li2  1  0.002391  0.997609  0.495656  1
  Li  Li3  1  0.331621  0.668379  0.391203  1
  Mn  Mn4  1  0.338640  0.168351  0.215158  1
  Mn  Mn5  1  0.831649  0.661360  0.215158  1
  Mn  Mn6  1  0.169907  0.830093  0.716676  1
  Ni  Ni7  1  0.830478  0.169522  0.215173  1
  Ni  Ni8  1  0.168690  0.337680  0.714263  1
  Ni  Ni9  1  0.662320  0.831310  0.714263  1
  Sn  Sn10  1  0.671903  0.328097  0.493196  1
  Sn  Sn11  1  0.334990  0.665010  0.990286  1
  O  O12  1  0.325602  0.149547  0.600552  1
  O  O13  1  0.516383  0.483617  0.330828  1
  O  O14  1  0.654985  0.345015  0.109518  1
  O  O15  1  0.009607  0.990393  0.309009  1
  O  O16  1  0.002461  0.997539  0.804886  1
  O  O17  1  0.850453  0.674398  0.600552  1
  O  O18  1  0.503632  0.034224  0.338407  1
  O  O19  1  0.965776  0.496368  0.338407  1
  O  O20  1  0.159089  0.840911  0.105393  1
  O  O21  1  0.848249  0.151751  0.600101  1
  O  O22  1  0.027599  0.528123  0.839396  1
  O  O23  1  0.471877  0.972401  0.839396  1
  O  O24  1  0.331230  0.668770  0.615783  1
  O  O25  1  0.167098  0.316516  0.099229  1
  O  O26  1  0.479425  0.520575  0.832428  1
  O  O27  1  0.683484  0.832902  0.099229  1
