# generated using pymatgen
data_Li6MnFe5(BO3)6
_symmetry_space_group_name_H-M   'P 1'
_cell_length_a   8.24421750
_cell_length_b   12.56644075
_cell_length_c   8.25265589
_cell_angle_alpha   90.00000000
_cell_angle_beta   119.95501210
_cell_angle_gamma   90.00000000
_symmetry_Int_Tables_number   1
_chemical_formula_structural   Li6MnFe5(BO3)6
_chemical_formula_sum   'Li12 Mn2 Fe10 B12 O36'
_cell_volume   740.76899473
_cell_formula_units_Z   2
loop_
 _symmetry_equiv_pos_site_id
 _symmetry_equiv_pos_as_xyz
  1  'x, y, z'
loop_
 _atom_site_type_symbol
 _atom_site_label
 _atom_site_symmetry_multiplicity
 _atom_site_fract_x
 _atom_site_fract_y
 _atom_site_fract_z
 _atom_site_occupancy
  Li  Li0  1  0.283923  0.000000  0.301294  1
  Li  Li1  1  0.284783  0.250404  0.301570  1
  Li  Li2  1  0.285451  0.500000  0.301656  1
  Li  Li3  1  0.284783  0.749596  0.301570  1
  Li  Li4  1  0.015867  0.000000  0.714525  1
  Li  Li5  1  0.016035  0.749815  0.714847  1
  Li  Li6  1  0.015950  0.500000  0.714599  1
  Li  Li7  1  0.016035  0.250185  0.714847  1
  Li  Li8  1  0.698753  0.749383  0.984202  1
  Li  Li9  1  0.698362  0.500000  0.983511  1
  Li  Li10  1  0.698065  0.000000  0.984322  1
  Li  Li11  1  0.698753  0.250617  0.984202  1
  Mn  Mn12  1  0.372423  0.126812  0.011838  1
  Mn  Mn13  1  0.372423  0.873188  0.011838  1
  Fe  Fe14  1  0.368258  0.623763  0.007509  1
  Fe  Fe15  1  0.368258  0.376237  0.007509  1
  Fe  Fe16  1  0.639889  0.625062  0.632115  1
  Fe  Fe17  1  0.640540  0.124855  0.633019  1
  Fe  Fe18  1  0.640540  0.875145  0.633019  1
  Fe  Fe19  1  0.639889  0.374938  0.632115  1
  Fe  Fe20  1  0.992421  0.624901  0.360187  1
  Fe  Fe21  1  0.992481  0.125109  0.359244  1
  Fe  Fe22  1  0.992481  0.874891  0.359244  1
  Fe  Fe23  1  0.992421  0.375099  0.360187  1
  B  B24  1  0.997639  0.125156  0.998180  1
  B  B25  1  0.997639  0.874844  0.998180  1
  B  B26  1  0.000109  0.624755  0.000062  1
  B  B27  1  0.000109  0.375245  0.000062  1
  B  B28  1  0.333460  0.251677  0.665513  1
  B  B29  1  0.333276  0.000000  0.664613  1
  B  B30  1  0.333460  0.748323  0.665513  1
  B  B31  1  0.333068  0.500000  0.666063  1
  B  B32  1  0.668290  0.000000  0.336061  1
  B  B33  1  0.667827  0.748922  0.335194  1
  B  B34  1  0.666644  0.500000  0.333206  1
  B  B35  1  0.667827  0.251078  0.335194  1
  O  O36  1  0.108857  0.874758  0.192624  1
  O  O37  1  0.108857  0.125242  0.192624  1
  O  O38  1  0.109069  0.624816  0.194307  1
  O  O39  1  0.109069  0.375184  0.194307  1
  O  O40  1  0.138969  0.250059  0.557796  1
  O  O41  1  0.138636  0.000000  0.556477  1
  O  O42  1  0.138969  0.749941  0.557796  1
  O  O43  1  0.138301  0.500000  0.557837  1
  O  O44  1  0.079780  0.125244  0.886723  1
  O  O45  1  0.085708  0.624359  0.891098  1
  O  O46  1  0.085708  0.375641  0.891098  1
  O  O47  1  0.079780  0.874756  0.886723  1
  O  O48  1  0.441748  0.250162  0.579494  1
  O  O49  1  0.441647  0.500000  0.580029  1
  O  O50  1  0.441570  0.000000  0.578354  1
  O  O51  1  0.441748  0.749838  0.579494  1
  O  O52  1  0.419802  0.253856  0.859669  1
  O  O53  1  0.419047  0.000000  0.858289  1
  O  O54  1  0.419241  0.500000  0.860433  1
  O  O55  1  0.419802  0.746144  0.859669  1
  O  O56  1  0.474191  0.000000  0.222431  1
  O  O57  1  0.472735  0.500000  0.218074  1
  O  O58  1  0.473904  0.747457  0.220903  1
  O  O59  1  0.473904  0.252543  0.220903  1
  O  O60  1  0.803381  0.125165  0.916319  1
  O  O61  1  0.803381  0.874835  0.916319  1
  O  O62  1  0.805617  0.624850  0.914804  1
  O  O63  1  0.805617  0.375150  0.914804  1
  O  O64  1  0.781893  0.000000  0.255426  1
  O  O65  1  0.781958  0.749821  0.255240  1
  O  O66  1  0.781884  0.500000  0.254552  1
  O  O67  1  0.781958  0.250179  0.255240  1
  O  O68  1  0.746454  0.750009  0.528548  1
  O  O69  1  0.747224  0.000000  0.529462  1
  O  O70  1  0.745011  0.500000  0.526786  1
  O  O71  1  0.746454  0.249991  0.528548  1
