# generated using pymatgen
data_PH9(NO2)2
_symmetry_space_group_name_H-M   'P 1'
_cell_length_a   8.10134957
_cell_length_b   6.71584999
_cell_length_c   10.80436442
_cell_angle_alpha   90.00000000
_cell_angle_beta   109.76890641
_cell_angle_gamma   90.00000000
_symmetry_Int_Tables_number   1
_chemical_formula_structural   PH9(NO2)2
_chemical_formula_sum   'P4 H36 N8 O16'
_cell_volume   553.19335527
_cell_formula_units_Z   4
loop_
 _symmetry_equiv_pos_site_id
 _symmetry_equiv_pos_as_xyz
  1  'x, y, z'
loop_
 _atom_site_type_symbol
 _atom_site_label
 _atom_site_symmetry_multiplicity
 _atom_site_fract_x
 _atom_site_fract_y
 _atom_site_fract_z
 _atom_site_occupancy
  P  P0  1  0.816957  0.609046  0.249122  1
  P  P1  1  0.683043  0.109046  0.750878  1
  P  P2  1  0.183043  0.390954  0.750878  1
  P  P3  1  0.316957  0.890954  0.249122  1
  H  H4  1  0.050057  0.632131  0.178312  1
  H  H5  1  0.449943  0.132131  0.821688  1
  H  H6  1  0.949943  0.367869  0.821688  1
  H  H7  1  0.550057  0.867869  0.178312  1
  H  H8  1  0.412819  0.334891  0.522741  1
  H  H9  1  0.087181  0.834891  0.477259  1
  H  H10  1  0.587181  0.665109  0.477259  1
  H  H11  1  0.912819  0.165109  0.522741  1
  H  H12  1  0.304233  0.520731  0.415754  1
  H  H13  1  0.195767  0.020731  0.584246  1
  H  H14  1  0.695767  0.479269  0.584246  1
  H  H15  1  0.804233  0.979269  0.415754  1
  H  H16  1  0.202214  0.379549  0.502138  1
  H  H17  1  0.297786  0.879549  0.497862  1
  H  H18  1  0.797786  0.620451  0.497862  1
  H  H19  1  0.702214  0.120451  0.502138  1
  H  H20  1  0.257588  0.273100  0.377609  1
  H  H21  1  0.242412  0.773100  0.622391  1
  H  H22  1  0.742412  0.726900  0.622391  1
  H  H23  1  0.757588  0.226900  0.377609  1
  H  H24  1  0.997066  0.100193  0.176059  1
  H  H25  1  0.502934  0.600193  0.823941  1
  H  H26  1  0.002934  0.899807  0.823941  1
  H  H27  1  0.497066  0.399807  0.176059  1
  H  H28  1  0.798588  0.976985  0.124651  1
  H  H29  1  0.701412  0.476985  0.875349  1
  H  H30  1  0.201412  0.023015  0.875349  1
  H  H31  1  0.298588  0.523015  0.124651  1
  H  H32  1  0.811687  0.222634  0.168649  1
  H  H33  1  0.688313  0.722634  0.831351  1
  H  H34  1  0.188313  0.777366  0.831351  1
  H  H35  1  0.311687  0.277366  0.168649  1
  H  H36  1  0.843043  0.156912  0.026533  1
  H  H37  1  0.656957  0.656912  0.973467  1
  H  H38  1  0.156957  0.843088  0.973467  1
  H  H39  1  0.343043  0.343088  0.026533  1
  N  N40  1  0.293321  0.380346  0.453160  1
  N  N41  1  0.206679  0.880346  0.546840  1
  N  N42  1  0.706679  0.619654  0.546840  1
  N  N43  1  0.793321  0.119654  0.453160  1
  N  N44  1  0.861672  0.112798  0.123463  1
  N  N45  1  0.638328  0.612798  0.876537  1
  N  N46  1  0.138328  0.887202  0.876537  1
  N  N47  1  0.361672  0.387202  0.123463  1
  O  O48  1  0.975258  0.530120  0.204518  1
  O  O49  1  0.524742  0.030120  0.795482  1
  O  O50  1  0.024742  0.469880  0.795482  1
  O  O51  1  0.475258  0.969880  0.204518  1
  O  O52  1  0.722292  0.415634  0.263782  1
  O  O53  1  0.777708  0.915634  0.736218  1
  O  O54  1  0.277708  0.584366  0.736218  1
  O  O55  1  0.222292  0.084366  0.263782  1
  O  O56  1  0.889676  0.727043  0.378805  1
  O  O57  1  0.610324  0.227043  0.621195  1
  O  O58  1  0.110324  0.272957  0.621195  1
  O  O59  1  0.389676  0.772957  0.378805  1
  O  O60  1  0.696770  0.742651  0.137414  1
  O  O61  1  0.803230  0.242651  0.862586  1
  O  O62  1  0.303230  0.257349  0.862586  1
  O  O63  1  0.196770  0.757349  0.137414  1
