# generated using pymatgen
data_Fe5O3F7
_symmetry_space_group_name_H-M   'P 1'
_cell_length_a   4.83426660
_cell_length_b   4.82493189
_cell_length_c   16.36254832
_cell_angle_alpha   90.00000000
_cell_angle_beta   106.98605970
_cell_angle_gamma   90.00000000
_symmetry_Int_Tables_number   1
_chemical_formula_structural   Fe5O3F7
_chemical_formula_sum   'Fe10 O6 F14'
_cell_volume   365.00711775
_cell_formula_units_Z   2
loop_
 _symmetry_equiv_pos_site_id
 _symmetry_equiv_pos_as_xyz
  1  'x, y, z'
loop_
 _atom_site_type_symbol
 _atom_site_label
 _atom_site_symmetry_multiplicity
 _atom_site_fract_x
 _atom_site_fract_y
 _atom_site_fract_z
 _atom_site_occupancy
  Fe  Fe0  1  0.003402  0.245503  0.999528  1
  Fe  Fe1  1  0.171410  0.259921  0.194001  1
  Fe  Fe2  1  0.376274  0.270667  0.400015  1
  Fe  Fe3  1  0.649472  0.227582  0.607224  1
  Fe  Fe4  1  0.823318  0.275667  0.801752  1
  Fe  Fe5  1  0.649472  0.772418  0.107224  1
  Fe  Fe6  1  0.003402  0.754497  0.499528  1
  Fe  Fe7  1  0.823318  0.724333  0.301752  1
  Fe  Fe8  1  0.171410  0.740079  0.694001  1
  Fe  Fe9  1  0.376274  0.729333  0.900015  1
  O  O10  1  0.885370  0.429275  0.701035  1
  O  O11  1  0.077812  0.424519  0.903582  1
  O  O12  1  0.901018  0.940647  0.590619  1
  O  O13  1  0.885370  0.570725  0.201035  1
  O  O14  1  0.077812  0.575481  0.403582  1
  O  O15  1  0.901018  0.059353  0.090619  1
  F  F16  1  0.306688  0.465618  0.091828  1
  F  F17  1  0.493570  0.456974  0.298653  1
  F  F18  1  0.704970  0.447754  0.504119  1
  F  F19  1  0.314364  0.948724  0.006077  1
  F  F20  1  0.508933  0.953200  0.202105  1
  F  F21  1  0.695686  0.950305  0.398265  1
  F  F22  1  0.087713  0.949098  0.801199  1
  F  F23  1  0.704970  0.552246  0.004119  1
  F  F24  1  0.306688  0.534382  0.591828  1
  F  F25  1  0.493570  0.543026  0.798653  1
  F  F26  1  0.314364  0.051276  0.506077  1
  F  F27  1  0.087713  0.050902  0.301199  1
  F  F28  1  0.695686  0.049695  0.898265  1
  F  F29  1  0.508933  0.046800  0.702105  1
