# generated using pymatgen
data_Li5CuF6
_symmetry_space_group_name_H-M   'P 1'
_cell_length_a   5.13729572
_cell_length_b   5.13729572
_cell_length_c   5.14646949
_cell_angle_alpha   79.89385843
_cell_angle_beta   100.10614157
_cell_angle_gamma   60.37174430
_symmetry_Int_Tables_number   1
_chemical_formula_structural   Li5CuF6
_chemical_formula_sum   'Li5 Cu1 F6'
_cell_volume   110.64271727
_cell_formula_units_Z   1
loop_
 _symmetry_equiv_pos_site_id
 _symmetry_equiv_pos_as_xyz
  1  'x, y, z'
loop_
 _atom_site_type_symbol
 _atom_site_label
 _atom_site_symmetry_multiplicity
 _atom_site_fract_x
 _atom_site_fract_y
 _atom_site_fract_z
 _atom_site_occupancy
  Li  Li0  1  0.834293  0.834293  0.500000  1
  Li  Li1  1  0.667158  0.667158  0.000000  1
  Li  Li2  1  0.500000  0.500000  0.500000  1
  Li  Li3  1  0.332842  0.332842  0.000000  1
  Li  Li4  1  0.165707  0.165707  0.500000  1
  Cu  Cu5  1  0.000000  0.000000  0.000000  1
  F  F6  1  0.914480  0.439825  0.745518  1
  F  F7  1  0.439825  0.914480  0.254482  1
  F  F8  1  0.733806  0.266194  0.270476  1
  F  F9  1  0.266194  0.733806  0.729524  1
  F  F10  1  0.560175  0.085520  0.745518  1
  F  F11  1  0.085520  0.560175  0.254482  1
