# generated using pymatgen
data_Li5FeO4
_symmetry_space_group_name_H-M   'P 1'
_cell_length_a   5.60540446
_cell_length_b   6.77921388
_cell_length_c   11.01692797
_cell_angle_alpha   89.89365624
_cell_angle_beta   78.17564913
_cell_angle_gamma   89.75783790
_symmetry_Int_Tables_number   1
_chemical_formula_structural   Li5FeO4
_chemical_formula_sum   'Li20 Fe4 O16'
_cell_volume   409.75848853
_cell_formula_units_Z   4
loop_
 _symmetry_equiv_pos_site_id
 _symmetry_equiv_pos_as_xyz
  1  'x, y, z'
loop_
 _atom_site_type_symbol
 _atom_site_label
 _atom_site_symmetry_multiplicity
 _atom_site_fract_x
 _atom_site_fract_y
 _atom_site_fract_z
 _atom_site_occupancy
  Li  Li0  1  0.097606  0.212677  0.289198  1
  Li  Li1  1  0.007522  0.254053  0.658827  1
  Li  Li2  1  0.096623  0.980063  0.801420  1
  Li  Li3  1  0.108820  0.528616  0.797630  1
  Li  Li4  1  0.277221  0.967305  0.079789  1
  Li  Li5  1  0.221569  0.473329  0.424307  1
  Li  Li6  1  0.314165  0.533939  0.059217  1
  Li  Li7  1  0.180035  0.025334  0.447437  1
  Li  Li8  1  0.404917  0.713329  0.217834  1
  Li  Li9  1  0.506664  0.257262  0.171310  1
  Li  Li10  1  0.587252  0.966774  0.307711  1
  Li  Li11  1  0.491968  0.754731  0.824114  1
  Li  Li12  1  0.544560  0.261934  0.765945  1
  Li  Li13  1  0.771996  0.983182  0.571003  1
  Li  Li14  1  0.677696  0.041587  0.936372  1
  Li  Li15  1  0.911281  0.471428  0.196076  1
  Li  Li16  1  0.799799  0.530250  0.562226  1
  Li  Li17  1  0.697496  0.469109  0.929127  1
  Li  Li18  1  0.987626  0.755411  0.335080  1
  Li  Li19  1  0.889886  0.753166  0.701400  1
  Fe  Fe20  1  0.170818  0.252920  0.948010  1
  Fe  Fe21  1  0.680079  0.260934  0.432496  1
  Fe  Fe22  1  0.826069  0.759349  0.060278  1
  Fe  Fe23  1  0.324909  0.751478  0.568348  1
  O  O24  1  0.095141  0.731005  0.142025  1
  O  O25  1  0.166727  0.267101  0.118305  1
  O  O26  1  0.102642  0.968274  0.626246  1
  O  O27  1  0.110112  0.534641  0.622423  1
  O  O28  1  0.337805  0.762629  0.391600  1
  O  O29  1  0.399945  0.228179  0.358696  1
  O  O30  1  0.362987  0.026585  0.888569  1
  O  O31  1  0.373913  0.474233  0.881936  1
  O  O32  1  0.634496  0.525268  0.110537  1
  O  O33  1  0.600091  0.963418  0.123007  1
  O  O34  1  0.602077  0.751327  0.640256  1
  O  O35  1  0.687324  0.260423  0.601848  1
  O  O36  1  0.904963  0.466485  0.371376  1
  O  O37  1  0.867726  0.022505  0.383994  1
  O  O38  1  0.857927  0.756128  0.881000  1
  O  O39  1  0.909657  0.251844  0.858623  1
