# generated using pymatgen
data_MnCu4H14(SO9)2
_symmetry_space_group_name_H-M   'P 1'
_cell_length_a   11.57137097
_cell_length_b   11.57137097
_cell_length_c   11.36423323
_cell_angle_alpha   80.22408874
_cell_angle_beta   99.77591126
_cell_angle_gamma   149.48217136
_symmetry_Int_Tables_number   1
_chemical_formula_structural   MnCu4H14(SO9)2
_chemical_formula_sum   'Mn2 Cu8 H28 S4 O36'
_cell_volume   760.63317930
_cell_formula_units_Z   2
loop_
 _symmetry_equiv_pos_site_id
 _symmetry_equiv_pos_as_xyz
  1  'x, y, z'
loop_
 _atom_site_type_symbol
 _atom_site_label
 _atom_site_symmetry_multiplicity
 _atom_site_fract_x
 _atom_site_fract_y
 _atom_site_fract_z
 _atom_site_occupancy
  Mn  Mn0  1  0.072780  0.147493  0.733853  1
  Mn  Mn1  1  0.147493  0.072780  0.266147  1
  Cu  Cu2  1  0.241948  0.743735  0.998435  1
  Cu  Cu3  1  0.994886  0.470559  0.254981  1
  Cu  Cu4  1  0.496031  0.970460  0.252613  1
  Cu  Cu5  1  0.227861  0.725444  0.502417  1
  Cu  Cu6  1  0.725444  0.227861  0.497583  1
  Cu  Cu7  1  0.970460  0.496031  0.747387  1
  Cu  Cu8  1  0.470559  0.994886  0.745019  1
  Cu  Cu9  1  0.743735  0.241948  0.001565  1
  H  H10  1  0.758578  0.828466  0.161614  1
  H  H11  1  0.083089  0.193468  0.072004  1
  H  H12  1  0.353906  0.419869  0.067508  1
  H  H13  1  0.746307  0.809401  0.299116  1
  H  H14  1  0.091400  0.211838  0.378260  1
  H  H15  1  0.357055  0.428727  0.413922  1
  H  H16  1  0.412343  0.576577  0.649264  1
  H  H17  1  0.408776  0.575026  0.792944  1
  H  H18  1  0.317849  0.633342  0.178624  1
  H  H19  1  0.825631  0.141904  0.171873  1
  H  H20  1  0.039260  0.361883  0.511645  1
  H  H21  1  0.276742  0.626904  0.698570  1
  H  H22  1  0.086986  0.417991  0.963560  1
  H  H23  1  0.802440  0.157970  0.706451  1
  H  H24  1  0.157970  0.802440  0.293549  1
  H  H25  1  0.417991  0.086986  0.036440  1
  H  H26  1  0.626904  0.276742  0.301430  1
  H  H27  1  0.361883  0.039260  0.488355  1
  H  H28  1  0.141905  0.825631  0.828127  1
  H  H29  1  0.633342  0.317849  0.821376  1
  H  H30  1  0.575026  0.408776  0.207056  1
  H  H31  1  0.576577  0.412343  0.350736  1
  H  H32  1  0.428727  0.357055  0.586078  1
  H  H33  1  0.211838  0.091400  0.621740  1
  H  H34  1  0.809401  0.746307  0.700884  1
  H  H35  1  0.419869  0.353906  0.932492  1
  H  H36  1  0.193468  0.083089  0.927996  1
  H  H37  1  0.828466  0.758578  0.838386  1
  S  S38  1  0.689547  0.900841  0.481293  1
  S  S39  1  0.680983  0.911924  0.938542  1
  S  S40  1  0.911924  0.680983  0.061458  1
  S  S41  1  0.900841  0.689547  0.518707  1
  O  O42  1  0.223037  0.274477  0.111547  1
  O  O43  1  0.237248  0.303411  0.359208  1
  O  O44  1  0.793569  0.783318  0.762708  1
  O  O45  1  0.805183  0.996807  0.058965  1
  O  O46  1  0.793666  0.966136  0.371192  1
  O  O47  1  0.530254  0.667886  0.525740  1
  O  O48  1  0.311348  0.498996  0.716990  1
  O  O49  1  0.876804  0.072181  0.574276  1
  O  O50  1  0.508513  0.670252  0.933240  1
  O  O51  1  0.848640  0.060231  0.842967  1
  O  O52  1  0.279796  0.683417  0.172517  1
  O  O53  1  0.564221  0.907269  0.452748  1
  O  O54  1  0.789200  0.193118  0.173453  1
  O  O55  1  0.023458  0.428006  0.465817  1
  O  O56  1  0.565237  0.929445  0.924416  1
  O  O57  1  0.252546  0.692642  0.678112  1
  O  O58  1  0.034835  0.454174  0.945329  1
  O  O59  1  0.761730  0.205727  0.675848  1
  O  O60  1  0.205727  0.761730  0.324152  1
  O  O61  1  0.454174  0.034835  0.054671  1
  O  O62  1  0.692642  0.252546  0.321888  1
  O  O63  1  0.929445  0.565237  0.075584  1
  O  O64  1  0.428006  0.023458  0.534183  1
  O  O65  1  0.193118  0.789200  0.826547  1
  O  O66  1  0.907269  0.564221  0.547252  1
  O  O67  1  0.683417  0.279796  0.827483  1
  O  O68  1  0.060231  0.848640  0.157033  1
  O  O69  1  0.670252  0.508513  0.066760  1
  O  O70  1  0.072181  0.876804  0.425724  1
  O  O71  1  0.498996  0.311348  0.283010  1
  O  O72  1  0.667886  0.530254  0.474260  1
  O  O73  1  0.966136  0.793666  0.628808  1
  O  O74  1  0.996807  0.805183  0.941035  1
  O  O75  1  0.783318  0.793569  0.237292  1
  O  O76  1  0.303411  0.237248  0.640792  1
  O  O77  1  0.274477  0.223037  0.888453  1
