# generated using pymatgen
data_Li5Mn2P2(CO7)2
_symmetry_space_group_name_H-M   'P 1'
_cell_length_a   5.02636291
_cell_length_b   6.63206798
_cell_length_c   8.46242809
_cell_angle_alpha   90.00000000
_cell_angle_beta   94.49797297
_cell_angle_gamma   90.00000000
_symmetry_Int_Tables_number   1
_chemical_formula_structural   Li5Mn2P2(CO7)2
_chemical_formula_sum   'Li5 Mn2 P2 C2 O14'
_cell_volume   281.22774124
_cell_formula_units_Z   1
loop_
 _symmetry_equiv_pos_site_id
 _symmetry_equiv_pos_as_xyz
  1  'x, y, z'
loop_
 _atom_site_type_symbol
 _atom_site_label
 _atom_site_symmetry_multiplicity
 _atom_site_fract_x
 _atom_site_fract_y
 _atom_site_fract_z
 _atom_site_occupancy
  Li  Li0  1  0.246060  0.277051  0.736800  1
  Li  Li1  1  0.246060  0.722949  0.736800  1
  Li  Li2  1  0.752262  0.776016  0.266032  1
  Li  Li3  1  0.752262  0.223984  0.266032  1
  Li  Li4  1  0.234387  0.000000  0.096960  1
  Mn  Mn5  1  0.784503  0.000000  0.657841  1
  Mn  Mn6  1  0.212835  0.500000  0.335243  1
  P  P7  1  0.734681  0.500000  0.580984  1
  P  P8  1  0.277072  0.000000  0.411853  1
  C  C9  1  0.704137  0.000000  0.963246  1
  C  C10  1  0.289985  0.500000  0.046558  1
  O  O11  1  0.950382  0.000000  0.930644  1
  O  O12  1  0.326552  0.500000  0.900912  1
  O  O13  1  0.516210  0.000000  0.847822  1
  O  O14  1  0.837628  0.312333  0.672795  1
  O  O15  1  0.837628  0.687667  0.672795  1
  O  O16  1  0.187439  0.000000  0.582387  1
  O  O17  1  0.418209  0.500000  0.557528  1
  O  O18  1  0.588962  0.000000  0.423347  1
  O  O19  1  0.831693  0.500000  0.409239  1
  O  O20  1  0.169285  0.182455  0.311121  1
  O  O21  1  0.169285  0.817545  0.311121  1
  O  O22  1  0.485824  0.500000  0.160027  1
  O  O23  1  0.636517  0.000000  0.108561  1
  O  O24  1  0.054574  0.500000  0.102511  1
