# generated using pymatgen
data_V5O12
_symmetry_space_group_name_H-M   'P 1'
_cell_length_a   4.96541531
_cell_length_b   5.32889985
_cell_length_c   7.49626463
_cell_angle_alpha   83.28316746
_cell_angle_beta   89.90515683
_cell_angle_gamma   89.27455719
_symmetry_Int_Tables_number   1
_chemical_formula_structural   V5O12
_chemical_formula_sum   'V5 O12'
_cell_volume   196.97544838
_cell_formula_units_Z   1
loop_
 _symmetry_equiv_pos_site_id
 _symmetry_equiv_pos_as_xyz
  1  'x, y, z'
loop_
 _atom_site_type_symbol
 _atom_site_label
 _atom_site_symmetry_multiplicity
 _atom_site_fract_x
 _atom_site_fract_y
 _atom_site_fract_z
 _atom_site_occupancy
  V  V0  1  0.985997  0.016239  0.983553  1
  V  V1  1  0.518131  0.490604  0.514705  1
  V  V2  1  0.025068  0.999758  0.517773  1
  V  V3  1  0.471783  0.493973  0.982869  1
  V  V4  1  0.004191  0.596335  0.277091  1
  O  O5  1  0.712581  0.756447  0.422296  1
  O  O6  1  0.898151  0.963457  0.731048  1
  O  O7  1  0.691028  0.153535  0.029870  1
  O  O8  1  0.831660  0.301271  0.413482  1
  O  O9  1  0.186121  0.268262  0.933335  1
  O  O10  1  0.605663  0.473226  0.730001  1
  O  O11  1  0.323349  0.461809  0.236191  1
  O  O12  1  0.823456  0.626310  0.074036  1
  O  O13  1  0.192579  0.658580  0.519257  1
  O  O14  1  0.314616  0.772249  0.926559  1
  O  O15  1  0.099270  0.932111  0.229583  1
  O  O16  1  0.316355  0.154433  0.537649  1
