# generated using pymatgen
data_Li2BiO2
_symmetry_space_group_name_H-M   'P 1'
_cell_length_a   6.00679644
_cell_length_b   6.00679644
_cell_length_c   6.00679644
_cell_angle_alpha   147.15740036
_cell_angle_beta   145.29047593
_cell_angle_gamma   48.53113135
_symmetry_Int_Tables_number   1
_chemical_formula_structural   Li2BiO2
_chemical_formula_sum   'Li2 Bi1 O2'
_cell_volume   66.64608465
_cell_formula_units_Z   1
loop_
 _symmetry_equiv_pos_site_id
 _symmetry_equiv_pos_as_xyz
  1  'x, y, z'
loop_
 _atom_site_type_symbol
 _atom_site_label
 _atom_site_symmetry_multiplicity
 _atom_site_fract_x
 _atom_site_fract_y
 _atom_site_fract_z
 _atom_site_occupancy
  Li  Li0  1  0.276454  0.276454  0.000000  1
  Li  Li1  1  0.723546  0.723546  0.000000  1
  Bi  Bi2  1  0.000000  0.000000  0.000000  1
  O  O3  1  0.840932  0.340932  0.500000  1
  O  O4  1  0.159068  0.659068  0.500000  1
