# generated using pymatgen
data_La20S29O
_symmetry_space_group_name_H-M   'P 1'
_cell_length_a   15.05830821
_cell_length_b   15.05830821
_cell_length_c   15.05830821
_cell_angle_alpha   117.83968388
_cell_angle_beta   117.83968388
_cell_angle_gamma   93.78436388
_symmetry_Int_Tables_number   1
_chemical_formula_structural   La20S29O
_chemical_formula_sum   'La40 S58 O2'
_cell_volume   2487.39335724
_cell_formula_units_Z   2
loop_
 _symmetry_equiv_pos_site_id
 _symmetry_equiv_pos_as_xyz
  1  'x, y, z'
loop_
 _atom_site_type_symbol
 _atom_site_label
 _atom_site_symmetry_multiplicity
 _atom_site_fract_x
 _atom_site_fract_y
 _atom_site_fract_z
 _atom_site_occupancy
  La  La0  1  0.888347  0.884283  0.276028  1
  La  La1  1  0.046007  0.950112  0.653906  1
  La  La2  1  0.835157  0.177636  0.366817  1
  La  La3  1  0.108947  0.203763  0.654415  1
  La  La4  1  0.531659  0.164843  0.342479  1
  La  La5  1  0.050722  0.692346  0.376478  1
  La  La6  1  0.927636  0.085157  0.866817  1
  La  La7  1  0.822364  0.189181  0.657521  1
  La  La8  1  0.607899  0.953993  0.904105  1
  La  La9  1  0.549349  0.454533  0.345585  1
  La  La10  1  0.200651  0.046237  0.405184  1
  La  La11  1  0.115717  0.391745  0.004064  1
  La  La12  1  0.634283  0.138347  0.776028  1
  La  La13  1  0.861653  0.637681  0.495936  1
  La  La14  1  0.325755  0.949278  0.641624  1
  La  La15  1  0.810819  0.468341  0.633183  1
  La  La16  1  0.939181  0.072364  0.157521  1
  La  La17  1  0.545467  0.891053  0.094816  1
  La  La18  1  0.453794  0.299888  0.595895  1
  La  La19  1  0.296206  0.392101  0.346094  1
  La  La20  1  0.796237  0.450651  0.905184  1
  La  La21  1  0.703993  0.857899  0.404105  1
  La  La22  1  0.953763  0.358947  0.154415  1
  La  La23  1  0.307654  0.684131  0.358376  1
  La  La24  1  0.914843  0.781659  0.842479  1
  La  La25  1  0.442346  0.300722  0.876478  1
  La  La26  1  0.387681  0.111653  0.995936  1
  La  La27  1  0.608255  0.612319  0.723972  1
  La  La28  1  0.141745  0.365717  0.504064  1
  La  La29  1  0.049888  0.703794  0.095895  1
  La  La30  1  0.641053  0.795467  0.594816  1
  La  La31  1  0.700112  0.296007  0.153906  1
  La  La32  1  0.218341  0.060819  0.133183  1
  La  La33  1  0.315869  0.674245  0.623522  1
  La  La34  1  0.434131  0.557654  0.858376  1
  La  La35  1  0.699278  0.575755  0.141624  1
  La  La36  1  0.142101  0.546206  0.846094  1
  La  La37  1  0.424245  0.565869  0.123522  1
  La  La38  1  0.204533  0.799349  0.845585  1
  La  La39  1  0.362319  0.858255  0.223972  1
  S  S40  1  0.107220  0.937926  0.482843  1
  S  S41  1  0.028644  0.125000  0.403644  1
  S  S42  1  0.919093  0.279504  0.288025  1
  S  S43  1  0.876799  0.042968  0.483966  1
  S  S44  1  0.588384  0.981321  0.332952  1
  S  S45  1  0.029504  0.169093  0.788025  1
  S  S46  1  0.720496  0.008520  0.639589  1
  S  S47  1  0.868756  0.511249  0.284461  1
  S  S48  1  0.018679  0.351631  0.607063  1
  S  S49  1  0.750000  0.250000  0.500000  1
  S  S50  1  0.000000  0.000000  0.000000  1
  S  S51  1  0.005431  0.898369  0.167048  1
  S  S52  1  0.513005  0.906256  0.661362  1
  S  S53  1  0.744569  0.411616  0.392937  1
  S  S54  1  0.368931  0.080907  0.360411  1
  S  S55  1  0.101631  0.268679  0.107063  1
  S  S56  1  0.648369  0.255431  0.667048  1
  S  S57  1  0.093744  0.755106  0.606749  1
  S  S58  1  0.875000  0.278644  0.903644  1
  S  S59  1  0.875000  0.775065  0.400065  1
  S  S60  1  0.642780  0.625624  0.330706  1
  S  S61  1  0.792968  0.126799  0.983966  1
  S  S62  1  0.957032  0.440999  0.833831  1
  S  S63  1  0.375624  0.892780  0.830706  1
  S  S64  1  0.190999  0.207032  0.333831  1
  S  S65  1  0.559001  0.392832  0.516034  1
  S  S66  1  0.991480  0.631069  0.711975  1
  S  S67  1  0.758520  0.970496  0.139589  1
  S  S68  1  0.415705  0.131244  0.642493  1
  S  S69  1  0.525065  0.125000  0.900065  1
  S  S70  1  0.721356  0.625000  0.596356  1
  S  S71  1  0.261249  0.118756  0.784461  1
  S  S72  1  0.830907  0.618931  0.860411  1
  S  S73  1  0.488751  0.773212  0.357507  1
  S  S74  1  0.687926  0.357220  0.982843  1
  S  S75  1  0.062074  0.544917  0.169294  1
  S  S76  1  0.873201  0.857168  0.666169  1
  S  S77  1  0.607168  0.123201  0.166169  1
  S  S78  1  0.455083  0.624376  0.517157  1
  S  S79  1  0.294917  0.312074  0.669294  1
  S  S80  1  0.375000  0.474935  0.599935  1
  S  S81  1  0.375000  0.971356  0.096356  1
  S  S82  1  0.601643  0.494894  0.838638  1
  S  S83  1  0.148357  0.486995  0.393251  1
  S  S84  1  0.161616  0.994569  0.892937  1
  S  S85  1  0.881244  0.665705  0.142493  1
  S  S86  1  0.505106  0.343744  0.106749  1
  S  S87  1  0.731321  0.838384  0.832952  1
  S  S88  1  0.244894  0.851643  0.338638  1
  S  S89  1  0.236995  0.398357  0.893251  1
  S  S90  1  0.381069  0.241480  0.211975  1
  S  S91  1  0.226788  0.584295  0.715539  1
  S  S92  1  0.523212  0.738751  0.857507  1
  S  S93  1  0.656256  0.763005  0.161362  1
  S  S94  1  0.374376  0.705083  0.017157  1
  S  S95  1  0.334295  0.476788  0.215539  1
  S  S96  1  0.224935  0.625000  0.099935  1
  S  S97  1  0.142832  0.809001  0.016034  1
  O  O98  1  0.250000  0.750000  0.500000  1
  O  O99  1  0.500000  0.500000  0.000000  1
