# generated using pymatgen
data_BaYF5
_symmetry_space_group_name_H-M   'P 1'
_cell_length_a   6.08254601
_cell_length_b   20.47084782
_cell_length_c   9.53887159
_cell_angle_alpha   90.00000000
_cell_angle_beta   123.16650056
_cell_angle_gamma   90.00000000
_symmetry_Int_Tables_number   1
_chemical_formula_structural   BaYF5
_chemical_formula_sum   'Ba8 Y8 F40'
_cell_volume   994.23132155
_cell_formula_units_Z   8
loop_
 _symmetry_equiv_pos_site_id
 _symmetry_equiv_pos_as_xyz
  1  'x, y, z'
loop_
 _atom_site_type_symbol
 _atom_site_label
 _atom_site_symmetry_multiplicity
 _atom_site_fract_x
 _atom_site_fract_y
 _atom_site_fract_z
 _atom_site_occupancy
  Ba  Ba0  1  0.375870  0.549658  0.234609  1
  Ba  Ba1  1  0.808433  0.275516  0.531995  1
  Ba  Ba2  1  0.624130  0.049658  0.265391  1
  Ba  Ba3  1  0.191567  0.775516  0.968005  1
  Ba  Ba4  1  0.808433  0.224484  0.031995  1
  Ba  Ba5  1  0.375870  0.950342  0.734609  1
  Ba  Ba6  1  0.191567  0.724484  0.468005  1
  Ba  Ba7  1  0.624130  0.450342  0.765391  1
  Y  Y8  1  0.303816  0.369546  0.026791  1
  Y  Y9  1  0.696184  0.869546  0.473209  1
  Y  Y10  1  0.056501  0.098869  0.849224  1
  Y  Y11  1  0.943499  0.598869  0.650776  1
  Y  Y12  1  0.056501  0.401131  0.349224  1
  Y  Y13  1  0.943499  0.901131  0.150776  1
  Y  Y14  1  0.303816  0.130454  0.526791  1
  Y  Y15  1  0.696184  0.630454  0.973209  1
  F  F16  1  0.130933  0.116862  0.096222  1
  F  F17  1  0.463648  0.366205  0.481585  1
  F  F18  1  0.561039  0.156462  0.445184  1
  F  F19  1  0.367543  0.924688  0.254668  1
  F  F20  1  0.935461  0.586074  0.878795  1
  F  F21  1  0.920807  0.340729  0.814172  1
  F  F22  1  0.311156  0.284087  0.164883  1
  F  F23  1  0.901962  0.199541  0.790705  1
  F  F24  1  0.795690  0.967984  0.576727  1
  F  F25  1  0.761974  0.505089  0.560432  1
  F  F26  1  0.688844  0.784087  0.335117  1
  F  F27  1  0.238026  0.005089  0.939568  1
  F  F28  1  0.204310  0.467984  0.923273  1
  F  F29  1  0.098038  0.699541  0.709295  1
  F  F30  1  0.632457  0.424688  0.245332  1
  F  F31  1  0.438961  0.656462  0.054816  1
  F  F32  1  0.079193  0.840729  0.685828  1
  F  F33  1  0.064539  0.086074  0.621205  1
  F  F34  1  0.536352  0.866205  0.018415  1
  F  F35  1  0.869067  0.616862  0.403778  1
  F  F36  1  0.130933  0.383138  0.596222  1
  F  F37  1  0.463648  0.133795  0.981585  1
  F  F38  1  0.935461  0.913926  0.378795  1
  F  F39  1  0.920807  0.159271  0.314172  1
  F  F40  1  0.561039  0.343538  0.945184  1
  F  F41  1  0.367543  0.575312  0.754668  1
  F  F42  1  0.901962  0.300459  0.290705  1
  F  F43  1  0.795690  0.532016  0.076727  1
  F  F44  1  0.761974  0.994911  0.060432  1
  F  F45  1  0.311156  0.215913  0.664883  1
  F  F46  1  0.238026  0.494911  0.439568  1
  F  F47  1  0.204310  0.032016  0.423273  1
  F  F48  1  0.098038  0.800459  0.209295  1
  F  F49  1  0.688844  0.715913  0.835117  1
  F  F50  1  0.079193  0.659271  0.185828  1
  F  F51  1  0.064539  0.413926  0.121205  1
  F  F52  1  0.632457  0.075312  0.745332  1
  F  F53  1  0.438961  0.843538  0.554816  1
  F  F54  1  0.536352  0.633795  0.518415  1
  F  F55  1  0.869067  0.883138  0.903778  1
