# generated using pymatgen
data_Lu2GeO5
_symmetry_space_group_name_H-M   'P 1'
_cell_length_a   3.62709544
_cell_length_b   10.16068817
_cell_length_c   10.95593233
_cell_angle_alpha   90.00000000
_cell_angle_beta   90.00000000
_cell_angle_gamma   90.00000000
_symmetry_Int_Tables_number   1
_chemical_formula_structural   Lu2GeO5
_chemical_formula_sum   'Lu8 Ge4 O20'
_cell_volume   403.76758255
_cell_formula_units_Z   4
loop_
 _symmetry_equiv_pos_site_id
 _symmetry_equiv_pos_as_xyz
  1  'x, y, z'
loop_
 _atom_site_type_symbol
 _atom_site_label
 _atom_site_symmetry_multiplicity
 _atom_site_fract_x
 _atom_site_fract_y
 _atom_site_fract_z
 _atom_site_occupancy
  Lu  Lu0  1  0.750000  0.888918  0.775478  1
  Lu  Lu1  1  0.750000  0.865896  0.439184  1
  Lu  Lu2  1  0.250000  0.634104  0.939184  1
  Lu  Lu3  1  0.250000  0.611082  0.275478  1
  Lu  Lu4  1  0.750000  0.388918  0.724522  1
  Lu  Lu5  1  0.750000  0.365896  0.060816  1
  Lu  Lu6  1  0.250000  0.134104  0.560816  1
  Lu  Lu7  1  0.250000  0.111082  0.224522  1
  Ge  Ge8  1  0.750000  0.824363  0.115374  1
  Ge  Ge9  1  0.250000  0.675637  0.615374  1
  Ge  Ge10  1  0.750000  0.324363  0.384626  1
  Ge  Ge11  1  0.250000  0.175637  0.884626  1
  O  O12  1  0.750000  0.008060  0.604317  1
  O  O13  1  0.750000  0.991837  0.156223  1
  O  O14  1  0.250000  0.761119  0.111685  1
  O  O15  1  0.250000  0.759157  0.765890  1
  O  O16  1  0.750000  0.776012  0.954583  1
  O  O17  1  0.250000  0.723988  0.454583  1
  O  O18  1  0.750000  0.740843  0.265890  1
  O  O19  1  0.750000  0.738881  0.611685  1
  O  O20  1  0.250000  0.508163  0.656223  1
  O  O21  1  0.250000  0.491940  0.104317  1
  O  O22  1  0.750000  0.508060  0.895683  1
  O  O23  1  0.750000  0.491837  0.343777  1
  O  O24  1  0.250000  0.261119  0.388315  1
  O  O25  1  0.250000  0.259157  0.734110  1
  O  O26  1  0.750000  0.276012  0.545417  1
  O  O27  1  0.250000  0.223988  0.045417  1
  O  O28  1  0.750000  0.240843  0.234110  1
  O  O29  1  0.750000  0.238881  0.888315  1
  O  O30  1  0.250000  0.008163  0.843777  1
  O  O31  1  0.250000  0.991940  0.395683  1
