# generated using pymatgen
data_Ca2Al11Si13Ag7O48
_symmetry_space_group_name_H-M   'P 1'
_cell_length_a   12.17337955
_cell_length_b   12.22018229
_cell_length_c   12.94690859
_cell_angle_alpha   90.13200190
_cell_angle_beta   90.57463361
_cell_angle_gamma   90.06293035
_symmetry_Int_Tables_number   1
_chemical_formula_structural   Ca2Al11Si13Ag7O48
_chemical_formula_sum   'Ca2 Al11 Si13 Ag7 O48'
_cell_volume   1925.89081063
_cell_formula_units_Z   1
loop_
 _symmetry_equiv_pos_site_id
 _symmetry_equiv_pos_as_xyz
  1  'x, y, z'
loop_
 _atom_site_type_symbol
 _atom_site_label
 _atom_site_symmetry_multiplicity
 _atom_site_fract_x
 _atom_site_fract_y
 _atom_site_fract_z
 _atom_site_occupancy
  Ca  Ca0  1  0.186283  0.819633  0.226649  1
  Ca  Ca1  1  0.815483  0.821190  0.222814  1
  Al  Al2  1  0.000003  0.195053  0.626577  1
  Al  Al3  1  0.999335  0.804260  0.625555  1
  Al  Al4  1  0.803582  0.001493  0.625171  1
  Al  Al5  1  0.003279  0.189632  0.380509  1
  Al  Al6  1  0.199208  0.998453  0.390306  1
  Al  Al7  1  0.002270  0.804361  0.391898  1
  Al  Al8  1  0.804915  0.999321  0.385868  1
  Al  Al9  1  0.637398  0.998254  0.167201  1
  Al  Al10  1  0.000207  0.370003  0.174794  1
  Al  Al11  1  0.000947  0.641116  0.168054  1
  Al  Al12  1  0.362380  0.998253  0.170138  1
  Si  Si13  1  0.811216  0.631329  0.994860  1
  Si  Si14  1  0.629617  0.813942  0.992943  1
  Si  Si15  1  0.625063  0.001173  0.821030  1
  Si  Si16  1  0.999599  0.629710  0.826790  1
  Si  Si17  1  0.999443  0.372358  0.824278  1
  Si  Si18  1  0.366674  0.001531  0.822241  1
  Si  Si19  1  0.192228  0.001566  0.628257  1
  Si  Si20  1  0.629629  0.185346  0.996939  1
  Si  Si21  1  0.367167  0.184439  0.998154  1
  Si  Si22  1  0.186368  0.370396  0.002034  1
  Si  Si23  1  0.813959  0.369264  0.995703  1
  Si  Si24  1  0.189710  0.629571  0.000767  1
  Si  Si25  1  0.366714  0.815095  0.994506  1
  Ag  Ag26  1  0.803789  0.809915  0.788068  1
  Ag  Ag27  1  0.803854  0.190980  0.791385  1
  Ag  Ag28  1  0.191381  0.799372  0.788456  1
  Ag  Ag29  1  0.191722  0.201768  0.791808  1
  Ag  Ag30  1  0.001510  0.423429  0.430444  1
  Ag  Ag31  1  0.815029  0.185660  0.212641  1
  Ag  Ag32  1  0.186557  0.186233  0.215961  1
  O  O33  1  0.220944  0.500075  0.004754  1
  O  O34  1  0.699446  0.299445  0.982457  1
  O  O35  1  0.302973  0.698023  0.978116  1
  O  O36  1  0.497769  0.789019  0.997240  1
  O  O37  1  0.695210  0.697528  0.977375  1
  O  O38  1  0.653310  0.110683  0.892782  1
  O  O39  1  0.108776  0.652753  0.901079  1
  O  O40  1  0.337742  0.111557  0.891681  1
  O  O41  1  0.109470  0.347602  0.897634  1
  O  O42  1  0.887593  0.659497  0.893208  1
  O  O43  1  0.651483  0.887991  0.888688  1
  O  O44  1  0.886801  0.342278  0.890064  1
  O  O45  1  0.338872  0.888846  0.889025  1
  O  O46  1  0.995439  0.501269  0.796120  1
  O  O47  1  0.494413  0.002367  0.792838  1
  O  O48  1  0.010763  0.300585  0.722517  1
  O  O49  1  0.698689  0.003075  0.722274  1
  O  O50  1  0.011542  0.707228  0.729745  1
  O  O51  1  0.290735  0.002851  0.720865  1
  O  O52  1  0.121066  0.113552  0.652480  1
  O  O53  1  0.883442  0.119429  0.657553  1
  O  O54  1  0.119881  0.890346  0.651323  1
  O  O55  1  0.884217  0.883990  0.656969  1
  O  O56  1  0.002732  0.253335  0.504125  1
  O  O57  1  0.745205  0.004782  0.504732  1
  O  O58  1  0.001734  0.736475  0.508758  1
  O  O59  1  0.250292  0.003648  0.518316  1
  O  O60  1  0.125319  0.116979  0.361569  1
  O  O61  1  0.884960  0.114265  0.353407  1
  O  O62  1  0.125948  0.875451  0.376648  1
  O  O63  1  0.881735  0.877554  0.371051  1
  O  O64  1  0.726635  0.977472  0.268960  1
  O  O65  1  0.003539  0.298790  0.289754  1
  O  O66  1  0.003174  0.740605  0.263517  1
  O  O67  1  0.279442  0.977856  0.276182  1
  O  O68  1  0.998847  0.507369  0.198761  1
  O  O69  1  0.499886  0.995445  0.178785  1
  O  O70  1  0.673999  0.120184  0.097289  1
  O  O71  1  0.323464  0.118274  0.097450  1
  O  O72  1  0.121696  0.332517  0.103370  1
  O  O73  1  0.881688  0.332109  0.097220  1
  O  O74  1  0.129591  0.675826  0.103527  1
  O  O75  1  0.874982  0.676958  0.097673  1
  O  O76  1  0.318826  0.875144  0.096000  1
  O  O77  1  0.678241  0.874708  0.094329  1
  O  O78  1  0.498033  0.213794  0.998565  1
  O  O79  1  0.298599  0.298962  0.985047  1
  O  O80  1  0.784335  0.500412  0.995581  1
