# generated using pymatgen
data_Na2Sn2H4O5
_symmetry_space_group_name_H-M   'P 1'
_cell_length_a   5.96075334
_cell_length_b   14.67833554
_cell_length_c   17.20906701
_cell_angle_alpha   90.00000000
_cell_angle_beta   90.00000000
_cell_angle_gamma   90.00000000
_symmetry_Int_Tables_number   1
_chemical_formula_structural   Na2Sn2H4O5
_chemical_formula_sum   'Na16 Sn16 H32 O40'
_cell_volume   1505.68903505
_cell_formula_units_Z   8
loop_
 _symmetry_equiv_pos_site_id
 _symmetry_equiv_pos_as_xyz
  1  'x, y, z'
loop_
 _atom_site_type_symbol
 _atom_site_label
 _atom_site_symmetry_multiplicity
 _atom_site_fract_x
 _atom_site_fract_y
 _atom_site_fract_z
 _atom_site_occupancy
  Na  Na0  1  0.264863  0.695458  0.530688  1
  Na  Na1  1  0.764863  0.804542  0.469312  1
  Na  Na2  1  0.735137  0.195458  0.969312  1
  Na  Na3  1  0.235137  0.304542  0.030688  1
  Na  Na4  1  0.230719  0.560655  0.013972  1
  Na  Na5  1  0.730719  0.939345  0.986028  1
  Na  Na6  1  0.769281  0.060655  0.486028  1
  Na  Na7  1  0.269281  0.439345  0.513972  1
  Na  Na8  1  0.738050  0.690426  0.980420  1
  Na  Na9  1  0.238050  0.809574  0.019580  1
  Na  Na10  1  0.261950  0.190426  0.519580  1
  Na  Na11  1  0.761950  0.309574  0.480420  1
  Na  Na12  1  0.748581  0.576068  0.536236  1
  Na  Na13  1  0.248581  0.923932  0.463764  1
  Na  Na14  1  0.251419  0.076068  0.963764  1
  Na  Na15  1  0.751419  0.423932  0.036236  1
  Sn  Sn16  1  0.383413  0.536957  0.693045  1
  Sn  Sn17  1  0.883413  0.963043  0.306955  1
  Sn  Sn18  1  0.616587  0.036957  0.806955  1
  Sn  Sn19  1  0.116587  0.463043  0.193045  1
  Sn  Sn20  1  0.892445  0.517795  0.852345  1
  Sn  Sn21  1  0.392445  0.982205  0.147655  1
  Sn  Sn22  1  0.107555  0.017795  0.647655  1
  Sn  Sn23  1  0.607555  0.482205  0.352345  1
  Sn  Sn24  1  0.638845  0.763630  0.673895  1
  Sn  Sn25  1  0.138845  0.736370  0.326105  1
  Sn  Sn26  1  0.361155  0.263630  0.826105  1
  Sn  Sn27  1  0.861155  0.236370  0.173895  1
  Sn  Sn28  1  0.144083  0.734193  0.836894  1
  Sn  Sn29  1  0.644083  0.765807  0.163106  1
  Sn  Sn30  1  0.855917  0.234193  0.663106  1
  Sn  Sn31  1  0.355917  0.265807  0.336894  1
  H  H32  1  0.033415  0.593583  0.629151  1
  H  H33  1  0.533415  0.906417  0.370849  1
  H  H34  1  0.966585  0.093583  0.870849  1
  H  H35  1  0.466585  0.406417  0.129151  1
  H  H36  1  0.491216  0.557555  0.898058  1
  H  H37  1  0.991216  0.942445  0.101942  1
  H  H38  1  0.508784  0.057555  0.601942  1
  H  H39  1  0.008784  0.442445  0.398058  1
  H  H40  1  0.510006  0.802252  0.885924  1
  H  H41  1  0.010006  0.697748  0.114076  1
  H  H42  1  0.489994  0.302252  0.614076  1
  H  H43  1  0.989994  0.197748  0.385924  1
  H  H44  1  0.001631  0.790671  0.600347  1
  H  H45  1  0.501631  0.709329  0.399653  1
  H  H46  1  0.998369  0.290671  0.899653  1
  H  H47  1  0.498369  0.209329  0.100347  1
  H  H48  1  0.463162  0.899926  0.587745  1
  H  H49  1  0.963162  0.600074  0.412255  1
  H  H50  1  0.536838  0.399926  0.912255  1
  H  H51  1  0.036838  0.100074  0.087745  1
  H  H52  1  0.946699  0.883350  0.883582  1
  H  H53  1  0.446699  0.616650  0.116418  1
  H  H54  1  0.053301  0.383350  0.616418  1
  H  H55  1  0.553301  0.116650  0.383582  1
  H  H56  1  0.302925  0.936730  0.869119  1
  H  H57  1  0.802925  0.563270  0.130881  1
  H  H58  1  0.697075  0.436730  0.630881  1
  H  H59  1  0.197075  0.063270  0.369119  1
  H  H60  1  0.819884  0.912197  0.578608  1
  H  H61  1  0.319884  0.587803  0.421392  1
  H  H62  1  0.180116  0.412197  0.921392  1
  H  H63  1  0.680116  0.087803  0.078608  1
  O  O64  1  0.098649  0.534130  0.615564  1
  O  O65  1  0.598649  0.965870  0.384436  1
  O  O66  1  0.901351  0.034130  0.884436  1
  O  O67  1  0.401351  0.465870  0.115564  1
  O  O68  1  0.606054  0.527542  0.929540  1
  O  O69  1  0.106054  0.972458  0.070460  1
  O  O70  1  0.393946  0.027542  0.570460  1
  O  O71  1  0.893946  0.472458  0.429540  1
  O  O72  1  0.435924  0.747430  0.905935  1
  O  O73  1  0.935924  0.752570  0.094065  1
  O  O74  1  0.564076  0.247430  0.594065  1
  O  O75  1  0.064076  0.252570  0.405935  1
  O  O76  1  0.919664  0.733062  0.598731  1
  O  O77  1  0.419664  0.766938  0.401269  1
  O  O78  1  0.080336  0.233062  0.901269  1
  O  O79  1  0.580336  0.266938  0.098731  1
  O  O80  1  0.506152  0.645622  0.630156  1
  O  O81  1  0.006152  0.854378  0.369844  1
  O  O82  1  0.493848  0.145622  0.869844  1
  O  O83  1  0.993848  0.354378  0.130156  1
  O  O84  1  0.045026  0.627109  0.907698  1
  O  O85  1  0.545026  0.872891  0.092302  1
  O  O86  1  0.954974  0.127109  0.592302  1
  O  O87  1  0.454974  0.372891  0.407698  1
  O  O88  1  0.494399  0.835394  0.576203  1
  O  O89  1  0.994399  0.664606  0.423797  1
  O  O90  1  0.505601  0.335394  0.923797  1
  O  O91  1  0.005601  0.164606  0.076203  1
  O  O92  1  0.964378  0.826929  0.912875  1
  O  O93  1  0.464378  0.673071  0.087125  1
  O  O94  1  0.035622  0.326929  0.587125  1
  O  O95  1  0.535622  0.173071  0.412875  1
  O  O96  1  0.453322  0.949332  0.888265  1
  O  O97  1  0.953322  0.550668  0.111735  1
  O  O98  1  0.546678  0.449332  0.611735  1
  O  O99  1  0.046678  0.050668  0.388265  1
  O  O100  1  0.967711  0.930300  0.559510  1
  O  O101  1  0.467711  0.569700  0.440490  1
  O  O102  1  0.032289  0.430300  0.940490  1
  O  O103  1  0.532289  0.069700  0.059510  1
