# generated using pymatgen
data_Li2MnSi4O11
_symmetry_space_group_name_H-M   'P 1'
_cell_length_a   8.40620461
_cell_length_b   8.40620461
_cell_length_c   8.40620461
_cell_angle_alpha   102.42461452
_cell_angle_beta   102.42461452
_cell_angle_gamma   124.72862666
_symmetry_Int_Tables_number   1
_chemical_formula_structural   Li2MnSi4O11
_chemical_formula_sum   'Li4 Mn2 Si8 O22'
_cell_volume   432.50330807
_cell_formula_units_Z   2
loop_
 _symmetry_equiv_pos_site_id
 _symmetry_equiv_pos_as_xyz
  1  'x, y, z'
loop_
 _atom_site_type_symbol
 _atom_site_label
 _atom_site_symmetry_multiplicity
 _atom_site_fract_x
 _atom_site_fract_y
 _atom_site_fract_z
 _atom_site_occupancy
  Li  Li0  1  0.617952  0.348947  0.966899  1
  Li  Li1  1  0.651053  0.617952  0.269006  1
  Li  Li2  1  0.348947  0.382048  0.730994  1
  Li  Li3  1  0.382048  0.651053  0.033101  1
  Mn  Mn4  1  0.243736  0.243736  0.000000  1
  Mn  Mn5  1  0.756264  0.756264  0.000000  1
  Si  Si6  1  0.176217  0.890437  0.679242  1
  Si  Si7  1  0.788805  0.503024  0.679242  1
  Si  Si8  1  0.890437  0.211195  0.714220  1
  Si  Si9  1  0.503024  0.823783  0.714220  1
  Si  Si10  1  0.109563  0.788805  0.285780  1
  Si  Si11  1  0.496976  0.176217  0.285780  1
  Si  Si12  1  0.823783  0.109563  0.320758  1
  Si  Si13  1  0.211195  0.496976  0.320758  1
  O  O14  1  0.000000  0.000000  0.000000  1
  O  O15  1  0.500000  0.500000  0.000000  1
  O  O16  1  0.211039  0.105558  0.762810  1
  O  O17  1  0.657252  0.551771  0.762810  1
  O  O18  1  0.038683  0.710479  0.749162  1
  O  O19  1  0.409783  0.950681  0.734476  1
  O  O20  1  0.783795  0.324694  0.734476  1
  O  O21  1  0.049319  0.783795  0.459102  1
  O  O22  1  0.675306  0.409783  0.459102  1
  O  O23  1  0.105558  0.342748  0.894519  1
  O  O24  1  0.551771  0.788961  0.894519  1
  O  O25  1  0.289521  0.038683  0.328204  1
  O  O26  1  0.710479  0.961317  0.671796  1
  O  O27  1  0.894442  0.657252  0.105481  1
  O  O28  1  0.448229  0.211039  0.105481  1
  O  O29  1  0.324694  0.590217  0.540898  1
  O  O30  1  0.950681  0.216205  0.540898  1
  O  O31  1  0.216205  0.675306  0.265524  1
  O  O32  1  0.590217  0.049319  0.265524  1
  O  O33  1  0.961317  0.289521  0.250838  1
  O  O34  1  0.342748  0.448229  0.237190  1
  O  O35  1  0.788961  0.894442  0.237190  1
