# generated using pymatgen
data_Sn2N2O
_symmetry_space_group_name_H-M   'P 1'
_cell_length_a   8.83653865
_cell_length_b   8.83747864
_cell_length_c   8.84701626
_cell_angle_alpha   109.45200340
_cell_angle_beta   109.40987924
_cell_angle_gamma   109.39717011
_symmetry_Int_Tables_number   1
_chemical_formula_structural   Sn2N2O
_chemical_formula_sum   'Sn16 N16 O8'
_cell_volume   532.85779482
_cell_formula_units_Z   8
loop_
 _symmetry_equiv_pos_site_id
 _symmetry_equiv_pos_as_xyz
  1  'x, y, z'
loop_
 _atom_site_type_symbol
 _atom_site_label
 _atom_site_symmetry_multiplicity
 _atom_site_fract_x
 _atom_site_fract_y
 _atom_site_fract_z
 _atom_site_occupancy
  Sn  Sn0  1  0.223311  0.260356  0.975125  1
  Sn  Sn1  1  0.997061  0.490645  0.991721  1
  Sn  Sn2  1  0.754365  0.973347  0.724730  1
  Sn  Sn3  1  0.250242  0.537307  0.787071  1
  Sn  Sn4  1  0.537104  0.778639  0.245931  1
  Sn  Sn5  1  0.029256  0.280070  0.252361  1
  Sn  Sn6  1  0.991777  0.991835  0.488892  1
  Sn  Sn7  1  0.505159  0.501292  0.513594  1
  Sn  Sn8  1  0.510574  0.006570  0.001363  1
  Sn  Sn9  1  0.721723  0.256561  0.471867  1
  Sn  Sn10  1  0.285543  0.751570  0.535605  1
  Sn  Sn11  1  0.473065  0.208866  0.749353  1
  Sn  Sn12  1  0.955806  0.707695  0.738663  1
  Sn  Sn13  1  0.735815  0.461927  0.209747  1
  Sn  Sn14  1  0.250447  0.032481  0.295846  1
  Sn  Sn15  1  0.778552  0.750322  0.032637  1
  N  N16  1  0.275289  0.539529  0.047278  1
  N  N17  1  0.263034  0.499796  0.538083  1
  N  N18  1  0.762470  0.036884  0.504696  1
  N  N19  1  0.531651  0.770475  0.991239  1
  N  N20  1  0.450470  0.227483  0.995096  1
  N  N21  1  0.968963  0.464028  0.729787  1
  N  N22  1  0.222886  0.951051  0.499060  1
  N  N23  1  0.740306  0.744727  0.778347  1
  N  N24  1  0.999049  0.036839  0.261193  1
  N  N25  1  0.772428  0.234077  0.236888  1
  N  N26  1  0.727025  0.506791  0.458522  1
  N  N27  1  0.542541  0.997255  0.767153  1
  N  N28  1  0.763091  0.724769  0.267706  1
  N  N29  1  0.967554  0.225710  0.970324  1
  N  N30  1  0.735142  0.462920  0.957625  1
  N  N31  1  0.502543  0.265735  0.541405  1
  O  O32  1  0.486312  0.718354  0.448554  1
  O  O33  1  0.221702  0.268810  0.719876  1
  O  O34  1  0.058755  0.776643  0.043706  1
  O  O35  1  0.445372  0.991782  0.221406  1
  O  O36  1  0.221753  0.782374  0.768458  1
  O  O37  1  0.013506  0.962708  0.732344  1
  O  O38  1  0.283414  0.272707  0.235455  1
  O  O39  1  0.044943  0.549070  0.271296  1
