# generated using pymatgen
data_LiVPO5
_symmetry_space_group_name_H-M   'P 1'
_cell_length_a   6.41902950
_cell_length_b   7.59013755
_cell_length_c   8.29762362
_cell_angle_alpha   90.00000000
_cell_angle_beta   90.00000000
_cell_angle_gamma   90.00000000
_symmetry_Int_Tables_number   1
_chemical_formula_structural   LiVPO5
_chemical_formula_sum   'Li4 V4 P4 O20'
_cell_volume   404.27114943
_cell_formula_units_Z   4
loop_
 _symmetry_equiv_pos_site_id
 _symmetry_equiv_pos_as_xyz
  1  'x, y, z'
loop_
 _atom_site_type_symbol
 _atom_site_label
 _atom_site_symmetry_multiplicity
 _atom_site_fract_x
 _atom_site_fract_y
 _atom_site_fract_z
 _atom_site_occupancy
  Li  Li0  1  0.398298  0.625666  0.752386  1
  Li  Li1  1  0.101702  0.374334  0.252386  1
  Li  Li2  1  0.601702  0.125666  0.747614  1
  Li  Li3  1  0.898298  0.874334  0.247614  1
  V  V4  1  0.879411  0.579479  0.596550  1
  V  V5  1  0.620589  0.420521  0.096550  1
  V  V6  1  0.120589  0.079479  0.903450  1
  V  V7  1  0.379411  0.920521  0.403450  1
  P  P8  1  0.896843  0.692799  0.900791  1
  P  P9  1  0.603157  0.307201  0.400791  1
  P  P10  1  0.103157  0.192799  0.599209  1
  P  P11  1  0.396843  0.807201  0.099209  1
  O  O12  1  0.893733  0.725691  0.451219  1
  O  O13  1  0.709477  0.675235  0.779682  1
  O  O14  1  0.428219  0.617970  0.038003  1
  O  O15  1  0.864956  0.573981  0.049849  1
  O  O16  1  0.076572  0.628223  0.786709  1
  O  O17  1  0.423428  0.371777  0.286709  1
  O  O18  1  0.635044  0.426019  0.549849  1
  O  O19  1  0.071781  0.382030  0.538003  1
  O  O20  1  0.790523  0.324765  0.279682  1
  O  O21  1  0.606267  0.274309  0.951219  1
  O  O22  1  0.106267  0.225691  0.048781  1
  O  O23  1  0.290523  0.175235  0.720318  1
  O  O24  1  0.571781  0.117970  0.461997  1
  O  O25  1  0.135044  0.073981  0.450151  1
  O  O26  1  0.923428  0.128223  0.713291  1
  O  O27  1  0.576572  0.871777  0.213291  1
  O  O28  1  0.364956  0.926019  0.950151  1
  O  O29  1  0.928219  0.882030  0.961997  1
  O  O30  1  0.209477  0.824765  0.220318  1
  O  O31  1  0.393733  0.774309  0.548781  1
