# generated using pymatgen
data_Mn6O5F7
_symmetry_space_group_name_H-M   'P 1'
_cell_length_a   4.81155607
_cell_length_b   5.73791983
_cell_length_c   7.89571918
_cell_angle_alpha   85.76692097
_cell_angle_beta   86.39437775
_cell_angle_gamma   85.20941413
_symmetry_Int_Tables_number   1
_chemical_formula_structural   Mn6O5F7
_chemical_formula_sum   'Mn6 O5 F7'
_cell_volume   216.28028102
_cell_formula_units_Z   1
loop_
 _symmetry_equiv_pos_site_id
 _symmetry_equiv_pos_as_xyz
  1  'x, y, z'
loop_
 _atom_site_type_symbol
 _atom_site_label
 _atom_site_symmetry_multiplicity
 _atom_site_fract_x
 _atom_site_fract_y
 _atom_site_fract_z
 _atom_site_occupancy
  Mn  Mn0  1  0.498233  0.487830  0.006497  1
  Mn  Mn1  1  0.560056  0.839007  0.667299  1
  Mn  Mn2  1  0.507573  0.165407  0.323053  1
  Mn  Mn3  1  0.973386  0.333087  0.678058  1
  Mn  Mn4  1  0.000229  0.664528  0.329861  1
  Mn  Mn5  1  0.977501  0.007416  0.993724  1
  O  O6  1  0.824020  0.050916  0.775269  1
  O  O7  1  0.695986  0.201606  0.101328  1
  O  O8  1  0.693040  0.530137  0.785990  1
  O  O9  1  0.704016  0.878457  0.421650  1
  O  O10  1  0.305828  0.460478  0.234031  1
  F  F11  1  0.800418  0.377945  0.434868  1
  F  F12  1  0.805299  0.697092  0.102553  1
  F  F13  1  0.297561  0.137178  0.557150  1
  F  F14  1  0.299163  0.799144  0.903185  1
  F  F15  1  0.166565  0.616465  0.572161  1
  F  F16  1  0.180885  0.957331  0.214417  1
  F  F17  1  0.210242  0.295974  0.898910  1
