# generated using pymatgen
data_BaSrI4
_symmetry_space_group_name_H-M   'P 1'
_cell_length_a   10.09807399
_cell_length_b   20.97855175
_cell_length_c   11.78972332
_cell_angle_alpha   90.00000000
_cell_angle_beta   148.94477673
_cell_angle_gamma   90.00000000
_symmetry_Int_Tables_number   1
_chemical_formula_structural   BaSrI4
_chemical_formula_sum   'Ba4 Sr4 I16'
_cell_volume   1288.40643082
_cell_formula_units_Z   4
loop_
 _symmetry_equiv_pos_site_id
 _symmetry_equiv_pos_as_xyz
  1  'x, y, z'
loop_
 _atom_site_type_symbol
 _atom_site_label
 _atom_site_symmetry_multiplicity
 _atom_site_fract_x
 _atom_site_fract_y
 _atom_site_fract_z
 _atom_site_occupancy
  Ba  Ba0  1  0.069709  0.865443  0.814665  1
  Ba  Ba1  1  0.569708  0.634557  0.814665  1
  Ba  Ba2  1  0.430291  0.365443  0.185335  1
  Ba  Ba3  1  0.930291  0.134557  0.185335  1
  Sr  Sr4  1  0.960568  0.153638  0.705076  1
  Sr  Sr5  1  0.460568  0.346362  0.705076  1
  Sr  Sr6  1  0.539432  0.653638  0.294924  1
  Sr  Sr7  1  0.039432  0.846362  0.294924  1
  I  I8  1  0.077104  0.697903  0.795393  1
  I  I9  1  0.751637  0.397560  0.691726  1
  I  I10  1  0.116514  0.305283  0.699306  1
  I  I11  1  0.577104  0.802097  0.795393  1
  I  I12  1  0.893687  0.012737  0.745206  1
  I  I13  1  0.251637  0.102440  0.691726  1
  I  I14  1  0.616514  0.194717  0.699306  1
  I  I15  1  0.393687  0.487263  0.745206  1
  I  I16  1  0.606313  0.512737  0.254794  1
  I  I17  1  0.383486  0.805283  0.300694  1
  I  I18  1  0.748363  0.897560  0.308274  1
  I  I19  1  0.106313  0.987263  0.254794  1
  I  I20  1  0.422896  0.197903  0.204607  1
  I  I21  1  0.883486  0.694717  0.300694  1
  I  I22  1  0.248363  0.602440  0.308274  1
  I  I23  1  0.922896  0.302097  0.204607  1
