# generated using pymatgen
data_Li4Ti2V3O10
_symmetry_space_group_name_H-M   'P 1'
_cell_length_a   6.72627807
_cell_length_b   7.84511906
_cell_length_c   7.94786147
_cell_angle_alpha   95.97435524
_cell_angle_beta   114.52268052
_cell_angle_gamma   90.87723879
_symmetry_Int_Tables_number   1
_chemical_formula_structural   Li4Ti2V3O10
_chemical_formula_sum   'Li8 Ti4 V6 O20'
_cell_volume   378.69890813
_cell_formula_units_Z   2
loop_
 _symmetry_equiv_pos_site_id
 _symmetry_equiv_pos_as_xyz
  1  'x, y, z'
loop_
 _atom_site_type_symbol
 _atom_site_label
 _atom_site_symmetry_multiplicity
 _atom_site_fract_x
 _atom_site_fract_y
 _atom_site_fract_z
 _atom_site_occupancy
  Li  Li0  1  0.095687  0.703603  0.778428  1
  Li  Li1  1  0.811300  0.594134  0.406168  1
  Li  Li2  1  0.249863  0.756199  0.490148  1
  Li  Li3  1  0.750137  0.243801  0.509852  1
  Li  Li4  1  0.188700  0.405866  0.593832  1
  Li  Li5  1  0.904313  0.296397  0.221572  1
  Li  Li6  1  0.320842  0.085464  0.404289  1
  Li  Li7  1  0.679158  0.914536  0.595711  1
  Ti  Ti8  1  0.348429  0.460443  0.309263  1
  Ti  Ti9  1  0.651571  0.539557  0.690737  1
  Ti  Ti10  1  0.834289  0.941124  0.312786  1
  Ti  Ti11  1  0.165711  0.058876  0.687214  1
  V  V12  1  0.971093  0.652017  0.099870  1
  V  V13  1  0.028907  0.347983  0.900130  1
  V  V14  1  0.500000  0.500000  0.000000  1
  V  V15  1  0.000000  0.000000  0.000000  1
  V  V16  1  0.460440  0.144298  0.096551  1
  V  V17  1  0.539560  0.855702  0.903449  1
  O  O18  1  0.765404  0.440969  0.940586  1
  O  O19  1  0.907073  0.479499  0.660253  1
  O  O20  1  0.092927  0.520501  0.339747  1
  O  O21  1  0.397928  0.617411  0.764260  1
  O  O22  1  0.234596  0.559031  0.059414  1
  O  O23  1  0.528841  0.653745  0.467249  1
  O  O24  1  0.907490  0.112481  0.761575  1
  O  O25  1  0.694985  0.721337  0.147875  1
  O  O26  1  0.305015  0.278663  0.852125  1
  O  O27  1  0.027401  0.159164  0.462121  1
  O  O28  1  0.471159  0.346255  0.532751  1
  O  O29  1  0.185368  0.223478  0.146320  1
  O  O30  1  0.814632  0.776522  0.853680  1
  O  O31  1  0.602072  0.382589  0.235740  1
  O  O32  1  0.972599  0.840836  0.537879  1
  O  O33  1  0.259814  0.934539  0.926366  1
  O  O34  1  0.092510  0.887519  0.238425  1
  O  O35  1  0.404733  0.971425  0.655760  1
  O  O36  1  0.595267  0.028575  0.344240  1
  O  O37  1  0.740186  0.065461  0.073634  1
