# generated using pymatgen
data_LiVBO3
_symmetry_space_group_name_H-M   'P 1'
_cell_length_a   4.61083508
_cell_length_b   5.26274836
_cell_length_c   6.13805622
_cell_angle_alpha   96.09645148
_cell_angle_beta   108.87403825
_cell_angle_gamma   114.34602661
_symmetry_Int_Tables_number   1
_chemical_formula_structural   LiVBO3
_chemical_formula_sum   'Li2 V2 B2 O6'
_cell_volume   123.34536905
_cell_formula_units_Z   2
loop_
 _symmetry_equiv_pos_site_id
 _symmetry_equiv_pos_as_xyz
  1  'x, y, z'
loop_
 _atom_site_type_symbol
 _atom_site_label
 _atom_site_symmetry_multiplicity
 _atom_site_fract_x
 _atom_site_fract_y
 _atom_site_fract_z
 _atom_site_occupancy
  Li  Li0  1  0.443890  0.374806  0.663596  1
  Li  Li1  1  0.556110  0.625194  0.336404  1
  V  V2  1  0.201701  0.759247  0.750404  1
  V  V3  1  0.798299  0.240753  0.249596  1
  B  B4  1  0.793262  0.098992  0.744474  1
  B  B5  1  0.206738  0.901008  0.255526  1
  O  O6  1  0.977188  0.289323  0.640152  1
  O  O7  1  0.632275  0.188453  0.869284  1
  O  O8  1  0.722705  0.806951  0.706953  1
  O  O9  1  0.277295  0.193049  0.293047  1
  O  O10  1  0.367725  0.811547  0.130716  1
  O  O11  1  0.022812  0.710677  0.359848  1
