# generated using pymatgen
data_TiNbO4
_symmetry_space_group_name_H-M   'P 1'
_cell_length_a   5.66377354
_cell_length_b   5.66377354
_cell_length_c   7.40348764
_cell_angle_alpha   70.90167143
_cell_angle_beta   109.09832857
_cell_angle_gamma   106.26237826
_symmetry_Int_Tables_number   1
_chemical_formula_structural   TiNbO4
_chemical_formula_sum   'Ti3 Nb3 O12'
_cell_volume   208.04994218
_cell_formula_units_Z   3
loop_
 _symmetry_equiv_pos_site_id
 _symmetry_equiv_pos_as_xyz
  1  'x, y, z'
loop_
 _atom_site_type_symbol
 _atom_site_label
 _atom_site_symmetry_multiplicity
 _atom_site_fract_x
 _atom_site_fract_y
 _atom_site_fract_z
 _atom_site_occupancy
  Ti  Ti0  1  0.327950  0.672050  0.328866  1
  Ti  Ti1  1  0.337329  0.662671  0.841351  1
  Ti  Ti2  1  0.008463  0.991537  0.997824  1
  Nb  Nb3  1  0.664181  0.335819  0.165044  1
  Nb  Nb4  1  0.661786  0.338214  0.671921  1
  Nb  Nb5  1  0.997919  0.002081  0.494515  1
  O  O6  1  0.627726  0.957935  0.335247  1
  O  O7  1  0.972603  0.632603  0.669805  1
  O  O8  1  0.566247  0.433753  0.369370  1
  O  O9  1  0.232291  0.767709  0.035554  1
  O  O10  1  0.900063  0.099937  0.701733  1
  O  O11  1  0.100800  0.899200  0.293097  1
  O  O12  1  0.772456  0.227544  0.970493  1
  O  O13  1  0.430329  0.569671  0.630597  1
  O  O14  1  0.367397  0.027397  0.669805  1
  O  O15  1  0.042065  0.372274  0.335247  1
  O  O16  1  0.696017  0.705622  0.994766  1
  O  O17  1  0.294378  0.303983  0.994766  1
