# generated using pymatgen
data_Na2FeBPO7
_symmetry_space_group_name_H-M   'P 1'
_cell_length_a   5.28717934
_cell_length_b   6.64449832
_cell_length_c   9.07968972
_cell_angle_alpha   90.00000000
_cell_angle_beta   91.34448110
_cell_angle_gamma   90.00000000
_symmetry_Int_Tables_number   1
_chemical_formula_structural   Na2FeBPO7
_chemical_formula_sum   'Na4 Fe2 B2 P2 O14'
_cell_volume   318.88762478
_cell_formula_units_Z   2
loop_
 _symmetry_equiv_pos_site_id
 _symmetry_equiv_pos_as_xyz
  1  'x, y, z'
loop_
 _atom_site_type_symbol
 _atom_site_label
 _atom_site_symmetry_multiplicity
 _atom_site_fract_x
 _atom_site_fract_y
 _atom_site_fract_z
 _atom_site_occupancy
  Na  Na0  1  0.761711  0.503473  0.233724  1
  Na  Na1  1  0.761711  0.996527  0.233724  1
  Na  Na2  1  0.238289  0.496527  0.766276  1
  Na  Na3  1  0.238289  0.003473  0.766276  1
  Fe  Fe4  1  0.220723  0.250000  0.349933  1
  Fe  Fe5  1  0.779277  0.750000  0.650067  1
  B  B6  1  0.273064  0.250000  0.081313  1
  B  B7  1  0.726936  0.750000  0.918687  1
  P  P8  1  0.277476  0.750000  0.427666  1
  P  P9  1  0.722524  0.250000  0.572334  1
  O  O10  1  0.700321  0.750000  0.064775  1
  O  O11  1  0.040927  0.250000  0.146883  1
  O  O12  1  0.468014  0.250000  0.186158  1
  O  O13  1  0.210118  0.939719  0.336568  1
  O  O14  1  0.210118  0.560281  0.336568  1
  O  O15  1  0.868094  0.250000  0.425127  1
  O  O16  1  0.569325  0.750000  0.465794  1
  O  O17  1  0.430675  0.250000  0.534206  1
  O  O18  1  0.131906  0.750000  0.574873  1
  O  O19  1  0.789882  0.439719  0.663432  1
  O  O20  1  0.789882  0.060281  0.663432  1
  O  O21  1  0.531986  0.750000  0.813842  1
  O  O22  1  0.959073  0.750000  0.853117  1
  O  O23  1  0.299679  0.250000  0.935225  1
