# generated using pymatgen
data_Li7Cr5O12
_symmetry_space_group_name_H-M   'P 1'
_cell_length_a   5.09347872
_cell_length_b   5.09347872
_cell_length_c   9.78683348
_cell_angle_alpha   84.98760657
_cell_angle_beta   95.01239343
_cell_angle_gamma   59.79149243
_symmetry_Int_Tables_number   1
_chemical_formula_structural   Li7Cr5O12
_chemical_formula_sum   'Li7 Cr5 O12'
_cell_volume   216.02710569
_cell_formula_units_Z   1
loop_
 _symmetry_equiv_pos_site_id
 _symmetry_equiv_pos_as_xyz
  1  'x, y, z'
loop_
 _atom_site_type_symbol
 _atom_site_label
 _atom_site_symmetry_multiplicity
 _atom_site_fract_x
 _atom_site_fract_y
 _atom_site_fract_z
 _atom_site_occupancy
  Li  Li0  1  0.756122  0.243878  0.246274  1
  Li  Li1  1  0.413522  0.918032  0.245916  1
  Li  Li2  1  0.586478  0.081968  0.754084  1
  Li  Li3  1  0.243878  0.756122  0.753726  1
  Li  Li4  1  0.918032  0.413522  0.754084  1
  Li  Li5  1  0.081968  0.586478  0.245916  1
  Li  Li6  1  0.000000  0.000000  0.000000  1
  Cr  Cr7  1  0.665343  0.665343  0.000000  1
  Cr  Cr8  1  0.500000  0.500000  0.500000  1
  Cr  Cr9  1  0.167554  0.167554  0.500000  1
  Cr  Cr10  1  0.334657  0.334657  0.000000  1
  Cr  Cr11  1  0.832446  0.832446  0.500000  1
  O  O12  1  0.538930  0.795766  0.613201  1
  O  O13  1  0.331585  0.037379  0.888244  1
  O  O14  1  0.602141  0.397859  0.887973  1
  O  O15  1  0.037379  0.331585  0.111756  1
  O  O16  1  0.795766  0.538930  0.386799  1
  O  O17  1  0.397859  0.602141  0.112027  1
  O  O18  1  0.127594  0.872406  0.384343  1
  O  O19  1  0.668415  0.962621  0.111756  1
  O  O20  1  0.461070  0.204234  0.386799  1
  O  O21  1  0.872406  0.127594  0.615657  1
  O  O22  1  0.204234  0.461070  0.613201  1
  O  O23  1  0.962621  0.668415  0.888244  1
