# generated using pymatgen
data_Li7CuO4
_symmetry_space_group_name_H-M   'P 1'
_cell_length_a   6.68673824
_cell_length_b   6.68673824
_cell_length_c   4.73102952
_cell_angle_alpha   90.00000000
_cell_angle_beta   90.00000000
_cell_angle_gamma   90.00000000
_symmetry_Int_Tables_number   1
_chemical_formula_structural   Li7CuO4
_chemical_formula_sum   'Li14 Cu2 O8'
_cell_volume   211.53600740
_cell_formula_units_Z   2
loop_
 _symmetry_equiv_pos_site_id
 _symmetry_equiv_pos_as_xyz
  1  'x, y, z'
loop_
 _atom_site_type_symbol
 _atom_site_label
 _atom_site_symmetry_multiplicity
 _atom_site_fract_x
 _atom_site_fract_y
 _atom_site_fract_z
 _atom_site_occupancy
  Li  Li0  1  0.748669  0.251331  0.500000  1
  Li  Li1  1  0.748669  0.748669  0.500000  1
  Li  Li2  1  0.500000  0.000000  0.009793  1
  Li  Li3  1  0.500000  0.500000  0.500000  1
  Li  Li4  1  0.500000  0.000000  0.509793  1
  Li  Li5  1  0.251331  0.251331  0.500000  1
  Li  Li6  1  0.251331  0.748669  0.500000  1
  Li  Li7  1  0.248669  0.751331  0.000000  1
  Li  Li8  1  0.248669  0.248669  0.000000  1
  Li  Li9  1  0.000000  0.500000  0.990207  1
  Li  Li10  1  0.000000  0.000000  0.000000  1
  Li  Li11  1  0.000000  0.500000  0.490207  1
  Li  Li12  1  0.751331  0.751331  0.000000  1
  Li  Li13  1  0.751331  0.248669  0.000000  1
  Cu  Cu14  1  0.500000  0.500000  0.000000  1
  Cu  Cu15  1  0.000000  0.000000  0.500000  1
  O  O16  1  0.741446  0.000000  0.762291  1
  O  O17  1  0.500000  0.241446  0.262291  1
  O  O18  1  0.500000  0.758554  0.262291  1
  O  O19  1  0.258554  0.000000  0.762291  1
  O  O20  1  0.241446  0.500000  0.737709  1
  O  O21  1  0.000000  0.741446  0.237709  1
  O  O22  1  0.000000  0.258554  0.237709  1
  O  O23  1  0.758554  0.500000  0.737709  1
