# generated using pymatgen
data_NaLi2FePCO7
_symmetry_space_group_name_H-M   'P 1'
_cell_length_a   6.64051021
_cell_length_b   8.65227705
_cell_length_c   10.05757008
_cell_angle_alpha   91.76971799
_cell_angle_beta   90.06388115
_cell_angle_gamma   90.21632228
_symmetry_Int_Tables_number   1
_chemical_formula_structural   NaLi2FePCO7
_chemical_formula_sum   'Na4 Li8 Fe4 P4 C4 O28'
_cell_volume   577.58287714
_cell_formula_units_Z   4
loop_
 _symmetry_equiv_pos_site_id
 _symmetry_equiv_pos_as_xyz
  1  'x, y, z'
loop_
 _atom_site_type_symbol
 _atom_site_label
 _atom_site_symmetry_multiplicity
 _atom_site_fract_x
 _atom_site_fract_y
 _atom_site_fract_z
 _atom_site_occupancy
  Na  Na0  1  0.258913  0.085619  0.121144  1
  Na  Na1  1  0.250757  0.084574  0.622687  1
  Na  Na2  1  0.996367  0.253678  0.377001  1
  Na  Na3  1  0.501673  0.746070  0.623759  1
  Li  Li4  1  0.475712  0.276789  0.392093  1
  Li  Li5  1  0.020193  0.273790  0.888406  1
  Li  Li6  1  0.479462  0.275779  0.888823  1
  Li  Li7  1  0.516968  0.729539  0.112874  1
  Li  Li8  1  0.982841  0.727731  0.112508  1
  Li  Li9  1  0.979373  0.727242  0.610998  1
  Li  Li10  1  0.742934  0.905734  0.371269  1
  Li  Li11  1  0.761409  0.905366  0.876110  1
  Fe  Fe12  1  0.749658  0.351125  0.111027  1
  Fe  Fe13  1  0.743489  0.355719  0.615097  1
  Fe  Fe14  1  0.245555  0.647894  0.384435  1
  Fe  Fe15  1  0.249657  0.650501  0.888262  1
  P  P16  1  0.255910  0.417264  0.143779  1
  P  P17  1  0.241106  0.414414  0.648579  1
  P  P18  1  0.743990  0.592104  0.350419  1
  P  P19  1  0.755483  0.589200  0.855587  1
  C  C20  1  0.749479  0.039867  0.132171  1
  C  C21  1  0.758064  0.044939  0.637297  1
  C  C22  1  0.258287  0.946967  0.363591  1
  C  C23  1  0.249091  0.951749  0.866998  1
  O  O24  1  0.279733  0.095678  0.356938  1
  O  O25  1  0.246084  0.101803  0.861530  1
  O  O26  1  0.752166  0.079687  0.008851  1
  O  O27  1  0.753106  0.077788  0.511897  1
  O  O28  1  0.747845  0.148960  0.225695  1
  O  O29  1  0.737061  0.155648  0.727480  1
  O  O30  1  0.066771  0.323043  0.098952  1
  O  O31  1  0.436980  0.323747  0.086323  1
  O  O32  1  0.057286  0.313888  0.607762  1
  O  O33  1  0.428323  0.326460  0.593421  1
  O  O34  1  0.269245  0.425829  0.299798  1
  O  O35  1  0.728864  0.428030  0.408546  1
  O  O36  1  0.253621  0.426687  0.805492  1
  O  O37  1  0.752390  0.421240  0.907658  1
  O  O38  1  0.253392  0.585063  0.094679  1
  O  O39  1  0.755423  0.574984  0.194660  1
  O  O40  1  0.227762  0.579533  0.594556  1
  O  O41  1  0.768960  0.576749  0.700267  1
  O  O42  1  0.561929  0.695812  0.389285  1
  O  O43  1  0.929382  0.684469  0.404429  1
  O  O44  1  0.568122  0.685505  0.898742  1
  O  O45  1  0.934712  0.686222  0.911915  1
  O  O46  1  0.241257  0.859416  0.257277  1
  O  O47  1  0.248339  0.864326  0.759394  1
  O  O48  1  0.252107  0.881487  0.478646  1
  O  O49  1  0.252836  0.883646  0.980094  1
  O  O50  1  0.747796  0.896420  0.165543  1
  O  O51  1  0.782138  0.904226  0.675255  1
