# generated using pymatgen
data_Li4Ti3Nb2Co3O16
_symmetry_space_group_name_H-M   'P 1'
_cell_length_a   6.01879433
_cell_length_b   6.01879433
_cell_length_c   9.84726762
_cell_angle_alpha   89.76121176
_cell_angle_beta   90.23878824
_cell_angle_gamma   120.45546726
_symmetry_Int_Tables_number   1
_chemical_formula_structural   Li4Ti3Nb2Co3O16
_chemical_formula_sum   'Li4 Ti3 Nb2 Co3 O16'
_cell_volume   307.50259552
_cell_formula_units_Z   1
loop_
 _symmetry_equiv_pos_site_id
 _symmetry_equiv_pos_as_xyz
  1  'x, y, z'
loop_
 _atom_site_type_symbol
 _atom_site_label
 _atom_site_symmetry_multiplicity
 _atom_site_fract_x
 _atom_site_fract_y
 _atom_site_fract_z
 _atom_site_occupancy
  Li  Li0  1  0.667222  0.332778  0.902467  1
  Li  Li1  1  0.999927  0.000073  0.985708  1
  Li  Li2  1  0.002300  0.997700  0.495582  1
  Li  Li3  1  0.334653  0.665347  0.406333  1
  Ti  Ti4  1  0.345584  0.154653  0.220531  1
  Ti  Ti5  1  0.845347  0.654416  0.220531  1
  Ti  Ti6  1  0.178439  0.821561  0.732420  1
  Nb  Nb7  1  0.669363  0.330637  0.500401  1
  Nb  Nb8  1  0.351566  0.648434  0.987963  1
  Co  Co9  1  0.831361  0.168639  0.209270  1
  Co  Co10  1  0.169954  0.336462  0.708289  1
  Co  Co11  1  0.663538  0.830046  0.708289  1
  O  O12  1  0.339969  0.161428  0.589817  1
  O  O13  1  0.519877  0.480123  0.332366  1
  O  O14  1  0.653732  0.346268  0.106330  1
  O  O15  1  0.007179  0.992821  0.305487  1
  O  O16  1  0.006766  0.993234  0.797853  1
  O  O17  1  0.838572  0.660031  0.589817  1
  O  O18  1  0.503465  0.033803  0.338057  1
  O  O19  1  0.966197  0.496535  0.338057  1
  O  O20  1  0.165150  0.834850  0.102809  1
  O  O21  1  0.833373  0.166627  0.581884  1
  O  O22  1  0.032254  0.528604  0.847308  1
  O  O23  1  0.471396  0.967746  0.847308  1
  O  O24  1  0.321143  0.678857  0.608371  1
  O  O25  1  0.168543  0.331468  0.093365  1
  O  O26  1  0.482705  0.517295  0.854037  1
  O  O27  1  0.668532  0.831457  0.093365  1
