# generated using pymatgen
data_Li8Fe7(PO4)8
_symmetry_space_group_name_H-M   'P 1'
_cell_length_a   7.75840145
_cell_length_b   7.75840145
_cell_length_c   11.31403575
_cell_angle_alpha   75.05283682
_cell_angle_beta   104.94716318
_cell_angle_gamma   76.23384663
_symmetry_Int_Tables_number   1
_chemical_formula_structural   Li8Fe7(PO4)8
_chemical_formula_sum   'Li8 Fe7 P8 O32'
_cell_volume   600.94665241
_cell_formula_units_Z   1
loop_
 _symmetry_equiv_pos_site_id
 _symmetry_equiv_pos_as_xyz
  1  'x, y, z'
loop_
 _atom_site_type_symbol
 _atom_site_label
 _atom_site_symmetry_multiplicity
 _atom_site_fract_x
 _atom_site_fract_y
 _atom_site_fract_z
 _atom_site_occupancy
  Li  Li0  1  0.749090  0.491293  0.518981  1
  Li  Li1  1  0.508707  0.250910  0.518981  1
  Li  Li2  1  0.243852  0.001581  0.496709  1
  Li  Li3  1  0.998419  0.756148  0.496709  1
  Li  Li4  1  0.232227  0.004764  0.995491  1
  Li  Li5  1  0.995236  0.767773  0.995491  1
  Li  Li6  1  0.512901  0.251235  0.993542  1
  Li  Li7  1  0.748765  0.487099  0.993542  1
  Fe  Fe8  1  0.258830  0.741170  0.782231  1
  Fe  Fe9  1  0.729969  0.774402  0.719090  1
  Fe  Fe10  1  0.225598  0.270031  0.719090  1
  Fe  Fe11  1  0.277502  0.722498  0.279687  1
  Fe  Fe12  1  0.775428  0.224572  0.281693  1
  Fe  Fe13  1  0.247616  0.251114  0.223001  1
  Fe  Fe14  1  0.748886  0.752384  0.223001  1
  P  P15  1  0.034899  0.473449  0.901495  1
  P  P16  1  0.526551  0.965101  0.901495  1
  P  P17  1  0.887926  0.112074  0.598472  1
  P  P18  1  0.381775  0.618225  0.589761  1
  P  P19  1  0.117269  0.382800  0.406045  1
  P  P20  1  0.617200  0.882731  0.406045  1
  P  P21  1  0.467558  0.532442  0.094846  1
  P  P22  1  0.967119  0.032881  0.098672  1
  O  O23  1  0.460396  0.539604  0.954077  1
  O  O24  1  0.961436  0.038564  0.961946  1
  O  O25  1  0.685983  0.814627  0.889581  1
  O  O26  1  0.185373  0.314017  0.889581  1
  O  O27  1  0.827206  0.498794  0.824747  1
  O  O28  1  0.040224  0.678058  0.833999  1
  O  O29  1  0.501206  0.172794  0.824747  1
  O  O30  1  0.321942  0.959776  0.833999  1
  O  O31  1  0.253408  0.539581  0.665885  1
  O  O32  1  0.460419  0.746592  0.665885  1
  O  O33  1  0.969900  0.245067  0.663147  1
  O  O34  1  0.754933  0.030100  0.663147  1
  O  O35  1  0.532336  0.467664  0.578576  1
  O  O36  1  0.050053  0.949947  0.599772  1
  O  O37  1  0.250434  0.253841  0.549198  1
  O  O38  1  0.746159  0.749566  0.549198  1
  O  O39  1  0.753613  0.246387  0.459524  1
  O  O40  1  0.237454  0.762546  0.456460  1
  O  O41  1  0.455473  0.043502  0.404400  1
  O  O42  1  0.956498  0.544527  0.404400  1
  O  O43  1  0.547960  0.752136  0.334366  1
  O  O44  1  0.051504  0.244028  0.341088  1
  O  O45  1  0.247864  0.452040  0.334366  1
  O  O46  1  0.755972  0.948496  0.341088  1
  O  O47  1  0.170689  0.031877  0.173697  1
  O  O48  1  0.670565  0.533334  0.163514  1
  O  O49  1  0.466666  0.329435  0.163514  1
  O  O50  1  0.968123  0.829311  0.173697  1
  O  O51  1  0.308708  0.691292  0.098180  1
  O  O52  1  0.806314  0.193686  0.101062  1
  O  O53  1  0.547276  0.949430  0.043388  1
  O  O54  1  0.050570  0.452724  0.043388  1
