# generated using pymatgen
data_Li4NbFe5O12
_symmetry_space_group_name_H-M   'P 1'
_cell_length_a   5.27761523
_cell_length_b   5.27761523
_cell_length_c   10.49404067
_cell_angle_alpha   87.07919364
_cell_angle_beta   92.92080636
_cell_angle_gamma   59.90308036
_symmetry_Int_Tables_number   1
_chemical_formula_structural   Li4NbFe5O12
_chemical_formula_sum   'Li4 Nb1 Fe5 O12'
_cell_volume   251.56492874
_cell_formula_units_Z   1
loop_
 _symmetry_equiv_pos_site_id
 _symmetry_equiv_pos_as_xyz
  1  'x, y, z'
loop_
 _atom_site_type_symbol
 _atom_site_label
 _atom_site_symmetry_multiplicity
 _atom_site_fract_x
 _atom_site_fract_y
 _atom_site_fract_z
 _atom_site_occupancy
  Li  Li0  1  0.874968  0.463929  0.710598  1
  Li  Li1  1  0.463929  0.874968  0.289402  1
  Li  Li2  1  0.536071  0.125032  0.710598  1
  Li  Li3  1  0.125032  0.536071  0.289402  1
  Nb  Nb4  1  0.000000  0.000000  0.000000  1
  Fe  Fe5  1  0.836822  0.836822  0.500000  1
  Fe  Fe6  1  0.665296  0.665296  0.000000  1
  Fe  Fe7  1  0.500000  0.500000  0.500000  1
  Fe  Fe8  1  0.334704  0.334704  0.000000  1
  Fe  Fe9  1  0.163178  0.163178  0.500000  1
  O  O10  1  0.018034  0.650259  0.101489  1
  O  O11  1  0.650259  0.018034  0.898511  1
  O  O12  1  0.812657  0.535311  0.392874  1
  O  O13  1  0.535311  0.812657  0.607126  1
  O  O14  1  0.839339  0.160661  0.604271  1
  O  O15  1  0.689647  0.310353  0.096363  1
  O  O16  1  0.310353  0.689647  0.903637  1
  O  O17  1  0.160661  0.839339  0.395729  1
  O  O18  1  0.464689  0.187343  0.392874  1
  O  O19  1  0.187343  0.464689  0.607126  1
  O  O20  1  0.349741  0.981966  0.101489  1
  O  O21  1  0.981966  0.349741  0.898511  1
