# generated using pymatgen
data_Na5Fe2P2(CO7)2
_symmetry_space_group_name_H-M   'P 1'
_cell_length_a   5.22186226
_cell_length_b   6.63407518
_cell_length_c   8.98387901
_cell_angle_alpha   90.81929520
_cell_angle_beta   90.55098642
_cell_angle_gamma   90.28228230
_symmetry_Int_Tables_number   1
_chemical_formula_structural   Na5Fe2P2(CO7)2
_chemical_formula_sum   'Na5 Fe2 P2 C2 O14'
_cell_volume   311.17137609
_cell_formula_units_Z   1
loop_
 _symmetry_equiv_pos_site_id
 _symmetry_equiv_pos_as_xyz
  1  'x, y, z'
loop_
 _atom_site_type_symbol
 _atom_site_label
 _atom_site_symmetry_multiplicity
 _atom_site_fract_x
 _atom_site_fract_y
 _atom_site_fract_z
 _atom_site_occupancy
  Na  Na0  1  0.232746  0.765114  0.087286  1
  Na  Na1  1  0.753112  0.515835  0.265467  1
  Na  Na2  1  0.251035  0.502860  0.738842  1
  Na  Na3  1  0.252060  0.998775  0.739108  1
  Na  Na4  1  0.758257  0.240215  0.924128  1
  Fe  Fe5  1  0.212337  0.235949  0.346481  1
  Fe  Fe6  1  0.773238  0.750607  0.643789  1
  P  P7  1  0.298808  0.745904  0.417877  1
  P  P8  1  0.712979  0.250759  0.579913  1
  C  C9  1  0.268322  0.256419  0.063239  1
  C  C10  1  0.727403  0.746753  0.938476  1
  O  O11  1  0.707735  0.731060  0.079107  1
  O  O12  1  0.044233  0.253526  0.127199  1
  O  O13  1  0.466934  0.256870  0.151939  1
  O  O14  1  0.232001  0.936005  0.323717  1
  O  O15  1  0.217768  0.557998  0.319604  1
  O  O16  1  0.866971  0.256857  0.433298  1
  O  O17  1  0.589799  0.735419  0.448101  1
  O  O18  1  0.417896  0.250077  0.537171  1
  O  O19  1  0.157813  0.749615  0.567590  1
  O  O20  1  0.770226  0.434732  0.682734  1
  O  O21  1  0.773390  0.065680  0.675865  1
  O  O22  1  0.523930  0.755460  0.851724  1
  O  O23  1  0.951751  0.755354  0.873262  1
  O  O24  1  0.288836  0.254618  0.920604  1
