# generated using pymatgen
data_Cu2O3
_symmetry_space_group_name_H-M   'P 1'
_cell_length_a   7.75706734
_cell_length_b   3.59952599
_cell_length_c   10.41992691
_cell_angle_alpha   90.00000000
_cell_angle_beta   112.09654757
_cell_angle_gamma   90.00000000
_symmetry_Int_Tables_number   1
_chemical_formula_structural   Cu2O3
_chemical_formula_sum   'Cu8 O12'
_cell_volume   269.57338842
_cell_formula_units_Z   4
loop_
 _symmetry_equiv_pos_site_id
 _symmetry_equiv_pos_as_xyz
  1  'x, y, z'
loop_
 _atom_site_type_symbol
 _atom_site_label
 _atom_site_symmetry_multiplicity
 _atom_site_fract_x
 _atom_site_fract_y
 _atom_site_fract_z
 _atom_site_occupancy
  Cu  Cu0  1  0.515435  0.499734  0.372797  1
  Cu  Cu1  1  0.861584  0.250601  0.759030  1
  Cu  Cu2  1  0.484565  0.999734  0.127203  1
  Cu  Cu3  1  0.138416  0.750601  0.740970  1
  Cu  Cu4  1  0.861584  0.249399  0.259030  1
  Cu  Cu5  1  0.515435  0.000266  0.872797  1
  Cu  Cu6  1  0.138416  0.749399  0.240970  1
  Cu  Cu7  1  0.484565  0.500266  0.627203  1
  O  O8  1  0.633728  0.296144  0.545171  1
  O  O9  1  0.355374  0.695935  0.203288  1
  O  O10  1  0.644626  0.195935  0.296712  1
  O  O11  1  0.928919  0.753123  0.792426  1
  O  O12  1  0.071081  0.253123  0.707574  1
  O  O13  1  0.633728  0.203856  0.045171  1
  O  O14  1  0.366272  0.796144  0.954829  1
  O  O15  1  0.928919  0.746877  0.292426  1
  O  O16  1  0.071081  0.246877  0.207574  1
  O  O17  1  0.355374  0.804065  0.703288  1
  O  O18  1  0.644626  0.304065  0.796712  1
  O  O19  1  0.366272  0.703856  0.454829  1
