# generated using pymatgen
data_Li3Cr(CO3)3
_symmetry_space_group_name_H-M   'P 1'
_cell_length_a   6.01075569
_cell_length_b   6.01075569
_cell_length_c   9.48975634
_cell_angle_alpha   90.00000000
_cell_angle_beta   90.00000000
_cell_angle_gamma   107.74517337
_symmetry_Int_Tables_number   1
_chemical_formula_structural   Li3Cr(CO3)3
_chemical_formula_sum   'Li6 Cr2 C6 O18'
_cell_volume   326.54451622
_cell_formula_units_Z   2
loop_
 _symmetry_equiv_pos_site_id
 _symmetry_equiv_pos_as_xyz
  1  'x, y, z'
loop_
 _atom_site_type_symbol
 _atom_site_label
 _atom_site_symmetry_multiplicity
 _atom_site_fract_x
 _atom_site_fract_y
 _atom_site_fract_z
 _atom_site_occupancy
  Li  Li0  1  0.050648  0.050648  1.000000  1
  Li  Li1  1  0.364809  0.395003  0.250000  1
  Li  Li2  1  0.197627  0.827500  0.250000  1
  Li  Li3  1  0.050648  0.050648  0.500000  1
  Li  Li4  1  0.827500  0.197627  0.750000  1
  Li  Li5  1  0.395003  0.364809  0.750000  1
  Cr  Cr6  1  0.810287  0.281156  0.250000  1
  Cr  Cr7  1  0.281156  0.810287  0.750000  1
  C  C8  1  0.559129  0.125707  0.983607  1
  C  C9  1  0.702936  0.768859  0.250000  1
  C  C10  1  0.559129  0.125707  0.516393  1
  C  C11  1  0.125707  0.559129  0.483607  1
  C  C12  1  0.768859  0.702936  0.750000  1
  C  C13  1  0.125707  0.559129  0.016393  1
  O  O14  1  0.748473  0.097177  0.943850  1
  O  O15  1  0.532847  0.194510  0.112062  1
  O  O16  1  0.090264  0.377359  0.102748  1
  O  O17  1  0.778227  0.590983  0.250000  1
  O  O18  1  0.867790  0.974385  0.250000  1
  O  O19  1  0.486209  0.744319  0.250000  1
  O  O20  1  0.090264  0.377359  0.397252  1
  O  O21  1  0.532847  0.194510  0.387938  1
  O  O22  1  0.748473  0.097177  0.556150  1
  O  O23  1  0.097177  0.748473  0.443850  1
  O  O24  1  0.194510  0.532847  0.612062  1
  O  O25  1  0.377359  0.090264  0.602748  1
  O  O26  1  0.744319  0.486209  0.750000  1
  O  O27  1  0.590983  0.778227  0.750000  1
  O  O28  1  0.974385  0.867790  0.750000  1
  O  O29  1  0.377359  0.090264  0.897252  1
  O  O30  1  0.194510  0.532847  0.887938  1
  O  O31  1  0.097177  0.748473  0.056150  1
