# generated using pymatgen
data_Li4Ti2Cu3Sb3O16
_symmetry_space_group_name_H-M   'P 1'
_cell_length_a   6.18106381
_cell_length_b   6.18106381
_cell_length_c   9.83768196
_cell_angle_alpha   86.79235505
_cell_angle_beta   93.20764495
_cell_angle_gamma   121.33320027
_symmetry_Int_Tables_number   1
_chemical_formula_structural   Li4Ti2Cu3Sb3O16
_chemical_formula_sum   'Li4 Ti2 Cu3 Sb3 O16'
_cell_volume   320.37665130
_cell_formula_units_Z   1
loop_
 _symmetry_equiv_pos_site_id
 _symmetry_equiv_pos_as_xyz
  1  'x, y, z'
loop_
 _atom_site_type_symbol
 _atom_site_label
 _atom_site_symmetry_multiplicity
 _atom_site_fract_x
 _atom_site_fract_y
 _atom_site_fract_z
 _atom_site_occupancy
  Li  Li0  1  0.675833  0.324167  0.094854  1
  Li  Li1  1  0.008496  0.991504  0.998643  1
  Li  Li2  1  0.018251  0.981749  0.521705  1
  Li  Li3  1  0.331476  0.668524  0.607518  1
  Ti  Ti4  1  0.637939  0.362061  0.534023  1
  Ti  Ti5  1  0.321083  0.678917  0.995136  1
  Cu  Cu6  1  0.822437  0.665001  0.792914  1
  Cu  Cu7  1  0.334999  0.177563  0.792914  1
  Cu  Cu8  1  0.170756  0.829244  0.288273  1
  Sb  Sb9  1  0.825278  0.174722  0.781661  1
  Sb  Sb10  1  0.665188  0.830594  0.283717  1
  Sb  Sb11  1  0.169406  0.334812  0.283717  1
  O  O12  1  0.813258  0.670698  0.409611  1
  O  O13  1  0.514304  0.485696  0.646522  1
  O  O14  1  0.669049  0.330951  0.884905  1
  O  O15  1  0.994530  0.005470  0.707447  1
  O  O16  1  0.001704  0.998296  0.187388  1
  O  O17  1  0.329302  0.186742  0.409611  1
  O  O18  1  0.962301  0.463165  0.641586  1
  O  O19  1  0.536835  0.037699  0.641586  1
  O  O20  1  0.169170  0.830830  0.917418  1
  O  O21  1  0.849900  0.150100  0.391972  1
  O  O22  1  0.503153  0.955670  0.151146  1
  O  O23  1  0.044330  0.496847  0.151146  1
  O  O24  1  0.339779  0.660221  0.392215  1
  O  O25  1  0.653213  0.855260  0.908157  1
  O  O26  1  0.489046  0.510954  0.168162  1
  O  O27  1  0.144740  0.346787  0.908157  1
