# generated using pymatgen
data_Ti17(NO4)6
_symmetry_space_group_name_H-M   'P 1'
_cell_length_a   9.66252229
_cell_length_b   10.02793953
_cell_length_c   11.48828208
_cell_angle_alpha   90.00000000
_cell_angle_beta   90.00000000
_cell_angle_gamma   90.00000000
_symmetry_Int_Tables_number   1
_chemical_formula_structural   Ti17(NO4)6
_chemical_formula_sum   'Ti34 N12 O48'
_cell_volume   1113.15926609
_cell_formula_units_Z   2
loop_
 _symmetry_equiv_pos_site_id
 _symmetry_equiv_pos_as_xyz
  1  'x, y, z'
loop_
 _atom_site_type_symbol
 _atom_site_label
 _atom_site_symmetry_multiplicity
 _atom_site_fract_x
 _atom_site_fract_y
 _atom_site_fract_z
 _atom_site_occupancy
  Ti  Ti0  1  0.114050  0.179512  0.000000  1
  Ti  Ti1  1  0.386904  0.692618  0.000000  1
  Ti  Ti2  1  0.114050  0.820488  0.000000  1
  Ti  Ti3  1  0.051820  0.500000  0.000000  1
  Ti  Ti4  1  0.386904  0.307382  0.000000  1
  Ti  Ti5  1  0.887957  0.677849  0.166778  1
  Ti  Ti6  1  0.606435  0.173203  0.162068  1
  Ti  Ti7  1  0.887957  0.322151  0.166778  1
  Ti  Ti8  1  0.945673  0.000000  0.165157  1
  Ti  Ti9  1  0.606435  0.826797  0.162068  1
  Ti  Ti10  1  0.551470  0.500000  0.162076  1
  Ti  Ti11  1  0.054327  0.500000  0.334843  1
  Ti  Ti12  1  0.112043  0.822151  0.333222  1
  Ti  Ti13  1  0.393565  0.326797  0.337932  1
  Ti  Ti14  1  0.393565  0.673203  0.337932  1
  Ti  Ti15  1  0.112043  0.177849  0.333222  1
  Ti  Ti16  1  0.448530  0.000000  0.337924  1
  Ti  Ti17  1  0.885950  0.320488  0.500000  1
  Ti  Ti18  1  0.948180  0.000000  0.500000  1
  Ti  Ti19  1  0.613096  0.807382  0.500000  1
  Ti  Ti20  1  0.613096  0.192618  0.500000  1
  Ti  Ti21  1  0.885950  0.679512  0.500000  1
  Ti  Ti22  1  0.393565  0.326797  0.662068  1
  Ti  Ti23  1  0.112043  0.822151  0.666778  1
  Ti  Ti24  1  0.112043  0.177849  0.666778  1
  Ti  Ti25  1  0.448530  0.000000  0.662076  1
  Ti  Ti26  1  0.054327  0.500000  0.665157  1
  Ti  Ti27  1  0.393565  0.673203  0.662068  1
  Ti  Ti28  1  0.887957  0.322151  0.833222  1
  Ti  Ti29  1  0.551470  0.500000  0.837924  1
  Ti  Ti30  1  0.606435  0.173203  0.837932  1
  Ti  Ti31  1  0.887957  0.677849  0.833222  1
  Ti  Ti32  1  0.945673  0.000000  0.834843  1
  Ti  Ti33  1  0.606435  0.826797  0.837932  1
  N  N34  1  0.016560  0.000000  0.000000  1
  N  N35  1  0.477088  0.500000  0.000000  1
  N  N36  1  0.981152  0.500000  0.167960  1
  N  N37  1  0.529886  0.000000  0.181985  1
  N  N38  1  0.018848  0.000000  0.332040  1
  N  N39  1  0.470114  0.500000  0.318015  1
  N  N40  1  0.983440  0.500000  0.500000  1
  N  N41  1  0.522912  0.000000  0.500000  1
  N  N42  1  0.018848  0.000000  0.667960  1
  N  N43  1  0.470114  0.500000  0.681985  1
  N  N44  1  0.529886  0.000000  0.818015  1
  N  N45  1  0.981152  0.500000  0.832040  1
  O  O46  1  0.933173  0.316130  0.000000  1
  O  O47  1  0.293554  0.139963  0.000000  1
  O  O48  1  0.199653  0.628439  0.000000  1
  O  O49  1  0.574124  0.802498  0.000000  1
  O  O50  1  0.293554  0.860037  0.000000  1
  O  O51  1  0.933173  0.683870  0.000000  1
  O  O52  1  0.199653  0.371561  0.000000  1
  O  O53  1  0.574124  0.197502  0.000000  1
  O  O54  1  0.798312  0.868760  0.166264  1
  O  O55  1  0.798312  0.131240  0.166264  1
  O  O56  1  0.440609  0.311554  0.164869  1
  O  O57  1  0.061614  0.186559  0.166344  1
  O  O58  1  0.061614  0.813441  0.166344  1
  O  O59  1  0.440609  0.688446  0.164869  1
  O  O60  1  0.703258  0.630284  0.168846  1
  O  O61  1  0.703258  0.369716  0.168846  1
  O  O62  1  0.938386  0.313441  0.333656  1
  O  O63  1  0.938386  0.686559  0.333656  1
  O  O64  1  0.201688  0.631240  0.333736  1
  O  O65  1  0.296742  0.869716  0.331154  1
  O  O66  1  0.201688  0.368760  0.333736  1
  O  O67  1  0.559391  0.811554  0.335131  1
  O  O68  1  0.296742  0.130284  0.331154  1
  O  O69  1  0.559391  0.188446  0.335131  1
  O  O70  1  0.066827  0.183870  0.500000  1
  O  O71  1  0.066827  0.816130  0.500000  1
  O  O72  1  0.425876  0.302498  0.500000  1
  O  O73  1  0.706446  0.360037  0.500000  1
  O  O74  1  0.800347  0.871561  0.500000  1
  O  O75  1  0.800347  0.128439  0.500000  1
  O  O76  1  0.425876  0.697502  0.500000  1
  O  O77  1  0.706446  0.639963  0.500000  1
  O  O78  1  0.938386  0.313441  0.666344  1
  O  O79  1  0.201688  0.368760  0.666264  1
  O  O80  1  0.296742  0.130284  0.668846  1
  O  O81  1  0.296742  0.869716  0.668846  1
  O  O82  1  0.559391  0.188446  0.664869  1
  O  O83  1  0.559391  0.811554  0.664869  1
  O  O84  1  0.938386  0.686559  0.666344  1
  O  O85  1  0.201688  0.631240  0.666264  1
  O  O86  1  0.440609  0.311554  0.835131  1
  O  O87  1  0.440609  0.688446  0.835131  1
  O  O88  1  0.703258  0.369716  0.831154  1
  O  O89  1  0.703258  0.630284  0.831154  1
  O  O90  1  0.798312  0.868760  0.833736  1
  O  O91  1  0.798312  0.131240  0.833736  1
  O  O92  1  0.061614  0.186559  0.833656  1
  O  O93  1  0.061614  0.813441  0.833656  1
