# generated using pymatgen
data_K5Li3Ti8(AsO5)8
_symmetry_space_group_name_H-M   'P 1'
_cell_length_a   6.68700229
_cell_length_b   10.89391943
_cell_length_c   13.19611499
_cell_angle_alpha   89.97530411
_cell_angle_beta   89.94866785
_cell_angle_gamma   89.62594799
_symmetry_Int_Tables_number   1
_chemical_formula_structural   K5Li3Ti8(AsO5)8
_chemical_formula_sum   'K5 Li3 Ti8 As8 O40'
_cell_volume   961.28519484
_cell_formula_units_Z   1
loop_
 _symmetry_equiv_pos_site_id
 _symmetry_equiv_pos_as_xyz
  1  'x, y, z'
loop_
 _atom_site_type_symbol
 _atom_site_label
 _atom_site_symmetry_multiplicity
 _atom_site_fract_x
 _atom_site_fract_y
 _atom_site_fract_z
 _atom_site_occupancy
  K  K0  1  0.310843  0.921708  0.105014  1
  K  K1  1  0.712800  0.182438  0.109356  1
  K  K2  1  0.199152  0.680721  0.392700  1
  K  K3  1  0.800923  0.180812  0.608589  1
  K  K4  1  0.298815  0.676649  0.885977  1
  Li  Li5  1  0.561564  0.459109  0.396416  1
  Li  Li6  1  0.437572  0.959663  0.603347  1
  Li  Li7  1  0.937100  0.459745  0.896412  1
  Ti  Ti8  1  0.985145  0.488441  0.131280  1
  Ti  Ti9  1  0.731209  0.743147  0.242950  1
  Ti  Ti10  1  0.223205  0.242628  0.258119  1
  Ti  Ti11  1  0.486570  0.988504  0.367997  1
  Ti  Ti12  1  0.515016  0.489352  0.632990  1
  Ti  Ti13  1  0.777646  0.744393  0.742909  1
  Ti  Ti14  1  0.275683  0.243703  0.757933  1
  Ti  Ti15  1  0.012485  0.990405  0.870277  1
  As  As16  1  0.170008  0.231760  0.003265  1
  As  As17  1  0.484550  0.484824  0.183173  1
  As  As18  1  0.983993  0.984927  0.316863  1
  As  As19  1  0.668525  0.730637  0.496632  1
  As  As20  1  0.330971  0.231928  0.504717  1
  As  As21  1  0.015151  0.484567  0.682454  1
  As  As22  1  0.515439  0.984355  0.816874  1
  As  As23  1  0.831069  0.732607  0.994684  1
  O  O24  1  0.956364  0.592625  0.999577  1
  O  O25  1  0.000566  0.350145  0.007526  1
  O  O26  1  0.665748  0.751036  0.095079  1
  O  O27  1  0.284522  0.515707  0.106571  1
  O  O28  1  0.315505  0.221614  0.110754  1
  O  O29  1  0.689721  0.444703  0.112721  1
  O  O30  1  0.935476  0.613766  0.213135  1
  O  O31  1  0.040778  0.359327  0.220313  1
  O  O32  1  0.944639  0.866356  0.231640  1
  O  O33  1  0.026362  0.109875  0.239345  1
  O  O34  1  0.530119  0.605724  0.265338  1
  O  O35  1  0.442859  0.370406  0.273087  1
  O  O36  1  0.538219  0.859198  0.276971  1
  O  O37  1  0.435546  0.110780  0.283858  1
  O  O38  1  0.190814  0.945019  0.386408  1
  O  O39  1  0.812788  0.723274  0.389160  1
  O  O40  1  0.783118  0.014068  0.393680  1
  O  O41  1  0.169586  0.248995  0.404068  1
  O  O42  1  0.498407  0.848291  0.492831  1
  O  O43  1  0.458682  0.093194  0.500562  1
  O  O44  1  0.540277  0.592740  0.499798  1
  O  O45  1  0.501950  0.348303  0.507211  1
  O  O46  1  0.831846  0.747596  0.596247  1
  O  O47  1  0.215014  0.514752  0.605925  1
  O  O48  1  0.185493  0.225239  0.611726  1
  O  O49  1  0.810549  0.444565  0.612286  1
  O  O50  1  0.563099  0.612878  0.713896  1
  O  O51  1  0.459289  0.358329  0.721007  1
  O  O52  1  0.555805  0.870795  0.726414  1
  O  O53  1  0.470059  0.104752  0.734145  1
  O  O54  1  0.970103  0.604830  0.765602  1
  O  O55  1  0.056038  0.370751  0.773147  1
  O  O56  1  0.958109  0.859059  0.779451  1
  O  O57  1  0.065488  0.112032  0.786872  1
  O  O58  1  0.313474  0.944043  0.889571  1
  O  O59  1  0.683174  0.724693  0.888090  1
  O  O60  1  0.713072  0.014380  0.895030  1
  O  O61  1  0.333609  0.249719  0.903191  1
  O  O62  1  0.005863  0.845161  0.988988  1
  O  O63  1  0.041837  0.095181  0.997749  1
