# generated using pymatgen
data_Li4Co3(NiO4)3
_symmetry_space_group_name_H-M   'P 1'
_cell_length_a   5.66809850
_cell_length_b   5.85347249
_cell_length_c   6.55807471
_cell_angle_alpha   103.61200162
_cell_angle_beta   102.73300924
_cell_angle_gamma   91.52282459
_symmetry_Int_Tables_number   1
_chemical_formula_structural   Li4Co3(NiO4)3
_chemical_formula_sum   'Li4 Co3 Ni3 O12'
_cell_volume   205.56459604
_cell_formula_units_Z   1
loop_
 _symmetry_equiv_pos_site_id
 _symmetry_equiv_pos_as_xyz
  1  'x, y, z'
loop_
 _atom_site_type_symbol
 _atom_site_label
 _atom_site_symmetry_multiplicity
 _atom_site_fract_x
 _atom_site_fract_y
 _atom_site_fract_z
 _atom_site_occupancy
  Li  Li0  1  0.315264  0.344425  0.842052  1
  Li  Li1  1  0.684736  0.655575  0.157948  1
  Li  Li2  1  0.000000  0.000000  0.500000  1
  Li  Li3  1  0.500000  0.000000  0.500000  1
  Co  Co4  1  0.332391  0.831993  0.834935  1
  Co  Co5  1  0.000000  0.500000  0.500000  1
  Co  Co6  1  0.667609  0.168007  0.165065  1
  Ni  Ni7  1  0.833865  0.831448  0.834376  1
  Ni  Ni8  1  0.166135  0.168552  0.165624  1
  Ni  Ni9  1  0.500000  0.500000  0.500000  1
  O  O10  1  0.916799  0.397026  0.195627  1
  O  O11  1  0.253219  0.743075  0.530198  1
  O  O12  1  0.093255  0.048156  0.838502  1
  O  O13  1  0.429464  0.384174  0.171358  1
  O  O14  1  0.750761  0.719681  0.501550  1
  O  O15  1  0.083201  0.602974  0.804373  1
  O  O16  1  0.577647  0.061422  0.852244  1
  O  O17  1  0.906745  0.951844  0.161498  1
  O  O18  1  0.249239  0.280319  0.498450  1
  O  O19  1  0.570536  0.615826  0.828642  1
  O  O20  1  0.422353  0.938578  0.147756  1
  O  O21  1  0.746781  0.256925  0.469802  1
