# generated using pymatgen
data_K4Na2FeH3F12
_symmetry_space_group_name_H-M   'P 1'
_cell_length_a   5.88180094
_cell_length_b   6.13850625
_cell_length_c   8.54935371
_cell_angle_alpha   90.00000000
_cell_angle_beta   94.00431887
_cell_angle_gamma   90.00000000
_symmetry_Int_Tables_number   1
_chemical_formula_structural   K4Na2FeH3F12
_chemical_formula_sum   'K4 Na2 Fe1 H3 F12'
_cell_volume   307.92490076
_cell_formula_units_Z   1
loop_
 _symmetry_equiv_pos_site_id
 _symmetry_equiv_pos_as_xyz
  1  'x, y, z'
loop_
 _atom_site_type_symbol
 _atom_site_label
 _atom_site_symmetry_multiplicity
 _atom_site_fract_x
 _atom_site_fract_y
 _atom_site_fract_z
 _atom_site_occupancy
  K  K0  1  0.951903  0.502227  0.239622  1
  K  K1  1  0.507292  0.993633  0.736937  1
  K  K2  1  0.048097  0.502227  0.760378  1
  K  K3  1  0.492708  0.993633  0.263063  1
  Na  Na4  1  0.000000  0.007798  0.000000  1
  Na  Na5  1  0.500000  0.491644  0.500000  1
  Fe  Fe6  1  0.000000  0.997139  0.500000  1
  H  H7  1  0.629207  0.379875  0.873098  1
  H  H8  1  0.370793  0.379875  0.126902  1
  H  H9  1  0.500000  0.753012  0.000000  1
  F  F10  1  0.237457  0.767244  0.506094  1
  F  F11  1  0.989922  0.993047  0.269010  1
  F  F12  1  0.010078  0.993047  0.730990  1
  F  F13  1  0.234307  0.223504  0.506918  1
  F  F14  1  0.256539  0.285516  0.038112  1
  F  F15  1  0.743461  0.285516  0.961888  1
  F  F16  1  0.528109  0.460364  0.766520  1
  F  F17  1  0.471891  0.460364  0.233480  1
  F  F18  1  0.304103  0.769793  0.991108  1
  F  F19  1  0.695897  0.769793  0.008892  1
  F  F20  1  0.762543  0.767244  0.493906  1
  F  F21  1  0.765693  0.223504  0.493082  1
