# generated using pymatgen
data_BaYb2O4
_symmetry_space_group_name_H-M   'P 1'
_cell_length_a   7.15883972
_cell_length_b   7.15883972
_cell_length_c   7.15883972
_cell_angle_alpha   121.42742139
_cell_angle_beta   121.42742139
_cell_angle_gamma   87.54491806
_symmetry_Int_Tables_number   1
_chemical_formula_structural   BaYb2O4
_chemical_formula_sum   'Ba2 Yb4 O8'
_cell_volume   253.57547423
_cell_formula_units_Z   2
loop_
 _symmetry_equiv_pos_site_id
 _symmetry_equiv_pos_as_xyz
  1  'x, y, z'
loop_
 _atom_site_type_symbol
 _atom_site_label
 _atom_site_symmetry_multiplicity
 _atom_site_fract_x
 _atom_site_fract_y
 _atom_site_fract_z
 _atom_site_occupancy
  Ba  Ba0  1  0.000000  0.000000  0.000000  1
  Ba  Ba1  1  0.750000  0.250000  0.500000  1
  Yb  Yb2  1  0.375000  0.625000  0.250000  1
  Yb  Yb3  1  0.875000  0.625000  0.250000  1
  Yb  Yb4  1  0.375000  0.625000  0.750000  1
  Yb  Yb5  1  0.375000  0.125000  0.750000  1
  O  O6  1  0.183581  0.400514  0.783067  1
  O  O7  1  0.150514  0.867447  0.716933  1
  O  O8  1  0.150514  0.433581  0.283067  1
  O  O9  1  0.132553  0.849486  0.283067  1
  O  O10  1  0.617447  0.400514  0.216933  1
  O  O11  1  0.599486  0.816419  0.216933  1
  O  O12  1  0.599486  0.382553  0.783067  1
  O  O13  1  0.566419  0.849486  0.716933  1
