# generated using pymatgen
data_Mn9(FeO6)4
_symmetry_space_group_name_H-M   'P 1'
_cell_length_a   13.14380833
_cell_length_b   13.14380833
_cell_length_c   5.89657587
_cell_angle_alpha   77.28685461
_cell_angle_beta   102.71314539
_cell_angle_gamma   154.01306632
_symmetry_Int_Tables_number   1
_chemical_formula_structural   Mn9(FeO6)4
_chemical_formula_sum   'Mn9 Fe4 O24'
_cell_volume   434.82258938
_cell_formula_units_Z   1
loop_
 _symmetry_equiv_pos_site_id
 _symmetry_equiv_pos_as_xyz
  1  'x, y, z'
loop_
 _atom_site_type_symbol
 _atom_site_label
 _atom_site_symmetry_multiplicity
 _atom_site_fract_x
 _atom_site_fract_y
 _atom_site_fract_z
 _atom_site_occupancy
  Mn  Mn0  1  0.665631  0.334369  0.664657  1
  Mn  Mn1  1  0.665568  0.334432  0.166454  1
  Mn  Mn2  1  0.331575  0.163227  0.834290  1
  Mn  Mn3  1  0.836773  0.668425  0.834290  1
  Mn  Mn4  1  0.000854  0.999146  0.998821  1
  Mn  Mn5  1  0.000998  0.999002  0.500591  1
  Mn  Mn6  1  0.168542  0.330818  0.169584  1
  Mn  Mn7  1  0.669182  0.831458  0.169584  1
  Mn  Mn8  1  0.334465  0.665535  0.345329  1
  Fe  Fe9  1  0.487995  0.987252  0.500699  1
  Fe  Fe10  1  0.012748  0.512005  0.500699  1
  Fe  Fe11  1  0.334385  0.665615  0.823456  1
  Fe  Fe12  1  0.791959  0.208041  0.045079  1
  O  O13  1  0.746443  0.253557  0.738676  1
  O  O14  1  0.745618  0.254382  0.254384  1
  O  O15  1  0.458750  0.117209  0.418852  1
  O  O16  1  0.882791  0.541250  0.418852  1
  O  O17  1  0.441003  0.118535  0.910454  1
  O  O18  1  0.881465  0.558997  0.910454  1
  O  O19  1  0.589008  0.410992  0.621853  1
  O  O20  1  0.588945  0.411055  0.056285  1
  O  O21  1  0.078454  0.921546  0.045433  1
  O  O22  1  0.078735  0.921265  0.612106  1
  O  O23  1  0.789811  0.777226  0.755030  1
  O  O24  1  0.222774  0.210189  0.755030  1
  O  O25  1  0.212435  0.221295  0.245465  1
  O  O26  1  0.778705  0.787565  0.245465  1
  O  O27  1  0.923407  0.076593  0.956049  1
  O  O28  1  0.923716  0.076284  0.389893  1
  O  O29  1  0.412173  0.587827  0.375264  1
  O  O30  1  0.414278  0.585722  0.957224  1
  O  O31  1  0.575565  0.898630  0.095972  1
  O  O32  1  0.101370  0.424435  0.095972  1
  O  O33  1  0.108009  0.443316  0.566446  1
  O  O34  1  0.556684  0.891991  0.566446  1
  O  O35  1  0.255069  0.744931  0.735203  1
  O  O36  1  0.258962  0.741038  0.272375  1
