# generated using pymatgen
data_Li2VO3F
_symmetry_space_group_name_H-M   'P 1'
_cell_length_a   5.05047942
_cell_length_b   5.21350931
_cell_length_c   5.79558103
_cell_angle_alpha   91.05051467
_cell_angle_beta   91.29623440
_cell_angle_gamma   111.69033995
_symmetry_Int_Tables_number   1
_chemical_formula_structural   Li2VO3F
_chemical_formula_sum   'Li4 V2 O6 F2'
_cell_volume   141.70201311
_cell_formula_units_Z   2
loop_
 _symmetry_equiv_pos_site_id
 _symmetry_equiv_pos_as_xyz
  1  'x, y, z'
loop_
 _atom_site_type_symbol
 _atom_site_label
 _atom_site_symmetry_multiplicity
 _atom_site_fract_x
 _atom_site_fract_y
 _atom_site_fract_z
 _atom_site_occupancy
  Li  Li0  1  0.806282  0.481782  0.874634  1
  Li  Li1  1  0.756633  0.483750  0.374996  1
  Li  Li2  1  0.269375  0.519875  0.606297  1
  Li  Li3  1  0.235505  0.005174  0.378568  1
  V  V4  1  0.700469  0.931645  0.135445  1
  V  V5  1  0.269719  0.067621  0.872639  1
  O  O6  1  0.972717  0.787649  0.110825  1
  O  O7  1  0.517719  0.218766  0.114523  1
  O  O8  1  0.469698  0.250351  0.648520  1
  O  O9  1  0.514223  0.754648  0.358288  1
  O  O10  1  0.474213  0.786469  0.894504  1
  O  O11  1  0.023177  0.223294  0.888119  1
  F  F12  1  0.974375  0.237489  0.357900  1
  F  F13  1  0.031173  0.746851  0.637960  1
