# generated using pymatgen
data_HoBrO
_symmetry_space_group_name_H-M   'P 1'
_cell_length_a   3.83603101
_cell_length_b   4.16410772
_cell_length_c   9.17531942
_cell_angle_alpha   90.00000000
_cell_angle_beta   90.00000000
_cell_angle_gamma   90.00000000
_symmetry_Int_Tables_number   1
_chemical_formula_structural   HoBrO
_chemical_formula_sum   'Ho2 Br2 O2'
_cell_volume   146.56330750
_cell_formula_units_Z   2
loop_
 _symmetry_equiv_pos_site_id
 _symmetry_equiv_pos_as_xyz
  1  'x, y, z'
loop_
 _atom_site_type_symbol
 _atom_site_label
 _atom_site_symmetry_multiplicity
 _atom_site_fract_x
 _atom_site_fract_y
 _atom_site_fract_z
 _atom_site_occupancy
  Ho  Ho0  1  0.500000  0.500000  0.886475  1
  Ho  Ho1  1  0.000000  0.000000  0.113525  1
  Br  Br2  1  0.000000  0.500000  0.659290  1
  Br  Br3  1  0.500000  0.000000  0.340710  1
  O  O4  1  0.000000  0.500000  0.024152  1
  O  O5  1  0.500000  0.000000  0.975848  1
