# generated using pymatgen
data_Li2Ti3Co(PO4)6
_symmetry_space_group_name_H-M   'P 1'
_cell_length_a   8.64736746
_cell_length_b   8.64736746
_cell_length_c   8.64736746
_cell_angle_alpha   59.35002758
_cell_angle_beta   59.35002758
_cell_angle_gamma   59.35002758
_symmetry_Int_Tables_number   1
_chemical_formula_structural   Li2Ti3Co(PO4)6
_chemical_formula_sum   'Li2 Ti3 Co1 P6 O24'
_cell_volume   450.46715833
_cell_formula_units_Z   1
loop_
 _symmetry_equiv_pos_site_id
 _symmetry_equiv_pos_as_xyz
  1  'x, y, z'
loop_
 _atom_site_type_symbol
 _atom_site_label
 _atom_site_symmetry_multiplicity
 _atom_site_fract_x
 _atom_site_fract_y
 _atom_site_fract_z
 _atom_site_occupancy
  Li  Li0  1  0.010169  0.010169  0.010169  1
  Li  Li1  1  0.500105  0.500105  0.500105  1
  Ti  Ti2  1  0.643684  0.643684  0.643684  1
  Ti  Ti3  1  0.858761  0.858761  0.858761  1
  Ti  Ti4  1  0.357284  0.357284  0.357284  1
  Co  Co5  1  0.142646  0.142646  0.142646  1
  P  P6  1  0.251008  0.530332  0.962168  1
  P  P7  1  0.962168  0.251008  0.530332  1
  P  P8  1  0.530332  0.962168  0.251008  1
  P  P9  1  0.455178  0.041025  0.758035  1
  P  P10  1  0.041025  0.758035  0.455178  1
  P  P11  1  0.758035  0.455178  0.041025  1
  O  O12  1  0.128610  0.297566  0.498257  1
  O  O13  1  0.498257  0.128610  0.297566  1
  O  O14  1  0.297566  0.498257  0.128610  1
  O  O15  1  0.081405  0.720838  0.943267  1
  O  O16  1  0.420311  0.557326  0.772117  1
  O  O17  1  0.214841  0.362576  0.986368  1
  O  O18  1  0.943267  0.081405  0.720838  1
  O  O19  1  0.772117  0.420311  0.557326  1
  O  O20  1  0.557326  0.772117  0.420311  1
  O  O21  1  0.625114  0.003046  0.801448  1
  O  O22  1  0.265790  0.053888  0.928333  1
  O  O23  1  0.003046  0.801448  0.625114  1
  O  O24  1  0.986368  0.214841  0.362576  1
  O  O25  1  0.720838  0.943267  0.081405  1
  O  O26  1  0.362576  0.986368  0.214841  1
  O  O27  1  0.435060  0.230132  0.587566  1
  O  O28  1  0.230132  0.587566  0.435060  1
  O  O29  1  0.053888  0.928333  0.265790  1
  O  O30  1  0.801448  0.625114  0.003046  1
  O  O31  1  0.587566  0.435060  0.230132  1
  O  O32  1  0.928333  0.265790  0.053888  1
  O  O33  1  0.708807  0.494224  0.872719  1
  O  O34  1  0.494224  0.872719  0.708807  1
  O  O35  1  0.872719  0.708807  0.494224  1
