# generated using pymatgen
data_PrAl22O34
_symmetry_space_group_name_H-M   'P 1'
_cell_length_a   9.78334162
_cell_length_b   5.65509123
_cell_length_c   11.87346503
_cell_angle_alpha   90.00000000
_cell_angle_beta   105.91715634
_cell_angle_gamma   90.00000000
_symmetry_Int_Tables_number   1
_chemical_formula_structural   PrAl22O34
_chemical_formula_sum   'Pr1 Al22 O34'
_cell_volume   631.72129603
_cell_formula_units_Z   1
loop_
 _symmetry_equiv_pos_site_id
 _symmetry_equiv_pos_as_xyz
  1  'x, y, z'
loop_
 _atom_site_type_symbol
 _atom_site_label
 _atom_site_symmetry_multiplicity
 _atom_site_fract_x
 _atom_site_fract_y
 _atom_site_fract_z
 _atom_site_occupancy
  Pr  Pr0  1  0.693297  0.000000  0.520801  1
  Al  Al1  1  0.095828  0.500000  0.783335  1
  Al  Al2  1  0.150540  0.000000  0.951173  1
  Al  Al3  1  0.048873  0.000000  0.646627  1
  Al  Al4  1  0.344030  0.251203  0.785401  1
  Al  Al5  1  0.155579  0.247317  0.216138  1
  Al  Al6  1  0.155579  0.752683  0.216138  1
  Al  Al7  1  0.350616  0.500000  0.050742  1
  Al  Al8  1  0.649866  0.500000  0.951540  1
  Al  Al9  1  0.450664  0.500000  0.350325  1
  Al  Al10  1  0.548805  0.500000  0.647394  1
  Al  Al11  1  0.344030  0.748797  0.785401  1
  Al  Al12  1  0.401775  0.000000  0.212784  1
  Al  Al13  1  0.596897  0.000000  0.791173  1
  Al  Al14  1  0.655214  0.253308  0.211629  1
  Al  Al15  1  0.499733  0.000000  0.999991  1
  Al  Al16  1  0.847782  0.250484  0.791800  1
  Al  Al17  1  0.847782  0.749516  0.791800  1
  Al  Al18  1  0.904281  0.500000  0.215660  1
  Al  Al19  1  0.655214  0.746692  0.211629  1
  Al  Al20  1  0.948828  0.000000  0.351727  1
  Al  Al21  1  0.850409  0.000000  0.052563  1
  Al  Al22  1  0.001625  0.500000  0.001805  1
  O  O23  1  0.043506  0.262315  0.900189  1
  O  O24  1  0.043506  0.737685  0.900189  1
  O  O25  1  0.296670  0.500000  0.889146  1
  O  O26  1  0.094338  0.500000  0.282306  1
  O  O27  1  0.153233  0.248725  0.709945  1
  O  O28  1  0.190345  0.500000  0.098280  1
  O  O29  1  0.405673  0.500000  0.712091  1
  O  O30  1  0.153233  0.751275  0.709945  1
  O  O31  1  0.096794  0.000000  0.291665  1
  O  O32  1  0.310575  0.000000  0.901629  1
  O  O33  1  0.526907  0.500000  0.499064  1
  O  O34  1  0.547996  0.234195  0.900876  1
  O  O35  1  0.346636  0.247493  0.289490  1
  O  O36  1  0.407419  0.000000  0.718497  1
  O  O37  1  0.203328  0.000000  0.111287  1
  O  O38  1  0.547996  0.765805  0.900876  1
  O  O39  1  0.346636  0.752507  0.289490  1
  O  O40  1  0.655405  0.238531  0.704147  1
  O  O41  1  0.596796  0.500000  0.286547  1
  O  O42  1  0.455913  0.233409  0.100065  1
  O  O43  1  0.807712  0.500000  0.898890  1
  O  O44  1  0.795912  0.000000  0.890039  1
  O  O45  1  0.596927  0.000000  0.289157  1
  O  O46  1  0.703343  0.500000  0.109893  1
  O  O47  1  0.904744  0.500000  0.718436  1
  O  O48  1  0.655405  0.761469  0.704147  1
  O  O49  1  0.455913  0.766591  0.100065  1
  O  O50  1  0.688533  0.000000  0.100338  1
  O  O51  1  0.896003  0.000000  0.707766  1
  O  O52  1  0.844676  0.250127  0.287724  1
  O  O53  1  0.952691  0.000000  0.499769  1
  O  O54  1  0.844676  0.749873  0.287724  1
  O  O55  1  0.953962  0.264740  0.098423  1
  O  O56  1  0.953962  0.735260  0.098423  1
