# generated using pymatgen
data_Na4MnO4
_symmetry_space_group_name_H-M   'P 1'
_cell_length_a   6.29912428
_cell_length_b   5.73698591
_cell_length_c   9.78261558
_cell_angle_alpha   90.00000000
_cell_angle_beta   129.28326202
_cell_angle_gamma   90.00000000
_symmetry_Int_Tables_number   1
_chemical_formula_structural   Na4MnO4
_chemical_formula_sum   'Na8 Mn2 O8'
_cell_volume   273.63651649
_cell_formula_units_Z   2
loop_
 _symmetry_equiv_pos_site_id
 _symmetry_equiv_pos_as_xyz
  1  'x, y, z'
loop_
 _atom_site_type_symbol
 _atom_site_label
 _atom_site_symmetry_multiplicity
 _atom_site_fract_x
 _atom_site_fract_y
 _atom_site_fract_z
 _atom_site_occupancy
  Na  Na0  1  0.290447  0.901550  0.339180  1
  Na  Na1  1  0.964415  0.315361  0.273565  1
  Na  Na2  1  0.455455  0.377853  0.685237  1
  Na  Na3  1  0.738791  0.698646  0.998042  1
  Na  Na4  1  0.290447  0.098450  0.839180  1
  Na  Na5  1  0.455455  0.622147  0.185237  1
  Na  Na6  1  0.964415  0.684639  0.773565  1
  Na  Na7  1  0.738791  0.301354  0.498042  1
  Mn  Mn8  1  0.012248  0.181480  0.002821  1
  Mn  Mn9  1  0.012248  0.818520  0.502821  1
  O  O10  1  0.709190  0.257396  0.974779  1
  O  O11  1  0.094706  0.124516  0.523413  1
  O  O12  1  0.298552  0.726085  0.728940  1
  O  O13  1  0.913265  0.700196  0.294576  1
  O  O14  1  0.709190  0.742604  0.474779  1
  O  O15  1  0.094706  0.875484  0.023413  1
  O  O16  1  0.298552  0.273915  0.228940  1
  O  O17  1  0.913265  0.299804  0.794576  1
