# generated using pymatgen
data_Mn6OF11
_symmetry_space_group_name_H-M   'P 1'
_cell_length_a   5.90670025
_cell_length_b   4.93253256
_cell_length_c   16.23680195
_cell_angle_alpha   90.00000000
_cell_angle_beta   90.39206474
_cell_angle_gamma   90.00000000
_symmetry_Int_Tables_number   1
_chemical_formula_structural   Mn6OF11
_chemical_formula_sum   'Mn12 O2 F22'
_cell_volume   473.04800817
_cell_formula_units_Z   2
loop_
 _symmetry_equiv_pos_site_id
 _symmetry_equiv_pos_as_xyz
  1  'x, y, z'
loop_
 _atom_site_type_symbol
 _atom_site_label
 _atom_site_symmetry_multiplicity
 _atom_site_fract_x
 _atom_site_fract_y
 _atom_site_fract_z
 _atom_site_occupancy
  Mn  Mn0  1  0.081977  0.998870  0.415901  1
  Mn  Mn1  1  0.413426  0.991115  0.244383  1
  Mn  Mn2  1  0.074143  0.004149  0.071586  1
  Mn  Mn3  1  0.078984  0.995811  0.752862  1
  Mn  Mn4  1  0.420324  0.999300  0.585356  1
  Mn  Mn5  1  0.396690  0.992624  0.919824  1
  Mn  Mn6  1  0.918023  0.498870  0.584099  1
  Mn  Mn7  1  0.925857  0.504149  0.928414  1
  Mn  Mn8  1  0.921016  0.495811  0.247138  1
  Mn  Mn9  1  0.603310  0.492624  0.080176  1
  Mn  Mn10  1  0.579676  0.499300  0.414644  1
  Mn  Mn11  1  0.586574  0.491115  0.755617  1
  O  O12  1  0.122462  0.790469  0.972277  1
  O  O13  1  0.877538  0.290469  0.027723  1
  F  F14  1  0.146711  0.764595  0.305478  1
  F  F15  1  0.143090  0.771473  0.642260  1
  F  F16  1  0.350825  0.767238  0.131902  1
  F  F17  1  0.355570  0.769033  0.474297  1
  F  F18  1  0.364231  0.777569  0.806966  1
  F  F19  1  0.854343  0.744480  0.140749  1
  F  F20  1  0.645070  0.731889  0.305118  1
  F  F21  1  0.854097  0.730653  0.473887  1
  F  F22  1  0.647128  0.727823  0.644781  1
  F  F23  1  0.870287  0.709797  0.816972  1
  F  F24  1  0.630399  0.733111  0.973684  1
  F  F25  1  0.635769  0.277569  0.193034  1
  F  F26  1  0.856910  0.271473  0.357740  1
  F  F27  1  0.644430  0.269033  0.525703  1
  F  F28  1  0.649175  0.267238  0.868098  1
  F  F29  1  0.853289  0.264595  0.694522  1
  F  F30  1  0.129713  0.209797  0.183028  1
  F  F31  1  0.145903  0.230653  0.526113  1
  F  F32  1  0.352872  0.227823  0.355219  1
  F  F33  1  0.369601  0.233111  0.026316  1
  F  F34  1  0.145657  0.244480  0.859251  1
  F  F35  1  0.354930  0.231889  0.694882  1
