# generated using pymatgen
data_Li2Fe2Si8O19
_symmetry_space_group_name_H-M   'P 1'
_cell_length_a   4.91303275
_cell_length_b   7.18151818
_cell_length_c   12.36417866
_cell_angle_alpha   98.32533465
_cell_angle_beta   101.40890255
_cell_angle_gamma   109.87648623
_symmetry_Int_Tables_number   1
_chemical_formula_structural   Li2Fe2Si8O19
_chemical_formula_sum   'Li2 Fe2 Si8 O19'
_cell_volume   391.36726232
_cell_formula_units_Z   1
loop_
 _symmetry_equiv_pos_site_id
 _symmetry_equiv_pos_as_xyz
  1  'x, y, z'
loop_
 _atom_site_type_symbol
 _atom_site_label
 _atom_site_symmetry_multiplicity
 _atom_site_fract_x
 _atom_site_fract_y
 _atom_site_fract_z
 _atom_site_occupancy
  Li  Li0  1  0.335602  0.001031  0.605566  1
  Li  Li1  1  0.731537  0.996476  0.395851  1
  Fe  Fe2  1  0.181133  0.736141  0.412371  1
  Fe  Fe3  1  0.044658  0.273504  0.586191  1
  Si  Si4  1  0.533023  0.310676  0.078014  1
  Si  Si5  1  0.701405  0.856657  0.824114  1
  Si  Si6  1  0.688903  0.720347  0.569405  1
  Si  Si7  1  0.476046  0.725578  0.170674  1
  Si  Si8  1  0.580494  0.275364  0.829005  1
  Si  Si9  1  0.400002  0.275492  0.429696  1
  Si  Si10  1  0.022063  0.142704  0.175363  1
  Si  Si11  1  0.142727  0.689303  0.921974  1
  O  O12  1  0.258998  0.129172  0.102160  1
  O  O13  1  0.841122  0.271496  0.118187  1
  O  O14  1  0.663179  0.727616  0.699406  1
  O  O15  1  0.000944  0.724958  0.544819  1
  O  O16  1  0.576762  0.529784  0.153818  1
  O  O17  1  0.603317  0.905535  0.530754  1
  O  O18  1  0.380555  0.762176  0.287313  1
  O  O19  1  0.674434  0.073741  0.815483  1
  O  O20  1  0.213522  0.694089  0.057000  1
  O  O21  1  0.462689  0.306081  0.943036  1
  O  O22  1  0.785298  0.925668  0.183198  1
  O  O23  1  0.333917  0.241151  0.712311  1
  O  O24  1  0.167990  0.089535  0.468172  1
  O  O25  1  0.894883  0.469854  0.846714  1
  O  O26  1  0.731472  0.271078  0.453670  1
  O  O27  1  0.235982  0.270604  0.300295  1
  O  O28  1  0.408321  0.496632  0.500784  1
  O  O29  1  0.448403  0.729131  0.881204  1
  O  O30  1  0.023405  0.869927  0.898025  1
