# generated using pymatgen
data_Li3Cr(PO4)2
_symmetry_space_group_name_H-M   'P 1'
_cell_length_a   6.72233010
_cell_length_b   5.34321212
_cell_length_c   8.51130891
_cell_angle_alpha   90.00000000
_cell_angle_beta   95.96414135
_cell_angle_gamma   90.00000000
_symmetry_Int_Tables_number   1
_chemical_formula_structural   Li3Cr(PO4)2
_chemical_formula_sum   'Li6 Cr2 P4 O16'
_cell_volume   304.06150045
_cell_formula_units_Z   2
loop_
 _symmetry_equiv_pos_site_id
 _symmetry_equiv_pos_as_xyz
  1  'x, y, z'
loop_
 _atom_site_type_symbol
 _atom_site_label
 _atom_site_symmetry_multiplicity
 _atom_site_fract_x
 _atom_site_fract_y
 _atom_site_fract_z
 _atom_site_occupancy
  Li  Li0  1  0.673055  0.750000  0.005792  1
  Li  Li1  1  0.578993  0.250000  0.694953  1
  Li  Li2  1  0.263554  0.750000  0.633308  1
  Li  Li3  1  0.736446  0.250000  0.366692  1
  Li  Li4  1  0.421007  0.750000  0.305047  1
  Li  Li5  1  0.326945  0.250000  0.994208  1
  Cr  Cr6  1  0.021184  0.250000  0.753557  1
  Cr  Cr7  1  0.978816  0.750000  0.246443  1
  P  P8  1  0.216270  0.750000  0.939443  1
  P  P9  1  0.747300  0.750000  0.598182  1
  P  P10  1  0.252700  0.250000  0.401818  1
  P  P11  1  0.783730  0.250000  0.060557  1
  O  O12  1  0.024003  0.750000  0.020941  1
  O  O13  1  0.597161  0.250000  0.941866  1
  O  O14  1  0.225054  0.519296  0.825101  1
  O  O15  1  0.225054  0.980704  0.825101  1
  O  O16  1  0.807509  0.507537  0.694303  1
  O  O17  1  0.807509  0.992463  0.694303  1
  O  O18  1  0.519299  0.750000  0.562495  1
  O  O19  1  0.143166  0.250000  0.551841  1
  O  O20  1  0.856834  0.750000  0.448159  1
  O  O21  1  0.480701  0.250000  0.437505  1
  O  O22  1  0.192491  0.007537  0.305697  1
  O  O23  1  0.192491  0.492463  0.305697  1
  O  O24  1  0.774946  0.019296  0.174899  1
  O  O25  1  0.774946  0.480704  0.174899  1
  O  O26  1  0.402839  0.750000  0.058134  1
  O  O27  1  0.975997  0.250000  0.979059  1
