# generated using pymatgen
data_Li8(CoO2)5
_symmetry_space_group_name_H-M   'P 1'
_cell_length_a   5.34992559
_cell_length_b   6.64719376
_cell_length_c   8.09977759
_cell_angle_alpha   90.45495564
_cell_angle_beta   102.87253636
_cell_angle_gamma   113.36817280
_symmetry_Int_Tables_number   1
_chemical_formula_structural   Li8(CoO2)5
_chemical_formula_sum   'Li8 Co5 O10'
_cell_volume   256.27515633
_cell_formula_units_Z   1
loop_
 _symmetry_equiv_pos_site_id
 _symmetry_equiv_pos_as_xyz
  1  'x, y, z'
loop_
 _atom_site_type_symbol
 _atom_site_label
 _atom_site_symmetry_multiplicity
 _atom_site_fract_x
 _atom_site_fract_y
 _atom_site_fract_z
 _atom_site_occupancy
  Li  Li0  1  0.703031  0.139524  0.964709  1
  Li  Li1  1  0.513122  0.958579  0.342591  1
  Li  Li2  1  0.296969  0.860476  0.035291  1
  Li  Li3  1  0.486878  0.041421  0.657409  1
  Li  Li4  1  0.070794  0.509465  0.166968  1
  Li  Li5  1  0.109828  0.677483  0.447199  1
  Li  Li6  1  0.890172  0.322517  0.552801  1
  Li  Li7  1  0.929206  0.490535  0.833032  1
  Co  Co8  1  0.704082  0.700983  0.098314  1
  Co  Co9  1  0.295918  0.299017  0.901686  1
  Co  Co10  1  0.500000  0.500000  0.500000  1
  Co  Co11  1  0.091266  0.099974  0.306540  1
  Co  Co12  1  0.908734  0.900026  0.693460  1
  O  O13  1  0.703922  0.976547  0.162510  1
  O  O14  1  0.699817  0.435379  0.998874  1
  O  O15  1  0.476275  0.214306  0.459918  1
  O  O16  1  0.094633  0.813023  0.225401  1
  O  O17  1  0.300183  0.564621  0.001126  1
  O  O18  1  0.296078  0.023453  0.837490  1
  O  O19  1  0.523725  0.785694  0.540082  1
  O  O20  1  0.123082  0.392604  0.387567  1
  O  O21  1  0.905367  0.186977  0.774599  1
  O  O22  1  0.876918  0.607396  0.612433  1
