# generated using pymatgen
data_LiVF3
_symmetry_space_group_name_H-M   'P 1'
_cell_length_a   5.36671107
_cell_length_b   5.45576582
_cell_length_c   7.83429596
_cell_angle_alpha   90.00000000
_cell_angle_beta   90.00000000
_cell_angle_gamma   90.00000000
_symmetry_Int_Tables_number   1
_chemical_formula_structural   LiVF3
_chemical_formula_sum   'Li4 V4 F12'
_cell_volume   229.38441601
_cell_formula_units_Z   4
loop_
 _symmetry_equiv_pos_site_id
 _symmetry_equiv_pos_as_xyz
  1  'x, y, z'
loop_
 _atom_site_type_symbol
 _atom_site_label
 _atom_site_symmetry_multiplicity
 _atom_site_fract_x
 _atom_site_fract_y
 _atom_site_fract_z
 _atom_site_occupancy
  Li  Li0  1  0.012921  0.015645  0.250000  1
  Li  Li1  1  0.512921  0.484355  0.750000  1
  Li  Li2  1  0.487079  0.515645  0.250000  1
  Li  Li3  1  0.987079  0.984355  0.750000  1
  V  V4  1  0.500000  0.000000  0.000000  1
  V  V5  1  0.500000  0.000000  0.500000  1
  V  V6  1  0.000000  0.500000  0.000000  1
  V  V7  1  0.000000  0.500000  0.500000  1
  F  F8  1  0.636759  0.093701  0.750000  1
  F  F9  1  0.162443  0.166327  0.574490  1
  F  F10  1  0.162443  0.166327  0.925510  1
  F  F11  1  0.662443  0.333673  0.074490  1
  F  F12  1  0.662443  0.333673  0.425510  1
  F  F13  1  0.136759  0.406299  0.250000  1
  F  F14  1  0.863241  0.593701  0.750000  1
  F  F15  1  0.337557  0.666327  0.925510  1
  F  F16  1  0.337557  0.666327  0.574490  1
  F  F17  1  0.837557  0.833673  0.074490  1
  F  F18  1  0.837557  0.833673  0.425510  1
  F  F19  1  0.363241  0.906299  0.250000  1
