# generated using pymatgen
data_W(BrO)2
_symmetry_space_group_name_H-M   'P 1'
_cell_length_a   3.86961927
_cell_length_b   7.70784688
_cell_length_c   8.82386212
_cell_angle_alpha   90.00000000
_cell_angle_beta   90.00000000
_cell_angle_gamma   90.00000000
_symmetry_Int_Tables_number   1
_chemical_formula_structural   W(BrO)2
_chemical_formula_sum   'W2 Br4 O4'
_cell_volume   263.18433071
_cell_formula_units_Z   2
loop_
 _symmetry_equiv_pos_site_id
 _symmetry_equiv_pos_as_xyz
  1  'x, y, z'
loop_
 _atom_site_type_symbol
 _atom_site_label
 _atom_site_symmetry_multiplicity
 _atom_site_fract_x
 _atom_site_fract_y
 _atom_site_fract_z
 _atom_site_occupancy
  W  W0  1  0.025020  0.972901  0.000000  1
  W  W1  1  0.974980  0.472901  0.000000  1
  Br  Br2  1  0.995770  0.959195  0.717404  1
  Br  Br3  1  0.995770  0.959195  0.282596  1
  Br  Br4  1  0.004230  0.459195  0.717404  1
  Br  Br5  1  0.004230  0.459195  0.282596  1
  O  O6  1  0.507336  0.968634  0.000000  1
  O  O7  1  0.998134  0.717195  0.000000  1
  O  O8  1  0.492664  0.468634  0.000000  1
  O  O9  1  0.001866  0.217195  0.000000  1
