# generated using pymatgen
data_MgAl10O16
_symmetry_space_group_name_H-M   'P 1'
_cell_length_a   9.70639890
_cell_length_b   9.70639890
_cell_length_c   9.70639890
_cell_angle_alpha   34.26750085
_cell_angle_beta   34.26750085
_cell_angle_gamma   34.26750085
_symmetry_Int_Tables_number   1
_chemical_formula_structural   MgAl10O16
_chemical_formula_sum   'Mg1 Al10 O16'
_cell_volume   258.54417361
_cell_formula_units_Z   1
loop_
 _symmetry_equiv_pos_site_id
 _symmetry_equiv_pos_as_xyz
  1  'x, y, z'
loop_
 _atom_site_type_symbol
 _atom_site_label
 _atom_site_symmetry_multiplicity
 _atom_site_fract_x
 _atom_site_fract_y
 _atom_site_fract_z
 _atom_site_occupancy
  Mg  Mg0  1  0.689987  0.689987  0.689987  1
  Al  Al1  1  0.190176  0.190176  0.190176  1
  Al  Al2  1  0.740462  0.256568  0.740462  1
  Al  Al3  1  0.310712  0.310712  0.310712  1
  Al  Al4  1  0.256568  0.740462  0.740462  1
  Al  Al5  1  0.254379  0.254379  0.750676  1
  Al  Al6  1  0.740462  0.740462  0.256568  1
  Al  Al7  1  0.750676  0.254379  0.254379  1
  Al  Al8  1  0.254379  0.750676  0.254379  1
  Al  Al9  1  0.002184  0.002184  0.002184  1
  Al  Al10  1  0.808191  0.808191  0.808191  1
  O  O11  1  0.111627  0.111627  0.649165  1
  O  O12  1  0.649165  0.111627  0.111627  1
  O  O13  1  0.379475  0.379475  0.881628  1
  O  O14  1  0.881628  0.379475  0.379475  1
  O  O15  1  0.379475  0.881628  0.379475  1
  O  O16  1  0.124554  0.124554  0.124554  1
  O  O17  1  0.898585  0.337436  0.898585  1
  O  O18  1  0.617261  0.617261  0.617261  1
  O  O19  1  0.876986  0.876986  0.876986  1
  O  O20  1  0.111627  0.649165  0.111627  1
  O  O21  1  0.617693  0.122124  0.617693  1
  O  O22  1  0.377339  0.377339  0.377339  1
  O  O23  1  0.617693  0.617693  0.122124  1
  O  O24  1  0.122124  0.617693  0.617693  1
  O  O25  1  0.337436  0.898585  0.898585  1
  O  O26  1  0.898585  0.898585  0.337436  1
