# generated using pymatgen
data_Li6FeNiP2(CO7)2
_symmetry_space_group_name_H-M   'P 1'
_cell_length_a   4.96889569
_cell_length_b   6.50224070
_cell_length_c   8.41186496
_cell_angle_alpha   90.00000000
_cell_angle_beta   94.58510503
_cell_angle_gamma   90.00000000
_symmetry_Int_Tables_number   1
_chemical_formula_structural   Li6FeNiP2(CO7)2
_chemical_formula_sum   'Li6 Fe1 Ni1 P2 C2 O14'
_cell_volume   270.90879859
_cell_formula_units_Z   1
loop_
 _symmetry_equiv_pos_site_id
 _symmetry_equiv_pos_as_xyz
  1  'x, y, z'
loop_
 _atom_site_type_symbol
 _atom_site_label
 _atom_site_symmetry_multiplicity
 _atom_site_fract_x
 _atom_site_fract_y
 _atom_site_fract_z
 _atom_site_occupancy
  Li  Li0  1  0.761530  0.500000  0.904237  1
  Li  Li1  1  0.245974  0.270910  0.725089  1
  Li  Li2  1  0.245974  0.729090  0.725089  1
  Li  Li3  1  0.755518  0.773863  0.276277  1
  Li  Li4  1  0.755518  0.226137  0.276277  1
  Li  Li5  1  0.236018  0.000000  0.096462  1
  Fe  Fe6  1  0.219425  0.500000  0.338088  1
  Ni  Ni7  1  0.792627  0.000000  0.667235  1
  P  P8  1  0.719803  0.500000  0.588398  1
  P  P9  1  0.278728  0.000000  0.414320  1
  C  C10  1  0.704269  0.000000  0.960883  1
  C  C11  1  0.294962  0.500000  0.034138  1
  O  O12  1  0.952636  0.000000  0.924159  1
  O  O13  1  0.356819  0.500000  0.887326  1
  O  O14  1  0.514235  0.000000  0.844591  1
  O  O15  1  0.825485  0.313277  0.690751  1
  O  O16  1  0.825485  0.686723  0.690751  1
  O  O17  1  0.169536  0.000000  0.581383  1
  O  O18  1  0.403521  0.500000  0.571106  1
  O  O19  1  0.594278  0.000000  0.437152  1
  O  O20  1  0.819214  0.500000  0.418605  1
  O  O21  1  0.175799  0.185207  0.309621  1
  O  O22  1  0.175799  0.814793  0.309621  1
  O  O23  1  0.487181  0.500000  0.149269  1
  O  O24  1  0.642211  0.000000  0.107903  1
  O  O25  1  0.047457  0.500000  0.071270  1
