# generated using pymatgen
data_Li3VS4
_symmetry_space_group_name_H-M   'P 1'
_cell_length_a   17.98387768
_cell_length_b   13.51537626
_cell_length_c   12.96537534
_cell_angle_alpha   85.52469340
_cell_angle_beta   48.52424136
_cell_angle_gamma   45.95106524
_symmetry_Int_Tables_number   1
_chemical_formula_structural   Li3VS4
_chemical_formula_sum   'Li24 V8 S32'
_cell_volume   1194.70786656
_cell_formula_units_Z   8
loop_
 _symmetry_equiv_pos_site_id
 _symmetry_equiv_pos_as_xyz
  1  'x, y, z'
loop_
 _atom_site_type_symbol
 _atom_site_label
 _atom_site_symmetry_multiplicity
 _atom_site_fract_x
 _atom_site_fract_y
 _atom_site_fract_z
 _atom_site_occupancy
  Li  Li0  1  0.993752  0.006248  0.006248  1
  Li  Li1  1  0.480268  0.519732  0.519732  1
  Li  Li2  1  0.267099  0.224568  0.739053  1
  Li  Li3  1  0.074755  0.678758  0.875578  1
  Li  Li4  1  0.444717  0.835236  0.365305  1
  Li  Li5  1  0.410235  0.275787  0.364611  1
  Li  Li6  1  0.567046  0.376855  0.190251  1
  Li  Li7  1  0.059749  0.384152  0.682954  1
  Li  Li8  1  0.885389  0.300633  0.839765  1
  Li  Li9  1  0.884695  0.895258  0.805283  1
  Li  Li10  1  0.374422  0.879091  0.175245  1
  Li  Li11  1  0.510947  0.480720  0.982901  1
  Li  Li12  1  0.243752  0.256248  0.256248  1
  Li  Li13  1  0.730268  0.769732  0.769732  1
  Li  Li14  1  0.025432  0.982901  0.480720  1
  Li  Li15  1  0.571242  0.175245  0.879091  1
  Li  Li16  1  0.414764  0.805283  0.895258  1
  Li  Li17  1  0.974213  0.839765  0.300633  1
  Li  Li18  1  0.873145  0.682954  0.384152  1
  Li  Li19  1  0.865848  0.190251  0.376855  1
  Li  Li20  1  0.949367  0.364611  0.275787  1
  Li  Li21  1  0.354742  0.365305  0.835236  1
  Li  Li22  1  0.370909  0.875578  0.678758  1
  Li  Li23  1  0.769280  0.739053  0.224568  1
  V  V24  1  0.908486  0.321480  0.073260  1
  V  V25  1  0.183297  0.828695  0.571603  1
  V  V26  1  0.678397  0.833595  0.066703  1
  V  V27  1  0.176740  0.553226  0.341514  1
  V  V28  1  0.928520  0.341514  0.553226  1
  V  V29  1  0.421305  0.066703  0.833595  1
  V  V30  1  0.416405  0.571603  0.828695  1
  V  V31  1  0.696774  0.073260  0.321480  1
  S  S32  1  0.397970  0.289699  0.604643  1
  S  S33  1  0.113627  0.211354  0.788545  1
  S  S34  1  0.742605  0.350063  0.147087  1
  S  S35  1  0.256018  0.850677  0.639093  1
  S  S36  1  0.751844  0.059273  0.110711  1
  S  S37  1  0.963919  0.609993  0.889567  1
  S  S38  1  0.467044  0.033596  0.366536  1
  S  S39  1  0.234963  0.628652  0.573426  1
  S  S40  1  0.676574  0.687041  0.015037  1
  S  S41  1  0.883464  0.117175  0.782956  1
  S  S42  1  0.360433  0.713480  0.286081  1
  S  S43  1  0.139289  0.171828  0.498156  1
  S  S44  1  0.610907  0.995787  0.993982  1
  S  S45  1  0.102913  0.489755  0.507395  1
  S  S46  1  0.461455  0.363527  0.136373  1
  S  S47  1  0.645357  0.542311  0.852030  1
  S  S48  1  0.960301  0.852030  0.542311  1
  S  S49  1  0.038646  0.136373  0.363527  1
  S  S50  1  0.899937  0.507395  0.489755  1
  S  S51  1  0.399323  0.993982  0.995787  1
  S  S52  1  0.190727  0.498156  0.171828  1
  S  S53  1  0.640007  0.286081  0.713480  1
  S  S54  1  0.216404  0.782956  0.117175  1
  S  S55  1  0.621348  0.015037  0.687041  1
  S  S56  1  0.562959  0.573426  0.628652  1
  S  S57  1  0.132825  0.366536  0.033596  1
  S  S58  1  0.536520  0.889567  0.609993  1
  S  S59  1  0.078172  0.110711  0.059273  1
  S  S60  1  0.254213  0.639093  0.850677  1
  S  S61  1  0.760245  0.147087  0.350063  1
  S  S62  1  0.886473  0.788545  0.211354  1
  S  S63  1  0.707689  0.604643  0.289699  1
