# generated using pymatgen
data_Li3Y(NiO3)2
_symmetry_space_group_name_H-M   'P 1'
_cell_length_a   5.29278520
_cell_length_b   5.29278520
_cell_length_c   5.21412198
_cell_angle_alpha   81.47824891
_cell_angle_beta   98.52175109
_cell_angle_gamma   59.23156117
_symmetry_Int_Tables_number   1
_chemical_formula_structural   Li3Y(NiO3)2
_chemical_formula_sum   'Li3 Y1 Ni2 O6'
_cell_volume   119.73082366
_cell_formula_units_Z   1
loop_
 _symmetry_equiv_pos_site_id
 _symmetry_equiv_pos_as_xyz
  1  'x, y, z'
loop_
 _atom_site_type_symbol
 _atom_site_label
 _atom_site_symmetry_multiplicity
 _atom_site_fract_x
 _atom_site_fract_y
 _atom_site_fract_z
 _atom_site_occupancy
  Li  Li0  1  0.807373  0.807373  0.500000  1
  Li  Li1  1  0.500000  0.500000  0.500000  1
  Li  Li2  1  0.192627  0.192627  0.500000  1
  Y  Y3  1  0.000000  0.000000  0.000000  1
  Ni  Ni4  1  0.665929  0.665929  0.000000  1
  Ni  Ni5  1  0.334071  0.334071  0.000000  1
  O  O6  1  0.295208  0.704792  0.764017  1
  O  O7  1  0.440523  0.923087  0.229237  1
  O  O8  1  0.076913  0.559477  0.229237  1
  O  O9  1  0.559477  0.076913  0.770763  1
  O  O10  1  0.923087  0.440523  0.770763  1
  O  O11  1  0.704792  0.295208  0.235983  1
