# generated using pymatgen
data_Ba2SrI6
_symmetry_space_group_name_H-M   'P 1'
_cell_length_a   8.01605022
_cell_length_b   9.15977505
_cell_length_c   13.84669908
_cell_angle_alpha   90.00000000
_cell_angle_beta   124.35659837
_cell_angle_gamma   90.00000000
_symmetry_Int_Tables_number   1
_chemical_formula_structural   Ba2SrI6
_chemical_formula_sum   'Ba4 Sr2 I12'
_cell_volume   839.32518940
_cell_formula_units_Z   2
loop_
 _symmetry_equiv_pos_site_id
 _symmetry_equiv_pos_as_xyz
  1  'x, y, z'
loop_
 _atom_site_type_symbol
 _atom_site_label
 _atom_site_symmetry_multiplicity
 _atom_site_fract_x
 _atom_site_fract_y
 _atom_site_fract_z
 _atom_site_occupancy
  Ba  Ba0  1  0.779853  0.891458  0.244193  1
  Ba  Ba1  1  0.220147  0.108542  0.755807  1
  Ba  Ba2  1  0.779853  0.608542  0.744193  1
  Ba  Ba3  1  0.220147  0.391458  0.255807  1
  Sr  Sr4  1  0.500000  0.500000  0.000000  1
  Sr  Sr5  1  0.500000  0.000000  0.500000  1
  I  I6  1  0.633299  0.956195  0.766678  1
  I  I7  1  0.274934  0.681733  0.440283  1
  I  I8  1  0.903984  0.676917  0.069508  1
  I  I9  1  0.096016  0.176917  0.430492  1
  I  I10  1  0.725066  0.181733  0.059717  1
  I  I11  1  0.366701  0.456195  0.733322  1
  I  I12  1  0.633299  0.543805  0.266678  1
  I  I13  1  0.274934  0.818267  0.940283  1
  I  I14  1  0.903984  0.823083  0.569508  1
  I  I15  1  0.096016  0.323083  0.930492  1
  I  I16  1  0.725066  0.318267  0.559717  1
  I  I17  1  0.366701  0.043805  0.233322  1
