# generated using pymatgen
data_LiCo5O3F5
_symmetry_space_group_name_H-M   'P 1'
_cell_length_a   6.11564183
_cell_length_b   6.11564183
_cell_length_c   6.10924967
_cell_angle_alpha   60.79012403
_cell_angle_beta   119.20987597
_cell_angle_gamma   120.65984175
_symmetry_Int_Tables_number   1
_chemical_formula_structural   LiCo5O3F5
_chemical_formula_sum   'Li1 Co5 O3 F5'
_cell_volume   162.62210696
_cell_formula_units_Z   1
loop_
 _symmetry_equiv_pos_site_id
 _symmetry_equiv_pos_as_xyz
  1  'x, y, z'
loop_
 _atom_site_type_symbol
 _atom_site_label
 _atom_site_symmetry_multiplicity
 _atom_site_fract_x
 _atom_site_fract_y
 _atom_site_fract_z
 _atom_site_occupancy
  Li  Li0  1  0.385247  0.614753  0.132675  1
  Co  Co1  1  0.864445  0.608897  0.614724  1
  Co  Co2  1  0.023634  0.976366  0.058747  1
  Co  Co3  1  0.376175  0.623825  0.622473  1
  Co  Co4  1  0.717953  0.282047  0.207714  1
  Co  Co5  1  0.391103  0.135555  0.614724  1
  O  O6  1  0.600646  0.399354  0.821165  1
  O  O7  1  0.150132  0.849868  0.437171  1
  O  O8  1  0.610681  0.389319  0.372096  1
  F  F9  1  0.610152  0.871308  0.355473  1
  F  F10  1  0.622036  0.867646  0.887872  1
  F  F11  1  0.132354  0.377964  0.887872  1
  F  F12  1  0.136751  0.863249  0.881821  1
  F  F13  1  0.128692  0.389848  0.355473  1
