# generated using pymatgen
data_Li2Co3BiO8
_symmetry_space_group_name_H-M   'P 1'
_cell_length_a   6.08145458
_cell_length_b   6.08145458
_cell_length_c   6.08145458
_cell_angle_alpha   56.91511807
_cell_angle_beta   56.91511807
_cell_angle_gamma   56.91511807
_symmetry_Int_Tables_number   1
_chemical_formula_structural   Li2Co3BiO8
_chemical_formula_sum   'Li2 Co3 Bi1 O8'
_cell_volume   147.72305588
_cell_formula_units_Z   1
loop_
 _symmetry_equiv_pos_site_id
 _symmetry_equiv_pos_as_xyz
  1  'x, y, z'
loop_
 _atom_site_type_symbol
 _atom_site_label
 _atom_site_symmetry_multiplicity
 _atom_site_fract_x
 _atom_site_fract_y
 _atom_site_fract_z
 _atom_site_occupancy
  Li  Li0  1  0.119214  0.119214  0.119214  1
  Li  Li1  1  0.880786  0.880786  0.880786  1
  Co  Co2  1  0.500000  0.500000  0.000000  1
  Co  Co3  1  1.000000  0.500000  0.500000  1
  Co  Co4  1  0.500000  1.000000  0.500000  1
  Bi  Bi5  1  0.500000  0.500000  0.500000  1
  O  O6  1  0.714288  0.246197  0.246197  1
  O  O7  1  0.246197  0.246197  0.714288  1
  O  O8  1  0.733410  0.733410  0.733410  1
  O  O9  1  0.246197  0.714288  0.246197  1
  O  O10  1  0.753803  0.285712  0.753803  1
  O  O11  1  0.266590  0.266590  0.266590  1
  O  O12  1  0.753803  0.753803  0.285712  1
  O  O13  1  0.285712  0.753803  0.753803  1
