# generated using pymatgen
data_Li4VP6(H4O11)2
_symmetry_space_group_name_H-M   'P 1'
_cell_length_a   7.00158286
_cell_length_b   7.55078258
_cell_length_c   8.50755971
_cell_angle_alpha   84.74528901
_cell_angle_beta   76.60182825
_cell_angle_gamma   85.81388070
_symmetry_Int_Tables_number   1
_chemical_formula_structural   Li4VP6(H4O11)2
_chemical_formula_sum   'Li4 V1 P6 H8 O22'
_cell_volume   435.06993057
_cell_formula_units_Z   1
loop_
 _symmetry_equiv_pos_site_id
 _symmetry_equiv_pos_as_xyz
  1  'x, y, z'
loop_
 _atom_site_type_symbol
 _atom_site_label
 _atom_site_symmetry_multiplicity
 _atom_site_fract_x
 _atom_site_fract_y
 _atom_site_fract_z
 _atom_site_occupancy
  Li  Li0  1  0.929756  0.654832  0.414241  1
  Li  Li1  1  0.669934  0.564169  0.772108  1
  Li  Li2  1  0.330066  0.435831  0.227892  1
  Li  Li3  1  0.070244  0.345168  0.585759  1
  V  V4  1  0.000000  0.000000  0.000000  1
  P  P5  1  0.779113  0.981074  0.695775  1
  P  P6  1  0.559741  0.788669  0.165095  1
  P  P7  1  0.341060  0.707095  0.492343  1
  P  P8  1  0.658940  0.292905  0.507657  1
  P  P9  1  0.440259  0.211331  0.834905  1
  P  P10  1  0.220887  0.018926  0.304225  1
  H  H11  1  0.259533  0.759775  0.810104  1
  H  H12  1  0.275544  0.730002  0.991656  1
  H  H13  1  0.979682  0.606761  0.112018  1
  H  H14  1  0.034878  0.588519  0.812859  1
  H  H15  1  0.965122  0.411481  0.187141  1
  H  H16  1  0.020318  0.393239  0.887982  1
  H  H17  1  0.724456  0.269998  0.008344  1
  H  H18  1  0.740467  0.240225  0.189896  1
  O  O19  1  0.436747  0.979453  0.185255  1
  O  O20  1  0.245650  0.908274  0.472280  1
  O  O21  1  0.801030  0.788150  0.665645  1
  O  O22  1  0.067631  0.934101  0.241148  1
  O  O23  1  0.770137  0.822103  0.091884  1
  O  O24  1  0.179077  0.768060  0.923635  1
  O  O25  1  0.545606  0.718591  0.354474  1
  O  O26  1  0.396805  0.681698  0.652263  1
  O  O27  1  0.460053  0.660895  0.088724  1
  O  O28  1  0.980748  0.475173  0.803301  1
  O  O29  1  0.208902  0.578299  0.449505  1
  O  O30  1  0.791098  0.421701  0.550495  1
  O  O31  1  0.019252  0.524827  0.196699  1
  O  O32  1  0.539947  0.339105  0.911276  1
  O  O33  1  0.603195  0.318302  0.347737  1
  O  O34  1  0.454394  0.281409  0.645526  1
  O  O35  1  0.820923  0.231940  0.076365  1
  O  O36  1  0.229863  0.177897  0.908116  1
  O  O37  1  0.932369  0.065899  0.758852  1
  O  O38  1  0.198970  0.211850  0.334355  1
  O  O39  1  0.754350  0.091726  0.527720  1
  O  O40  1  0.563253  0.020547  0.814745  1
