# generated using pymatgen
data_Li2Cr3TeO8
_symmetry_space_group_name_H-M   'P 1'
_cell_length_a   6.15305154
_cell_length_b   6.15305154
_cell_length_c   6.15305154
_cell_angle_alpha   58.56597833
_cell_angle_beta   58.56597833
_cell_angle_gamma   58.56597833
_symmetry_Int_Tables_number   1
_chemical_formula_structural   Li2Cr3TeO8
_chemical_formula_sum   'Li2 Cr3 Te1 O8'
_cell_volume   159.32224065
_cell_formula_units_Z   1
loop_
 _symmetry_equiv_pos_site_id
 _symmetry_equiv_pos_as_xyz
  1  'x, y, z'
loop_
 _atom_site_type_symbol
 _atom_site_label
 _atom_site_symmetry_multiplicity
 _atom_site_fract_x
 _atom_site_fract_y
 _atom_site_fract_z
 _atom_site_occupancy
  Li  Li0  1  0.871582  0.871582  0.871582  1
  Li  Li1  1  0.128418  0.128418  0.128418  1
  Cr  Cr2  1  0.500000  0.500000  1.000000  1
  Cr  Cr3  1  0.000000  0.500000  0.500000  1
  Cr  Cr4  1  0.500000  0.000000  0.500000  1
  Te  Te5  1  0.500000  0.500000  0.500000  1
  O  O6  1  0.734437  0.734437  0.734437  1
  O  O7  1  0.741394  0.284585  0.741394  1
  O  O8  1  0.284585  0.741394  0.741394  1
  O  O9  1  0.741394  0.741394  0.284585  1
  O  O10  1  0.258606  0.258606  0.715415  1
  O  O11  1  0.715415  0.258606  0.258606  1
  O  O12  1  0.258606  0.715415  0.258606  1
  O  O13  1  0.265563  0.265563  0.265563  1
