# generated using pymatgen
data_Na3CrBPO7
_symmetry_space_group_name_H-M   'P 1'
_cell_length_a   5.26059435
_cell_length_b   6.56812971
_cell_length_c   8.95760666
_cell_angle_alpha   90.00000000
_cell_angle_beta   91.64665401
_cell_angle_gamma   90.00000000
_symmetry_Int_Tables_number   1
_chemical_formula_structural   Na3CrBPO7
_chemical_formula_sum   'Na6 Cr2 B2 P2 O14'
_cell_volume   309.37779759
_cell_formula_units_Z   2
loop_
 _symmetry_equiv_pos_site_id
 _symmetry_equiv_pos_as_xyz
  1  'x, y, z'
loop_
 _atom_site_type_symbol
 _atom_site_label
 _atom_site_symmetry_multiplicity
 _atom_site_fract_x
 _atom_site_fract_y
 _atom_site_fract_z
 _atom_site_occupancy
  Na  Na0  1  0.241569  0.750000  0.073609  1
  Na  Na1  1  0.748936  0.996616  0.254198  1
  Na  Na2  1  0.748936  0.503384  0.254198  1
  Na  Na3  1  0.251064  0.496616  0.745802  1
  Na  Na4  1  0.251064  0.003384  0.745802  1
  Na  Na5  1  0.758431  0.250000  0.926391  1
  Cr  Cr6  1  0.219637  0.250000  0.336545  1
  Cr  Cr7  1  0.780363  0.750000  0.663455  1
  B  B8  1  0.267957  0.250000  0.067575  1
  B  B9  1  0.732043  0.750000  0.932425  1
  P  P10  1  0.285515  0.750000  0.422390  1
  P  P11  1  0.714485  0.250000  0.577610  1
  O  O12  1  0.703295  0.750000  0.080853  1
  O  O13  1  0.032649  0.250000  0.138348  1
  O  O14  1  0.469786  0.250000  0.174316  1
  O  O15  1  0.218623  0.937004  0.322177  1
  O  O16  1  0.218623  0.562996  0.322177  1
  O  O17  1  0.576098  0.750000  0.463022  1
  O  O18  1  0.867597  0.250000  0.433493  1
  O  O19  1  0.132403  0.750000  0.566507  1
  O  O20  1  0.423902  0.250000  0.536978  1
  O  O21  1  0.781377  0.437004  0.677823  1
  O  O22  1  0.781377  0.062996  0.677823  1
  O  O23  1  0.530214  0.750000  0.825684  1
  O  O24  1  0.967351  0.750000  0.861652  1
  O  O25  1  0.296705  0.250000  0.919147  1
