# generated using pymatgen
data_Li3FeF5
_symmetry_space_group_name_H-M   'P 1'
_cell_length_a   6.62456628
_cell_length_b   7.74515241
_cell_length_c   8.13762034
_cell_angle_alpha   90.00000000
_cell_angle_beta   90.00000000
_cell_angle_gamma   90.00000000
_symmetry_Int_Tables_number   1
_chemical_formula_structural   Li3FeF5
_chemical_formula_sum   'Li12 Fe4 F20'
_cell_volume   417.52726663
_cell_formula_units_Z   4
loop_
 _symmetry_equiv_pos_site_id
 _symmetry_equiv_pos_as_xyz
  1  'x, y, z'
loop_
 _atom_site_type_symbol
 _atom_site_label
 _atom_site_symmetry_multiplicity
 _atom_site_fract_x
 _atom_site_fract_y
 _atom_site_fract_z
 _atom_site_occupancy
  Li  Li0  1  0.485737  0.072074  0.271004  1
  Li  Li1  1  0.485737  0.427926  0.271004  1
  Li  Li2  1  0.710375  0.250000  0.027304  1
  Li  Li3  1  0.789625  0.750000  0.527304  1
  Li  Li4  1  0.014263  0.927926  0.771004  1
  Li  Li5  1  0.014263  0.572074  0.771004  1
  Li  Li6  1  0.985737  0.427926  0.228996  1
  Li  Li7  1  0.985737  0.072074  0.228996  1
  Li  Li8  1  0.210375  0.250000  0.472696  1
  Li  Li9  1  0.289625  0.750000  0.972696  1
  Li  Li10  1  0.514263  0.572074  0.728996  1
  Li  Li11  1  0.514263  0.927926  0.728996  1
  Fe  Fe12  1  0.771406  0.250000  0.599894  1
  Fe  Fe13  1  0.728594  0.750000  0.099894  1
  Fe  Fe14  1  0.271406  0.250000  0.900106  1
  Fe  Fe15  1  0.228594  0.750000  0.400106  1
  F  F16  1  0.490542  0.750000  0.547980  1
  F  F17  1  0.590050  0.250000  0.809331  1
  F  F18  1  0.569673  0.750000  0.881299  1
  F  F19  1  0.724661  0.488899  0.143911  1
  F  F20  1  0.724661  0.011101  0.143911  1
  F  F21  1  0.775339  0.988899  0.643911  1
  F  F22  1  0.775339  0.511101  0.643911  1
  F  F23  1  0.930327  0.250000  0.381299  1
  F  F24  1  0.909950  0.750000  0.309331  1
  F  F25  1  0.009458  0.250000  0.047980  1
  F  F26  1  0.990542  0.750000  0.952020  1
  F  F27  1  0.090050  0.250000  0.690669  1
  F  F28  1  0.069673  0.750000  0.618701  1
  F  F29  1  0.224661  0.488899  0.356089  1
  F  F30  1  0.224661  0.011101  0.356089  1
  F  F31  1  0.275339  0.511101  0.856089  1
  F  F32  1  0.275339  0.988899  0.856089  1
  F  F33  1  0.430327  0.250000  0.118701  1
  F  F34  1  0.409950  0.750000  0.190669  1
  F  F35  1  0.509458  0.250000  0.452020  1
