# generated using pymatgen
data_Te2(PO4)3
_symmetry_space_group_name_H-M   'P 1'
_cell_length_a   9.32827024
_cell_length_b   9.32827024
_cell_length_c   9.32827024
_cell_angle_alpha   54.83409931
_cell_angle_beta   54.83409931
_cell_angle_gamma   54.83409931
_symmetry_Int_Tables_number   1
_chemical_formula_structural   Te2(PO4)3
_chemical_formula_sum   'Te4 P6 O24'
_cell_volume   504.93426680
_cell_formula_units_Z   2
loop_
 _symmetry_equiv_pos_site_id
 _symmetry_equiv_pos_as_xyz
  1  'x, y, z'
loop_
 _atom_site_type_symbol
 _atom_site_label
 _atom_site_symmetry_multiplicity
 _atom_site_fract_x
 _atom_site_fract_y
 _atom_site_fract_z
 _atom_site_occupancy
  Te  Te0  1  0.858249  0.858249  0.858249  1
  Te  Te1  1  0.141751  0.141751  0.141751  1
  Te  Te2  1  0.652408  0.652408  0.652408  1
  Te  Te3  1  0.347592  0.347592  0.347592  1
  P  P4  1  0.252223  0.544665  0.957870  1
  P  P5  1  0.957870  0.252223  0.544665  1
  P  P6  1  0.544665  0.957870  0.252223  1
  P  P7  1  0.455335  0.042130  0.747777  1
  P  P8  1  0.042130  0.747777  0.455335  1
  P  P9  1  0.747777  0.455335  0.042130  1
  O  O10  1  0.786242  0.472060  0.846256  1
  O  O11  1  0.472060  0.846256  0.786242  1
  O  O12  1  0.846256  0.786242  0.472060  1
  O  O13  1  0.464739  0.512127  0.827787  1
  O  O14  1  0.125633  0.746990  0.870263  1
  O  O15  1  0.210436  0.395843  0.978528  1
  O  O16  1  0.870263  0.125633  0.746990  1
  O  O17  1  0.827787  0.464739  0.512127  1
  O  O18  1  0.512127  0.827787  0.464739  1
  O  O19  1  0.604157  0.021472  0.789564  1
  O  O20  1  0.253010  0.129737  0.874367  1
  O  O21  1  0.021472  0.789564  0.604157  1
  O  O22  1  0.978528  0.210436  0.395843  1
  O  O23  1  0.746990  0.870263  0.125633  1
  O  O24  1  0.395843  0.978528  0.210436  1
  O  O25  1  0.487873  0.172213  0.535261  1
  O  O26  1  0.172213  0.535261  0.487873  1
  O  O27  1  0.129737  0.874367  0.253010  1
  O  O28  1  0.789564  0.604157  0.021472  1
  O  O29  1  0.874367  0.253010  0.129737  1
  O  O30  1  0.535261  0.487873  0.172213  1
  O  O31  1  0.153744  0.213758  0.527940  1
  O  O32  1  0.527940  0.153744  0.213758  1
  O  O33  1  0.213758  0.527940  0.153744  1
