# generated using pymatgen
data_Li2Fe3CuO8
_symmetry_space_group_name_H-M   'P 1'
_cell_length_a   8.41191948
_cell_length_b   8.41191948
_cell_length_c   8.41191948
_cell_angle_alpha   90.00000000
_cell_angle_beta   90.00000000
_cell_angle_gamma   90.00000000
_symmetry_Int_Tables_number   1
_chemical_formula_structural   Li2Fe3CuO8
_chemical_formula_sum   'Li8 Fe12 Cu4 O32'
_cell_volume   595.23069677
_cell_formula_units_Z   4
loop_
 _symmetry_equiv_pos_site_id
 _symmetry_equiv_pos_as_xyz
  1  'x, y, z'
loop_
 _atom_site_type_symbol
 _atom_site_label
 _atom_site_symmetry_multiplicity
 _atom_site_fract_x
 _atom_site_fract_y
 _atom_site_fract_z
 _atom_site_occupancy
  Li  Li0  1  0.003938  0.003938  0.003938  1
  Li  Li1  1  0.246062  0.246062  0.246062  1
  Li  Li2  1  0.253938  0.753938  0.746062  1
  Li  Li3  1  0.496062  0.996062  0.503938  1
  Li  Li4  1  0.503938  0.496062  0.996062  1
  Li  Li5  1  0.746062  0.253938  0.753938  1
  Li  Li6  1  0.753938  0.746062  0.253938  1
  Li  Li7  1  0.996062  0.503938  0.496062  1
  Fe  Fe8  1  0.124503  0.125497  0.625000  1
  Fe  Fe9  1  0.125000  0.375497  0.874503  1
  Fe  Fe10  1  0.125497  0.625000  0.124503  1
  Fe  Fe11  1  0.374503  0.375000  0.624503  1
  Fe  Fe12  1  0.375000  0.624503  0.374503  1
  Fe  Fe13  1  0.375497  0.874503  0.125000  1
  Fe  Fe14  1  0.624503  0.374503  0.375000  1
  Fe  Fe15  1  0.625000  0.124503  0.125497  1
  Fe  Fe16  1  0.625497  0.875000  0.875497  1
  Fe  Fe17  1  0.874503  0.125000  0.375497  1
  Fe  Fe18  1  0.875000  0.875497  0.625497  1
  Fe  Fe19  1  0.875497  0.625497  0.875000  1
  Cu  Cu20  1  0.125000  0.875000  0.375000  1
  Cu  Cu21  1  0.375000  0.125000  0.875000  1
  Cu  Cu22  1  0.625000  0.625000  0.625000  1
  Cu  Cu23  1  0.875000  0.375000  0.125000  1
  O  O24  1  0.117703  0.103968  0.386684  1
  O  O25  1  0.113316  0.882297  0.603968  1
  O  O26  1  0.115228  0.615228  0.884772  1
  O  O27  1  0.146032  0.132297  0.863316  1
  O  O28  1  0.103968  0.386684  0.117703  1
  O  O29  1  0.134772  0.365228  0.634772  1
  O  O30  1  0.136684  0.646032  0.367703  1
  O  O31  1  0.132297  0.863316  0.146032  1
  O  O32  1  0.367703  0.136684  0.646032  1
  O  O33  1  0.363316  0.353968  0.867703  1
  O  O34  1  0.365228  0.634772  0.134772  1
  O  O35  1  0.396032  0.613316  0.617703  1
  O  O36  1  0.353968  0.867703  0.363316  1
  O  O37  1  0.384772  0.384772  0.384772  1
  O  O38  1  0.386684  0.117703  0.103968  1
  O  O39  1  0.382297  0.896032  0.886684  1
  O  O40  1  0.617703  0.396032  0.613316  1
  O  O41  1  0.613316  0.617703  0.396032  1
  O  O42  1  0.615228  0.884772  0.115228  1
  O  O43  1  0.646032  0.367703  0.136684  1
  O  O44  1  0.603968  0.113316  0.882297  1
  O  O45  1  0.634772  0.134772  0.365228  1
  O  O46  1  0.636684  0.853968  0.632297  1
  O  O47  1  0.632297  0.636684  0.853968  1
  O  O48  1  0.867703  0.363316  0.353968  1
  O  O49  1  0.863316  0.146032  0.132297  1
  O  O50  1  0.865228  0.865228  0.865228  1
  O  O51  1  0.896032  0.886684  0.382297  1
  O  O52  1  0.853968  0.632297  0.636684  1
  O  O53  1  0.884772  0.115228  0.615228  1
  O  O54  1  0.886684  0.382297  0.896032  1
  O  O55  1  0.882297  0.603968  0.113316  1
