# generated using pymatgen
data_NaVCSO7
_symmetry_space_group_name_H-M   'P 1'
_cell_length_a   5.34239395
_cell_length_b   6.49918688
_cell_length_c   9.19829139
_cell_angle_alpha   90.00000000
_cell_angle_beta   91.81774946
_cell_angle_gamma   90.00000000
_symmetry_Int_Tables_number   1
_chemical_formula_structural   NaVCSO7
_chemical_formula_sum   'Na2 V2 C2 S2 O14'
_cell_volume   319.21515280
_cell_formula_units_Z   2
loop_
 _symmetry_equiv_pos_site_id
 _symmetry_equiv_pos_as_xyz
  1  'x, y, z'
loop_
 _atom_site_type_symbol
 _atom_site_label
 _atom_site_symmetry_multiplicity
 _atom_site_fract_x
 _atom_site_fract_y
 _atom_site_fract_z
 _atom_site_occupancy
  Na  Na0  1  0.767758  0.510289  0.210026  1
  Na  Na1  1  0.232242  0.010289  0.789974  1
  V  V2  1  0.222489  0.238119  0.338829  1
  V  V3  1  0.777511  0.738119  0.661171  1
  C  C4  1  0.272715  0.260439  0.078187  1
  C  C5  1  0.727285  0.760439  0.921813  1
  S  S6  1  0.274113  0.743732  0.427731  1
  S  S7  1  0.725887  0.243732  0.572269  1
  O  O8  1  0.682668  0.757209  0.051838  1
  O  O9  1  0.052123  0.255005  0.138221  1
  O  O10  1  0.456882  0.267012  0.185741  1
  O  O11  1  0.215579  0.924994  0.334350  1
  O  O12  1  0.190903  0.560274  0.341661  1
  O  O13  1  0.865645  0.255716  0.435143  1
  O  O14  1  0.547242  0.729361  0.462208  1
  O  O15  1  0.452758  0.229361  0.537792  1
  O  O16  1  0.134355  0.755716  0.564857  1
  O  O17  1  0.809097  0.060274  0.658339  1
  O  O18  1  0.784421  0.424994  0.665650  1
  O  O19  1  0.543118  0.767012  0.814259  1
  O  O20  1  0.947877  0.755005  0.861779  1
  O  O21  1  0.317332  0.257209  0.948162  1
