# generated using pymatgen
data_Li4V2OF7
_symmetry_space_group_name_H-M   'P 1'
_cell_length_a   5.96604849
_cell_length_b   6.01760342
_cell_length_c   6.03524379
_cell_angle_alpha   62.22906534
_cell_angle_beta   60.61563547
_cell_angle_gamma   60.85562623
_symmetry_Int_Tables_number   1
_chemical_formula_structural   Li4V2OF7
_chemical_formula_sum   'Li4 V2 O1 F7'
_cell_volume   157.39026781
_cell_formula_units_Z   1
loop_
 _symmetry_equiv_pos_site_id
 _symmetry_equiv_pos_as_xyz
  1  'x, y, z'
loop_
 _atom_site_type_symbol
 _atom_site_label
 _atom_site_symmetry_multiplicity
 _atom_site_fract_x
 _atom_site_fract_y
 _atom_site_fract_z
 _atom_site_occupancy
  Li  Li0  1  0.998563  0.502700  0.500382  1
  Li  Li1  1  0.488141  0.507751  0.509543  1
  Li  Li2  1  0.890661  0.881533  0.867403  1
  Li  Li3  1  0.125056  0.109799  0.120884  1
  V  V4  1  0.492271  0.503226  0.994935  1
  V  V5  1  0.484395  0.988289  0.511769  1
  O  O6  1  0.285372  0.758745  0.738575  1
  F  F7  1  0.265379  0.254298  0.721178  1
  F  F8  1  0.255637  0.724069  0.266361  1
  F  F9  1  0.720912  0.245606  0.263818  1
  F  F10  1  0.253069  0.247131  0.261355  1
  F  F11  1  0.744650  0.749814  0.739073  1
  F  F12  1  0.744381  0.755912  0.269583  1
  F  F13  1  0.751515  0.271125  0.735141  1
