# generated using pymatgen
data_H12Pd(I2N)4
_symmetry_space_group_name_H-M   'P 1'
_cell_length_a   9.63508055
_cell_length_b   8.69690493
_cell_length_c   13.22117127
_cell_angle_alpha   90.00000000
_cell_angle_beta   100.96942028
_cell_angle_gamma   90.00000000
_symmetry_Int_Tables_number   1
_chemical_formula_structural   H12Pd(I2N)4
_chemical_formula_sum   'H24 Pd2 I16 N8'
_cell_volume   1087.63098490
_cell_formula_units_Z   2
loop_
 _symmetry_equiv_pos_site_id
 _symmetry_equiv_pos_as_xyz
  1  'x, y, z'
loop_
 _atom_site_type_symbol
 _atom_site_label
 _atom_site_symmetry_multiplicity
 _atom_site_fract_x
 _atom_site_fract_y
 _atom_site_fract_z
 _atom_site_occupancy
  H  H0  1  0.262148  0.504918  0.170331  1
  H  H1  1  0.737852  0.004918  0.829669  1
  H  H2  1  0.737852  0.495082  0.829669  1
  H  H3  1  0.262148  0.995082  0.170331  1
  H  H4  1  0.328942  0.527831  0.295348  1
  H  H5  1  0.671058  0.027831  0.704652  1
  H  H6  1  0.671058  0.472169  0.704652  1
  H  H7  1  0.328942  0.972169  0.295348  1
  H  H8  1  0.394754  0.624742  0.206607  1
  H  H9  1  0.605246  0.124742  0.793393  1
  H  H10  1  0.605246  0.375258  0.793393  1
  H  H11  1  0.394754  0.875258  0.206607  1
  H  H12  1  0.928347  0.605357  0.281029  1
  H  H13  1  0.071653  0.105357  0.718971  1
  H  H14  1  0.071653  0.394643  0.718971  1
  H  H15  1  0.928347  0.894643  0.281029  1
  H  H16  1  0.970348  0.525286  0.177279  1
  H  H17  1  0.029652  0.025286  0.822721  1
  H  H18  1  0.029652  0.474714  0.822721  1
  H  H19  1  0.970348  0.974714  0.177279  1
  H  H20  1  0.063145  0.484868  0.292837  1
  H  H21  1  0.936855  0.984868  0.707163  1
  H  H22  1  0.936855  0.515132  0.707163  1
  H  H23  1  0.063145  0.015132  0.292837  1
  Pd  Pd24  1  0.154290  0.750000  0.236055  1
  Pd  Pd25  1  0.845710  0.250000  0.763945  1
  I  I26  1  0.789338  0.750000  0.592911  1
  I  I27  1  0.210662  0.250000  0.407089  1
  I  I28  1  0.104920  0.750000  0.554421  1
  I  I29  1  0.895080  0.250000  0.445579  1
  I  I30  1  0.390874  0.750000  0.528856  1
  I  I31  1  0.609126  0.250000  0.471144  1
  I  I32  1  0.918392  0.750000  0.955443  1
  I  I33  1  0.081608  0.250000  0.044557  1
  I  I34  1  0.207697  0.750000  0.910217  1
  I  I35  1  0.792303  0.250000  0.089783  1
  I  I36  1  0.498837  0.750000  0.868659  1
  I  I37  1  0.501163  0.250000  0.131341  1
  I  I38  1  0.611148  0.750000  0.117434  1
  I  I39  1  0.388852  0.250000  0.882566  1
  I  I40  1  0.692455  0.750000  0.337384  1
  I  I41  1  0.307545  0.250000  0.662616  1
  N  N42  1  0.302770  0.583544  0.225643  1
  N  N43  1  0.697230  0.083544  0.774357  1
  N  N44  1  0.697230  0.416456  0.774357  1
  N  N45  1  0.302770  0.916456  0.225643  1
  N  N46  1  0.012350  0.572374  0.247567  1
  N  N47  1  0.987650  0.072374  0.752433  1
  N  N48  1  0.987650  0.427626  0.752433  1
  N  N49  1  0.012350  0.927626  0.247567  1
