# generated using pymatgen
data_Fe2O3F
_symmetry_space_group_name_H-M   'P 1'
_cell_length_a   4.69751870
_cell_length_b   4.69751870
_cell_length_c   12.04345300
_cell_angle_alpha   90.00000000
_cell_angle_beta   90.00000000
_cell_angle_gamma   94.12842236
_symmetry_Int_Tables_number   1
_chemical_formula_structural   Fe2O3F
_chemical_formula_sum   'Fe8 O12 F4'
_cell_volume   265.06945306
_cell_formula_units_Z   4
loop_
 _symmetry_equiv_pos_site_id
 _symmetry_equiv_pos_as_xyz
  1  'x, y, z'
loop_
 _atom_site_type_symbol
 _atom_site_label
 _atom_site_symmetry_multiplicity
 _atom_site_fract_x
 _atom_site_fract_y
 _atom_site_fract_z
 _atom_site_occupancy
  Fe  Fe0  1  0.000000  0.000000  0.000000  1
  Fe  Fe1  1  0.011964  0.988036  0.750000  1
  Fe  Fe2  1  0.000000  0.000000  0.500000  1
  Fe  Fe3  1  0.988036  0.011964  0.250000  1
  Fe  Fe4  1  0.527921  0.472079  0.374985  1
  Fe  Fe5  1  0.472079  0.527921  0.874985  1
  Fe  Fe6  1  0.527921  0.472079  0.125015  1
  Fe  Fe7  1  0.472079  0.527921  0.625015  1
  O  O8  1  0.819216  0.180784  0.378466  1
  O  O9  1  0.819216  0.180784  0.121534  1
  O  O10  1  0.296081  0.317660  0.750000  1
  O  O11  1  0.307645  0.307645  0.500000  1
  O  O12  1  0.307645  0.307645  0.000000  1
  O  O13  1  0.317660  0.296081  0.250000  1
  O  O14  1  0.692355  0.692355  0.500000  1
  O  O15  1  0.703919  0.682340  0.250000  1
  O  O16  1  0.692355  0.692355  0.000000  1
  O  O17  1  0.682340  0.703919  0.750000  1
  O  O18  1  0.180784  0.819216  0.878466  1
  O  O19  1  0.180784  0.819216  0.621534  1
  F  F20  1  0.798900  0.201100  0.873370  1
  F  F21  1  0.798900  0.201100  0.626630  1
  F  F22  1  0.201100  0.798900  0.373370  1
  F  F23  1  0.201100  0.798900  0.126630  1
