# generated using pymatgen
data_Li2CoO2
_symmetry_space_group_name_H-M   'P 1'
_cell_length_a   5.03536729
_cell_length_b   5.03536729
_cell_length_c   5.03536729
_cell_angle_alpha   147.38266997
_cell_angle_beta   134.64761304
_cell_angle_gamma   56.97301933
_symmetry_Int_Tables_number   1
_chemical_formula_structural   Li2CoO2
_chemical_formula_sum   'Li2 Co1 O2'
_cell_volume   48.59290433
_cell_formula_units_Z   1
loop_
 _symmetry_equiv_pos_site_id
 _symmetry_equiv_pos_as_xyz
  1  'x, y, z'
loop_
 _atom_site_type_symbol
 _atom_site_label
 _atom_site_symmetry_multiplicity
 _atom_site_fract_x
 _atom_site_fract_y
 _atom_site_fract_z
 _atom_site_occupancy
  Li  Li0  1  0.804495  0.804495  0.000000  1
  Li  Li1  1  0.195505  0.195505  0.000000  1
  Co  Co2  1  0.500000  0.500000  0.000000  1
  O  O3  1  0.358081  0.858081  0.500000  1
  O  O4  1  0.641919  0.141919  0.500000  1
