# generated using pymatgen
data_TeH14C2(NO2)4
_symmetry_space_group_name_H-M   'P 1'
_cell_length_a   8.75772723
_cell_length_b   8.75772723
_cell_length_c   9.99927092
_cell_angle_alpha   57.18883771
_cell_angle_beta   122.81116229
_cell_angle_gamma   117.97302372
_symmetry_Int_Tables_number   1
_chemical_formula_structural   TeH14C2(NO2)4
_chemical_formula_sum   'Te2 H28 C4 N8 O16'
_cell_volume   524.76150919
_cell_formula_units_Z   2
loop_
 _symmetry_equiv_pos_site_id
 _symmetry_equiv_pos_as_xyz
  1  'x, y, z'
loop_
 _atom_site_type_symbol
 _atom_site_label
 _atom_site_symmetry_multiplicity
 _atom_site_fract_x
 _atom_site_fract_y
 _atom_site_fract_z
 _atom_site_occupancy
  Te  Te0  1  0.566225  0.566225  0.750000  1
  Te  Te1  1  0.433775  0.433775  0.250000  1
  H  H2  1  0.331728  0.028611  0.589129  1
  H  H3  1  0.534460  0.330789  0.662893  1
  H  H4  1  0.090572  0.316035  0.197824  1
  H  H5  1  0.349664  0.111925  0.897611  1
  H  H6  1  0.835940  0.102806  0.318661  1
  H  H7  1  0.107645  0.310174  0.446646  1
  H  H8  1  0.738536  0.347594  0.033604  1
  H  H9  1  0.111925  0.349664  0.602389  1
  H  H10  1  0.347594  0.738536  0.466396  1
  H  H11  1  0.971389  0.668272  0.089129  1
  H  H12  1  0.683965  0.909428  0.697824  1
  H  H13  1  0.310174  0.107645  0.053354  1
  H  H14  1  0.102806  0.835940  0.181339  1
  H  H15  1  0.330789  0.534460  0.837107  1
  H  H16  1  0.669211  0.465540  0.162893  1
  H  H17  1  0.897194  0.164060  0.818661  1
  H  H18  1  0.689826  0.892355  0.946646  1
  H  H19  1  0.316035  0.090572  0.302176  1
  H  H20  1  0.028611  0.331728  0.910871  1
  H  H21  1  0.652406  0.261464  0.533604  1
  H  H22  1  0.888075  0.650336  0.397611  1
  H  H23  1  0.261464  0.652406  0.966396  1
  H  H24  1  0.892355  0.689826  0.553354  1
  H  H25  1  0.164060  0.897194  0.681339  1
  H  H26  1  0.650336  0.888075  0.102389  1
  H  H27  1  0.909428  0.683965  0.802176  1
  H  H28  1  0.465540  0.669211  0.337107  1
  H  H29  1  0.668272  0.971389  0.410871  1
  C  C30  1  0.837647  0.123669  0.013167  1
  C  C31  1  0.876331  0.162353  0.513167  1
  C  C32  1  0.123669  0.837647  0.486833  1
  C  C33  1  0.162353  0.876331  0.986833  1
  N  N34  1  0.291016  0.039349  0.986767  1
  N  N35  1  0.789109  0.071446  0.407068  1
  N  N36  1  0.039349  0.291016  0.513233  1
  N  N37  1  0.071446  0.789109  0.092932  1
  N  N38  1  0.928554  0.210891  0.907068  1
  N  N39  1  0.960651  0.708984  0.486767  1
  N  N40  1  0.210891  0.928554  0.592932  1
  N  N41  1  0.708984  0.960651  0.013233  1
  O  O42  1  0.207711  0.371331  0.280981  1
  O  O43  1  0.873378  0.197019  0.112530  1
  O  O44  1  0.488599  0.325057  0.737931  1
  O  O45  1  0.691022  0.450781  0.003890  1
  O  O46  1  0.450781  0.691022  0.496110  1
  O  O47  1  0.325057  0.488599  0.762069  1
  O  O48  1  0.628669  0.792289  0.780981  1
  O  O49  1  0.802981  0.126622  0.612530  1
  O  O50  1  0.197019  0.873378  0.387470  1
  O  O51  1  0.371331  0.207711  0.219019  1
  O  O52  1  0.674943  0.511401  0.237931  1
  O  O53  1  0.549219  0.308978  0.503890  1
  O  O54  1  0.308978  0.549219  0.996110  1
  O  O55  1  0.511401  0.674943  0.262069  1
  O  O56  1  0.126622  0.802981  0.887470  1
  O  O57  1  0.792289  0.628669  0.719019  1
