# generated using pymatgen
data_K2P3H5O11
_symmetry_space_group_name_H-M   'P 1'
_cell_length_a   16.25093770
_cell_length_b   16.25093770
_cell_length_c   9.37350292
_cell_angle_alpha   80.13306218
_cell_angle_beta   99.86693782
_cell_angle_gamma   153.34633463
_symmetry_Int_Tables_number   1
_chemical_formula_structural   K2P3H5O11
_chemical_formula_sum   'K8 P12 H20 O44'
_cell_volume   1093.13472901
_cell_formula_units_Z   4
loop_
 _symmetry_equiv_pos_site_id
 _symmetry_equiv_pos_as_xyz
  1  'x, y, z'
loop_
 _atom_site_type_symbol
 _atom_site_label
 _atom_site_symmetry_multiplicity
 _atom_site_fract_x
 _atom_site_fract_y
 _atom_site_fract_z
 _atom_site_occupancy
  K  K0  1  0.210355  0.853811  0.878522  1
  K  K1  1  0.853811  0.210355  0.621478  1
  K  K2  1  0.789645  0.146189  0.121478  1
  K  K3  1  0.146189  0.789645  0.378522  1
  K  K4  1  0.499362  0.499362  0.250000  1
  K  K5  1  0.500638  0.500638  0.750000  1
  K  K6  1  0.000000  0.000000  0.000000  1
  K  K7  1  0.000000  0.000000  0.500000  1
  P  P8  1  0.227945  0.679999  0.203059  1
  P  P9  1  0.679999  0.227945  0.296941  1
  P  P10  1  0.772055  0.320001  0.796941  1
  P  P11  1  0.320001  0.772055  0.703059  1
  P  P12  1  0.408177  0.218846  0.056685  1
  P  P13  1  0.218846  0.408177  0.443315  1
  P  P14  1  0.591823  0.781154  0.943315  1
  P  P15  1  0.781154  0.591823  0.556685  1
  P  P16  1  0.795521  0.622296  0.052429  1
  P  P17  1  0.622296  0.795521  0.447571  1
  P  P18  1  0.204479  0.377704  0.947571  1
  P  P19  1  0.377704  0.204479  0.552429  1
  H  H20  1  0.925591  0.474632  0.145724  1
  H  H21  1  0.474632  0.925591  0.354276  1
  H  H22  1  0.074409  0.525368  0.854276  1
  H  H23  1  0.525368  0.074409  0.645724  1
  H  H24  1  0.657443  0.226251  0.000208  1
  H  H25  1  0.226251  0.657443  0.499792  1
  H  H26  1  0.342557  0.773749  0.999792  1
  H  H27  1  0.773749  0.342557  0.500208  1
  H  H28  1  0.101098  0.426849  0.330724  1
  H  H29  1  0.426849  0.101098  0.169276  1
  H  H30  1  0.898902  0.573151  0.669276  1
  H  H31  1  0.573151  0.898902  0.830724  1
  H  H32  1  0.316181  0.133606  0.326918  1
  H  H33  1  0.133606  0.316181  0.173082  1
  H  H34  1  0.683819  0.866394  0.673082  1
  H  H35  1  0.866394  0.683819  0.826918  1
  H  H36  1  0.682269  0.863191  0.213177  1
  H  H37  1  0.863191  0.682269  0.286823  1
  H  H38  1  0.317731  0.136809  0.786823  1
  H  H39  1  0.136809  0.317731  0.713177  1
  O  O40  1  0.110404  0.496776  0.218702  1
  O  O41  1  0.496776  0.110404  0.281298  1
  O  O42  1  0.889596  0.503224  0.781298  1
  O  O43  1  0.503224  0.889596  0.718702  1
  O  O44  1  0.113139  0.656401  0.146476  1
  O  O45  1  0.656401  0.113139  0.353524  1
  O  O46  1  0.886861  0.343599  0.853524  1
  O  O47  1  0.343599  0.886861  0.646476  1
  O  O48  1  0.777394  0.330822  0.147351  1
  O  O49  1  0.330822  0.777394  0.352649  1
  O  O50  1  0.222606  0.669178  0.852649  1
  O  O51  1  0.669178  0.222606  0.647351  1
  O  O52  1  0.394592  0.822706  0.100686  1
  O  O53  1  0.822706  0.394592  0.399314  1
  O  O54  1  0.605408  0.177294  0.899314  1
  O  O55  1  0.177294  0.605408  0.600686  1
  O  O56  1  0.352471  0.075341  0.079667  1
  O  O57  1  0.075341  0.352471  0.420333  1
  O  O58  1  0.647529  0.924659  0.920333  1
  O  O59  1  0.924659  0.647529  0.579667  1
  O  O60  1  0.355757  0.216233  0.180138  1
  O  O61  1  0.216233  0.355757  0.319862  1
  O  O62  1  0.644243  0.783767  0.819862  1
  O  O63  1  0.783767  0.644243  0.680138  1
  O  O64  1  0.339075  0.201474  0.907380  1
  O  O65  1  0.201474  0.339075  0.592620  1
  O  O66  1  0.660925  0.798526  0.092620  1
  O  O67  1  0.798526  0.660925  0.407380  1
  O  O68  1  0.632748  0.410074  0.058906  1
  O  O69  1  0.410074  0.632748  0.441094  1
  O  O70  1  0.367252  0.589926  0.941094  1
  O  O71  1  0.589926  0.367252  0.558906  1
  O  O72  1  0.724120  0.646704  0.025618  1
  O  O73  1  0.646704  0.724120  0.474382  1
  O  O74  1  0.275880  0.353296  0.974382  1
  O  O75  1  0.353296  0.275880  0.525618  1
  O  O76  1  0.922935  0.715082  0.932501  1
  O  O77  1  0.715082  0.922935  0.567499  1
  O  O78  1  0.077065  0.284918  0.067499  1
  O  O79  1  0.284918  0.077065  0.432501  1
  O  O80  1  0.913896  0.703939  0.196786  1
  O  O81  1  0.703939  0.913896  0.303214  1
  O  O82  1  0.086104  0.296061  0.803214  1
  O  O83  1  0.296061  0.086104  0.696786  1
