# generated using pymatgen
data_Li2V5Cr2O12
_symmetry_space_group_name_H-M   'P 1'
_cell_length_a   5.09515012
_cell_length_b   9.09637357
_cell_length_c   9.86779455
_cell_angle_alpha   90.00000000
_cell_angle_beta   102.64002297
_cell_angle_gamma   90.00000000
_symmetry_Int_Tables_number   1
_chemical_formula_structural   Li2V5Cr2O12
_chemical_formula_sum   'Li4 V10 Cr4 O24'
_cell_volume   446.26232720
_cell_formula_units_Z   2
loop_
 _symmetry_equiv_pos_site_id
 _symmetry_equiv_pos_as_xyz
  1  'x, y, z'
loop_
 _atom_site_type_symbol
 _atom_site_label
 _atom_site_symmetry_multiplicity
 _atom_site_fract_x
 _atom_site_fract_y
 _atom_site_fract_z
 _atom_site_occupancy
  Li  Li0  1  0.496215  0.920655  0.741643  1
  Li  Li1  1  0.743996  0.580537  0.506387  1
  Li  Li2  1  0.503785  0.420655  0.258357  1
  Li  Li3  1  0.256004  0.080537  0.493613  1
  V  V4  1  0.246726  0.917360  0.001552  1
  V  V5  1  0.754210  0.933739  0.495365  1
  V  V6  1  0.987235  0.738112  0.740389  1
  V  V7  1  0.514235  0.745875  0.259825  1
  V  V8  1  0.250370  0.572490  0.992535  1
  V  V9  1  0.245790  0.433739  0.504635  1
  V  V10  1  0.012765  0.238112  0.259611  1
  V  V11  1  0.753274  0.417360  0.998448  1
  V  V12  1  0.485765  0.245875  0.740175  1
  V  V13  1  0.749630  0.072490  0.007465  1
  Cr  Cr14  1  0.246385  0.752329  0.495144  1
  Cr  Cr15  1  0.754046  0.742691  0.004336  1
  Cr  Cr16  1  0.245954  0.242691  0.995664  1
  Cr  Cr17  1  0.753615  0.252329  0.504856  1
  O  O18  1  0.106800  0.895991  0.619080  1
  O  O19  1  0.869135  0.897460  0.888850  1
  O  O20  1  0.860195  0.771924  0.384284  1
  O  O21  1  0.406169  0.905820  0.389247  1
  O  O22  1  0.149751  0.738821  0.109453  1
  O  O23  1  0.620794  0.900446  0.113673  1
  O  O24  1  0.633554  0.773035  0.618789  1
  O  O25  1  0.124931  0.595732  0.604057  1
  O  O26  1  0.874641  0.589062  0.885273  1
  O  O27  1  0.357573  0.754271  0.883847  1
  O  O28  1  0.380033  0.596418  0.383561  1
  O  O29  1  0.616666  0.586496  0.115754  1
  O  O30  1  0.893200  0.395991  0.380920  1
  O  O31  1  0.130865  0.397460  0.111150  1
  O  O32  1  0.139805  0.271924  0.615716  1
  O  O33  1  0.593831  0.405820  0.610753  1
  O  O34  1  0.850249  0.238821  0.890547  1
  O  O35  1  0.379206  0.400446  0.886327  1
  O  O36  1  0.366446  0.273035  0.381211  1
  O  O37  1  0.875069  0.095732  0.395943  1
  O  O38  1  0.125359  0.089062  0.114727  1
  O  O39  1  0.642427  0.254271  0.116153  1
  O  O40  1  0.619967  0.096418  0.616439  1
  O  O41  1  0.383334  0.086496  0.884246  1
