# generated using pymatgen
data_Ti2N2O
_symmetry_space_group_name_H-M   'P 1'
_cell_length_a   8.20836800
_cell_length_b   8.22448804
_cell_length_c   8.22418002
_cell_angle_alpha   109.43673155
_cell_angle_beta   109.39175051
_cell_angle_gamma   109.46567060
_symmetry_Int_Tables_number   1
_chemical_formula_structural   Ti2N2O
_chemical_formula_sum   'Ti16 N16 O8'
_cell_volume   428.03094219
_cell_formula_units_Z   8
loop_
 _symmetry_equiv_pos_site_id
 _symmetry_equiv_pos_as_xyz
  1  'x, y, z'
loop_
 _atom_site_type_symbol
 _atom_site_label
 _atom_site_symmetry_multiplicity
 _atom_site_fract_x
 _atom_site_fract_y
 _atom_site_fract_z
 _atom_site_occupancy
  Ti  Ti0  1  0.204807  0.247072  0.953564  1
  Ti  Ti1  1  0.998813  0.487401  0.990954  1
  Ti  Ti2  1  0.237832  0.536784  0.784665  1
  Ti  Ti3  1  0.755774  0.962500  0.707309  1
  Ti  Ti4  1  0.038693  0.288760  0.254173  1
  Ti  Ti5  1  0.531679  0.786915  0.246712  1
  Ti  Ti6  1  0.999407  0.988054  0.485370  1
  Ti  Ti7  1  0.510381  0.020718  0.015347  1
  Ti  Ti8  1  0.306895  0.755308  0.544327  1
  Ti  Ti9  1  0.495268  0.496800  0.498969  1
  Ti  Ti10  1  0.708097  0.260125  0.461153  1
  Ti  Ti11  1  0.466101  0.203997  0.754445  1
  Ti  Ti12  1  0.953590  0.708611  0.741616  1
  Ti  Ti13  1  0.260882  0.041456  0.305811  1
  Ti  Ti14  1  0.744541  0.458143  0.202590  1
  Ti  Ti15  1  0.788171  0.746148  0.046846  1
  N  N16  1  0.492622  0.727346  0.451690  1
  N  N17  1  0.274855  0.539966  0.046689  1
  N  N18  1  0.448012  0.986170  0.224458  1
  N  N19  1  0.264265  0.489240  0.540337  1
  N  N20  1  0.009226  0.958905  0.735737  1
  N  N21  1  0.457512  0.234222  0.010792  1
  N  N22  1  0.223908  0.946154  0.488995  1
  N  N23  1  0.961671  0.448704  0.724532  1
  N  N24  1  0.774857  0.227129  0.233108  1
  N  N25  1  0.994543  0.041223  0.266823  1
  N  N26  1  0.738620  0.515390  0.464657  1
  N  N27  1  0.549219  0.009431  0.776392  1
  N  N28  1  0.764446  0.728444  0.275791  1
  N  N29  1  0.949236  0.225758  0.960859  1
  N  N30  1  0.506945  0.276461  0.548273  1
  N  N31  1  0.726430  0.463268  0.952363  1
  O  O32  1  0.231798  0.274019  0.725588  1
  O  O33  1  0.042075  0.774483  0.033920  1
  O  O34  1  0.225880  0.771747  0.768954  1
  O  O35  1  0.776206  0.052844  0.514315  1
  O  O36  1  0.278365  0.272199  0.225783  1
  O  O37  1  0.542045  0.764105  0.986801  1
  O  O38  1  0.043105  0.551547  0.274898  1
  O  O39  1  0.723228  0.732453  0.774391  1
