# generated using pymatgen
data_Li4Cr2Ni3Sn(PO4)6
_symmetry_space_group_name_H-M   'P 1'
_cell_length_a   8.41975249
_cell_length_b   8.69223810
_cell_length_c   8.70312801
_cell_angle_alpha   61.78745497
_cell_angle_beta   62.65487671
_cell_angle_gamma   62.55833318
_symmetry_Int_Tables_number   1
_chemical_formula_structural   Li4Cr2Ni3Sn(PO4)6
_chemical_formula_sum   'Li4 Cr2 Ni3 Sn1 P6 O24'
_cell_volume   473.78332770
_cell_formula_units_Z   1
loop_
 _symmetry_equiv_pos_site_id
 _symmetry_equiv_pos_as_xyz
  1  'x, y, z'
loop_
 _atom_site_type_symbol
 _atom_site_label
 _atom_site_symmetry_multiplicity
 _atom_site_fract_x
 _atom_site_fract_y
 _atom_site_fract_z
 _atom_site_occupancy
  Li  Li0  1  0.254019  0.649113  0.850239  1
  Li  Li1  1  0.707443  0.359754  0.155252  1
  Li  Li2  1  0.365894  0.150326  0.706415  1
  Li  Li3  1  0.144509  0.702740  0.363430  1
  Cr  Cr4  1  0.989711  0.997336  0.998644  1
  Cr  Cr5  1  0.507789  0.499984  0.500574  1
  Ni  Ni6  1  0.854849  0.855247  0.852075  1
  Ni  Ni7  1  0.646496  0.647578  0.644249  1
  Ni  Ni8  1  0.353525  0.348279  0.351708  1
  Sn  Sn9  1  0.148973  0.148010  0.153372  1
  P  P10  1  0.749852  0.044798  0.457918  1
  P  P11  1  0.445129  0.750723  0.041621  1
  P  P12  1  0.056790  0.460816  0.752777  1
  P  P13  1  0.942942  0.553709  0.254172  1
  P  P14  1  0.561974  0.252680  0.949623  1
  P  P15  1  0.253982  0.946074  0.558175  1
  O  O16  1  0.895228  0.501957  0.693397  1
  O  O17  1  0.695598  0.889553  0.482325  1
  O  O18  1  0.945059  0.731951  0.087048  1
  O  O19  1  0.453405  0.697000  0.893866  1
  O  O20  1  0.978365  0.392480  0.193676  1
  O  O21  1  0.748796  0.568705  0.403223  1
  O  O22  1  0.751739  0.098558  0.926746  1
  O  O23  1  0.552194  0.416607  0.769348  1
  O  O24  1  0.817204  0.013805  0.606333  1
  O  O25  1  0.403613  0.752979  0.576590  1
  O  O26  1  0.903321  0.079271  0.254170  1
  O  O27  1  0.601948  0.818589  0.994535  1
  O  O28  1  0.401109  0.181212  0.988383  1
  O  O29  1  0.099928  0.921839  0.747388  1
  O  O30  1  0.592916  0.239928  0.431961  1
  O  O31  1  0.191822  0.978271  0.397520  1
  O  O32  1  0.428640  0.595325  0.235307  1
  O  O33  1  0.239496  0.907819  0.075995  1
  O  O34  1  0.254505  0.433040  0.596021  1
  O  O35  1  0.041553  0.603414  0.817242  1
  O  O36  1  0.527087  0.309594  0.107711  1
  O  O37  1  0.078070  0.259577  0.906658  1
  O  O38  1  0.314372  0.103837  0.523444  1
  O  O39  1  0.100155  0.514522  0.323869  1
