# generated using pymatgen
data_BaLaI5
_symmetry_space_group_name_H-M   'P 1'
_cell_length_a   8.20681770
_cell_length_b   14.55763592
_cell_length_c   11.22876727
_cell_angle_alpha   90.00000000
_cell_angle_beta   95.38879690
_cell_angle_gamma   90.00000000
_symmetry_Int_Tables_number   1
_chemical_formula_structural   BaLaI5
_chemical_formula_sum   'Ba4 La4 I20'
_cell_volume   1335.59269687
_cell_formula_units_Z   4
loop_
 _symmetry_equiv_pos_site_id
 _symmetry_equiv_pos_as_xyz
  1  'x, y, z'
loop_
 _atom_site_type_symbol
 _atom_site_label
 _atom_site_symmetry_multiplicity
 _atom_site_fract_x
 _atom_site_fract_y
 _atom_site_fract_z
 _atom_site_occupancy
  Ba  Ba0  1  0.050027  0.042390  0.184570  1
  Ba  Ba1  1  0.414391  0.377605  0.377825  1
  Ba  Ba2  1  0.585609  0.877606  0.622175  1
  Ba  Ba3  1  0.949973  0.542390  0.815430  1
  La  La4  1  0.969233  0.614820  0.382371  1
  La  La5  1  0.514599  0.230817  0.882865  1
  La  La6  1  0.485401  0.730817  0.117135  1
  La  La7  1  0.030767  0.114820  0.617629  1
  I  I8  1  0.949534  0.757247  0.593657  1
  I  I9  1  0.135849  0.503612  0.179368  1
  I  I10  1  0.139501  0.290561  0.783596  1
  I  I11  1  0.220235  0.516486  0.577842  1
  I  I12  1  0.330625  0.224782  0.127104  1
  I  I13  1  0.274683  0.008844  0.455208  1
  I  I14  1  0.189371  0.722122  0.926001  1
  I  I15  1  0.346101  0.731597  0.376990  1
  I  I16  1  0.349834  0.037468  0.793579  1
  I  I17  1  0.425482  0.940147  0.123796  1
  I  I18  1  0.574518  0.440147  0.876204  1
  I  I19  1  0.650166  0.537468  0.206421  1
  I  I20  1  0.653899  0.231597  0.623010  1
  I  I21  1  0.810629  0.222122  0.073999  1
  I  I22  1  0.725317  0.508844  0.544792  1
  I  I23  1  0.669375  0.724782  0.872896  1
  I  I24  1  0.779765  0.016486  0.422158  1
  I  I25  1  0.860499  0.790561  0.216404  1
  I  I26  1  0.864151  0.003612  0.820632  1
  I  I27  1  0.050466  0.257247  0.406343  1
