# generated using pymatgen
data_Li2VF5
_symmetry_space_group_name_H-M   'P 1'
_cell_length_a   7.14502697
_cell_length_b   5.17398869
_cell_length_c   10.05501883
_cell_angle_alpha   90.00000000
_cell_angle_beta   102.83043601
_cell_angle_gamma   90.00000000
_symmetry_Int_Tables_number   1
_chemical_formula_structural   Li2VF5
_chemical_formula_sum   'Li8 V4 F20'
_cell_volume   362.43563810
_cell_formula_units_Z   4
loop_
 _symmetry_equiv_pos_site_id
 _symmetry_equiv_pos_as_xyz
  1  'x, y, z'
loop_
 _atom_site_type_symbol
 _atom_site_label
 _atom_site_symmetry_multiplicity
 _atom_site_fract_x
 _atom_site_fract_y
 _atom_site_fract_z
 _atom_site_occupancy
  Li  Li0  1  0.134397  0.240880  0.996533  1
  Li  Li1  1  0.480610  0.751222  0.068232  1
  Li  Li2  1  0.519390  0.251222  0.431768  1
  Li  Li3  1  0.865603  0.740880  0.503467  1
  Li  Li4  1  0.134397  0.259120  0.496533  1
  Li  Li5  1  0.480610  0.748778  0.568232  1
  Li  Li6  1  0.519390  0.248778  0.931768  1
  Li  Li7  1  0.865603  0.759120  0.003467  1
  V  V8  1  0.835685  0.267840  0.200572  1
  V  V9  1  0.164315  0.767840  0.299428  1
  V  V10  1  0.835685  0.232160  0.700572  1
  V  V11  1  0.164315  0.732160  0.799428  1
  F  F12  1  0.053222  0.029892  0.142132  1
  F  F13  1  0.049693  0.513355  0.142747  1
  F  F14  1  0.950307  0.013355  0.357253  1
  F  F15  1  0.691541  0.011645  0.065234  1
  F  F16  1  0.690549  0.506195  0.055045  1
  F  F17  1  0.946778  0.529892  0.357868  1
  F  F18  1  0.613066  0.277661  0.272637  1
  F  F19  1  0.386934  0.777661  0.227363  1
  F  F20  1  0.309451  0.006195  0.444955  1
  F  F21  1  0.308459  0.511645  0.434766  1
  F  F22  1  0.691541  0.488355  0.565234  1
  F  F23  1  0.690549  0.993805  0.555045  1
  F  F24  1  0.613066  0.222339  0.772637  1
  F  F25  1  0.386934  0.722339  0.727363  1
  F  F26  1  0.053222  0.470108  0.642132  1
  F  F27  1  0.309451  0.493805  0.944955  1
  F  F28  1  0.308459  0.988355  0.934766  1
  F  F29  1  0.049693  0.986645  0.642747  1
  F  F30  1  0.950307  0.486645  0.857253  1
  F  F31  1  0.946778  0.970108  0.857868  1
