# generated using pymatgen
data_Mn2Cr3Co3O16
_symmetry_space_group_name_H-M   'P 1'
_cell_length_a   5.73445886
_cell_length_b   5.73445886
_cell_length_c   8.84158744
_cell_angle_alpha   89.82604519
_cell_angle_beta   90.17395481
_cell_angle_gamma   119.73374090
_symmetry_Int_Tables_number   1
_chemical_formula_structural   Mn2Cr3Co3O16
_chemical_formula_sum   'Mn2 Cr3 Co3 O16'
_cell_volume   252.46550991
_cell_formula_units_Z   1
loop_
 _symmetry_equiv_pos_site_id
 _symmetry_equiv_pos_as_xyz
  1  'x, y, z'
loop_
 _atom_site_type_symbol
 _atom_site_label
 _atom_site_symmetry_multiplicity
 _atom_site_fract_x
 _atom_site_fract_y
 _atom_site_fract_z
 _atom_site_occupancy
  Mn  Mn0  1  0.332754  0.667246  0.484676  1
  Mn  Mn1  1  0.665797  0.334203  0.980219  1
  Cr  Cr2  1  0.672176  0.829693  0.204897  1
  Cr  Cr3  1  0.170307  0.327824  0.204897  1
  Cr  Cr4  1  0.837863  0.162137  0.702080  1
  Co  Co5  1  0.172543  0.827457  0.214650  1
  Co  Co6  1  0.831528  0.659461  0.712670  1
  Co  Co7  1  0.340539  0.168472  0.712670  1
  O  O8  1  0.662372  0.831090  0.604699  1
  O  O9  1  0.476279  0.523721  0.339740  1
  O  O10  1  0.327532  0.672468  0.097030  1
  O  O11  1  0.008423  0.991577  0.317862  1
  O  O12  1  0.007666  0.992334  0.817129  1
  O  O13  1  0.168910  0.337628  0.604699  1
  O  O14  1  0.476863  0.958164  0.341738  1
  O  O15  1  0.041836  0.523137  0.341738  1
  O  O16  1  0.827243  0.172757  0.108245  1
  O  O17  1  0.162742  0.837258  0.605391  1
  O  O18  1  0.958773  0.481443  0.840205  1
  O  O19  1  0.518557  0.041227  0.840205  1
  O  O20  1  0.661353  0.338647  0.600944  1
  O  O21  1  0.831020  0.664171  0.104083  1
  O  O22  1  0.520278  0.479722  0.836870  1
  O  O23  1  0.335829  0.168980  0.104083  1
