# generated using pymatgen
data_Li7(CuO2)6
_symmetry_space_group_name_H-M   'P 1'
_cell_length_a   5.21292085
_cell_length_b   6.85672228
_cell_length_c   8.25649875
_cell_angle_alpha   101.46287259
_cell_angle_beta   105.41652744
_cell_angle_gamma   99.80049030
_symmetry_Int_Tables_number   1
_chemical_formula_structural   Li7(CuO2)6
_chemical_formula_sum   'Li7 Cu6 O12'
_cell_volume   270.94177887
_cell_formula_units_Z   1
loop_
 _symmetry_equiv_pos_site_id
 _symmetry_equiv_pos_as_xyz
  1  'x, y, z'
loop_
 _atom_site_type_symbol
 _atom_site_label
 _atom_site_symmetry_multiplicity
 _atom_site_fract_x
 _atom_site_fract_y
 _atom_site_fract_z
 _atom_site_occupancy
  Li  Li0  1  0.590861  0.380398  0.912875  1
  Li  Li1  1  0.500000  0.000000  0.000000  1
  Li  Li2  1  0.409139  0.619602  0.087125  1
  Li  Li3  1  0.500937  0.011968  0.331541  1
  Li  Li4  1  0.408799  0.618041  0.420113  1
  Li  Li5  1  0.591201  0.381959  0.579887  1
  Li  Li6  1  0.499063  0.988032  0.668459  1
  Cu  Cu7  1  0.950668  0.765919  0.869250  1
  Cu  Cu8  1  0.958849  0.770569  0.206734  1
  Cu  Cu9  1  0.959121  0.771088  0.537355  1
  Cu  Cu10  1  0.049332  0.234081  0.130750  1
  Cu  Cu11  1  0.040879  0.228912  0.462645  1
  Cu  Cu12  1  0.041151  0.229431  0.793266  1
  O  O13  1  0.785830  0.163340  0.908446  1
  O  O14  1  0.704565  0.681061  0.985406  1
  O  O15  1  0.796486  0.144927  0.238876  1
  O  O16  1  0.699674  0.705988  0.317749  1
  O  O17  1  0.779853  0.161246  0.573308  1
  O  O18  1  0.702721  0.684707  0.643132  1
  O  O19  1  0.295435  0.318939  0.014594  1
  O  O20  1  0.214170  0.836660  0.091554  1
  O  O21  1  0.297279  0.315293  0.356868  1
  O  O22  1  0.220147  0.838754  0.426692  1
  O  O23  1  0.300326  0.294012  0.682251  1
  O  O24  1  0.203514  0.855073  0.761124  1
