# generated using pymatgen
data_KRbO
_symmetry_space_group_name_H-M   'P 1'
_cell_length_a   8.93466456
_cell_length_b   8.93466456
_cell_length_c   8.93466456
_cell_angle_alpha   95.94387581
_cell_angle_beta   95.94387581
_cell_angle_gamma   142.45655794
_symmetry_Int_Tables_number   1
_chemical_formula_structural   KRbO
_chemical_formula_sum   'K4 Rb4 O4'
_cell_volume   411.50270342
_cell_formula_units_Z   4
loop_
 _symmetry_equiv_pos_site_id
 _symmetry_equiv_pos_as_xyz
  1  'x, y, z'
loop_
 _atom_site_type_symbol
 _atom_site_label
 _atom_site_symmetry_multiplicity
 _atom_site_fract_x
 _atom_site_fract_y
 _atom_site_fract_z
 _atom_site_occupancy
  K  K0  1  0.164759  0.164759  0.329517  1
  K  K1  1  0.164759  0.835241  0.000000  1
  K  K2  1  0.835241  0.835241  0.670483  1
  K  K3  1  0.835241  0.164759  0.000000  1
  Rb  Rb4  1  0.500000  0.145703  0.645703  1
  Rb  Rb5  1  0.145703  0.500000  0.645703  1
  Rb  Rb6  1  0.854297  0.500000  0.354297  1
  Rb  Rb7  1  0.500000  0.854297  0.354297  1
  O  O8  1  0.000000  0.699979  0.699979  1
  O  O9  1  0.000000  0.300021  0.300021  1
  O  O10  1  0.300021  0.000000  0.300021  1
  O  O11  1  0.699979  0.000000  0.699979  1
