# generated using pymatgen
data_Li14Mn2S9
_symmetry_space_group_name_H-M   'P 1'
_cell_length_a   7.07327668
_cell_length_b   7.07327668
_cell_length_c   9.91299654
_cell_angle_alpha   90.00000000
_cell_angle_beta   90.00000000
_cell_angle_gamma   120.00000000
_symmetry_Int_Tables_number   1
_chemical_formula_structural   Li14Mn2S9
_chemical_formula_sum   'Li14 Mn2 S9'
_cell_volume   429.51356023
_cell_formula_units_Z   1
loop_
 _symmetry_equiv_pos_site_id
 _symmetry_equiv_pos_as_xyz
  1  'x, y, z'
loop_
 _atom_site_type_symbol
 _atom_site_label
 _atom_site_symmetry_multiplicity
 _atom_site_fract_x
 _atom_site_fract_y
 _atom_site_fract_z
 _atom_site_occupancy
  Li  Li0  1  0.024612  0.677516  0.410207  1
  Li  Li1  1  0.323239  0.958572  0.089306  1
  Li  Li2  1  0.041428  0.364667  0.089306  1
  Li  Li3  1  0.000000  0.000000  0.751975  1
  Li  Li4  1  0.000000  0.000000  0.248025  1
  Li  Li5  1  0.322484  0.347096  0.410207  1
  Li  Li6  1  0.652904  0.975388  0.410207  1
  Li  Li7  1  0.364667  0.323239  0.910694  1
  Li  Li8  1  0.635333  0.676761  0.089306  1
  Li  Li9  1  0.347096  0.024612  0.589793  1
  Li  Li10  1  0.677516  0.652904  0.589793  1
  Li  Li11  1  0.958572  0.635333  0.910694  1
  Li  Li12  1  0.676761  0.041428  0.910694  1
  Li  Li13  1  0.975388  0.322484  0.589793  1
  Mn  Mn14  1  0.333333  0.666667  0.755527  1
  Mn  Mn15  1  0.666667  0.333333  0.244473  1
  S  S16  1  0.310397  0.971554  0.838495  1
  S  S17  1  0.028446  0.338842  0.838495  1
  S  S18  1  0.333333  0.666667  0.515055  1
  S  S19  1  0.000000  0.000000  0.500000  1
  S  S20  1  0.338842  0.310397  0.161505  1
  S  S21  1  0.661158  0.689603  0.838495  1
  S  S22  1  0.666667  0.333333  0.484945  1
  S  S23  1  0.971554  0.661158  0.161505  1
  S  S24  1  0.689603  0.028446  0.161505  1
