# generated using pymatgen
data_Li3MnP2HO8
_symmetry_space_group_name_H-M   'P 1'
_cell_length_a   5.12903645
_cell_length_b   5.16263219
_cell_length_c   6.26306734
_cell_angle_alpha   90.25541954
_cell_angle_beta   90.22822100
_cell_angle_gamma   114.73525684
_symmetry_Int_Tables_number   1
_chemical_formula_structural   Li3MnP2HO8
_chemical_formula_sum   'Li3 Mn1 P2 H1 O8'
_cell_volume   150.62135670
_cell_formula_units_Z   1
loop_
 _symmetry_equiv_pos_site_id
 _symmetry_equiv_pos_as_xyz
  1  'x, y, z'
loop_
 _atom_site_type_symbol
 _atom_site_label
 _atom_site_symmetry_multiplicity
 _atom_site_fract_x
 _atom_site_fract_y
 _atom_site_fract_z
 _atom_site_occupancy
  Li  Li0  1  0.633281  0.287897  0.775700  1
  Li  Li1  1  0.000000  0.000000  0.500000  1
  Li  Li2  1  0.366719  0.712103  0.224300  1
  Mn  Mn3  1  0.000000  0.000000  0.000000  1
  P  P4  1  0.637767  0.359077  0.256661  1
  P  P5  1  0.362233  0.640923  0.743339  1
  H  H6  1  0.000000  0.500000  0.500000  1
  O  O7  1  0.752531  0.244894  0.068880  1
  O  O8  1  0.769482  0.300805  0.471931  1
  O  O9  1  0.306546  0.211310  0.265650  1
  O  O10  1  0.261123  0.311535  0.759728  1
  O  O11  1  0.738877  0.688465  0.240272  1
  O  O12  1  0.693454  0.788690  0.734350  1
  O  O13  1  0.230518  0.699195  0.528069  1
  O  O14  1  0.247469  0.755106  0.931120  1
