# generated using pymatgen
data_Gd2P4O13
_symmetry_space_group_name_H-M   'P 1'
_cell_length_a   8.97906095
_cell_length_b   9.76324186
_cell_length_c   14.05179796
_cell_angle_alpha   90.00000000
_cell_angle_beta   106.64888954
_cell_angle_gamma   90.00000000
_symmetry_Int_Tables_number   1
_chemical_formula_structural   Gd2P4O13
_chemical_formula_sum   'Gd8 P16 O52'
_cell_volume   1180.20632384
_cell_formula_units_Z   4
loop_
 _symmetry_equiv_pos_site_id
 _symmetry_equiv_pos_as_xyz
  1  'x, y, z'
loop_
 _atom_site_type_symbol
 _atom_site_label
 _atom_site_symmetry_multiplicity
 _atom_site_fract_x
 _atom_site_fract_y
 _atom_site_fract_z
 _atom_site_occupancy
  Gd  Gd0  1  0.977761  0.995116  0.279109  1
  Gd  Gd1  1  0.977761  0.504884  0.779109  1
  Gd  Gd2  1  0.550964  0.000883  0.263637  1
  Gd  Gd3  1  0.449036  0.500883  0.236363  1
  Gd  Gd4  1  0.550964  0.499117  0.763637  1
  Gd  Gd5  1  0.449036  0.999117  0.736363  1
  Gd  Gd6  1  0.022239  0.495116  0.220891  1
  Gd  Gd7  1  0.022239  0.004884  0.720891  1
  P  P8  1  0.850018  0.760650  0.061530  1
  P  P9  1  0.711690  0.267123  0.152859  1
  P  P10  1  0.782472  0.707288  0.343779  1
  P  P11  1  0.850018  0.739350  0.561530  1
  P  P12  1  0.506904  0.751565  0.058480  1
  P  P13  1  0.711690  0.232877  0.652859  1
  P  P14  1  0.782472  0.792712  0.843779  1
  P  P15  1  0.493096  0.251565  0.441520  1
  P  P16  1  0.506904  0.748435  0.558480  1
  P  P17  1  0.217528  0.207288  0.156221  1
  P  P18  1  0.288310  0.767123  0.347141  1
  P  P19  1  0.493096  0.248435  0.941520  1
  P  P20  1  0.149982  0.260650  0.438470  1
  P  P21  1  0.217528  0.292712  0.656221  1
  P  P22  1  0.288310  0.732877  0.847141  1
  P  P23  1  0.149982  0.239350  0.938470  1
  O  O24  1  0.950279  0.635031  0.085946  1
  O  O25  1  0.885383  0.875768  0.135204  1
  O  O26  1  0.856801  0.330972  0.137468  1
  O  O27  1  0.877699  0.631252  0.287765  1
  O  O28  1  0.950279  0.864969  0.585946  1
  O  O29  1  0.867226  0.677414  0.460077  1
  O  O30  1  0.670454  0.710369  0.037071  1
  O  O31  1  0.747520  0.136304  0.218504  1
  O  O32  1  0.783159  0.865311  0.329363  1
  O  O33  1  0.885383  0.624232  0.635204  1
  O  O34  1  0.603806  0.206356  0.047784  1
  O  O35  1  0.856801  0.169028  0.637468  1
  O  O36  1  0.877699  0.868748  0.787765  1
  O  O37  1  0.615935  0.369566  0.191131  1
  O  O38  1  0.530678  0.877748  0.121839  1
  O  O39  1  0.618017  0.653707  0.324012  1
  O  O40  1  0.867226  0.822586  0.960077  1
  O  O41  1  0.670454  0.789631  0.537071  1
  O  O42  1  0.747520  0.363696  0.718504  1
  O  O43  1  0.783159  0.634689  0.829363  1
  O  O44  1  0.556130  0.126597  0.404046  1
  O  O45  1  0.603806  0.293644  0.547784  1
  O  O46  1  0.443870  0.626597  0.095954  1
  O  O47  1  0.381983  0.153707  0.175988  1
  O  O48  1  0.469322  0.377748  0.378161  1
  O  O49  1  0.615935  0.130434  0.691131  1
  O  O50  1  0.384065  0.869566  0.308869  1
  O  O51  1  0.530678  0.622252  0.621839  1
  O  O52  1  0.618017  0.846293  0.824012  1
  O  O53  1  0.556130  0.373403  0.904046  1
  O  O54  1  0.396194  0.706356  0.452216  1
  O  O55  1  0.443870  0.873403  0.595954  1
  O  O56  1  0.216841  0.365311  0.170637  1
  O  O57  1  0.252480  0.636304  0.281496  1
  O  O58  1  0.329546  0.210369  0.462929  1
  O  O59  1  0.132774  0.177414  0.039923  1
  O  O60  1  0.381983  0.346293  0.675988  1
  O  O61  1  0.469322  0.122252  0.878161  1
  O  O62  1  0.384065  0.630434  0.808869  1
  O  O63  1  0.122301  0.131252  0.212235  1
  O  O64  1  0.143199  0.830972  0.362532  1
  O  O65  1  0.396194  0.793644  0.952216  1
  O  O66  1  0.114617  0.375768  0.364796  1
  O  O67  1  0.216841  0.134689  0.670637  1
  O  O68  1  0.252480  0.863696  0.781496  1
  O  O69  1  0.329546  0.289631  0.962929  1
  O  O70  1  0.132774  0.322586  0.539923  1
  O  O71  1  0.049721  0.135031  0.414054  1
  O  O72  1  0.122301  0.368748  0.712235  1
  O  O73  1  0.143199  0.669028  0.862532  1
  O  O74  1  0.114617  0.124232  0.864796  1
  O  O75  1  0.049721  0.364969  0.914054  1
