# generated using pymatgen
data_Li2Cr2FeO6
_symmetry_space_group_name_H-M   'P 1'
_cell_length_a   5.07789270
_cell_length_b   5.07789270
_cell_length_c   10.13828429
_cell_angle_alpha   90.00000000
_cell_angle_beta   90.00000000
_cell_angle_gamma   120.04390620
_symmetry_Int_Tables_number   1
_chemical_formula_structural   Li2Cr2FeO6
_chemical_formula_sum   'Li4 Cr4 Fe2 O12'
_cell_volume   226.29232355
_cell_formula_units_Z   2
loop_
 _symmetry_equiv_pos_site_id
 _symmetry_equiv_pos_as_xyz
  1  'x, y, z'
loop_
 _atom_site_type_symbol
 _atom_site_label
 _atom_site_symmetry_multiplicity
 _atom_site_fract_x
 _atom_site_fract_y
 _atom_site_fract_z
 _atom_site_occupancy
  Li  Li0  1  0.651884  0.151884  0.750000  1
  Li  Li1  1  0.848116  0.348116  0.250000  1
  Li  Li2  1  0.151884  0.651884  0.750000  1
  Li  Li3  1  0.348116  0.848116  0.250000  1
  Cr  Cr4  1  0.836312  0.163688  0.500000  1
  Cr  Cr5  1  0.663688  0.336312  0.000000  1
  Cr  Cr6  1  0.336312  0.663688  1.000000  1
  Cr  Cr7  1  0.163688  0.836312  0.500000  1
  Fe  Fe8  1  0.000000  0.000000  0.000000  1
  Fe  Fe9  1  0.500000  0.500000  0.500000  1
  O  O10  1  0.674916  0.006784  0.105284  1
  O  O11  1  0.325084  0.993216  0.894716  1
  O  O12  1  0.506784  0.174916  0.394716  1
  O  O13  1  0.825084  0.493216  0.605284  1
  O  O14  1  0.188078  0.188078  0.599360  1
  O  O15  1  0.311922  0.311922  0.099360  1
  O  O16  1  0.688078  0.688078  0.900640  1
  O  O17  1  0.993216  0.325084  0.894716  1
  O  O18  1  0.811922  0.811922  0.400640  1
  O  O19  1  0.174916  0.506784  0.394716  1
  O  O20  1  0.493216  0.825084  0.605284  1
  O  O21  1  0.006784  0.674916  0.105284  1
