# generated using pymatgen
data_Li3AlCrO5
_symmetry_space_group_name_H-M   'P 1'
_cell_length_a   4.96340714
_cell_length_b   5.42206636
_cell_length_c   16.07805282
_cell_angle_alpha   90.00000000
_cell_angle_beta   90.00000000
_cell_angle_gamma   90.00000000
_symmetry_Int_Tables_number   1
_chemical_formula_structural   Li3AlCrO5
_chemical_formula_sum   'Li12 Al4 Cr4 O20'
_cell_volume   432.69131763
_cell_formula_units_Z   4
loop_
 _symmetry_equiv_pos_site_id
 _symmetry_equiv_pos_as_xyz
  1  'x, y, z'
loop_
 _atom_site_type_symbol
 _atom_site_label
 _atom_site_symmetry_multiplicity
 _atom_site_fract_x
 _atom_site_fract_y
 _atom_site_fract_z
 _atom_site_occupancy
  Li  Li0  1  0.007048  0.672485  0.601101  1
  Li  Li1  1  0.007048  0.172484  0.898899  1
  Li  Li2  1  0.010171  0.662360  0.000610  1
  Li  Li3  1  0.010171  0.162360  0.499390  1
  Li  Li4  1  0.498836  0.337045  0.799610  1
  Li  Li5  1  0.498836  0.837045  0.700390  1
  Li  Li6  1  0.507048  0.327515  0.398899  1
  Li  Li7  1  0.507048  0.827515  0.101101  1
  Li  Li8  1  0.510171  0.337640  0.999390  1
  Li  Li9  1  0.510171  0.837640  0.500610  1
  Li  Li10  1  0.998836  0.162955  0.299610  1
  Li  Li11  1  0.998836  0.662955  0.200390  1
  Al  Al12  1  0.998274  0.171918  0.701985  1
  Al  Al13  1  0.998274  0.671918  0.798015  1
  Al  Al14  1  0.498274  0.328082  0.201985  1
  Al  Al15  1  0.498274  0.828082  0.298015  1
  Cr  Cr16  1  0.007477  0.160369  0.097348  1
  Cr  Cr17  1  0.007477  0.660369  0.402652  1
  Cr  Cr18  1  0.507477  0.339631  0.597348  1
  Cr  Cr19  1  0.507477  0.839631  0.902652  1
  O  O20  1  0.094211  0.356974  0.788809  1
  O  O21  1  0.094211  0.856974  0.711191  1
  O  O22  1  0.111041  0.311928  0.006714  1
  O  O23  1  0.111041  0.811928  0.493286  1
  O  O24  1  0.105241  0.350016  0.398041  1
  O  O25  1  0.105241  0.850016  0.101959  1
  O  O26  1  0.137159  0.317865  0.192876  1
  O  O27  1  0.137159  0.817865  0.307124  1
  O  O28  1  0.134344  0.309469  0.610305  1
  O  O29  1  0.134344  0.809469  0.889695  1
  O  O30  1  0.594211  0.643026  0.211191  1
  O  O31  1  0.594211  0.143026  0.288809  1
  O  O32  1  0.611041  0.188072  0.506714  1
  O  O33  1  0.611041  0.688072  0.993286  1
  O  O34  1  0.605241  0.149984  0.898041  1
  O  O35  1  0.605241  0.649984  0.601959  1
  O  O36  1  0.637159  0.182135  0.692876  1
  O  O37  1  0.637159  0.682135  0.807124  1
  O  O38  1  0.634344  0.190531  0.110305  1
  O  O39  1  0.634344  0.690531  0.389695  1
