# generated using pymatgen
data_CaMnAs2(H3O5)2
_symmetry_space_group_name_H-M   'P 1'
_cell_length_a   7.05119376
_cell_length_b   7.74502996
_cell_length_c   8.57751559
_cell_angle_alpha   84.59965492
_cell_angle_beta   82.10451867
_cell_angle_gamma   81.56884451
_symmetry_Int_Tables_number   1
_chemical_formula_structural   CaMnAs2(H3O5)2
_chemical_formula_sum   'Ca2 Mn2 As4 H12 O20'
_cell_volume   457.66776402
_cell_formula_units_Z   2
loop_
 _symmetry_equiv_pos_site_id
 _symmetry_equiv_pos_as_xyz
  1  'x, y, z'
loop_
 _atom_site_type_symbol
 _atom_site_label
 _atom_site_symmetry_multiplicity
 _atom_site_fract_x
 _atom_site_fract_y
 _atom_site_fract_z
 _atom_site_occupancy
  Ca  Ca0  1  0.871808  0.101517  0.829753  1
  Ca  Ca1  1  0.128192  0.898483  0.170247  1
  Mn  Mn2  1  0.661787  0.849535  0.578076  1
  Mn  Mn3  1  0.338213  0.150465  0.421924  1
  As  As4  1  0.364165  0.136977  0.815167  1
  As  As5  1  0.165123  0.771314  0.572337  1
  As  As6  1  0.834877  0.228686  0.427663  1
  As  As7  1  0.635835  0.863023  0.184833  1
  H  H8  1  0.577926  0.767040  0.955179  1
  H  H9  1  0.750301  0.460186  0.918290  1
  H  H10  1  0.124373  0.608684  0.947833  1
  H  H11  1  0.501692  0.576536  0.726453  1
  H  H12  1  0.715191  0.489005  0.662256  1
  H  H13  1  0.234725  0.472343  0.678975  1
  H  H14  1  0.765275  0.527657  0.321025  1
  H  H15  1  0.284809  0.510995  0.337744  1
  H  H16  1  0.498308  0.423464  0.273547  1
  H  H17  1  0.875627  0.391316  0.052167  1
  H  H18  1  0.249699  0.539814  0.081710  1
  H  H19  1  0.422074  0.232960  0.044821  1
  O  O20  1  0.860639  0.373592  0.943444  1
  O  O21  1  0.418716  0.293337  0.938338  1
  O  O22  1  0.576723  0.995444  0.793045  1
  O  O23  1  0.177647  0.038278  0.913846  1
  O  O24  1  0.944458  0.873631  0.648701  1
  O  O25  1  0.638719  0.595689  0.712002  1
  O  O26  1  0.230692  0.595539  0.713413  1
  O  O27  1  0.839088  0.305342  0.606273  1
  O  O28  1  0.302516  0.263906  0.650928  1
  O  O29  1  0.340767  0.903466  0.570505  1
  O  O30  1  0.659233  0.096534  0.429495  1
  O  O31  1  0.697484  0.736094  0.349072  1
  O  O32  1  0.160912  0.694658  0.393727  1
  O  O33  1  0.769308  0.404461  0.286587  1
  O  O34  1  0.361281  0.404311  0.287998  1
  O  O35  1  0.055542  0.126369  0.351299  1
  O  O36  1  0.822353  0.961722  0.086154  1
  O  O37  1  0.423277  0.004556  0.206955  1
  O  O38  1  0.581284  0.706663  0.061662  1
  O  O39  1  0.139361  0.626408  0.056556  1
