# generated using pymatgen
data_Ni7(PO4)6
_symmetry_space_group_name_H-M   'P 1'
_cell_length_a   6.36562909
_cell_length_b   7.94785061
_cell_length_c   9.37397920
_cell_angle_alpha   104.90558962
_cell_angle_beta   108.10608134
_cell_angle_gamma   101.15955345
_symmetry_Int_Tables_number   1
_chemical_formula_structural   Ni7(PO4)6
_chemical_formula_sum   'Ni7 P6 O24'
_cell_volume   415.84905977
_cell_formula_units_Z   1
loop_
 _symmetry_equiv_pos_site_id
 _symmetry_equiv_pos_as_xyz
  1  'x, y, z'
loop_
 _atom_site_type_symbol
 _atom_site_label
 _atom_site_symmetry_multiplicity
 _atom_site_fract_x
 _atom_site_fract_y
 _atom_site_fract_z
 _atom_site_occupancy
  Ni  Ni0  1  0.955131  0.286300  0.481362  1
  Ni  Ni1  1  0.729826  0.200950  0.717913  1
  Ni  Ni2  1  0.384972  0.456612  0.110151  1
  Ni  Ni3  1  0.615028  0.543388  0.889849  1
  Ni  Ni4  1  0.270174  0.799050  0.282087  1
  Ni  Ni5  1  0.044869  0.713700  0.518638  1
  Ni  Ni6  1  0.000000  0.000000  0.000000  1
  P  P7  1  0.905925  0.404043  0.166294  1
  P  P8  1  0.772016  0.857532  0.229031  1
  P  P9  1  0.403102  0.232677  0.373570  1
  P  P10  1  0.596898  0.767323  0.626430  1
  P  P11  1  0.227984  0.142468  0.770969  1
  P  P12  1  0.094075  0.595957  0.833706  1
  O  O13  1  0.884524  0.208165  0.079789  1
  O  O14  1  0.929946  0.445660  0.342841  1
  O  O15  1  0.790952  0.059320  0.293184  1
  O  O16  1  0.983395  0.812814  0.333674  1
  O  O17  1  0.775484  0.813436  0.057570  1
  O  O18  1  0.689837  0.458214  0.082398  1
  O  O19  1  0.876984  0.467942  0.837097  1
  O  O20  1  0.631915  0.233024  0.498901  1
  O  O21  1  0.740402  0.714785  0.527110  1
  O  O22  1  0.544261  0.743276  0.229427  1
  O  O23  1  0.458137  0.367126  0.291793  1
  O  O24  1  0.276154  0.039254  0.243079  1
  O  O25  1  0.723846  0.960746  0.756921  1
  O  O26  1  0.541863  0.632874  0.708207  1
  O  O27  1  0.455739  0.256724  0.770573  1
  O  O28  1  0.259598  0.285215  0.472890  1
  O  O29  1  0.368085  0.766976  0.501099  1
  O  O30  1  0.123016  0.532058  0.162903  1
  O  O31  1  0.310163  0.541786  0.917602  1
  O  O32  1  0.224516  0.186564  0.942430  1
  O  O33  1  0.016605  0.187186  0.666326  1
  O  O34  1  0.209048  0.940680  0.706816  1
  O  O35  1  0.070054  0.554340  0.657159  1
  O  O36  1  0.115476  0.791835  0.920211  1
