# generated using pymatgen
data_Fe4OF7
_symmetry_space_group_name_H-M   'P 1'
_cell_length_a   6.52240471
_cell_length_b   4.81167535
_cell_length_c   10.14005681
_cell_angle_alpha   90.00000000
_cell_angle_beta   108.50416925
_cell_angle_gamma   90.00000000
_symmetry_Int_Tables_number   1
_chemical_formula_structural   Fe4OF7
_chemical_formula_sum   'Fe8 O2 F14'
_cell_volume   301.78000192
_cell_formula_units_Z   2
loop_
 _symmetry_equiv_pos_site_id
 _symmetry_equiv_pos_as_xyz
  1  'x, y, z'
loop_
 _atom_site_type_symbol
 _atom_site_label
 _atom_site_symmetry_multiplicity
 _atom_site_fract_x
 _atom_site_fract_y
 _atom_site_fract_z
 _atom_site_occupancy
  Fe  Fe0  1  0.434780  0.484581  0.628758  1
  Fe  Fe1  1  0.187901  0.500238  0.120321  1
  Fe  Fe2  1  0.688523  0.520791  0.132552  1
  Fe  Fe3  1  0.962182  0.485993  0.635924  1
  Fe  Fe4  1  0.565220  0.984581  0.371242  1
  Fe  Fe5  1  0.311477  0.020791  0.867448  1
  Fe  Fe6  1  0.037818  0.985993  0.364076  1
  Fe  Fe7  1  0.812099  0.000238  0.879679  1
  O  O8  1  0.779071  0.810054  0.281739  1
  O  O9  1  0.220929  0.310054  0.718261  1
  F  F10  1  0.517471  0.802076  0.770894  1
  F  F11  1  0.004227  0.795728  0.769815  1
  F  F12  1  0.245942  0.796651  0.277549  1
  F  F13  1  0.654914  0.678813  0.531507  1
  F  F14  1  0.890711  0.698764  0.023617  1
  F  F15  1  0.125002  0.712553  0.525818  1
  F  F16  1  0.382634  0.713754  0.019513  1
  F  F17  1  0.995773  0.295728  0.230185  1
  F  F18  1  0.482529  0.302076  0.229106  1
  F  F19  1  0.754058  0.296651  0.722451  1
  F  F20  1  0.109289  0.198764  0.976383  1
  F  F21  1  0.874998  0.212553  0.474182  1
  F  F22  1  0.617366  0.213754  0.980487  1
  F  F23  1  0.345086  0.178813  0.468493  1
