# generated using pymatgen
data_Li24Ti11CrO36
_symmetry_space_group_name_H-M   'P 1'
_cell_length_a   8.84157647
_cell_length_b   8.84157647
_cell_length_c   10.28269447
_cell_angle_alpha   72.98463158
_cell_angle_beta   107.01536842
_cell_angle_gamma   120.20060849
_symmetry_Int_Tables_number   1
_chemical_formula_structural   Li24Ti11CrO36
_chemical_formula_sum   'Li24 Ti11 Cr1 O36'
_cell_volume   653.95200266
_cell_formula_units_Z   1
loop_
 _symmetry_equiv_pos_site_id
 _symmetry_equiv_pos_as_xyz
  1  'x, y, z'
loop_
 _atom_site_type_symbol
 _atom_site_label
 _atom_site_symmetry_multiplicity
 _atom_site_fract_x
 _atom_site_fract_y
 _atom_site_fract_z
 _atom_site_occupancy
  Li  Li0  1  0.004509  0.338877  0.750176  1
  Li  Li1  1  0.167686  0.499992  0.500376  1
  Li  Li2  1  0.004641  0.337969  0.248962  1
  Li  Li3  1  0.328339  0.661180  0.250991  1
  Li  Li4  1  0.000068  0.666750  0.250021  1
  Li  Li5  1  0.166727  0.500044  0.000032  1
  Li  Li6  1  0.328023  0.660820  0.749934  1
  Li  Li7  1  0.001338  0.667254  0.750805  1
  Li  Li8  1  0.667254  0.001338  0.249195  1
  Li  Li9  1  0.666750  0.000068  0.749979  1
  Li  Li10  1  0.337969  0.004641  0.751038  1
  Li  Li11  1  0.499992  0.167686  0.499624  1
  Li  Li12  1  0.338877  0.004509  0.249824  1
  Li  Li13  1  0.660820  0.328023  0.250066  1
  Li  Li14  1  0.334809  0.334296  0.251088  1
  Li  Li15  1  0.500044  0.166727  0.999968  1
  Li  Li16  1  0.661180  0.328339  0.749009  1
  Li  Li17  1  0.334296  0.334809  0.748912  1
  Li  Li18  1  0.670268  0.671024  0.749575  1
  Li  Li19  1  0.833094  0.833094  0.500000  1
  Li  Li20  1  0.671024  0.670268  0.250425  1
  Li  Li21  1  0.994744  0.995558  0.250661  1
  Li  Li22  1  0.833364  0.833364  0.000000  1
  Li  Li23  1  0.995558  0.994744  0.749339  1
  Ti  Ti24  1  0.497708  0.830151  0.502192  1
  Ti  Ti25  1  0.166594  0.833963  0.499801  1
  Ti  Ti26  1  0.499026  0.832120  0.000086  1
  Ti  Ti27  1  0.167418  0.834065  0.000240  1
  Ti  Ti28  1  0.833963  0.166594  0.500199  1
  Ti  Ti29  1  0.168560  0.168560  0.500000  1
  Ti  Ti30  1  0.834065  0.167418  0.999760  1
  Ti  Ti31  1  0.165903  0.165903  0.000000  1
  Ti  Ti32  1  0.830151  0.497708  0.497808  1
  Ti  Ti33  1  0.832120  0.499026  0.999914  1
  Ti  Ti34  1  0.500669  0.500669  0.000000  1
  Cr  Cr35  1  0.503173  0.503173  0.500000  1
  O  O36  1  0.072012  0.593707  0.615774  1
  O  O37  1  0.569794  0.734668  0.388163  1
  O  O38  1  0.073398  0.593042  0.115701  1
  O  O39  1  0.259814  0.762699  0.386635  1
  O  O40  1  0.570424  0.740001  0.886566  1
  O  O41  1  0.259810  0.762757  0.886760  1
  O  O42  1  0.407107  0.902923  0.613597  1
  O  O43  1  0.740616  0.926468  0.615527  1
  O  O44  1  0.097539  0.927973  0.613583  1
  O  O45  1  0.406891  0.903675  0.113575  1
  O  O46  1  0.593707  0.072012  0.384226  1
  O  O47  1  0.237224  0.073425  0.386770  1
  O  O48  1  0.739951  0.926584  0.115561  1
  O  O49  1  0.096096  0.926518  0.113146  1
  O  O50  1  0.927973  0.097539  0.386417  1
  O  O51  1  0.593042  0.073398  0.884299  1
  O  O52  1  0.237411  0.073393  0.886687  1
  O  O53  1  0.926518  0.096096  0.886855  1
  O  O54  1  0.073425  0.237224  0.613230  1
  O  O55  1  0.762699  0.259814  0.613365  1
  O  O56  1  0.409270  0.263281  0.613748  1
  O  O57  1  0.073393  0.237411  0.113313  1
  O  O58  1  0.902923  0.407107  0.386403  1
  O  O59  1  0.263281  0.409270  0.386252  1
  O  O60  1  0.762757  0.259810  0.113240  1
  O  O61  1  0.406739  0.259843  0.115549  1
  O  O62  1  0.593233  0.428478  0.387153  1
  O  O63  1  0.903675  0.406891  0.886425  1
  O  O64  1  0.259843  0.406739  0.884451  1
  O  O65  1  0.593212  0.429313  0.886969  1
  O  O66  1  0.734668  0.569794  0.611837  1
  O  O67  1  0.428478  0.593233  0.612847  1
  O  O68  1  0.740001  0.570424  0.113434  1
  O  O69  1  0.926468  0.740616  0.384473  1
  O  O70  1  0.429313  0.593212  0.113031  1
  O  O71  1  0.926584  0.739951  0.884439  1
