# generated using pymatgen
data_LiBiP2O7
_symmetry_space_group_name_H-M   'P 1'
_cell_length_a   7.46118046
_cell_length_b   10.88792296
_cell_length_c   8.66887921
_cell_angle_alpha   90.00000000
_cell_angle_beta   115.75735509
_cell_angle_gamma   90.00000000
_symmetry_Int_Tables_number   1
_chemical_formula_structural   LiBiP2O7
_chemical_formula_sum   'Li4 Bi4 P8 O28'
_cell_volume   634.26092057
_cell_formula_units_Z   4
loop_
 _symmetry_equiv_pos_site_id
 _symmetry_equiv_pos_as_xyz
  1  'x, y, z'
loop_
 _atom_site_type_symbol
 _atom_site_label
 _atom_site_symmetry_multiplicity
 _atom_site_fract_x
 _atom_site_fract_y
 _atom_site_fract_z
 _atom_site_occupancy
  Li  Li0  1  0.156382  0.841092  0.591083  1
  Li  Li1  1  0.156382  0.658908  0.091083  1
  Li  Li2  1  0.843618  0.341092  0.908917  1
  Li  Li3  1  0.843618  0.158908  0.408917  1
  Bi  Bi4  1  0.215352  0.396807  0.730864  1
  Bi  Bi5  1  0.215352  0.103193  0.230864  1
  Bi  Bi6  1  0.784648  0.896807  0.769136  1
  Bi  Bi7  1  0.784648  0.603193  0.269136  1
  P  P8  1  0.130953  0.092583  0.778271  1
  P  P9  1  0.130953  0.407417  0.278271  1
  P  P10  1  0.474418  0.158267  0.715388  1
  P  P11  1  0.525582  0.658267  0.784612  1
  P  P12  1  0.474418  0.341733  0.215388  1
  P  P13  1  0.525582  0.841733  0.284612  1
  P  P14  1  0.869047  0.592583  0.721729  1
  P  P15  1  0.869047  0.907417  0.221729  1
  O  O16  1  0.063636  0.964410  0.699800  1
  O  O17  1  0.025387  0.197630  0.651443  1
  O  O18  1  0.063636  0.535590  0.199800  1
  O  O19  1  0.103123  0.394926  0.441635  1
  O  O20  1  0.025387  0.302370  0.151443  1
  O  O21  1  0.366989  0.105144  0.831987  1
  O  O22  1  0.327034  0.590453  0.720169  1
  O  O23  1  0.103123  0.105074  0.941635  1
  O  O24  1  0.334442  0.135008  0.529517  1
  O  O25  1  0.514618  0.296273  0.765628  1
  O  O26  1  0.366989  0.394856  0.331987  1
  O  O27  1  0.327034  0.909547  0.220169  1
  O  O28  1  0.485382  0.796273  0.734372  1
  O  O29  1  0.334442  0.364992  0.029517  1
  O  O30  1  0.665558  0.635008  0.970483  1
  O  O31  1  0.514618  0.203727  0.265628  1
  O  O32  1  0.672966  0.090453  0.779831  1
  O  O33  1  0.633011  0.605144  0.668013  1
  O  O34  1  0.485382  0.703727  0.234372  1
  O  O35  1  0.665558  0.864992  0.470483  1
  O  O36  1  0.896877  0.894926  0.058365  1
  O  O37  1  0.672966  0.409547  0.279831  1
  O  O38  1  0.633011  0.894856  0.168013  1
  O  O39  1  0.974613  0.697630  0.848557  1
  O  O40  1  0.896877  0.605074  0.558365  1
  O  O41  1  0.936364  0.464410  0.800200  1
  O  O42  1  0.974613  0.802370  0.348557  1
  O  O43  1  0.936364  0.035590  0.300200  1
