# generated using pymatgen
data_LiP2WO8
_symmetry_space_group_name_H-M   'P 1'
_cell_length_a   4.98429656
_cell_length_b   8.06584254
_cell_length_c   16.17842945
_cell_angle_alpha   90.00000000
_cell_angle_beta   95.72889971
_cell_angle_gamma   90.00000000
_symmetry_Int_Tables_number   1
_chemical_formula_structural   LiP2WO8
_chemical_formula_sum   'Li4 P8 W4 O32'
_cell_volume   647.16554537
_cell_formula_units_Z   4
loop_
 _symmetry_equiv_pos_site_id
 _symmetry_equiv_pos_as_xyz
  1  'x, y, z'
loop_
 _atom_site_type_symbol
 _atom_site_label
 _atom_site_symmetry_multiplicity
 _atom_site_fract_x
 _atom_site_fract_y
 _atom_site_fract_z
 _atom_site_occupancy
  Li  Li0  1  0.625581  0.836623  0.527090  1
  Li  Li1  1  0.374419  0.336623  0.972910  1
  Li  Li2  1  0.625581  0.663377  0.027090  1
  Li  Li3  1  0.374419  0.163377  0.472910  1
  P  P4  1  0.875608  0.629304  0.754618  1
  P  P5  1  0.846256  0.194003  0.581374  1
  P  P6  1  0.153744  0.694003  0.918626  1
  P  P7  1  0.124392  0.129304  0.745382  1
  P  P8  1  0.875608  0.870696  0.254618  1
  P  P9  1  0.846256  0.305997  0.081374  1
  P  P10  1  0.153744  0.805997  0.418626  1
  P  P11  1  0.124392  0.370696  0.245382  1
  W  W12  1  0.353613  0.037797  0.143144  1
  W  W13  1  0.646387  0.537797  0.356856  1
  W  W14  1  0.353613  0.462203  0.643144  1
  W  W15  1  0.646387  0.962203  0.856856  1
  O  O16  1  0.404092  0.723699  0.388134  1
  O  O17  1  0.360987  0.491574  0.258639  1
  O  O18  1  0.782122  0.807705  0.763530  1
  O  O19  1  0.534994  0.381587  0.422134  1
  O  O20  1  0.465006  0.881587  0.077866  1
  O  O21  1  0.758256  0.080264  0.510615  1
  O  O22  1  0.934035  0.823874  0.934333  1
  O  O23  1  0.930133  0.118317  0.812224  1
  O  O24  1  0.639013  0.991574  0.241361  1
  O  O25  1  0.595908  0.223699  0.111866  1
  O  O26  1  0.027240  0.575556  0.843290  1
  O  O27  1  0.972760  0.075556  0.656710  1
  O  O28  1  0.069867  0.618317  0.687776  1
  O  O29  1  0.782122  0.692295  0.263530  1
  O  O30  1  0.065965  0.323874  0.565667  1
  O  O31  1  0.241744  0.580264  0.989385  1
  O  O32  1  0.758256  0.419736  0.010615  1
  O  O33  1  0.934035  0.676126  0.434333  1
  O  O34  1  0.217878  0.307705  0.736470  1
  O  O35  1  0.930133  0.381683  0.312224  1
  O  O36  1  0.027240  0.924444  0.343290  1
  O  O37  1  0.972760  0.424444  0.156710  1
  O  O38  1  0.404092  0.776301  0.888134  1
  O  O39  1  0.360987  0.008426  0.758639  1
  O  O40  1  0.069867  0.881683  0.187776  1
  O  O41  1  0.065965  0.176126  0.065667  1
  O  O42  1  0.241744  0.919736  0.489385  1
  O  O43  1  0.534994  0.118413  0.922134  1
  O  O44  1  0.465006  0.618413  0.577866  1
  O  O45  1  0.217878  0.192295  0.236470  1
  O  O46  1  0.639013  0.508426  0.741361  1
  O  O47  1  0.595908  0.276301  0.611866  1
