# generated using pymatgen
data_Li4VP2O9
_symmetry_space_group_name_H-M   'P 1'
_cell_length_a   8.07432231
_cell_length_b   8.07432231
_cell_length_c   7.23506944
_cell_angle_alpha   90.00000000
_cell_angle_beta   90.00000000
_cell_angle_gamma   130.25826418
_symmetry_Int_Tables_number   1
_chemical_formula_structural   Li4VP2O9
_chemical_formula_sum   'Li8 V2 P4 O18'
_cell_volume   359.96366654
_cell_formula_units_Z   2
loop_
 _symmetry_equiv_pos_site_id
 _symmetry_equiv_pos_as_xyz
  1  'x, y, z'
loop_
 _atom_site_type_symbol
 _atom_site_label
 _atom_site_symmetry_multiplicity
 _atom_site_fract_x
 _atom_site_fract_y
 _atom_site_fract_z
 _atom_site_occupancy
  Li  Li0  1  0.614688  0.885312  0.227618  1
  Li  Li1  1  0.114688  0.385312  0.772382  1
  Li  Li2  1  0.000000  0.000000  0.000000  1
  Li  Li3  1  0.500000  0.500000  0.000000  1
  Li  Li4  1  0.385312  0.114688  0.772382  1
  Li  Li5  1  0.885312  0.614688  0.227618  1
  Li  Li6  1  0.750000  0.250000  0.500000  1
  Li  Li7  1  0.250000  0.750000  0.500000  1
  V  V8  1  0.000000  0.000000  0.500000  1
  V  V9  1  0.500000  0.500000  0.500000  1
  P  P10  1  0.611834  0.888166  0.771487  1
  P  P11  1  0.111834  0.388166  0.228513  1
  P  P12  1  0.388166  0.111834  0.228513  1
  P  P13  1  0.888166  0.611834  0.771487  1
  O  O14  1  0.011037  0.488963  0.282829  1
  O  O15  1  0.511037  0.988963  0.717171  1
  O  O16  1  0.143457  0.356543  0.025726  1
  O  O17  1  0.643457  0.856543  0.974274  1
  O  O18  1  0.345297  0.540193  0.317579  1
  O  O19  1  0.459807  0.654703  0.682421  1
  O  O20  1  0.959807  0.154703  0.317579  1
  O  O21  1  0.845297  0.040193  0.682421  1
  O  O22  1  0.250000  0.250000  0.598326  1
  O  O23  1  0.750000  0.750000  0.401674  1
  O  O24  1  0.540193  0.345297  0.317579  1
  O  O25  1  0.654703  0.459807  0.682421  1
  O  O26  1  0.040193  0.845297  0.682421  1
  O  O27  1  0.154703  0.959807  0.317579  1
  O  O28  1  0.856543  0.643457  0.974274  1
  O  O29  1  0.356543  0.143457  0.025726  1
  O  O30  1  0.488963  0.011037  0.282829  1
  O  O31  1  0.988963  0.511037  0.717171  1
