# generated using pymatgen
data_Li4Nb2Fe3Cu3O16
_symmetry_space_group_name_H-M   'P 1'
_cell_length_a   5.91860385
_cell_length_b   5.97362073
_cell_length_c   9.78473647
_cell_angle_alpha   92.28326661
_cell_angle_beta   89.51809082
_cell_angle_gamma   119.30763881
_symmetry_Int_Tables_number   1
_chemical_formula_structural   Li4Nb2Fe3Cu3O16
_chemical_formula_sum   'Li4 Nb2 Fe3 Cu3 O16'
_cell_volume   301.40081159
_cell_formula_units_Z   1
loop_
 _symmetry_equiv_pos_site_id
 _symmetry_equiv_pos_as_xyz
  1  'x, y, z'
loop_
 _atom_site_type_symbol
 _atom_site_label
 _atom_site_symmetry_multiplicity
 _atom_site_fract_x
 _atom_site_fract_y
 _atom_site_fract_z
 _atom_site_occupancy
  Li  Li0  1  0.343167  0.684722  0.902882  1
  Li  Li1  1  0.996489  0.990600  0.990835  1
  Li  Li2  1  0.991985  0.980138  0.488291  1
  Li  Li3  1  0.669653  0.330589  0.403942  1
  Nb  Nb4  1  0.331624  0.641151  0.496450  1
  Nb  Nb5  1  0.662663  0.336231  0.993836  1
  Fe  Fe6  1  0.169671  0.341268  0.215818  1
  Fe  Fe7  1  0.830115  0.170793  0.718025  1
  Fe  Fe8  1  0.338776  0.165169  0.715167  1
  Cu  Cu9  1  0.660659  0.826997  0.211909  1
  Cu  Cu10  1  0.171353  0.831210  0.217269  1
  Cu  Cu11  1  0.830455  0.656842  0.714979  1
  O  O12  1  0.663713  0.835932  0.589458  1
  O  O13  1  0.495436  0.951370  0.335029  1
  O  O14  1  0.349636  0.671560  0.114525  1
  O  O15  1  0.980868  0.998445  0.299990  1
  O  O16  1  0.998676  0.000428  0.805348  1
  O  O17  1  0.170576  0.834882  0.588120  1
  O  O18  1  0.444914  0.468162  0.358320  1
  O  O19  1  0.037157  0.531408  0.341698  1
  O  O20  1  0.822133  0.680738  0.096883  1
  O  O21  1  0.159830  0.330536  0.598758  1
  O  O22  1  0.966095  0.494782  0.844194  1
  O  O23  1  0.522059  0.489489  0.843164  1
  O  O24  1  0.666501  0.328168  0.609020  1
  O  O25  1  0.870115  0.218173  0.076431  1
  O  O26  1  0.519513  0.043185  0.844554  1
  O  O27  1  0.336469  0.167033  0.092946  1
