# generated using pymatgen
data_Li3(FeS2)2
_symmetry_space_group_name_H-M   'P 1'
_cell_length_a   6.45941157
_cell_length_b   9.21741316
_cell_length_c   11.06198984
_cell_angle_alpha   90.00000000
_cell_angle_beta   90.00000000
_cell_angle_gamma   90.00000000
_symmetry_Int_Tables_number   1
_chemical_formula_structural   Li3(FeS2)2
_chemical_formula_sum   'Li12 Fe8 S16'
_cell_volume   658.62053443
_cell_formula_units_Z   4
loop_
 _symmetry_equiv_pos_site_id
 _symmetry_equiv_pos_as_xyz
  1  'x, y, z'
loop_
 _atom_site_type_symbol
 _atom_site_label
 _atom_site_symmetry_multiplicity
 _atom_site_fract_x
 _atom_site_fract_y
 _atom_site_fract_z
 _atom_site_occupancy
  Li  Li0  1  0.563493  0.062007  0.750000  1
  Li  Li1  1  0.391955  0.839112  0.549535  1
  Li  Li2  1  0.391955  0.839112  0.950465  1
  Li  Li3  1  0.108045  0.339112  0.450465  1
  Li  Li4  1  0.108045  0.339112  0.049535  1
  Li  Li5  1  0.936507  0.562007  0.250000  1
  Li  Li6  1  0.063493  0.437993  0.750000  1
  Li  Li7  1  0.891955  0.660888  0.549535  1
  Li  Li8  1  0.891955  0.660888  0.950465  1
  Li  Li9  1  0.608045  0.160888  0.049535  1
  Li  Li10  1  0.608045  0.160888  0.450465  1
  Li  Li11  1  0.436507  0.937993  0.250000  1
  Fe  Fe12  1  0.462968  0.525850  0.126817  1
  Fe  Fe13  1  0.462968  0.525850  0.373183  1
  Fe  Fe14  1  0.037032  0.025850  0.626817  1
  Fe  Fe15  1  0.037032  0.025850  0.873183  1
  Fe  Fe16  1  0.962968  0.974150  0.126817  1
  Fe  Fe17  1  0.962968  0.974150  0.373183  1
  Fe  Fe18  1  0.537032  0.474150  0.626817  1
  Fe  Fe19  1  0.537032  0.474150  0.873183  1
  S  S20  1  0.394910  0.308178  0.750000  1
  S  S21  1  0.253672  0.395257  0.250000  1
  S  S22  1  0.260248  0.584929  0.535301  1
  S  S23  1  0.260248  0.584929  0.964699  1
  S  S24  1  0.239752  0.084929  0.035301  1
  S  S25  1  0.239752  0.084929  0.464699  1
  S  S26  1  0.246328  0.895257  0.750000  1
  S  S27  1  0.105090  0.808178  0.250000  1
  S  S28  1  0.894910  0.191822  0.750000  1
  S  S29  1  0.753672  0.104743  0.250000  1
  S  S30  1  0.760248  0.915071  0.535301  1
  S  S31  1  0.760248  0.915071  0.964699  1
  S  S32  1  0.739752  0.415071  0.035301  1
  S  S33  1  0.739752  0.415071  0.464699  1
  S  S34  1  0.746328  0.604743  0.750000  1
  S  S35  1  0.605090  0.691822  0.250000  1
