# generated using pymatgen
data_Ba14Na8CaN6
_symmetry_space_group_name_H-M   'P 1'
_cell_length_a   11.47138249
_cell_length_b   11.47138249
_cell_length_c   21.67637001
_cell_angle_alpha   90.00000000
_cell_angle_beta   90.00000000
_cell_angle_gamma   120.00000000
_symmetry_Int_Tables_number   1
_chemical_formula_structural   Ba14Na8CaN6
_chemical_formula_sum   'Ba28 Na16 Ca2 N12'
_cell_volume   2470.29437149
_cell_formula_units_Z   2
loop_
 _symmetry_equiv_pos_site_id
 _symmetry_equiv_pos_as_xyz
  1  'x, y, z'
loop_
 _atom_site_type_symbol
 _atom_site_label
 _atom_site_symmetry_multiplicity
 _atom_site_fract_x
 _atom_site_fract_y
 _atom_site_fract_z
 _atom_site_occupancy
  Ba  Ba0  1  0.254612  0.964208  0.950176  1
  Ba  Ba1  1  0.254612  0.964208  0.549824  1
  Ba  Ba2  1  0.329318  0.952322  0.361604  1
  Ba  Ba3  1  0.329318  0.952322  0.138396  1
  Ba  Ba4  1  0.047678  0.376996  0.138396  1
  Ba  Ba5  1  0.047678  0.376996  0.361604  1
  Ba  Ba6  1  0.035792  0.290404  0.549824  1
  Ba  Ba7  1  0.035792  0.290404  0.950176  1
  Ba  Ba8  1  0.000000  0.000000  0.151516  1
  Ba  Ba9  1  0.000000  0.000000  0.348484  1
  Ba  Ba10  1  0.000000  0.000000  0.651516  1
  Ba  Ba11  1  0.000000  0.000000  0.848484  1
  Ba  Ba12  1  0.290404  0.254612  0.049824  1
  Ba  Ba13  1  0.290404  0.254612  0.450176  1
  Ba  Ba14  1  0.376996  0.329318  0.861604  1
  Ba  Ba15  1  0.376996  0.329318  0.638396  1
  Ba  Ba16  1  0.623004  0.670682  0.361604  1
  Ba  Ba17  1  0.623004  0.670682  0.138396  1
  Ba  Ba18  1  0.709596  0.745388  0.549824  1
  Ba  Ba19  1  0.709596  0.745388  0.950176  1
  Ba  Ba20  1  0.964208  0.709596  0.049824  1
  Ba  Ba21  1  0.964208  0.709596  0.450176  1
  Ba  Ba22  1  0.952322  0.623004  0.861604  1
  Ba  Ba23  1  0.952322  0.623004  0.638396  1
  Ba  Ba24  1  0.670682  0.047678  0.861604  1
  Ba  Ba25  1  0.670682  0.047678  0.638396  1
  Ba  Ba26  1  0.745388  0.035792  0.049824  1
  Ba  Ba27  1  0.745388  0.035792  0.450176  1
  Na  Na28  1  0.314166  0.961009  0.750000  1
  Na  Na29  1  0.038991  0.353157  0.750000  1
  Na  Na30  1  0.333333  0.666667  0.009115  1
  Na  Na31  1  0.333333  0.666667  0.250000  1
  Na  Na32  1  0.333333  0.666667  0.490885  1
  Na  Na33  1  0.333333  0.666667  0.664626  1
  Na  Na34  1  0.333333  0.666667  0.835374  1
  Na  Na35  1  0.353157  0.314166  0.250000  1
  Na  Na36  1  0.646843  0.685834  0.750000  1
  Na  Na37  1  0.666667  0.333333  0.335374  1
  Na  Na38  1  0.666667  0.333333  0.509115  1
  Na  Na39  1  0.666667  0.333333  0.750000  1
  Na  Na40  1  0.666667  0.333333  0.990885  1
  Na  Na41  1  0.666667  0.333333  0.164626  1
  Na  Na42  1  0.961009  0.646843  0.250000  1
  Na  Na43  1  0.685834  0.038991  0.250000  1
  Ca  Ca44  1  0.000000  0.000000  0.000000  1
  Ca  Ca45  1  0.000000  0.000000  0.500000  1
  N  N46  1  0.168321  0.974596  0.068312  1
  N  N47  1  0.168321  0.974596  0.431688  1
  N  N48  1  0.025404  0.193725  0.068312  1
  N  N49  1  0.025404  0.193725  0.431688  1
  N  N50  1  0.193725  0.168321  0.568312  1
  N  N51  1  0.193725  0.168321  0.931688  1
  N  N52  1  0.806275  0.831679  0.068312  1
  N  N53  1  0.806275  0.831679  0.431688  1
  N  N54  1  0.974596  0.806275  0.931688  1
  N  N55  1  0.974596  0.806275  0.568312  1
  N  N56  1  0.831679  0.025404  0.568312  1
  N  N57  1  0.831679  0.025404  0.931688  1
