# generated using pymatgen
data_Cr(Si2O5)2
_symmetry_space_group_name_H-M   'P 1'
_cell_length_a   7.16063127
_cell_length_b   7.97909742
_cell_length_c   9.56010198
_cell_angle_alpha   105.05403952
_cell_angle_beta   101.65791145
_cell_angle_gamma   112.90391845
_symmetry_Int_Tables_number   1
_chemical_formula_structural   Cr(Si2O5)2
_chemical_formula_sum   'Cr2 Si8 O20'
_cell_volume   456.80159132
_cell_formula_units_Z   2
loop_
 _symmetry_equiv_pos_site_id
 _symmetry_equiv_pos_as_xyz
  1  'x, y, z'
loop_
 _atom_site_type_symbol
 _atom_site_label
 _atom_site_symmetry_multiplicity
 _atom_site_fract_x
 _atom_site_fract_y
 _atom_site_fract_z
 _atom_site_occupancy
  Cr  Cr0  1  0.259843  0.322031  0.417342  1
  Cr  Cr1  1  0.740157  0.677969  0.582658  1
  Si  Si2  1  0.924436  0.301554  0.131638  1
  Si  Si3  1  0.227035  0.913604  0.213359  1
  Si  Si4  1  0.797855  0.626404  0.245935  1
  Si  Si5  1  0.380822  0.621800  0.244956  1
  Si  Si6  1  0.619178  0.378200  0.755044  1
  Si  Si7  1  0.202145  0.373596  0.754065  1
  Si  Si8  1  0.772965  0.086396  0.786641  1
  Si  Si9  1  0.075564  0.698446  0.868362  1
  O  O10  1  0.211139  0.882140  0.034519  1
  O  O11  1  0.987270  0.794941  0.219088  1
  O  O12  1  0.776756  0.409884  0.167339  1
  O  O13  1  0.569458  0.623921  0.174705  1
  O  O14  1  0.146037  0.459148  0.118378  1
  O  O15  1  0.388594  0.835966  0.289378  1
  O  O16  1  0.996616  0.234152  0.269768  1
  O  O17  1  0.333367  0.145918  0.318856  1
  O  O18  1  0.854912  0.685211  0.432934  1
  O  O19  1  0.420246  0.560839  0.399584  1
  O  O20  1  0.579754  0.439161  0.600416  1
  O  O21  1  0.145088  0.314789  0.567066  1
  O  O22  1  0.666633  0.854082  0.681144  1
  O  O23  1  0.003384  0.765848  0.730232  1
  O  O24  1  0.611406  0.164034  0.710622  1
  O  O25  1  0.853963  0.540852  0.881622  1
  O  O26  1  0.430542  0.376079  0.825295  1
  O  O27  1  0.223244  0.590116  0.832661  1
  O  O28  1  0.012730  0.205059  0.780912  1
  O  O29  1  0.788861  0.117860  0.965481  1
