# generated using pymatgen
data_GeWO4
_symmetry_space_group_name_H-M   'P 1'
_cell_length_a   7.67560886
_cell_length_b   7.12084641
_cell_length_c   14.78709836
_cell_angle_alpha   90.00000000
_cell_angle_beta   121.10552052
_cell_angle_gamma   90.00000000
_symmetry_Int_Tables_number   1
_chemical_formula_structural   GeWO4
_chemical_formula_sum   'Ge8 W8 O32'
_cell_volume   692.00848622
_cell_formula_units_Z   8
loop_
 _symmetry_equiv_pos_site_id
 _symmetry_equiv_pos_as_xyz
  1  'x, y, z'
loop_
 _atom_site_type_symbol
 _atom_site_label
 _atom_site_symmetry_multiplicity
 _atom_site_fract_x
 _atom_site_fract_y
 _atom_site_fract_z
 _atom_site_occupancy
  Ge  Ge0  1  0.599290  0.036735  0.189585  1
  Ge  Ge1  1  0.977192  0.241561  0.131250  1
  Ge  Ge2  1  0.022808  0.741561  0.368750  1
  Ge  Ge3  1  0.400710  0.536735  0.310415  1
  Ge  Ge4  1  0.599290  0.463265  0.689585  1
  Ge  Ge5  1  0.977192  0.258439  0.631250  1
  Ge  Ge6  1  0.022808  0.758439  0.868750  1
  Ge  Ge7  1  0.400710  0.963265  0.810415  1
  W  W8  1  0.997203  0.826983  0.078086  1
  W  W9  1  0.435182  0.552617  0.082003  1
  W  W10  1  0.564818  0.052617  0.417997  1
  W  W11  1  0.002797  0.326983  0.421914  1
  W  W12  1  0.997203  0.673017  0.578086  1
  W  W13  1  0.435182  0.947383  0.582003  1
  W  W14  1  0.564818  0.447383  0.917997  1
  W  W15  1  0.002797  0.173017  0.921914  1
  O  O16  1  0.811647  0.638015  0.020969  1
  O  O17  1  0.194033  0.724125  0.027020  1
  O  O18  1  0.603809  0.374893  0.065572  1
  O  O19  1  0.134478  0.080851  0.081712  1
  O  O20  1  0.860875  0.988963  0.122843  1
  O  O21  1  0.619399  0.728588  0.160784  1
  O  O22  1  0.409818  0.442964  0.188885  1
  O  O23  1  0.178355  0.717823  0.205100  1
  O  O24  1  0.821645  0.217823  0.294900  1
  O  O25  1  0.590182  0.942964  0.311115  1
  O  O26  1  0.380601  0.228588  0.339216  1
  O  O27  1  0.139125  0.488963  0.377157  1
  O  O28  1  0.865522  0.580851  0.418288  1
  O  O29  1  0.805967  0.224125  0.472980  1
  O  O30  1  0.396191  0.874893  0.434428  1
  O  O31  1  0.188353  0.138015  0.479031  1
  O  O32  1  0.811647  0.861985  0.520969  1
  O  O33  1  0.603809  0.125107  0.565572  1
  O  O34  1  0.194033  0.775875  0.527020  1
  O  O35  1  0.134478  0.419149  0.581713  1
  O  O36  1  0.860875  0.511037  0.622843  1
  O  O37  1  0.619399  0.771412  0.660784  1
  O  O38  1  0.409818  0.057036  0.688885  1
  O  O39  1  0.178355  0.782177  0.705100  1
  O  O40  1  0.821645  0.282177  0.794900  1
  O  O41  1  0.590182  0.557036  0.811115  1
  O  O42  1  0.380601  0.271412  0.839216  1
  O  O43  1  0.139125  0.011037  0.877157  1
  O  O44  1  0.865522  0.919149  0.918288  1
  O  O45  1  0.396191  0.625107  0.934428  1
  O  O46  1  0.805967  0.275875  0.972980  1
  O  O47  1  0.188353  0.361985  0.979031  1
