# generated using pymatgen
data_Fe4O5F3
_symmetry_space_group_name_H-M   'P 1'
_cell_length_a   4.70511641
_cell_length_b   5.60986139
_cell_length_c   10.29555756
_cell_angle_alpha   96.26088333
_cell_angle_beta   90.54014560
_cell_angle_gamma   91.79817765
_symmetry_Int_Tables_number   1
_chemical_formula_structural   Fe4O5F3
_chemical_formula_sum   'Fe8 O10 F6'
_cell_volume   269.97533652
_cell_formula_units_Z   2
loop_
 _symmetry_equiv_pos_site_id
 _symmetry_equiv_pos_as_xyz
  1  'x, y, z'
loop_
 _atom_site_type_symbol
 _atom_site_label
 _atom_site_symmetry_multiplicity
 _atom_site_fract_x
 _atom_site_fract_y
 _atom_site_fract_z
 _atom_site_occupancy
  Fe  Fe0  1  0.000000  0.500000  0.500000  1
  Fe  Fe1  1  0.000000  0.000000  0.000000  1
  Fe  Fe2  1  0.972593  0.251821  0.759575  1
  Fe  Fe3  1  0.027407  0.748179  0.240425  1
  Fe  Fe4  1  0.500000  0.500000  0.000000  1
  Fe  Fe5  1  0.444277  0.261674  0.256165  1
  Fe  Fe6  1  0.500000  0.000000  0.500000  1
  Fe  Fe7  1  0.555723  0.738326  0.743835  1
  O  O8  1  0.311861  0.523011  0.166306  1
  O  O9  1  0.297257  0.271006  0.429686  1
  O  O10  1  0.196184  0.273251  0.928266  1
  O  O11  1  0.187399  0.023640  0.167827  1
  O  O12  1  0.193873  0.763454  0.418678  1
  O  O13  1  0.812601  0.976360  0.832173  1
  O  O14  1  0.803816  0.726749  0.071734  1
  O  O15  1  0.806127  0.236546  0.581322  1
  O  O16  1  0.702743  0.728994  0.570314  1
  O  O17  1  0.688139  0.476989  0.833694  1
  F  F18  1  0.308372  0.014204  0.677978  1
  F  F19  1  0.308195  0.775101  0.917963  1
  F  F20  1  0.202760  0.527780  0.681922  1
  F  F21  1  0.797240  0.472220  0.318078  1
  F  F22  1  0.691805  0.224899  0.082037  1
  F  F23  1  0.691628  0.985796  0.322022  1
