# generated using pymatgen
data_Cr3SbO8
_symmetry_space_group_name_H-M   'P 1'
_cell_length_a   5.93415061
_cell_length_b   5.93415061
_cell_length_c   9.27766475
_cell_angle_alpha   89.29185410
_cell_angle_beta   90.70814590
_cell_angle_gamma   60.54577164
_symmetry_Int_Tables_number   1
_chemical_formula_structural   Cr3SbO8
_chemical_formula_sum   'Cr6 Sb2 O16'
_cell_volume   284.39249589
_cell_formula_units_Z   2
loop_
 _symmetry_equiv_pos_site_id
 _symmetry_equiv_pos_as_xyz
  1  'x, y, z'
loop_
 _atom_site_type_symbol
 _atom_site_label
 _atom_site_symmetry_multiplicity
 _atom_site_fract_x
 _atom_site_fract_y
 _atom_site_fract_z
 _atom_site_occupancy
  Cr  Cr0  1  0.830318  0.340605  0.212245  1
  Cr  Cr1  1  0.333074  0.832277  0.203958  1
  Cr  Cr2  1  0.828905  0.828224  0.219362  1
  Cr  Cr3  1  0.171776  0.171095  0.719362  1
  Cr  Cr4  1  0.659395  0.169682  0.712245  1
  Cr  Cr5  1  0.167723  0.666926  0.703958  1
  Sb  Sb6  1  0.666361  0.659657  0.490868  1
  Sb  Sb7  1  0.340343  0.333639  0.990868  1
  O  O8  1  0.833798  0.331395  0.599289  1
  O  O9  1  0.514123  0.529756  0.334709  1
  O  O10  1  0.666847  0.678627  0.106701  1
  O  O11  1  0.998537  0.990863  0.299237  1
  O  O12  1  0.009137  0.001463  0.799237  1
  O  O13  1  0.338099  0.825122  0.604523  1
  O  O14  1  0.956218  0.527109  0.342912  1
  O  O15  1  0.519562  0.954264  0.337820  1
  O  O16  1  0.175871  0.163629  0.106238  1
  O  O17  1  0.836371  0.824129  0.606238  1
  O  O18  1  0.472891  0.043782  0.842912  1
  O  O19  1  0.045736  0.480438  0.837820  1
  O  O20  1  0.321373  0.333153  0.606701  1
  O  O21  1  0.668605  0.166202  0.099289  1
  O  O22  1  0.470244  0.485877  0.834709  1
  O  O23  1  0.174878  0.661901  0.104523  1
