# generated using pymatgen
data_LiMnBO3
_symmetry_space_group_name_H-M   'P 1'
_cell_length_a   8.37505505
_cell_length_b   8.37505505
_cell_length_c   3.20983339
_cell_angle_alpha   90.00000000
_cell_angle_beta   90.00000000
_cell_angle_gamma   120.00000000
_symmetry_Int_Tables_number   1
_chemical_formula_structural   LiMnBO3
_chemical_formula_sum   'Li3 Mn3 B3 O9'
_cell_volume   194.97928019
_cell_formula_units_Z   3
loop_
 _symmetry_equiv_pos_site_id
 _symmetry_equiv_pos_as_xyz
  1  'x, y, z'
loop_
 _atom_site_type_symbol
 _atom_site_label
 _atom_site_symmetry_multiplicity
 _atom_site_fract_x
 _atom_site_fract_y
 _atom_site_fract_z
 _atom_site_occupancy
  Li  Li0  1  0.376770  0.360917  0.000000  1
  Li  Li1  1  0.639083  0.015853  0.000000  1
  Li  Li2  1  0.984147  0.623230  0.000000  1
  Mn  Mn3  1  0.296054  0.981458  0.500000  1
  Mn  Mn4  1  0.018542  0.314597  0.500000  1
  Mn  Mn5  1  0.685403  0.703946  0.500000  1
  B  B6  1  0.333333  0.666667  0.500000  1
  B  B7  1  0.000000  0.000000  0.000000  1
  B  B8  1  0.666667  0.333333  0.500000  1
  O  O9  1  0.103556  0.911853  0.000000  1
  O  O10  1  0.144390  0.598057  0.500000  1
  O  O11  1  0.088147  0.191702  0.000000  1
  O  O12  1  0.453667  0.855610  0.500000  1
  O  O13  1  0.401943  0.546333  0.500000  1
  O  O14  1  0.475608  0.258045  0.500000  1
  O  O15  1  0.808298  0.896444  0.000000  1
  O  O16  1  0.782438  0.524392  0.500000  1
  O  O17  1  0.741955  0.217562  0.500000  1
