# generated using pymatgen
data_V3(WO6)2
_symmetry_space_group_name_H-M   'P 1'
_cell_length_a   9.32927094
_cell_length_b   9.41732248
_cell_length_c   16.15047297
_cell_angle_alpha   90.00000000
_cell_angle_beta   125.18338855
_cell_angle_gamma   90.00000000
_symmetry_Int_Tables_number   1
_chemical_formula_structural   V3(WO6)2
_chemical_formula_sum   'V12 W8 O48'
_cell_volume   1159.70695461
_cell_formula_units_Z   4
loop_
 _symmetry_equiv_pos_site_id
 _symmetry_equiv_pos_as_xyz
  1  'x, y, z'
loop_
 _atom_site_type_symbol
 _atom_site_label
 _atom_site_symmetry_multiplicity
 _atom_site_fract_x
 _atom_site_fract_y
 _atom_site_fract_z
 _atom_site_occupancy
  V  V0  1  0.532681  0.749544  0.503900  1
  V  V1  1  0.256638  0.610735  0.143728  1
  V  V2  1  0.971376  0.893242  0.856673  1
  V  V3  1  0.743362  0.110735  0.356272  1
  V  V4  1  0.028624  0.393242  0.643327  1
  V  V5  1  0.467319  0.249544  0.996100  1
  V  V6  1  0.532681  0.750456  0.003900  1
  V  V7  1  0.971376  0.606758  0.356673  1
  V  V8  1  0.256638  0.889265  0.643728  1
  V  V9  1  0.028624  0.106758  0.143327  1
  V  V10  1  0.743362  0.389265  0.856272  1
  V  V11  1  0.467319  0.250456  0.496100  1
  W  W12  1  0.363004  0.970812  0.116386  1
  W  W13  1  0.636996  0.470812  0.383614  1
  W  W14  1  0.873967  0.032744  0.617692  1
  W  W15  1  0.126033  0.532744  0.882308  1
  W  W16  1  0.873967  0.467256  0.117692  1
  W  W17  1  0.126033  0.967256  0.382308  1
  W  W18  1  0.363004  0.529188  0.616386  1
  W  W19  1  0.636996  0.029188  0.883614  1
  O  O20  1  0.656401  0.150525  0.574598  1
  O  O21  1  0.212584  0.083598  0.131977  1
  O  O22  1  0.486264  0.346643  0.411034  1
  O  O23  1  0.935623  0.419608  0.853893  1
  O  O24  1  0.560751  0.633868  0.429612  1
  O  O25  1  0.309556  0.800947  0.156512  1
  O  O26  1  0.196569  0.556189  0.020152  1
  O  O27  1  0.925059  0.998439  0.749037  1
  O  O28  1  0.996310  0.704051  0.839016  1
  O  O29  1  0.713433  0.863126  0.570421  1
  O  O30  1  0.440212  0.511421  0.248625  1
  O  O31  1  0.559788  0.011421  0.251375  1
  O  O32  1  0.172204  0.942567  0.975099  1
  O  O33  1  0.827796  0.442567  0.524901  1
  O  O34  1  0.286567  0.363126  0.929579  1
  O  O35  1  0.003690  0.204051  0.660984  1
  O  O36  1  0.803431  0.056189  0.479848  1
  O  O37  1  0.074941  0.498439  0.750963  1
  O  O38  1  0.690444  0.300947  0.343488  1
  O  O39  1  0.439249  0.133868  0.070388  1
  O  O40  1  0.513736  0.846643  0.088966  1
  O  O41  1  0.787416  0.583598  0.368023  1
  O  O42  1  0.064377  0.919608  0.646107  1
  O  O43  1  0.343599  0.650525  0.925402  1
  O  O44  1  0.656401  0.349475  0.074598  1
  O  O45  1  0.935623  0.080392  0.353893  1
  O  O46  1  0.212584  0.416402  0.631977  1
  O  O47  1  0.486264  0.153357  0.911034  1
  O  O48  1  0.560751  0.866132  0.929612  1
  O  O49  1  0.309556  0.699053  0.656512  1
  O  O50  1  0.925059  0.501561  0.249037  1
  O  O51  1  0.196569  0.943811  0.520152  1
  O  O52  1  0.996310  0.795949  0.339016  1
  O  O53  1  0.713433  0.636874  0.070421  1
  O  O54  1  0.172204  0.557433  0.475099  1
  O  O55  1  0.827796  0.057433  0.024901  1
  O  O56  1  0.440212  0.988579  0.748625  1
  O  O57  1  0.559788  0.488579  0.751375  1
  O  O58  1  0.286567  0.136874  0.429579  1
  O  O59  1  0.003690  0.295949  0.160984  1
  O  O60  1  0.074941  0.001561  0.250963  1
  O  O61  1  0.803431  0.443811  0.979848  1
  O  O62  1  0.690444  0.199053  0.843488  1
  O  O63  1  0.439249  0.366132  0.570388  1
  O  O64  1  0.064377  0.580392  0.146107  1
  O  O65  1  0.513736  0.653357  0.588966  1
  O  O66  1  0.787416  0.916402  0.868023  1
  O  O67  1  0.343599  0.849475  0.425402  1
