# generated using pymatgen
data_Li2MnPO4F
_symmetry_space_group_name_H-M   'P 1'
_cell_length_a   5.13672051
_cell_length_b   11.53000175
_cell_length_c   13.24081261
_cell_angle_alpha   90.00000000
_cell_angle_beta   90.00000000
_cell_angle_gamma   90.00000000
_symmetry_Int_Tables_number   1
_chemical_formula_structural   Li2MnPO4F
_chemical_formula_sum   'Li16 Mn8 P8 O32 F8'
_cell_volume   784.20561722
_cell_formula_units_Z   8
loop_
 _symmetry_equiv_pos_site_id
 _symmetry_equiv_pos_as_xyz
  1  'x, y, z'
loop_
 _atom_site_type_symbol
 _atom_site_label
 _atom_site_symmetry_multiplicity
 _atom_site_fract_x
 _atom_site_fract_y
 _atom_site_fract_z
 _atom_site_occupancy
  Li  Li0  1  0.782487  0.821727  0.737466  1
  Li  Li1  1  0.782487  0.321727  0.262534  1
  Li  Li2  1  0.780276  0.603166  0.136129  1
  Li  Li3  1  0.780276  0.103166  0.863871  1
  Li  Li4  1  0.719724  0.603166  0.636129  1
  Li  Li5  1  0.719724  0.103166  0.363871  1
  Li  Li6  1  0.717513  0.321727  0.762534  1
  Li  Li7  1  0.717513  0.821727  0.237466  1
  Li  Li8  1  0.282487  0.178273  0.762534  1
  Li  Li9  1  0.282487  0.678273  0.237466  1
  Li  Li10  1  0.280276  0.896834  0.636129  1
  Li  Li11  1  0.280276  0.396834  0.363871  1
  Li  Li12  1  0.219724  0.396834  0.863871  1
  Li  Li13  1  0.219724  0.896834  0.136129  1
  Li  Li14  1  0.217513  0.178273  0.262534  1
  Li  Li15  1  0.217513  0.678273  0.737466  1
  Mn  Mn16  1  0.770718  0.835639  0.005918  1
  Mn  Mn17  1  0.770718  0.335639  0.994082  1
  Mn  Mn18  1  0.729282  0.335639  0.494082  1
  Mn  Mn19  1  0.729282  0.835639  0.505918  1
  Mn  Mn20  1  0.270718  0.664361  0.505918  1
  Mn  Mn21  1  0.270718  0.164361  0.494082  1
  Mn  Mn22  1  0.229282  0.664361  0.005918  1
  Mn  Mn23  1  0.229282  0.164361  0.994082  1
  P  P24  1  0.790914  0.084982  0.629578  1
  P  P25  1  0.790914  0.584982  0.370422  1
  P  P26  1  0.709086  0.584982  0.870422  1
  P  P27  1  0.709086  0.084982  0.129578  1
  P  P28  1  0.290914  0.915018  0.870422  1
  P  P29  1  0.290914  0.415018  0.129578  1
  P  P30  1  0.209086  0.415018  0.629578  1
  P  P31  1  0.209086  0.915018  0.370422  1
  O  O32  1  0.903393  0.408096  0.625772  1
  O  O33  1  0.903393  0.908096  0.374228  1
  O  O34  1  0.815872  0.644706  0.969291  1
  O  O35  1  0.815872  0.144706  0.030709  1
  O  O36  1  0.819345  0.646068  0.777105  1
  O  O37  1  0.819345  0.146068  0.222895  1
  O  O38  1  0.795236  0.955893  0.128236  1
  O  O39  1  0.795236  0.455893  0.871764  1
  O  O40  1  0.704764  0.955893  0.628236  1
  O  O41  1  0.704764  0.455893  0.371764  1
  O  O42  1  0.680655  0.146068  0.722895  1
  O  O43  1  0.680655  0.646068  0.277105  1
  O  O44  1  0.684128  0.144706  0.530709  1
  O  O45  1  0.684128  0.644706  0.469291  1
  O  O46  1  0.596607  0.908096  0.874228  1
  O  O47  1  0.596607  0.408096  0.125772  1
  O  O48  1  0.403393  0.091904  0.125772  1
  O  O49  1  0.403393  0.591904  0.874228  1
  O  O50  1  0.315872  0.355294  0.530709  1
  O  O51  1  0.315872  0.855294  0.469291  1
  O  O52  1  0.319345  0.353932  0.722895  1
  O  O53  1  0.319345  0.853932  0.277105  1
  O  O54  1  0.295236  0.544107  0.628236  1
  O  O55  1  0.295236  0.044107  0.371764  1
  O  O56  1  0.204764  0.044107  0.871764  1
  O  O57  1  0.204764  0.544107  0.128236  1
  O  O58  1  0.180655  0.853932  0.777105  1
  O  O59  1  0.180655  0.353932  0.222895  1
  O  O60  1  0.184128  0.855294  0.969291  1
  O  O61  1  0.184128  0.355294  0.030709  1
  O  O62  1  0.096607  0.091904  0.625772  1
  O  O63  1  0.096607  0.591904  0.374228  1
  F  F64  1  0.000000  0.750000  0.605959  1
  F  F65  1  0.000000  0.750000  0.137224  1
  F  F66  1  0.000000  0.250000  0.862776  1
  F  F67  1  0.000000  0.250000  0.394041  1
  F  F68  1  0.500000  0.750000  0.105959  1
  F  F69  1  0.500000  0.750000  0.637224  1
  F  F70  1  0.500000  0.250000  0.894041  1
  F  F71  1  0.500000  0.250000  0.362776  1
