# generated using pymatgen
data_Li4V3CrO8
_symmetry_space_group_name_H-M   'P 1'
_cell_length_a   5.19659712
_cell_length_b   5.97231866
_cell_length_c   5.21031761
_cell_angle_alpha   90.00000000
_cell_angle_beta   109.93461618
_cell_angle_gamma   90.00000000
_symmetry_Int_Tables_number   1
_chemical_formula_structural   Li4V3CrO8
_chemical_formula_sum   'Li4 V3 Cr1 O8'
_cell_volume   152.01697910
_cell_formula_units_Z   1
loop_
 _symmetry_equiv_pos_site_id
 _symmetry_equiv_pos_as_xyz
  1  'x, y, z'
loop_
 _atom_site_type_symbol
 _atom_site_label
 _atom_site_symmetry_multiplicity
 _atom_site_fract_x
 _atom_site_fract_y
 _atom_site_fract_z
 _atom_site_occupancy
  Li  Li0  1  0.000000  0.251899  0.000000  1
  Li  Li1  1  0.000000  0.748101  0.000000  1
  Li  Li2  1  0.000000  0.500000  0.500000  1
  Li  Li3  1  0.000000  0.000000  0.500000  1
  V  V4  1  0.500000  0.000000  0.000000  1
  V  V5  1  0.500000  0.250094  0.500000  1
  V  V6  1  0.500000  0.749906  0.500000  1
  Cr  Cr7  1  0.500000  0.500000  0.000000  1
  O  O8  1  0.270568  0.253036  0.760923  1
  O  O9  1  0.270568  0.746964  0.760923  1
  O  O10  1  0.722040  0.500000  0.743229  1
  O  O11  1  0.277960  0.500000  0.256771  1
  O  O12  1  0.725162  0.000000  0.741743  1
  O  O13  1  0.729432  0.253036  0.239077  1
  O  O14  1  0.274838  0.000000  0.258257  1
  O  O15  1  0.729432  0.746964  0.239077  1
