# generated using pymatgen
data_Li2NiP2O7
_symmetry_space_group_name_H-M   'P 1'
_cell_length_a   5.19319352
_cell_length_b   5.19319352
_cell_length_c   11.75883063
_cell_angle_alpha   81.00074854
_cell_angle_beta   98.99925146
_cell_angle_gamma   123.39438881
_symmetry_Int_Tables_number   1
_chemical_formula_structural   Li2NiP2O7
_chemical_formula_sum   'Li4 Ni2 P4 O14'
_cell_volume   260.55786794
_cell_formula_units_Z   2
loop_
 _symmetry_equiv_pos_site_id
 _symmetry_equiv_pos_as_xyz
  1  'x, y, z'
loop_
 _atom_site_type_symbol
 _atom_site_label
 _atom_site_symmetry_multiplicity
 _atom_site_fract_x
 _atom_site_fract_y
 _atom_site_fract_z
 _atom_site_occupancy
  Li  Li0  1  0.850301  0.560526  0.631378  1
  Li  Li1  1  0.560526  0.850301  0.868622  1
  Li  Li2  1  0.439474  0.149699  0.131378  1
  Li  Li3  1  0.149699  0.439474  0.368622  1
  Ni  Ni4  1  0.500000  0.000000  0.500000  1
  Ni  Ni5  1  0.000000  0.500000  0.000000  1
  P  P6  1  0.845231  0.755834  0.373762  1
  P  P7  1  0.755834  0.845231  0.126238  1
  P  P8  1  0.244166  0.154769  0.873762  1
  P  P9  1  0.154769  0.244166  0.626238  1
  O  O10  1  0.863373  0.176729  0.145274  1
  O  O11  1  0.463100  0.696874  0.043220  1
  O  O12  1  0.197054  0.992162  0.600885  1
  O  O13  1  0.633568  0.633568  0.250000  1
  O  O14  1  0.696874  0.463100  0.456780  1
  O  O15  1  0.176729  0.863373  0.354726  1
  O  O16  1  0.992162  0.197054  0.899115  1
  O  O17  1  0.007838  0.802946  0.100885  1
  O  O18  1  0.823271  0.136627  0.645274  1
  O  O19  1  0.303126  0.536900  0.543220  1
  O  O20  1  0.366432  0.366432  0.750000  1
  O  O21  1  0.802946  0.007838  0.399115  1
  O  O22  1  0.536900  0.303126  0.956780  1
  O  O23  1  0.136627  0.823271  0.854726  1
