# generated using pymatgen
data_Na3FeO4
_symmetry_space_group_name_H-M   'P 1'
_cell_length_a   5.32452225
_cell_length_b   6.48325459
_cell_length_c   5.76340242
_cell_angle_alpha   90.00000000
_cell_angle_beta   110.06681653
_cell_angle_gamma   90.00000000
_symmetry_Int_Tables_number   1
_chemical_formula_structural   Na3FeO4
_chemical_formula_sum   'Na6 Fe2 O8'
_cell_volume   186.87612152
_cell_formula_units_Z   2
loop_
 _symmetry_equiv_pos_site_id
 _symmetry_equiv_pos_as_xyz
  1  'x, y, z'
loop_
 _atom_site_type_symbol
 _atom_site_label
 _atom_site_symmetry_multiplicity
 _atom_site_fract_x
 _atom_site_fract_y
 _atom_site_fract_z
 _atom_site_occupancy
  Na  Na0  1  0.250000  0.619874  0.000000  1
  Na  Na1  1  0.750000  0.380126  0.000000  1
  Na  Na2  1  0.250000  0.883223  0.500000  1
  Na  Na3  1  0.250000  0.380334  0.500000  1
  Na  Na4  1  0.750000  0.619666  0.500000  1
  Na  Na5  1  0.750000  0.116777  0.500000  1
  Fe  Fe6  1  0.250000  0.127010  0.000000  1
  Fe  Fe7  1  0.750000  0.872990  0.000000  1
  O  O8  1  0.050195  0.323862  0.780895  1
  O  O9  1  0.491767  0.096446  0.812503  1
  O  O10  1  0.550195  0.676138  0.780895  1
  O  O11  1  0.991767  0.903554  0.812503  1
  O  O12  1  0.449805  0.323862  0.219105  1
  O  O13  1  0.508233  0.903554  0.187497  1
  O  O14  1  0.949805  0.676138  0.219105  1
  O  O15  1  0.008233  0.096446  0.187497  1
