# generated using pymatgen
data_Li2CoP2O7
_symmetry_space_group_name_H-M   'P 1'
_cell_length_a   8.06199847
_cell_length_b   8.06199847
_cell_length_c   8.06199847
_cell_angle_alpha   135.42183300
_cell_angle_beta   124.78183474
_cell_angle_gamma   73.57579180
_symmetry_Int_Tables_number   1
_chemical_formula_structural   Li2CoP2O7
_chemical_formula_sum   'Li4 Co2 P4 O14'
_cell_volume   295.04865154
_cell_formula_units_Z   2
loop_
 _symmetry_equiv_pos_site_id
 _symmetry_equiv_pos_as_xyz
  1  'x, y, z'
loop_
 _atom_site_type_symbol
 _atom_site_label
 _atom_site_symmetry_multiplicity
 _atom_site_fract_x
 _atom_site_fract_y
 _atom_site_fract_z
 _atom_site_occupancy
  Li  Li0  1  0.268852  0.768852  0.000000  1
  Li  Li1  1  0.231148  0.231148  0.500000  1
  Li  Li2  1  0.768852  0.768852  0.500000  1
  Li  Li3  1  0.731148  0.231148  0.000000  1
  Co  Co4  1  0.500000  1.000000  0.000000  1
  Co  Co5  1  0.000000  1.000000  0.500000  1
  P  P6  1  0.361615  0.768880  0.407265  1
  P  P7  1  0.861615  0.454350  0.592735  1
  P  P8  1  0.138385  0.545650  0.407265  1
  P  P9  1  0.638385  0.231120  0.592735  1
  O  O10  1  0.307789  0.688766  0.722679  1
  O  O11  1  0.466088  0.085111  0.277321  1
  O  O12  1  0.946613  0.707642  0.761029  1
  O  O13  1  0.446613  0.685584  0.238971  1
  O  O14  1  0.192211  0.914889  0.380977  1
  O  O15  1  0.033912  0.311234  0.619023  1
  O  O16  1  0.750000  0.468745  0.718745  1
  O  O17  1  0.250000  0.531255  0.281255  1
  O  O18  1  0.966088  0.688766  0.380977  1
  O  O19  1  0.807789  0.085111  0.619023  1
  O  O20  1  0.553387  0.314416  0.761029  1
  O  O21  1  0.053387  0.292358  0.238971  1
  O  O22  1  0.692211  0.311234  0.277321  1
  O  O23  1  0.533912  0.914889  0.722679  1
