# generated using pymatgen
data_Li(CoO2)2
_symmetry_space_group_name_H-M   'P 1'
_cell_length_a   9.56302988
_cell_length_b   9.56302988
_cell_length_c   9.56302988
_cell_angle_alpha   16.92379801
_cell_angle_beta   16.92379801
_cell_angle_gamma   16.92379801
_symmetry_Int_Tables_number   1
_chemical_formula_structural   Li(CoO2)2
_chemical_formula_sum   'Li1 Co2 O4'
_cell_volume   64.64665379
_cell_formula_units_Z   1
loop_
 _symmetry_equiv_pos_site_id
 _symmetry_equiv_pos_as_xyz
  1  'x, y, z'
loop_
 _atom_site_type_symbol
 _atom_site_label
 _atom_site_symmetry_multiplicity
 _atom_site_fract_x
 _atom_site_fract_y
 _atom_site_fract_z
 _atom_site_occupancy
  Li  Li0  1  0.086649  0.086649  0.086649  1
  Co  Co1  1  0.502705  0.502705  0.502705  1
  Co  Co2  1  0.997912  0.997912  0.997912  1
  O  O3  1  0.633463  0.633463  0.633463  1
  O  O4  1  0.369013  0.369013  0.369013  1
  O  O5  1  0.798216  0.798216  0.798216  1
  O  O6  1  0.200542  0.200542  0.200542  1
