# generated using pymatgen
data_Li2VO2F
_symmetry_space_group_name_H-M   'P 1'
_cell_length_a   7.86746193
_cell_length_b   7.86746193
_cell_length_c   5.19506813
_cell_angle_alpha   71.95120727
_cell_angle_beta   108.04879273
_cell_angle_gamma   158.43781702
_symmetry_Int_Tables_number   1
_chemical_formula_structural   Li2VO2F
_chemical_formula_sum   'Li4 V2 O4 F2'
_cell_volume   112.14475127
_cell_formula_units_Z   2
loop_
 _symmetry_equiv_pos_site_id
 _symmetry_equiv_pos_as_xyz
  1  'x, y, z'
loop_
 _atom_site_type_symbol
 _atom_site_label
 _atom_site_symmetry_multiplicity
 _atom_site_fract_x
 _atom_site_fract_y
 _atom_site_fract_z
 _atom_site_occupancy
  Li  Li0  1  0.169929  0.830071  0.334552  1
  Li  Li1  1  0.500000  0.500000  0.000000  1
  Li  Li2  1  0.000000  1.000000  0.500000  1
  Li  Li3  1  0.830071  0.169929  0.665448  1
  V  V4  1  0.664052  0.335948  0.844150  1
  V  V5  1  0.335948  0.664052  0.155850  1
  O  O6  1  0.245427  0.754573  0.762297  1
  O  O7  1  0.754573  0.245427  0.237703  1
  O  O8  1  0.914006  0.085994  0.091563  1
  O  O9  1  0.085994  0.914006  0.908437  1
  F  F10  1  0.585434  0.414566  0.426205  1
  F  F11  1  0.414566  0.585434  0.573795  1
