# generated using pymatgen
data_Mn2OF3
_symmetry_space_group_name_H-M   'P 1'
_cell_length_a   4.88659541
_cell_length_b   4.88659541
_cell_length_c   15.87682677
_cell_angle_alpha   90.00000000
_cell_angle_beta   90.00000000
_cell_angle_gamma   93.59887310
_symmetry_Int_Tables_number   1
_chemical_formula_structural   Mn2OF3
_chemical_formula_sum   'Mn10 O5 F15'
_cell_volume   378.37216638
_cell_formula_units_Z   5
loop_
 _symmetry_equiv_pos_site_id
 _symmetry_equiv_pos_as_xyz
  1  'x, y, z'
loop_
 _atom_site_type_symbol
 _atom_site_label
 _atom_site_symmetry_multiplicity
 _atom_site_fract_x
 _atom_site_fract_y
 _atom_site_fract_z
 _atom_site_occupancy
  Mn  Mn0  1  0.027613  0.027613  0.299425  1
  Mn  Mn1  1  0.966956  0.966956  0.099637  1
  Mn  Mn2  1  0.966956  0.966956  0.900363  1
  Mn  Mn3  1  0.024300  0.024300  0.500000  1
  Mn  Mn4  1  0.027613  0.027613  0.700575  1
  Mn  Mn5  1  0.493242  0.493242  0.399687  1
  Mn  Mn6  1  0.497110  0.497110  0.000000  1
  Mn  Mn7  1  0.497630  0.497630  0.199549  1
  Mn  Mn8  1  0.497630  0.497630  0.800451  1
  Mn  Mn9  1  0.493242  0.493242  0.600313  1
  O  O10  1  0.323299  0.323299  0.297817  1
  O  O11  1  0.315226  0.315226  0.500000  1
  O  O12  1  0.323299  0.323299  0.702183  1
  O  O13  1  0.670466  0.670466  0.900006  1
  O  O14  1  0.670466  0.670466  0.099994  1
  F  F15  1  0.797112  0.198849  0.800423  1
  F  F16  1  0.783830  0.173348  1.000000  1
  F  F17  1  0.797112  0.198849  0.199577  1
  F  F18  1  0.820054  0.207600  0.400914  1
  F  F19  1  0.820054  0.207600  0.599086  1
  F  F20  1  0.284899  0.284899  0.904798  1
  F  F21  1  0.284899  0.284899  0.095202  1
  F  F22  1  0.711301  0.711301  0.304033  1
  F  F23  1  0.708146  0.708146  0.500000  1
  F  F24  1  0.711301  0.711301  0.695967  1
  F  F25  1  0.173348  0.783830  1.000000  1
  F  F26  1  0.198849  0.797112  0.199577  1
  F  F27  1  0.207600  0.820054  0.400914  1
  F  F28  1  0.198849  0.797112  0.800423  1
  F  F29  1  0.207600  0.820054  0.599086  1
