# generated using pymatgen
data_Li2Mn5Si5O16
_symmetry_space_group_name_H-M   'P 1'
_cell_length_a   5.13969525
_cell_length_b   7.06640963
_cell_length_c   10.49473806
_cell_angle_alpha   89.16678778
_cell_angle_beta   89.86797975
_cell_angle_gamma   89.80789635
_symmetry_Int_Tables_number   1
_chemical_formula_structural   Li2Mn5Si5O16
_chemical_formula_sum   'Li2 Mn5 Si5 O16'
_cell_volume   381.11699153
_cell_formula_units_Z   1
loop_
 _symmetry_equiv_pos_site_id
 _symmetry_equiv_pos_as_xyz
  1  'x, y, z'
loop_
 _atom_site_type_symbol
 _atom_site_label
 _atom_site_symmetry_multiplicity
 _atom_site_fract_x
 _atom_site_fract_y
 _atom_site_fract_z
 _atom_site_occupancy
  Li  Li0  1  0.355923  0.502840  0.336932  1
  Li  Li1  1  0.820893  0.998920  0.143773  1
  Mn  Mn2  1  0.180064  0.010885  0.858550  1
  Mn  Mn3  1  0.188441  0.519758  0.849481  1
  Mn  Mn4  1  0.692312  0.495302  0.643370  1
  Mn  Mn5  1  0.833984  0.498229  0.152506  1
  Mn  Mn6  1  0.678557  0.996320  0.658802  1
  Si  Si7  1  0.300667  0.990274  0.335906  1
  Si  Si8  1  0.177667  0.768149  0.586047  1
  Si  Si9  1  0.342930  0.743206  0.106486  1
  Si  Si10  1  0.795283  0.229977  0.402844  1
  Si  Si11  1  0.682332  0.254815  0.911481  1
  O  O12  1  0.279546  0.949470  0.666591  1
  O  O13  1  0.219933  0.930936  0.190862  1
  O  O14  1  0.860488  0.754186  0.594052  1
  O  O15  1  0.233408  0.762435  0.959347  1
  O  O16  1  0.654777  0.757385  0.118045  1
  O  O17  1  0.269356  0.803059  0.432173  1
  O  O18  1  0.297506  0.571484  0.646066  1
  O  O19  1  0.227087  0.552509  0.172696  1
  O  O20  1  0.721790  0.431524  0.340240  1
  O  O21  1  0.798741  0.443622  0.834011  1
  O  O22  1  0.104699  0.166540  0.372679  1
  O  O23  1  0.363403  0.263994  0.890913  1
  O  O24  1  0.753979  0.237971  0.555481  1
  O  O25  1  0.775779  0.246745  0.058741  1
  O  O26  1  0.606337  0.059826  0.340990  1
  O  O27  1  0.784116  0.059638  0.840937  1
