# generated using pymatgen
data_Li4Ti3Fe3(CoO8)2
_symmetry_space_group_name_H-M   'P 1'
_cell_length_a   5.93265859
_cell_length_b   5.93265859
_cell_length_c   9.62021203
_cell_angle_alpha   89.30265814
_cell_angle_beta   90.69734186
_cell_angle_gamma   119.71654128
_symmetry_Int_Tables_number   1
_chemical_formula_structural   Li4Ti3Fe3(CoO8)2
_chemical_formula_sum   'Li4 Ti3 Fe3 Co2 O16'
_cell_volume   294.03862676
_cell_formula_units_Z   1
loop_
 _symmetry_equiv_pos_site_id
 _symmetry_equiv_pos_as_xyz
  1  'x, y, z'
loop_
 _atom_site_type_symbol
 _atom_site_label
 _atom_site_symmetry_multiplicity
 _atom_site_fract_x
 _atom_site_fract_y
 _atom_site_fract_z
 _atom_site_occupancy
  Li  Li0  1  0.335047  0.664953  0.892123  1
  Li  Li1  1  0.000654  0.999346  0.993589  1
  Li  Li2  1  0.997589  0.002411  0.496968  1
  Li  Li3  1  0.668734  0.331266  0.396108  1
  Ti  Ti4  1  0.660223  0.828347  0.214242  1
  Ti  Ti5  1  0.171653  0.339777  0.214242  1
  Ti  Ti6  1  0.828416  0.171584  0.717492  1
  Fe  Fe7  1  0.169240  0.830760  0.216175  1
  Fe  Fe8  1  0.829496  0.660049  0.711515  1
  Fe  Fe9  1  0.339951  0.170504  0.711515  1
  Co  Co10  1  0.324065  0.675935  0.491598  1
  Co  Co11  1  0.662625  0.337375  0.988282  1
  O  O12  1  0.667599  0.834005  0.600617  1
  O  O13  1  0.481430  0.518570  0.332890  1
  O  O14  1  0.335643  0.664357  0.103946  1
  O  O15  1  0.996379  0.003621  0.312038  1
  O  O16  1  0.999811  0.000189  0.806515  1
  O  O17  1  0.165995  0.332401  0.600617  1
  O  O18  1  0.485224  0.955878  0.341177  1
  O  O19  1  0.044122  0.514776  0.341177  1
  O  O20  1  0.830550  0.169450  0.103724  1
  O  O21  1  0.165979  0.834021  0.593929  1
  O  O22  1  0.963806  0.475786  0.836793  1
  O  O23  1  0.524214  0.036194  0.836793  1
  O  O24  1  0.670875  0.329125  0.601426  1
  O  O25  1  0.828657  0.676552  0.104474  1
  O  O26  1  0.523758  0.476242  0.843705  1
  O  O27  1  0.323448  0.171343  0.104474  1
