# generated using pymatgen
data_LiSn(PO3)4
_symmetry_space_group_name_H-M   'P 1'
_cell_length_a   10.63247055
_cell_length_b   10.63247055
_cell_length_c   5.48844257
_cell_angle_alpha   80.28742808
_cell_angle_beta   99.71257192
_cell_angle_gamma   110.51709709
_symmetry_Int_Tables_number   1
_chemical_formula_structural   LiSn(PO3)4
_chemical_formula_sum   'Li2 Sn2 P8 O24'
_cell_volume   568.72899992
_cell_formula_units_Z   2
loop_
 _symmetry_equiv_pos_site_id
 _symmetry_equiv_pos_as_xyz
  1  'x, y, z'
loop_
 _atom_site_type_symbol
 _atom_site_label
 _atom_site_symmetry_multiplicity
 _atom_site_fract_x
 _atom_site_fract_y
 _atom_site_fract_z
 _atom_site_occupancy
  Li  Li0  1  0.435921  0.564079  0.386036  1
  Li  Li1  1  0.564079  0.435921  0.613964  1
  Sn  Sn2  1  0.500000  1.000000  0.000000  1
  Sn  Sn3  1  1.000000  0.500000  0.000000  1
  P  P4  1  0.371753  0.224459  0.174299  1
  P  P5  1  0.775541  0.628247  0.174299  1
  P  P6  1  0.939219  0.296307  0.549238  1
  P  P7  1  0.703693  0.060781  0.549238  1
  P  P8  1  0.060781  0.703693  0.450762  1
  P  P9  1  0.296307  0.939219  0.450762  1
  P  P10  1  0.224459  0.371753  0.825701  1
  P  P11  1  0.628247  0.775541  0.825701  1
  O  O12  1  0.236042  0.236042  0.000000  1
  O  O13  1  0.763958  0.763958  0.000000  1
  O  O14  1  0.678839  0.080082  0.269157  1
  O  O15  1  0.919918  0.321161  0.269157  1
  O  O16  1  0.190992  0.455263  0.989228  1
  O  O17  1  0.544737  0.809008  0.989228  1
  O  O18  1  0.435508  0.340227  0.322737  1
  O  O19  1  0.659773  0.564492  0.322737  1
  O  O20  1  0.301310  0.090560  0.358402  1
  O  O21  1  0.909440  0.698690  0.358402  1
  O  O22  1  0.861464  0.138536  0.635617  1
  O  O23  1  0.383763  0.894050  0.316583  1
  O  O24  1  0.105950  0.616237  0.316583  1
  O  O25  1  0.616237  0.105950  0.683417  1
  O  O26  1  0.894050  0.383763  0.683417  1
  O  O27  1  0.138536  0.861464  0.364383  1
  O  O28  1  0.698690  0.909440  0.641598  1
  O  O29  1  0.090560  0.301310  0.641598  1
  O  O30  1  0.340227  0.435508  0.677263  1
  O  O31  1  0.564492  0.659773  0.677263  1
  O  O32  1  0.455263  0.190992  0.010772  1
  O  O33  1  0.809008  0.544737  0.010772  1
  O  O34  1  0.080082  0.678839  0.730843  1
  O  O35  1  0.321161  0.919918  0.730843  1
