# generated using pymatgen
data_Li3Mn4CrO8
_symmetry_space_group_name_H-M   'P 1'
_cell_length_a   6.15049814
_cell_length_b   6.15049814
_cell_length_c   5.99862214
_cell_angle_alpha   60.98772401
_cell_angle_beta   119.01227599
_cell_angle_gamma   121.71639258
_symmetry_Int_Tables_number   1
_chemical_formula_structural   Li3Mn4CrO8
_chemical_formula_sum   'Li3 Mn4 Cr1 O8'
_cell_volume   160.53647979
_cell_formula_units_Z   1
loop_
 _symmetry_equiv_pos_site_id
 _symmetry_equiv_pos_as_xyz
  1  'x, y, z'
loop_
 _atom_site_type_symbol
 _atom_site_label
 _atom_site_symmetry_multiplicity
 _atom_site_fract_x
 _atom_site_fract_y
 _atom_site_fract_z
 _atom_site_occupancy
  Li  Li0  1  0.000000  0.500000  0.500000  1
  Li  Li1  1  0.000000  0.000000  0.000000  1
  Li  Li2  1  0.500000  0.000000  0.500000  1
  Mn  Mn3  1  0.500000  0.500000  0.000000  1
  Mn  Mn4  1  0.000000  0.000000  0.500000  1
  Mn  Mn5  1  0.000000  0.500000  0.000000  1
  Mn  Mn6  1  0.500000  0.000000  0.000000  1
  Cr  Cr7  1  0.500000  0.500000  0.500000  1
  O  O8  1  0.269609  0.730391  0.249677  1
  O  O9  1  0.252859  0.263911  0.736662  1
  O  O10  1  0.736089  0.747141  0.736662  1
  O  O11  1  0.751154  0.248846  0.232170  1
  O  O12  1  0.248846  0.751154  0.767830  1
  O  O13  1  0.263911  0.252859  0.263338  1
  O  O14  1  0.747141  0.736089  0.263338  1
  O  O15  1  0.730391  0.269609  0.750323  1
