# generated using pymatgen
data_Li5Cu(PO4)2
_symmetry_space_group_name_H-M   'P 1'
_cell_length_a   5.38363093
_cell_length_b   6.15457625
_cell_length_c   11.34931029
_cell_angle_alpha   90.00000000
_cell_angle_beta   118.42115327
_cell_angle_gamma   90.00000000
_symmetry_Int_Tables_number   1
_chemical_formula_structural   Li5Cu(PO4)2
_chemical_formula_sum   'Li10 Cu2 P4 O16'
_cell_volume   330.72374393
_cell_formula_units_Z   2
loop_
 _symmetry_equiv_pos_site_id
 _symmetry_equiv_pos_as_xyz
  1  'x, y, z'
loop_
 _atom_site_type_symbol
 _atom_site_label
 _atom_site_symmetry_multiplicity
 _atom_site_fract_x
 _atom_site_fract_y
 _atom_site_fract_z
 _atom_site_occupancy
  Li  Li0  1  0.410097  0.000000  0.257359  1
  Li  Li1  1  0.906034  0.000000  0.752766  1
  Li  Li2  1  0.830865  0.754713  0.504812  1
  Li  Li3  1  0.427740  0.748407  0.752098  1
  Li  Li4  1  0.928790  0.745700  0.257205  1
  Li  Li5  1  0.851381  0.500000  0.002537  1
  Li  Li6  1  0.346635  0.500000  0.504289  1
  Li  Li7  1  0.928790  0.254300  0.257205  1
  Li  Li8  1  0.427740  0.251593  0.752098  1
  Li  Li9  1  0.830865  0.245287  0.504812  1
  Cu  Cu10  1  0.335378  0.754076  0.994805  1
  Cu  Cu11  1  0.335378  0.245924  0.994805  1
  P  P12  1  0.828800  0.000000  0.003307  1
  P  P13  1  0.324601  0.000000  0.500852  1
  P  P14  1  0.914268  0.500000  0.742320  1
  P  P15  1  0.427807  0.500000  0.258196  1
  O  O16  1  0.162113  0.000000  0.344879  1
  O  O17  1  0.649558  0.000000  0.550884  1
  O  O18  1  0.672853  0.000000  0.847661  1
  O  O19  1  0.156085  0.000000  0.061227  1
  O  O20  1  0.240808  0.792940  0.553694  1
  O  O21  1  0.755574  0.789810  0.058101  1
  O  O22  1  0.103255  0.708817  0.789095  1
  O  O23  1  0.617793  0.707109  0.307737  1
  O  O24  1  0.262598  0.500000  0.101731  1
  O  O25  1  0.205795  0.500000  0.309675  1
  O  O26  1  0.758501  0.500000  0.586821  1
  O  O27  1  0.699873  0.500000  0.797813  1
  O  O28  1  0.617793  0.292891  0.307737  1
  O  O29  1  0.103255  0.291183  0.789095  1
  O  O30  1  0.240808  0.207060  0.553694  1
  O  O31  1  0.755574  0.210190  0.058101  1
