# generated using pymatgen
data_V3O5F
_symmetry_space_group_name_H-M   'P 1'
_cell_length_a   5.51567562
_cell_length_b   5.52145023
_cell_length_c   7.26034851
_cell_angle_alpha   70.89633269
_cell_angle_beta   71.01897097
_cell_angle_gamma   73.85538686
_symmetry_Int_Tables_number   1
_chemical_formula_structural   V3O5F
_chemical_formula_sum   'V6 O10 F2'
_cell_volume   193.89487753
_cell_formula_units_Z   2
loop_
 _symmetry_equiv_pos_site_id
 _symmetry_equiv_pos_as_xyz
  1  'x, y, z'
loop_
 _atom_site_type_symbol
 _atom_site_label
 _atom_site_symmetry_multiplicity
 _atom_site_fract_x
 _atom_site_fract_y
 _atom_site_fract_z
 _atom_site_occupancy
  V  V0  1  0.310221  0.322681  0.184026  1
  V  V1  1  0.661470  0.665151  0.329358  1
  V  V2  1  0.346215  0.356494  0.663783  1
  V  V3  1  0.675094  0.693259  0.819907  1
  V  V4  1  0.991664  0.997108  0.488872  1
  V  V5  1  0.024149  0.966273  0.015428  1
  O  O6  1  0.371588  0.974273  0.322941  1
  O  O7  1  0.028533  0.631450  0.673324  1
  O  O8  1  0.783241  0.782475  0.019311  1
  O  O9  1  0.414276  0.423343  0.380325  1
  O  O10  1  0.907308  0.898068  0.295444  1
  O  O11  1  0.219893  0.224487  0.963862  1
  O  O12  1  0.563790  0.571399  0.639491  1
  O  O13  1  0.316521  0.681250  0.003726  1
  O  O14  1  0.959538  0.372035  0.329589  1
  O  O15  1  0.624158  0.040669  0.670743  1
  F  F16  1  0.103600  0.098455  0.699147  1
  F  F17  1  0.698742  0.301134  0.000723  1
