# generated using pymatgen
data_LiFe2(SO4)3
_symmetry_space_group_name_H-M   'P 1'
_cell_length_a   8.70426736
_cell_length_b   8.70426736
_cell_length_c   8.70426736
_cell_angle_alpha   59.72724990
_cell_angle_beta   59.72724990
_cell_angle_gamma   59.72724990
_symmetry_Int_Tables_number   1
_chemical_formula_structural   LiFe2(SO4)3
_chemical_formula_sum   'Li2 Fe4 S6 O24'
_cell_volume   463.42887166
_cell_formula_units_Z   2
loop_
 _symmetry_equiv_pos_site_id
 _symmetry_equiv_pos_as_xyz
  1  'x, y, z'
loop_
 _atom_site_type_symbol
 _atom_site_label
 _atom_site_symmetry_multiplicity
 _atom_site_fract_x
 _atom_site_fract_y
 _atom_site_fract_z
 _atom_site_occupancy
  Li  Li0  1  0.000000  0.000000  0.000000  1
  Li  Li1  1  0.500000  0.500000  0.500000  1
  Fe  Fe2  1  0.644342  0.644342  0.644342  1
  Fe  Fe3  1  0.855658  0.855658  0.855658  1
  Fe  Fe4  1  0.355658  0.355658  0.355658  1
  Fe  Fe5  1  0.144342  0.144342  0.144342  1
  S  S6  1  0.250000  0.545067  0.954933  1
  S  S7  1  0.045067  0.750000  0.454933  1
  S  S8  1  0.454933  0.045067  0.750000  1
  S  S9  1  0.545067  0.954933  0.250000  1
  S  S10  1  0.954933  0.250000  0.545067  1
  S  S11  1  0.750000  0.454933  0.045067  1
  O  O12  1  0.091752  0.729766  0.940247  1
  O  O13  1  0.270234  0.059753  0.908248  1
  O  O14  1  0.106083  0.309720  0.505528  1
  O  O15  1  0.994472  0.190280  0.393917  1
  O  O16  1  0.408248  0.559753  0.770234  1
  O  O17  1  0.229766  0.591752  0.440247  1
  O  O18  1  0.059753  0.908248  0.270234  1
  O  O19  1  0.809720  0.606083  0.005528  1
  O  O20  1  0.494472  0.893917  0.690280  1
  O  O21  1  0.690280  0.494472  0.893917  1
  O  O22  1  0.606083  0.005528  0.809720  1
  O  O23  1  0.440247  0.229766  0.591752  1
  O  O24  1  0.559753  0.770234  0.408248  1
  O  O25  1  0.309720  0.505528  0.106083  1
  O  O26  1  0.393917  0.994472  0.190280  1
  O  O27  1  0.190280  0.393917  0.994472  1
  O  O28  1  0.505528  0.106083  0.309720  1
  O  O29  1  0.940247  0.091752  0.729766  1
  O  O30  1  0.770234  0.408248  0.559753  1
  O  O31  1  0.591752  0.440247  0.229766  1
  O  O32  1  0.893917  0.690280  0.494472  1
  O  O33  1  0.005528  0.809720  0.606083  1
  O  O34  1  0.729766  0.940247  0.091752  1
  O  O35  1  0.908248  0.270234  0.059753  1
