# generated using pymatgen
data_FePO4F
_symmetry_space_group_name_H-M   'P 1'
_cell_length_a   6.33096604
_cell_length_b   10.85188176
_cell_length_c   12.80399720
_cell_angle_alpha   90.00000000
_cell_angle_beta   90.00000000
_cell_angle_gamma   90.00000000
_symmetry_Int_Tables_number   1
_chemical_formula_structural   FePO4F
_chemical_formula_sum   'Fe8 P8 O32 F8'
_cell_volume   879.67167384
_cell_formula_units_Z   8
loop_
 _symmetry_equiv_pos_site_id
 _symmetry_equiv_pos_as_xyz
  1  'x, y, z'
loop_
 _atom_site_type_symbol
 _atom_site_label
 _atom_site_symmetry_multiplicity
 _atom_site_fract_x
 _atom_site_fract_y
 _atom_site_fract_z
 _atom_site_occupancy
  Fe  Fe0  1  0.750000  0.250000  0.637800  1
  Fe  Fe1  1  0.000000  0.500000  0.500000  1
  Fe  Fe2  1  0.500000  0.000000  0.500000  1
  Fe  Fe3  1  0.250000  0.750000  0.362200  1
  Fe  Fe4  1  0.250000  0.250000  0.137800  1
  Fe  Fe5  1  0.000000  0.500000  0.000000  1
  Fe  Fe6  1  0.500000  0.000000  0.000000  1
  Fe  Fe7  1  0.750000  0.750000  0.862200  1
  P  P8  1  0.583451  0.000000  0.750000  1
  P  P9  1  0.250000  0.250000  0.563939  1
  P  P10  1  0.750000  0.750000  0.436061  1
  P  P11  1  0.083451  0.500000  0.250000  1
  P  P12  1  0.416549  0.000000  0.250000  1
  P  P13  1  0.750000  0.250000  0.063939  1
  P  P14  1  0.250000  0.750000  0.936061  1
  P  P15  1  0.916549  0.500000  0.750000  1
  O  O16  1  0.771445  0.384632  0.742522  1
  O  O17  1  0.728555  0.115368  0.742522  1
  O  O18  1  0.056531  0.514646  0.653381  1
  O  O19  1  0.443469  0.985354  0.653381  1
  O  O20  1  0.059894  0.224346  0.636660  1
  O  O21  1  0.440106  0.275654  0.636660  1
  O  O22  1  0.707858  0.862996  0.507380  1
  O  O23  1  0.792142  0.637004  0.507380  1
  O  O24  1  0.292142  0.137004  0.492620  1
  O  O25  1  0.207858  0.362996  0.492620  1
  O  O26  1  0.940106  0.775654  0.363340  1
  O  O27  1  0.559894  0.724346  0.363340  1
  O  O28  1  0.943469  0.485354  0.346619  1
  O  O29  1  0.556531  0.014646  0.346619  1
  O  O30  1  0.228555  0.615368  0.257478  1
  O  O31  1  0.271445  0.884632  0.257478  1
  O  O32  1  0.228555  0.384632  0.242522  1
  O  O33  1  0.271445  0.115368  0.242522  1
  O  O34  1  0.943469  0.514646  0.153381  1
  O  O35  1  0.556531  0.985354  0.153381  1
  O  O36  1  0.940106  0.224346  0.136660  1
  O  O37  1  0.559894  0.275654  0.136660  1
  O  O38  1  0.292142  0.862996  0.007380  1
  O  O39  1  0.207858  0.637004  0.007380  1
  O  O40  1  0.707858  0.137004  0.992620  1
  O  O41  1  0.792142  0.362996  0.992620  1
  O  O42  1  0.059894  0.775654  0.863340  1
  O  O43  1  0.440106  0.724346  0.863340  1
  O  O44  1  0.056531  0.485354  0.846619  1
  O  O45  1  0.443469  0.014646  0.846619  1
  O  O46  1  0.771445  0.615368  0.757478  1
  O  O47  1  0.728555  0.884632  0.757478  1
  F  F48  1  0.722464  0.123784  0.525801  1
  F  F49  1  0.777536  0.376216  0.525801  1
  F  F50  1  0.277536  0.876216  0.474199  1
  F  F51  1  0.222464  0.623784  0.474199  1
  F  F52  1  0.277536  0.123784  0.025801  1
  F  F53  1  0.222464  0.376216  0.025801  1
  F  F54  1  0.722464  0.876216  0.974199  1
  F  F55  1  0.777536  0.623784  0.974199  1
