# generated using pymatgen
data_LiMn2(PO4)2
_symmetry_space_group_name_H-M   'P 1'
_cell_length_a   4.57946730
_cell_length_b   5.25114502
_cell_length_c   7.49744307
_cell_angle_alpha   87.30480019
_cell_angle_beta   103.15314730
_cell_angle_gamma   102.88295778
_symmetry_Int_Tables_number   1
_chemical_formula_structural   LiMn2(PO4)2
_chemical_formula_sum   'Li1 Mn2 P2 O8'
_cell_volume   171.14370280
_cell_formula_units_Z   1
loop_
 _symmetry_equiv_pos_site_id
 _symmetry_equiv_pos_as_xyz
  1  'x, y, z'
loop_
 _atom_site_type_symbol
 _atom_site_label
 _atom_site_symmetry_multiplicity
 _atom_site_fract_x
 _atom_site_fract_y
 _atom_site_fract_z
 _atom_site_occupancy
  Li  Li0  1  0.314840  0.311851  0.019918  1
  Mn  Mn1  1  0.020339  0.258274  0.370361  1
  Mn  Mn2  1  0.983109  0.769658  0.602155  1
  P  P3  1  0.353294  0.819534  0.269264  1
  P  P4  1  0.644212  0.173678  0.734100  1
  O  O5  1  0.178969  0.652000  0.416070  1
  O  O6  1  0.305218  0.094027  0.613048  1
  O  O7  1  0.230221  0.068869  0.214787  1
  O  O8  1  0.312201  0.634003  0.114979  1
  O  O9  1  0.647540  0.280383  0.917139  1
  O  O10  1  0.792798  0.929612  0.760590  1
  O  O11  1  0.695264  0.910486  0.375175  1
  O  O12  1  0.816739  0.383936  0.613443  1
