# generated using pymatgen
data_LiMnPO4
_symmetry_space_group_name_H-M   'P 1'
_cell_length_a   8.45386235
_cell_length_b   8.45386235
_cell_length_c   8.45386235
_cell_angle_alpha   34.61388128
_cell_angle_beta   34.61388128
_cell_angle_gamma   34.61388128
_symmetry_Int_Tables_number   1
_chemical_formula_structural   LiMnPO4
_chemical_formula_sum   'Li2 Mn2 P2 O8'
_cell_volume   173.95484010
_cell_formula_units_Z   2
loop_
 _symmetry_equiv_pos_site_id
 _symmetry_equiv_pos_as_xyz
  1  'x, y, z'
loop_
 _atom_site_type_symbol
 _atom_site_label
 _atom_site_symmetry_multiplicity
 _atom_site_fract_x
 _atom_site_fract_y
 _atom_site_fract_z
 _atom_site_occupancy
  Li  Li0  1  0.717997  0.717997  0.717997  1
  Li  Li1  1  0.282003  0.282003  0.282003  1
  Mn  Mn2  1  0.845195  0.845195  0.845195  1
  Mn  Mn3  1  0.154805  0.154805  0.154805  1
  P  P4  1  0.577006  0.577006  0.577006  1
  P  P5  1  0.422994  0.422994  0.422994  1
  O  O6  1  0.863592  0.275509  0.522565  1
  O  O7  1  0.724491  0.477435  0.136408  1
  O  O8  1  0.136408  0.724491  0.477435  1
  O  O9  1  0.360151  0.360151  0.360151  1
  O  O10  1  0.522565  0.863592  0.275509  1
  O  O11  1  0.275509  0.522565  0.863592  1
  O  O12  1  0.477435  0.136408  0.724491  1
  O  O13  1  0.639849  0.639849  0.639849  1
