# generated using pymatgen
data_Mn5Cr3O16
_symmetry_space_group_name_H-M   'P 1'
_cell_length_a   5.81891688
_cell_length_b   5.81891688
_cell_length_c   8.88540448
_cell_angle_alpha   89.57691084
_cell_angle_beta   90.42308916
_cell_angle_gamma   120.11759948
_symmetry_Int_Tables_number   1
_chemical_formula_structural   Mn5Cr3O16
_chemical_formula_sum   'Mn5 Cr3 O16'
_cell_volume   260.23188536
_cell_formula_units_Z   1
loop_
 _symmetry_equiv_pos_site_id
 _symmetry_equiv_pos_as_xyz
  1  'x, y, z'
loop_
 _atom_site_type_symbol
 _atom_site_label
 _atom_site_symmetry_multiplicity
 _atom_site_fract_x
 _atom_site_fract_y
 _atom_site_fract_z
 _atom_site_occupancy
  Mn  Mn0  1  0.668046  0.331954  0.483592  1
  Mn  Mn1  1  0.829148  0.170852  0.214312  1
  Mn  Mn2  1  0.333456  0.666544  0.982091  1
  Mn  Mn3  1  0.165560  0.337255  0.711509  1
  Mn  Mn4  1  0.662745  0.834440  0.711509  1
  Cr  Cr5  1  0.328782  0.167968  0.204015  1
  Cr  Cr6  1  0.832032  0.671218  0.204015  1
  Cr  Cr7  1  0.163098  0.836902  0.701214  1
  O  O8  1  0.337930  0.166052  0.605456  1
  O  O9  1  0.526430  0.473570  0.338234  1
  O  O10  1  0.669984  0.330016  0.097498  1
  O  O11  1  0.996439  0.003561  0.316660  1
  O  O12  1  0.996715  0.003285  0.816744  1
  O  O13  1  0.833948  0.662070  0.605456  1
  O  O14  1  0.521090  0.044378  0.341631  1
  O  O15  1  0.955622  0.478910  0.341631  1
  O  O16  1  0.172571  0.827429  0.108887  1
  O  O17  1  0.834174  0.165826  0.600599  1
  O  O18  1  0.045435  0.523346  0.839584  1
  O  O19  1  0.476654  0.954565  0.839584  1
  O  O20  1  0.336551  0.663449  0.599612  1
  O  O21  1  0.171959  0.337441  0.105098  1
  O  O22  1  0.478533  0.521467  0.841714  1
  O  O23  1  0.662559  0.828041  0.105098  1
