# generated using pymatgen
data_Li6Mn3P6WO24
_symmetry_space_group_name_H-M   'P 1'
_cell_length_a   8.78232432
_cell_length_b   8.82494898
_cell_length_c   8.85502773
_cell_angle_alpha   60.12692515
_cell_angle_beta   61.29675770
_cell_angle_gamma   60.93207707
_symmetry_Int_Tables_number   1
_chemical_formula_structural   Li6Mn3P6WO24
_chemical_formula_sum   'Li6 Mn3 P6 W1 O24'
_cell_volume   493.77580709
_cell_formula_units_Z   1
loop_
 _symmetry_equiv_pos_site_id
 _symmetry_equiv_pos_as_xyz
  1  'x, y, z'
loop_
 _atom_site_type_symbol
 _atom_site_label
 _atom_site_symmetry_multiplicity
 _atom_site_fract_x
 _atom_site_fract_y
 _atom_site_fract_z
 _atom_site_occupancy
  Li  Li0  1  0.026966  0.008331  0.030237  1
  Li  Li1  1  0.166837  0.354869  0.721649  1
  Li  Li2  1  0.502891  0.492995  0.473346  1
  Li  Li3  1  0.837170  0.640372  0.316395  1
  Li  Li4  1  0.318346  0.830852  0.639346  1
  Li  Li5  1  0.636808  0.311404  0.841001  1
  Mn  Mn6  1  0.146570  0.145475  0.147425  1
  Mn  Mn7  1  0.364617  0.348609  0.348301  1
  Mn  Mn8  1  0.658594  0.653037  0.657194  1
  P  P9  1  0.752537  0.436778  0.056334  1
  P  P10  1  0.050081  0.753515  0.446771  1
  P  P11  1  0.441521  0.048594  0.746650  1
  P  P12  1  0.539953  0.952444  0.242857  1
  P  P13  1  0.957846  0.251814  0.552371  1
  P  P14  1  0.244512  0.534997  0.952186  1
  W  W15  1  0.847249  0.852085  0.851467  1
  O  O16  1  0.250492  0.512100  0.130592  1
  O  O17  1  0.536105  0.116602  0.260203  1
  O  O18  1  0.921347  0.258420  0.072809  1
  O  O19  1  0.107230  0.280765  0.568257  1
  O  O20  1  0.599570  0.447358  0.235038  1
  O  O21  1  0.821687  0.607059  0.977564  1
  O  O22  1  0.083231  0.911219  0.262114  1
  O  O23  1  0.221200  0.586722  0.479751  1
  O  O24  1  0.445192  0.237921  0.595965  1
  O  O25  1  0.389348  0.998082  0.171976  1
  O  O26  1  0.738765  0.886381  0.097947  1
  O  O27  1  0.023037  0.193265  0.392151  1
  O  O28  1  0.972372  0.830799  0.607235  1
  O  O29  1  0.255351  0.073584  0.897534  1
  O  O30  1  0.602542  0.982043  0.822499  1
  O  O31  1  0.543340  0.774489  0.416014  1
  O  O32  1  0.776139  0.418883  0.553694  1
  O  O33  1  0.892566  0.094127  0.744765  1
  O  O34  1  0.193887  0.382364  0.966324  1
  O  O35  1  0.419073  0.550554  0.783358  1
  O  O36  1  0.900666  0.699689  0.460627  1
  O  O37  1  0.095707  0.734117  0.892374  1
  O  O38  1  0.472522  0.903221  0.679548  1
  O  O39  1  0.695136  0.455063  0.908128  1
