# generated using pymatgen
data_Li3V2(FeO4)2
_symmetry_space_group_name_H-M   'P 1'
_cell_length_a   5.94418404
_cell_length_b   5.94678742
_cell_length_c   5.96933407
_cell_angle_alpha   60.42632393
_cell_angle_beta   60.49654397
_cell_angle_gamma   60.51743100
_symmetry_Int_Tables_number   1
_chemical_formula_structural   Li3V2(FeO4)2
_chemical_formula_sum   'Li3 V2 Fe2 O8'
_cell_volume   150.82466202
_cell_formula_units_Z   1
loop_
 _symmetry_equiv_pos_site_id
 _symmetry_equiv_pos_as_xyz
  1  'x, y, z'
loop_
 _atom_site_type_symbol
 _atom_site_label
 _atom_site_symmetry_multiplicity
 _atom_site_fract_x
 _atom_site_fract_y
 _atom_site_fract_z
 _atom_site_occupancy
  Li  Li0  1  0.500000  0.000000  0.000000  1
  Li  Li1  1  0.500000  0.500000  0.000000  1
  Li  Li2  1  0.500000  0.500000  0.500000  1
  V  V3  1  0.000000  0.000000  0.500000  1
  V  V4  1  0.000000  0.500000  0.500000  1
  Fe  Fe5  1  0.500000  0.000000  0.500000  1
  Fe  Fe6  1  0.000000  0.000000  0.000000  1
  O  O7  1  0.229307  0.231260  0.284517  1
  O  O8  1  0.753549  0.759639  0.268589  1
  O  O9  1  0.757733  0.221297  0.265461  1
  O  O10  1  0.768143  0.233181  0.745788  1
  O  O11  1  0.231857  0.766819  0.254212  1
  O  O12  1  0.242267  0.778703  0.734539  1
  O  O13  1  0.246451  0.240361  0.731411  1
  O  O14  1  0.770693  0.768740  0.715483  1
