# generated using pymatgen
data_MnCr3Te2(PO4)6
_symmetry_space_group_name_H-M   'P 1'
_cell_length_a   8.86137547
_cell_length_b   8.86137547
_cell_length_c   8.86137547
_cell_angle_alpha   58.65464953
_cell_angle_beta   58.65464953
_cell_angle_gamma   58.65464953
_symmetry_Int_Tables_number   1
_chemical_formula_structural   MnCr3Te2(PO4)6
_chemical_formula_sum   'Mn1 Cr3 Te2 P6 O24'
_cell_volume   476.89700420
_cell_formula_units_Z   1
loop_
 _symmetry_equiv_pos_site_id
 _symmetry_equiv_pos_as_xyz
  1  'x, y, z'
loop_
 _atom_site_type_symbol
 _atom_site_label
 _atom_site_symmetry_multiplicity
 _atom_site_fract_x
 _atom_site_fract_y
 _atom_site_fract_z
 _atom_site_occupancy
  Mn  Mn0  1  0.155112  0.155112  0.155112  1
  Cr  Cr1  1  0.855104  0.855104  0.855104  1
  Cr  Cr2  1  0.647020  0.647020  0.647020  1
  Cr  Cr3  1  0.352151  0.352151  0.352151  1
  Te  Te4  1  0.008852  0.008852  0.008852  1
  Te  Te5  1  0.502725  0.502725  0.502725  1
  P  P6  1  0.249587  0.547563  0.954853  1
  P  P7  1  0.954853  0.249587  0.547563  1
  P  P8  1  0.547563  0.954853  0.249587  1
  P  P9  1  0.462121  0.037365  0.744677  1
  P  P10  1  0.037365  0.744677  0.462121  1
  P  P11  1  0.744677  0.462121  0.037365  1
  O  O12  1  0.691216  0.494367  0.884434  1
  O  O13  1  0.494367  0.884434  0.691216  1
  O  O14  1  0.085184  0.744219  0.932214  1
  O  O15  1  0.884434  0.691216  0.494367  1
  O  O16  1  0.418561  0.576602  0.760551  1
  O  O17  1  0.201236  0.400144  0.969438  1
  O  O18  1  0.932214  0.085184  0.744219  1
  O  O19  1  0.760551  0.418561  0.576602  1
  O  O20  1  0.576602  0.760551  0.418561  1
  O  O21  1  0.609121  0.006224  0.807173  1
  O  O22  1  0.258968  0.059331  0.910866  1
  O  O23  1  0.006224  0.807173  0.609121  1
  O  O24  1  0.969438  0.201236  0.400144  1
  O  O25  1  0.744219  0.932214  0.085184  1
  O  O26  1  0.400144  0.969438  0.201236  1
  O  O27  1  0.436603  0.232293  0.580380  1
  O  O28  1  0.232293  0.580380  0.436603  1
  O  O29  1  0.059331  0.910866  0.258968  1
  O  O30  1  0.807173  0.609121  0.006224  1
  O  O31  1  0.580380  0.436603  0.232293  1
  O  O32  1  0.115575  0.297433  0.510738  1
  O  O33  1  0.910866  0.258968  0.059331  1
  O  O34  1  0.510738  0.115575  0.297433  1
  O  O35  1  0.297433  0.510738  0.115575  1
