# generated using pymatgen
data_LiNi4(PO4)3
_symmetry_space_group_name_H-M   'P 1'
_cell_length_a   8.04889289
_cell_length_b   8.04889289
_cell_length_c   9.92531216
_cell_angle_alpha   90.00000000
_cell_angle_beta   90.00000000
_cell_angle_gamma   133.29057615
_symmetry_Int_Tables_number   1
_chemical_formula_structural   LiNi4(PO4)3
_chemical_formula_sum   'Li2 Ni8 P6 O24'
_cell_volume   468.03633311
_cell_formula_units_Z   2
loop_
 _symmetry_equiv_pos_site_id
 _symmetry_equiv_pos_as_xyz
  1  'x, y, z'
loop_
 _atom_site_type_symbol
 _atom_site_label
 _atom_site_symmetry_multiplicity
 _atom_site_fract_x
 _atom_site_fract_y
 _atom_site_fract_z
 _atom_site_occupancy
  Li  Li0  1  0.977924  0.022076  0.753939  1
  Li  Li1  1  0.022076  0.977924  0.253939  1
  Ni  Ni2  1  0.374132  0.625868  0.939880  1
  Ni  Ni3  1  0.946340  0.547347  0.750372  1
  Ni  Ni4  1  0.452653  0.053660  0.750372  1
  Ni  Ni5  1  0.368028  0.631972  0.561997  1
  Ni  Ni6  1  0.625868  0.374132  0.439880  1
  Ni  Ni7  1  0.547347  0.946340  0.250372  1
  Ni  Ni8  1  0.053660  0.452653  0.250372  1
  Ni  Ni9  1  0.631972  0.368028  0.061997  1
  P  P10  1  0.815146  0.184854  0.963365  1
  P  P11  1  0.521175  0.478825  0.704651  1
  P  P12  1  0.815116  0.184884  0.534759  1
  P  P13  1  0.184854  0.815146  0.463365  1
  P  P14  1  0.478825  0.521175  0.204651  1
  P  P15  1  0.184884  0.815116  0.034759  1
  O  O16  1  0.675669  0.939867  0.923419  1
  O  O17  1  0.060133  0.324331  0.923419  1
  O  O18  1  0.719185  0.280815  0.887097  1
  O  O19  1  0.214764  0.785236  0.880893  1
  O  O20  1  0.772790  0.637789  0.753301  1
  O  O21  1  0.362211  0.227210  0.753301  1
  O  O22  1  0.421611  0.578389  0.752436  1
  O  O23  1  0.215783  0.784217  0.617255  1
  O  O24  1  0.719741  0.280259  0.612456  1
  O  O25  1  0.675633  0.939370  0.574174  1
  O  O26  1  0.060630  0.324367  0.574174  1
  O  O27  1  0.511665  0.488335  0.548513  1
  O  O28  1  0.939867  0.675669  0.423419  1
  O  O29  1  0.324331  0.060133  0.423419  1
  O  O30  1  0.280815  0.719185  0.387097  1
  O  O31  1  0.785236  0.214764  0.380893  1
  O  O32  1  0.578389  0.421611  0.252436  1
  O  O33  1  0.227210  0.362211  0.253301  1
  O  O34  1  0.637789  0.772790  0.253301  1
  O  O35  1  0.784217  0.215783  0.117255  1
  O  O36  1  0.280259  0.719741  0.112456  1
  O  O37  1  0.324367  0.060630  0.074174  1
  O  O38  1  0.939370  0.675633  0.074174  1
  O  O39  1  0.488335  0.511665  0.048513  1
