# generated using pymatgen
data_Li2Mn4O3F8
_symmetry_space_group_name_H-M   'P 1'
_cell_length_a   5.12418360
_cell_length_b   6.58573954
_cell_length_c   6.94206320
_cell_angle_alpha   108.40418613
_cell_angle_beta   105.91491736
_cell_angle_gamma   96.94824110
_symmetry_Int_Tables_number   1
_chemical_formula_structural   Li2Mn4O3F8
_chemical_formula_sum   'Li2 Mn4 O3 F8'
_cell_volume   208.16504487
_cell_formula_units_Z   1
loop_
 _symmetry_equiv_pos_site_id
 _symmetry_equiv_pos_as_xyz
  1  'x, y, z'
loop_
 _atom_site_type_symbol
 _atom_site_label
 _atom_site_symmetry_multiplicity
 _atom_site_fract_x
 _atom_site_fract_y
 _atom_site_fract_z
 _atom_site_occupancy
  Li  Li0  1  0.668000  0.181774  0.398206  1
  Li  Li1  1  0.332000  0.818226  0.601794  1
  Mn  Mn2  1  0.894509  0.247789  0.973921  1
  Mn  Mn3  1  0.335414  0.377167  0.763829  1
  Mn  Mn4  1  0.664586  0.622833  0.236171  1
  Mn  Mn5  1  0.105491  0.752211  0.026079  1
  O  O6  1  0.000000  0.000000  0.000000  1
  O  O7  1  0.739097  0.522009  0.961736  1
  O  O8  1  0.260903  0.477991  0.038264  1
  F  F9  1  0.494970  0.103520  0.808277  1
  F  F10  1  0.951421  0.204666  0.656011  1
  F  F11  1  0.392153  0.292595  0.500884  1
  F  F12  1  0.800861  0.346375  0.257620  1
  F  F13  1  0.199139  0.653625  0.742380  1
  F  F14  1  0.607847  0.707405  0.499116  1
  F  F15  1  0.048579  0.795334  0.343989  1
  F  F16  1  0.505030  0.896480  0.191723  1
