# generated using pymatgen
data_LiSiBiO4
_symmetry_space_group_name_H-M   'P 1'
_cell_length_a   5.35538977
_cell_length_b   10.57509785
_cell_length_c   14.87735639
_cell_angle_alpha   90.00000000
_cell_angle_beta   90.00000000
_cell_angle_gamma   90.00000000
_symmetry_Int_Tables_number   1
_chemical_formula_structural   LiSiBiO4
_chemical_formula_sum   'Li8 Si8 Bi8 O32'
_cell_volume   842.56079254
_cell_formula_units_Z   8
loop_
 _symmetry_equiv_pos_site_id
 _symmetry_equiv_pos_as_xyz
  1  'x, y, z'
loop_
 _atom_site_type_symbol
 _atom_site_label
 _atom_site_symmetry_multiplicity
 _atom_site_fract_x
 _atom_site_fract_y
 _atom_site_fract_z
 _atom_site_occupancy
  Li  Li0  1  0.051958  0.028412  0.248019  1
  Li  Li1  1  0.548724  0.212332  0.996963  1
  Li  Li2  1  0.548724  0.287668  0.496963  1
  Li  Li3  1  0.051958  0.471588  0.748019  1
  Li  Li4  1  0.948042  0.528412  0.248019  1
  Li  Li5  1  0.451276  0.712332  0.996963  1
  Li  Li6  1  0.451276  0.787668  0.496963  1
  Li  Li7  1  0.948042  0.971588  0.748019  1
  Si  Si8  1  0.443769  0.034207  0.625178  1
  Si  Si9  1  0.068958  0.215569  0.871675  1
  Si  Si10  1  0.068958  0.284431  0.371675  1
  Si  Si11  1  0.443769  0.465793  0.125178  1
  Si  Si12  1  0.556231  0.534207  0.625178  1
  Si  Si13  1  0.931042  0.715569  0.871675  1
  Si  Si14  1  0.931042  0.784431  0.371675  1
  Si  Si15  1  0.556231  0.965793  0.125178  1
  Bi  Bi16  1  0.940772  0.032108  0.498612  1
  Bi  Bi17  1  0.556480  0.212228  0.248444  1
  Bi  Bi18  1  0.556480  0.287772  0.748444  1
  Bi  Bi19  1  0.940772  0.467892  0.998612  1
  Bi  Bi20  1  0.059228  0.532108  0.498612  1
  Bi  Bi21  1  0.443520  0.712228  0.248444  1
  Bi  Bi22  1  0.443520  0.787772  0.748444  1
  Bi  Bi23  1  0.059228  0.967892  0.998612  1
  O  O24  1  0.847442  0.009557  0.136153  1
  O  O25  1  0.559429  0.966294  0.532617  1
  O  O26  1  0.408909  0.016504  0.216655  1
  O  O27  1  0.032983  0.061240  0.862681  1
  O  O28  1  0.491943  0.186868  0.612814  1
  O  O29  1  0.904226  0.238874  0.460682  1
  O  O30  1  0.971921  0.288876  0.779792  1
  O  O31  1  0.365933  0.252193  0.884115  1
  O  O32  1  0.365933  0.247807  0.384115  1
  O  O33  1  0.971921  0.211124  0.279792  1
  O  O34  1  0.904226  0.261126  0.960682  1
  O  O35  1  0.491943  0.313132  0.112814  1
  O  O36  1  0.032983  0.438760  0.362681  1
  O  O37  1  0.408909  0.483496  0.716655  1
  O  O38  1  0.559429  0.533706  0.032617  1
  O  O39  1  0.847442  0.490443  0.636153  1
  O  O40  1  0.152558  0.509557  0.136153  1
  O  O41  1  0.440571  0.466294  0.532617  1
  O  O42  1  0.591091  0.516504  0.216655  1
  O  O43  1  0.967017  0.561240  0.862681  1
  O  O44  1  0.508057  0.686868  0.612814  1
  O  O45  1  0.095774  0.738874  0.460682  1
  O  O46  1  0.028079  0.788876  0.779792  1
  O  O47  1  0.634067  0.752193  0.884115  1
  O  O48  1  0.634067  0.747807  0.384115  1
  O  O49  1  0.028079  0.711124  0.279792  1
  O  O50  1  0.095774  0.761126  0.960682  1
  O  O51  1  0.508057  0.813132  0.112814  1
  O  O52  1  0.967017  0.938760  0.362681  1
  O  O53  1  0.591091  0.983496  0.716655  1
  O  O54  1  0.440571  0.033706  0.032617  1
  O  O55  1  0.152558  0.990443  0.636153  1
