# generated using pymatgen
data_ThU8O18
_symmetry_space_group_name_H-M   'P 1'
_cell_length_a   6.66861839
_cell_length_b   6.66846598
_cell_length_c   8.60832227
_cell_angle_alpha   82.58139575
_cell_angle_beta   75.04103539
_cell_angle_gamma   80.39758092
_symmetry_Int_Tables_number   1
_chemical_formula_structural   ThU8O18
_chemical_formula_sum   'Th1 U8 O18'
_cell_volume   363.16146618
_cell_formula_units_Z   1
loop_
 _symmetry_equiv_pos_site_id
 _symmetry_equiv_pos_as_xyz
  1  'x, y, z'
loop_
 _atom_site_type_symbol
 _atom_site_label
 _atom_site_symmetry_multiplicity
 _atom_site_fract_x
 _atom_site_fract_y
 _atom_site_fract_z
 _atom_site_occupancy
  Th  Th0  1  0.000000  0.000000  0.500000  1
  U  U1  1  0.334372  0.665282  0.165606  1
  U  U2  1  0.775516  0.556272  0.388170  1
  U  U3  1  0.111392  0.223579  0.052807  1
  U  U4  1  0.665628  0.334718  0.834394  1
  U  U5  1  0.224484  0.443728  0.611830  1
  U  U6  1  0.555945  0.112573  0.275406  1
  U  U7  1  0.888608  0.776421  0.947193  1
  U  U8  1  0.444055  0.887427  0.724594  1
  O  O9  1  0.582714  0.665879  0.916975  1
  O  O10  1  0.028420  0.555946  0.137634  1
  O  O11  1  0.417286  0.334121  0.083025  1
  O  O12  1  0.085340  0.661543  0.414496  1
  O  O13  1  0.805294  0.110733  0.027893  1
  O  O14  1  0.472615  0.445621  0.360595  1
  O  O15  1  0.858771  0.226218  0.302071  1
  O  O16  1  0.527385  0.554379  0.639405  1
  O  O17  1  0.254847  0.000257  0.245372  1
  O  O18  1  0.914660  0.338457  0.585504  1
  O  O19  1  0.194706  0.889267  0.972107  1
  O  O20  1  0.745153  0.999743  0.754628  1
  O  O21  1  0.689628  0.886116  0.471548  1
  O  O22  1  0.360173  0.223212  0.806707  1
  O  O23  1  0.639827  0.776788  0.193293  1
  O  O24  1  0.310372  0.113884  0.528452  1
  O  O25  1  0.971580  0.444054  0.862366  1
  O  O26  1  0.141229  0.773782  0.697929  1
