# generated using pymatgen
data_Rb2S2O7
_symmetry_space_group_name_H-M   'P 1'
_cell_length_a   7.73515004
_cell_length_b   7.84376063
_cell_length_c   13.19959837
_cell_angle_alpha   99.81936273
_cell_angle_beta   91.69380425
_cell_angle_gamma   92.24587888
_symmetry_Int_Tables_number   1
_chemical_formula_structural   Rb2S2O7
_chemical_formula_sum   'Rb8 S8 O28'
_cell_volume   787.98204311
_cell_formula_units_Z   4
loop_
 _symmetry_equiv_pos_site_id
 _symmetry_equiv_pos_as_xyz
  1  'x, y, z'
loop_
 _atom_site_type_symbol
 _atom_site_label
 _atom_site_symmetry_multiplicity
 _atom_site_fract_x
 _atom_site_fract_y
 _atom_site_fract_z
 _atom_site_occupancy
  Rb  Rb0  1  0.115973  0.875463  0.132230  1
  Rb  Rb1  1  0.776734  0.378553  0.154779  1
  Rb  Rb2  1  0.556333  0.795793  0.342481  1
  Rb  Rb3  1  0.215039  0.294426  0.371931  1
  Rb  Rb4  1  0.784961  0.705574  0.628069  1
  Rb  Rb5  1  0.443667  0.204207  0.657519  1
  Rb  Rb6  1  0.223266  0.621447  0.845221  1
  Rb  Rb7  1  0.884027  0.124537  0.867770  1
  S  S8  1  0.658379  0.861113  0.084801  1
  S  S9  1  0.278492  0.386457  0.107118  1
  S  S10  1  0.065485  0.759898  0.391045  1
  S  S11  1  0.702385  0.275377  0.417352  1
  S  S12  1  0.297615  0.724623  0.582648  1
  S  S13  1  0.934515  0.240102  0.608955  1
  S  S14  1  0.721508  0.613543  0.892882  1
  S  S15  1  0.341621  0.138887  0.915199  1
  O  O16  1  0.410447  0.271002  0.023940  1
  O  O17  1  0.191687  0.504160  0.050336  1
  O  O18  1  0.772089  0.994880  0.054041  1
  O  O19  1  0.495174  0.920556  0.126571  1
  O  O20  1  0.750096  0.752786  0.146777  1
  O  O21  1  0.160230  0.260752  0.142592  1
  O  O22  1  0.407131  0.468411  0.185278  1
  O  O23  1  0.029994  0.611999  0.308700  1
  O  O24  1  0.180951  0.893857  0.361731  1
  O  O25  1  0.819335  0.187320  0.343213  1
  O  O26  1  0.649077  0.443140  0.396883  1
  O  O27  1  0.915894  0.822012  0.447478  1
  O  O28  1  0.184407  0.657200  0.471539  1
  O  O29  1  0.558832  0.164035  0.442085  1
  O  O30  1  0.441168  0.835965  0.557915  1
  O  O31  1  0.815593  0.342800  0.528461  1
  O  O32  1  0.084106  0.177988  0.552522  1
  O  O33  1  0.350923  0.556860  0.603117  1
  O  O34  1  0.180665  0.812680  0.656787  1
  O  O35  1  0.819049  0.106143  0.638269  1
  O  O36  1  0.970006  0.388001  0.691300  1
  O  O37  1  0.592869  0.531589  0.814722  1
  O  O38  1  0.839770  0.739248  0.857408  1
  O  O39  1  0.249904  0.247214  0.853223  1
  O  O40  1  0.504826  0.079444  0.873429  1
  O  O41  1  0.227911  0.005120  0.945959  1
  O  O42  1  0.808313  0.495840  0.949664  1
  O  O43  1  0.589553  0.728998  0.976060  1
