# generated using pymatgen
data_V3OF11
_symmetry_space_group_name_H-M   'P 1'
_cell_length_a   5.26961110
_cell_length_b   5.45281364
_cell_length_c   14.76027736
_cell_angle_alpha   100.32852240
_cell_angle_beta   90.02615218
_cell_angle_gamma   90.06896709
_symmetry_Int_Tables_number   1
_chemical_formula_structural   V3OF11
_chemical_formula_sum   'V6 O2 F22'
_cell_volume   417.25191064
_cell_formula_units_Z   2
loop_
 _symmetry_equiv_pos_site_id
 _symmetry_equiv_pos_as_xyz
  1  'x, y, z'
loop_
 _atom_site_type_symbol
 _atom_site_label
 _atom_site_symmetry_multiplicity
 _atom_site_fract_x
 _atom_site_fract_y
 _atom_site_fract_z
 _atom_site_occupancy
  V  V0  1  0.990045  0.000851  0.993840  1
  V  V1  1  0.491829  0.844593  0.665614  1
  V  V2  1  0.999773  0.666406  0.332938  1
  V  V3  1  0.495075  0.502511  0.001280  1
  V  V4  1  0.975318  0.373984  0.669628  1
  V  V5  1  0.499656  0.166154  0.332694  1
  O  O6  1  0.919246  0.954479  0.885462  1
  O  O7  1  0.794648  0.625165  0.689084  1
  F  F8  1  0.801523  0.976260  0.358034  1
  F  F9  1  0.707603  0.806670  0.026256  1
  F  F10  1  0.301938  0.855374  0.308546  1
  F  F11  1  0.587872  0.784328  0.549026  1
  F  F12  1  0.912338  0.623910  0.215553  1
  F  F13  1  0.423826  0.871317  0.784671  1
  F  F14  1  0.085669  0.706285  0.450648  1
  F  F15  1  0.417927  0.543690  0.118781  1
  F  F16  1  0.698137  0.476552  0.357807  1
  F  F17  1  0.797069  0.302591  0.026186  1
  F  F18  1  0.201545  0.696278  0.975084  1
  F  F19  1  0.286316  0.530063  0.642531  1
  F  F20  1  0.198505  0.356353  0.308400  1
  F  F21  1  0.589256  0.457122  0.884434  1
  F  F22  1  0.927452  0.272737  0.550285  1
  F  F23  1  0.587328  0.124028  0.215517  1
  F  F24  1  0.093047  0.365753  0.781780  1
  F  F25  1  0.415619  0.208562  0.450590  1
  F  F26  1  0.091806  0.040131  0.115141  1
  F  F27  1  0.710046  0.143429  0.691482  1
  F  F28  1  0.292617  0.195847  0.975642  1
  F  F29  1  0.206971  0.028579  0.643065  1
