# generated using pymatgen
data_ZnP2H14C2(NO)6
_symmetry_space_group_name_H-M   'P 1'
_cell_length_a   10.50030444
_cell_length_b   9.71390213
_cell_length_c   9.29857535
_cell_angle_alpha   67.00652079
_cell_angle_beta   58.38681736
_cell_angle_gamma   54.60666185
_symmetry_Int_Tables_number   1
_chemical_formula_structural   ZnP2H14C2(NO)6
_chemical_formula_sum   'Zn2 P4 H28 C4 N12 O12'
_cell_volume   653.24029784
_cell_formula_units_Z   2
loop_
 _symmetry_equiv_pos_site_id
 _symmetry_equiv_pos_as_xyz
  1  'x, y, z'
loop_
 _atom_site_type_symbol
 _atom_site_label
 _atom_site_symmetry_multiplicity
 _atom_site_fract_x
 _atom_site_fract_y
 _atom_site_fract_z
 _atom_site_occupancy
  Zn  Zn0  1  0.830053  0.669947  0.830053  1
  Zn  Zn1  1  0.580053  0.419947  0.580053  1
  P  P2  1  0.197795  0.638581  0.620182  1
  P  P3  1  0.706558  0.629818  0.611419  1
  P  P4  1  0.620182  0.543442  0.197795  1
  P  P5  1  0.611419  0.052205  0.706558  1
  H  H6  1  0.398639  0.956770  0.605314  1
  H  H7  1  0.393939  0.941503  0.011281  1
  H  H8  1  0.308497  0.856061  0.596722  1
  H  H9  1  0.293230  0.851361  0.210723  1
  H  H10  1  0.010603  0.995815  0.366141  1
  H  H11  1  0.366141  0.627441  0.010603  1
  H  H12  1  0.293904  0.616109  0.882380  1
  H  H13  1  0.210723  0.644686  0.293230  1
  H  H14  1  0.268767  0.500734  0.535774  1
  H  H15  1  0.749266  0.981233  0.555274  1
  H  H16  1  0.011281  0.653278  0.393939  1
  H  H17  1  0.029050  0.621692  0.012655  1
  H  H18  1  0.633891  0.956096  0.042393  1
  H  H19  1  0.907913  0.639845  0.233422  1
  H  H20  1  0.622559  0.883859  0.254185  1
  H  H21  1  0.254185  0.239397  0.622559  1
  H  H22  1  0.233422  0.218820  0.907913  1
  H  H23  1  0.042393  0.367620  0.633891  1
  H  H24  1  0.012655  0.336602  0.029050  1
  H  H25  1  0.555274  0.714226  0.749266  1
  H  H26  1  0.535774  0.694726  0.268767  1
  H  H27  1  0.913398  0.237345  0.628308  1
  H  H28  1  0.882380  0.207607  0.293904  1
  H  H29  1  0.031180  0.016578  0.610155  1
  H  H30  1  0.610155  0.342087  0.031180  1
  H  H31  1  0.628308  0.220950  0.913398  1
  H  H32  1  0.596722  0.238719  0.308497  1
  H  H33  1  0.605314  0.039277  0.398639  1
  C  C34  1  0.136036  0.633453  0.136726  1
  C  C35  1  0.156215  0.113274  0.616547  1
  C  C36  1  0.136726  0.093785  0.136036  1
  C  C37  1  0.616547  0.113964  0.156215  1
  N  N38  1  0.298959  0.963985  0.603529  1
  N  N39  1  0.286015  0.951041  0.116473  1
  N  N40  1  0.275273  0.627594  0.997639  1
  N  N41  1  0.116473  0.646471  0.286015  1
  N  N42  1  0.016888  0.626782  0.127352  1
  N  N43  1  0.622406  0.974727  0.150507  1
  N  N44  1  0.150507  0.252361  0.622406  1
  N  N45  1  0.127352  0.228978  0.016888  1
  N  N46  1  0.021022  0.122648  0.623218  1
  N  N47  1  0.997639  0.099493  0.275273  1
  N  N48  1  0.623218  0.233112  0.021022  1
  N  N49  1  0.603529  0.133527  0.298959  1
  O  O50  1  0.342148  0.604142  0.659596  1
  O  O51  1  0.140499  0.803637  0.504810  1
  O  O52  1  0.054280  0.621945  0.791580  1
  O  O53  1  0.446363  0.109501  0.698946  1
  O  O54  1  0.645858  0.907852  0.855886  1
  O  O55  1  0.855886  0.590404  0.645858  1
  O  O56  1  0.698946  0.745190  0.446363  1
  O  O57  1  0.791580  0.532195  0.054280  1
  O  O58  1  0.717805  0.458420  0.628055  1
  O  O59  1  0.504810  0.551054  0.140499  1
  O  O60  1  0.659596  0.394114  0.342148  1
  O  O61  1  0.628055  0.195720  0.717805  1
