# generated using pymatgen
data_Li5Fe7O12
_symmetry_space_group_name_H-M   'P 1'
_cell_length_a   5.20290395
_cell_length_b   5.20290395
_cell_length_c   9.87344822
_cell_angle_alpha   84.80911215
_cell_angle_beta   95.19088785
_cell_angle_gamma   59.76528457
_symmetry_Int_Tables_number   1
_chemical_formula_structural   Li5Fe7O12
_chemical_formula_sum   'Li5 Fe7 O12'
_cell_volume   227.07937212
_cell_formula_units_Z   1
loop_
 _symmetry_equiv_pos_site_id
 _symmetry_equiv_pos_as_xyz
  1  'x, y, z'
loop_
 _atom_site_type_symbol
 _atom_site_label
 _atom_site_symmetry_multiplicity
 _atom_site_fract_x
 _atom_site_fract_y
 _atom_site_fract_z
 _atom_site_occupancy
  Li  Li0  1  0.332173  0.832888  0.755453  1
  Li  Li1  1  0.160966  0.675422  0.244721  1
  Li  Li2  1  0.832888  0.332173  0.244547  1
  Li  Li3  1  0.675422  0.160966  0.755279  1
  Li  Li4  1  0.083909  0.083909  0.000000  1
  Fe  Fe5  1  0.923800  0.923800  0.500000  1
  Fe  Fe6  1  0.488100  0.003314  0.248843  1
  Fe  Fe7  1  0.750097  0.750097  0.000000  1
  Fe  Fe8  1  0.003314  0.488100  0.751157  1
  Fe  Fe9  1  0.577027  0.577027  0.500000  1
  Fe  Fe10  1  0.420061  0.420061  0.000000  1
  Fe  Fe11  1  0.245916  0.245916  0.500000  1
  O  O12  1  0.762438  0.043059  0.119905  1
  O  O13  1  0.043059  0.762438  0.880095  1
  O  O14  1  0.649285  0.863382  0.622364  1
  O  O15  1  0.863382  0.649285  0.377636  1
  O  O16  1  0.472697  0.710189  0.119409  1
  O  O17  1  0.710189  0.472697  0.880591  1
  O  O18  1  0.267860  0.554092  0.624505  1
  O  O19  1  0.554092  0.267860  0.375495  1
  O  O20  1  0.140655  0.379485  0.123088  1
  O  O21  1  0.379485  0.140655  0.876912  1
  O  O22  1  0.961201  0.201980  0.631591  1
  O  O23  1  0.201980  0.961201  0.368409  1
