# generated using pymatgen
data_SrP2(H2O3)3
_symmetry_space_group_name_H-M   'P 1'
_cell_length_a   6.73556632
_cell_length_b   7.37824731
_cell_length_c   8.67295386
_cell_angle_alpha   102.03279041
_cell_angle_beta   110.00499064
_cell_angle_gamma   95.92784457
_symmetry_Int_Tables_number   1
_chemical_formula_structural   SrP2(H2O3)3
_chemical_formula_sum   'Sr2 P4 H12 O18'
_cell_volume   388.89793524
_cell_formula_units_Z   2
loop_
 _symmetry_equiv_pos_site_id
 _symmetry_equiv_pos_as_xyz
  1  'x, y, z'
loop_
 _atom_site_type_symbol
 _atom_site_label
 _atom_site_symmetry_multiplicity
 _atom_site_fract_x
 _atom_site_fract_y
 _atom_site_fract_z
 _atom_site_occupancy
  Sr  Sr0  1  0.398625  0.748737  0.308879  1
  Sr  Sr1  1  0.601375  0.251263  0.691121  1
  P  P2  1  0.761830  0.801297  0.761410  1
  P  P3  1  0.238170  0.198703  0.238590  1
  P  P4  1  0.157327  0.094636  0.872428  1
  P  P5  1  0.842673  0.905364  0.127572  1
  H  H6  1  0.277935  0.476408  0.744269  1
  H  H7  1  0.722065  0.523592  0.255731  1
  H  H8  1  0.249292  0.513504  0.567514  1
  H  H9  1  0.750708  0.486496  0.432486  1
  H  H10  1  0.183789  0.677747  0.919412  1
  H  H11  1  0.816211  0.322253  0.080588  1
  H  H12  1  0.167100  0.468294  0.937204  1
  H  H13  1  0.832900  0.531706  0.062796  1
  H  H14  1  0.975155  0.288567  0.536330  1
  H  H15  1  0.024845  0.711433  0.463670  1
  H  H16  1  0.226032  0.857732  0.609452  1
  H  H17  1  0.773968  0.142268  0.390548  1
  O  O18  1  0.979968  0.119402  0.175283  1
  O  O19  1  0.020032  0.880598  0.824717  1
  O  O20  1  0.294838  0.117001  0.072274  1
  O  O21  1  0.705162  0.882999  0.927726  1
  O  O22  1  0.262561  0.408302  0.276496  1
  O  O23  1  0.737439  0.591698  0.723504  1
  O  O24  1  0.358066  0.105208  0.370800  1
  O  O25  1  0.641934  0.894792  0.629200  1
  O  O26  1  0.990221  0.764621  0.143951  1
  O  O27  1  0.009779  0.235379  0.856049  1
  O  O28  1  0.691943  0.917945  0.220325  1
  O  O29  1  0.308057  0.082055  0.779675  1
  O  O30  1  0.260695  0.412018  0.627057  1
  O  O31  1  0.739305  0.587982  0.372943  1
  O  O32  1  0.270319  0.588178  0.964000  1
  O  O33  1  0.729681  0.411822  0.036000  1
  O  O34  1  0.184265  0.744568  0.512417  1
  O  O35  1  0.815735  0.255432  0.487583  1
