# generated using pymatgen
data_LiCr4P7O24
_symmetry_space_group_name_H-M   'P 1'
_cell_length_a   10.10565635
_cell_length_b   10.24542733
_cell_length_c   10.69402652
_cell_angle_alpha   108.73039842
_cell_angle_beta   111.32738666
_cell_angle_gamma   104.92343181
_symmetry_Int_Tables_number   1
_chemical_formula_structural   LiCr4P7O24
_chemical_formula_sum   'Li2 Cr8 P14 O48'
_cell_volume   884.48934329
_cell_formula_units_Z   2
loop_
 _symmetry_equiv_pos_site_id
 _symmetry_equiv_pos_as_xyz
  1  'x, y, z'
loop_
 _atom_site_type_symbol
 _atom_site_label
 _atom_site_symmetry_multiplicity
 _atom_site_fract_x
 _atom_site_fract_y
 _atom_site_fract_z
 _atom_site_occupancy
  Li  Li0  1  0.552013  0.245802  0.671182  1
  Li  Li1  1  0.447987  0.754198  0.328818  1
  Cr  Cr2  1  0.511664  0.663546  0.884432  1
  Cr  Cr3  1  0.003129  0.387754  0.074722  1
  Cr  Cr4  1  0.986257  0.830895  0.412328  1
  Cr  Cr5  1  0.500164  0.104881  0.255601  1
  Cr  Cr6  1  0.013743  0.169105  0.587672  1
  Cr  Cr7  1  0.996871  0.612246  0.925278  1
  Cr  Cr8  1  0.499836  0.895119  0.744399  1
  Cr  Cr9  1  0.488336  0.336454  0.115568  1
  P  P10  1  0.747775  0.540647  0.050993  1
  P  P11  1  0.734001  0.179546  0.116712  1
  P  P12  1  0.252225  0.459353  0.949007  1
  P  P13  1  0.806666  0.374361  0.566712  1
  P  P14  1  0.249072  0.391343  0.522745  1
  P  P15  1  0.198126  0.939896  0.261158  1
  P  P16  1  0.265999  0.820454  0.883288  1
  P  P17  1  0.193334  0.625639  0.433288  1
  P  P18  1  0.262003  0.036101  0.758488  1
  P  P19  1  0.737997  0.963899  0.241512  1
  P  P20  1  0.750928  0.608657  0.477255  1
  P  P21  1  0.226367  0.219743  0.225266  1
  P  P22  1  0.801874  0.060104  0.738842  1
  P  P23  1  0.773633  0.780257  0.774734  1
  O  O24  1  0.347389  0.435864  0.083311  1
  O  O25  1  0.112186  0.257150  0.126531  1
  O  O26  1  0.867527  0.210638  0.873730  1
  O  O27  1  0.652611  0.564136  0.916689  1
  O  O28  1  0.863777  0.944379  0.797116  1
  O  O29  1  0.336303  0.175096  0.906381  1
  O  O30  1  0.621356  0.980988  0.657861  1
  O  O31  1  0.663697  0.824904  0.093619  1
  O  O32  1  0.126761  0.500534  0.990837  1
  O  O33  1  0.911924  0.302307  0.536895  1
  O  O34  1  0.136223  0.055621  0.202884  1
  O  O35  1  0.881871  0.974948  0.372303  1
  O  O36  1  0.634659  0.780742  0.802765  1
  O  O37  1  0.370483  0.724786  0.534346  1
  O  O38  1  0.814868  0.107495  0.219449  1
  O  O39  1  0.309865  0.339080  0.401374  1
  O  O40  1  0.132473  0.789362  0.126270  1
  O  O41  1  0.088076  0.697693  0.463105  1
  O  O42  1  0.185132  0.892505  0.780551  1
  O  O43  1  0.870061  0.320922  0.160199  1
  O  O44  1  0.690135  0.660920  0.598626  1
  O  O45  1  0.129939  0.679078  0.839801  1
  O  O46  1  0.633019  0.403517  0.044018  1
  O  O47  1  0.835203  0.678678  0.205063  1
  O  O48  1  0.366981  0.596483  0.955982  1
  O  O49  1  0.166891  0.564305  0.271704  1
  O  O50  1  0.604804  0.507296  0.327811  1
  O  O51  1  0.356787  0.936666  0.046978  1
  O  O52  1  0.851331  0.064784  0.623222  1
  O  O53  1  0.622829  0.987866  0.298939  1
  O  O54  1  0.148669  0.935216  0.376778  1
  O  O55  1  0.873239  0.499466  0.009163  1
  O  O56  1  0.887814  0.742850  0.873469  1
  O  O57  1  0.849192  0.519883  0.530456  1
  O  O58  1  0.377171  0.012134  0.701061  1
  O  O59  1  0.621516  0.220040  0.177622  1
  O  O60  1  0.395196  0.492704  0.672189  1
  O  O61  1  0.365341  0.219258  0.197235  1
  O  O62  1  0.118129  0.025052  0.627697  1
  O  O63  1  0.150808  0.480117  0.469544  1
  O  O64  1  0.378484  0.779960  0.822378  1
  O  O65  1  0.164797  0.321322  0.794937  1
  O  O66  1  0.853249  0.754638  0.493833  1
  O  O67  1  0.378644  0.019012  0.342139  1
  O  O68  1  0.629517  0.275214  0.465654  1
  O  O69  1  0.146751  0.245362  0.506167  1
  O  O70  1  0.833109  0.435695  0.728296  1
  O  O71  1  0.643213  0.063334  0.953022  1
