# generated using pymatgen
data_Li4V3Cr2Fe3O16
_symmetry_space_group_name_H-M   'P 1'
_cell_length_a   5.90769917
_cell_length_b   5.92176228
_cell_length_c   9.58969335
_cell_angle_alpha   90.80305557
_cell_angle_beta   90.14097408
_cell_angle_gamma   119.85877941
_symmetry_Int_Tables_number   1
_chemical_formula_structural   Li4V3Cr2Fe3O16
_chemical_formula_sum   'Li4 V3 Cr2 Fe3 O16'
_cell_volume   290.90592520
_cell_formula_units_Z   1
loop_
 _symmetry_equiv_pos_site_id
 _symmetry_equiv_pos_as_xyz
  1  'x, y, z'
loop_
 _atom_site_type_symbol
 _atom_site_label
 _atom_site_symmetry_multiplicity
 _atom_site_fract_x
 _atom_site_fract_y
 _atom_site_fract_z
 _atom_site_occupancy
  Li  Li0  1  0.666839  0.338969  0.106241  1
  Li  Li1  1  0.000328  0.996346  0.003462  1
  Li  Li2  1  0.998097  0.002261  0.503893  1
  Li  Li3  1  0.340458  0.678416  0.605503  1
  V  V4  1  0.657208  0.839380  0.285933  1
  V  V5  1  0.830895  0.661462  0.787927  1
  V  V6  1  0.159658  0.824604  0.289490  1
  Cr  Cr7  1  0.667488  0.332231  0.515663  1
  Cr  Cr8  1  0.330771  0.656165  0.015807  1
  Fe  Fe9  1  0.834072  0.171679  0.785532  1
  Fe  Fe10  1  0.339022  0.170041  0.785683  1
  Fe  Fe11  1  0.172642  0.337590  0.286613  1
  O  O12  1  0.834204  0.163063  0.398618  1
  O  O13  1  0.523986  0.045346  0.658314  1
  O  O14  1  0.680057  0.356808  0.897109  1
  O  O15  1  0.990864  0.981343  0.689783  1
  O  O16  1  0.994219  0.992310  0.189314  1
  O  O17  1  0.325843  0.144000  0.397459  1
  O  O18  1  0.962905  0.496973  0.661159  1
  O  O19  1  0.533820  0.495295  0.661667  1
  O  O20  1  0.160456  0.319578  0.901929  1
  O  O21  1  0.827214  0.672978  0.393045  1
  O  O22  1  0.479186  0.518346  0.159889  1
  O  O23  1  0.041484  0.537614  0.162081  1
  O  O24  1  0.337801  0.672328  0.398993  1
  O  O25  1  0.668764  0.816000  0.894915  1
  O  O26  1  0.492296  0.961689  0.161555  1
  O  O27  1  0.149721  0.817187  0.894582  1
