# generated using pymatgen
data_AgBH8C4(N2F)4
_symmetry_space_group_name_H-M   'P 1'
_cell_length_a   5.57149398
_cell_length_b   9.70559657
_cell_length_c   11.41486544
_cell_angle_alpha   90.46461060
_cell_angle_beta   102.58785485
_cell_angle_gamma   95.66455637
_symmetry_Int_Tables_number   1
_chemical_formula_structural   AgBH8C4(N2F)4
_chemical_formula_sum   'Ag2 B2 H16 C8 N16 F8'
_cell_volume   599.19755453
_cell_formula_units_Z   2
loop_
 _symmetry_equiv_pos_site_id
 _symmetry_equiv_pos_as_xyz
  1  'x, y, z'
loop_
 _atom_site_type_symbol
 _atom_site_label
 _atom_site_symmetry_multiplicity
 _atom_site_fract_x
 _atom_site_fract_y
 _atom_site_fract_z
 _atom_site_occupancy
  Ag  Ag0  1  0.525840  0.835050  0.491220  1
  Ag  Ag1  1  0.474160  0.164950  0.508780  1
  B  B2  1  0.106643  0.293940  0.019064  1
  B  B3  1  0.893357  0.706060  0.980936  1
  H  H4  1  0.206037  0.824933  0.811893  1
  H  H5  1  0.157471  0.395679  0.789947  1
  H  H6  1  0.495066  0.850890  0.907992  1
  H  H7  1  0.418602  0.504566  0.855237  1
  H  H8  1  0.240901  0.961064  0.100185  1
  H  H9  1  0.310625  0.832617  0.204053  1
  H  H10  1  0.350942  0.447824  0.408278  1
  H  H11  1  0.296564  0.415454  0.252409  1
  H  H12  1  0.703436  0.584546  0.747591  1
  H  H13  1  0.649058  0.552176  0.591722  1
  H  H14  1  0.689375  0.167383  0.795947  1
  H  H15  1  0.759099  0.038936  0.899815  1
  H  H16  1  0.581398  0.495434  0.144763  1
  H  H17  1  0.504934  0.149110  0.092008  1
  H  H18  1  0.842529  0.604321  0.210053  1
  H  H19  1  0.793963  0.175067  0.188107  1
  C  C20  1  0.055027  0.981096  0.648888  1
  C  C21  1  0.030305  0.334520  0.571797  1
  C  C22  1  0.380821  0.464867  0.675404  1
  C  C23  1  0.423212  0.002140  0.784925  1
  C  C24  1  0.576788  0.997860  0.215075  1
  C  C25  1  0.619179  0.535133  0.324596  1
  C  C26  1  0.969695  0.665480  0.428203  1
  C  C27  1  0.944973  0.018904  0.351112  1
  N  N28  1  0.165884  0.727275  0.436769  1
  N  N29  1  0.372254  0.882380  0.836344  1
  N  N30  1  0.308009  0.458435  0.779444  1
  N  N31  1  0.245986  0.400014  0.572708  1
  N  N32  1  0.142693  0.076700  0.390326  1
  N  N33  1  0.269638  0.050200  0.688987  1
  N  N34  1  0.362623  0.923103  0.168687  1
  N  N35  1  0.404930  0.462061  0.328680  1
  N  N36  1  0.595070  0.537939  0.671320  1
  N  N37  1  0.637377  0.076897  0.831313  1
  N  N38  1  0.730362  0.949800  0.311013  1
  N  N39  1  0.857307  0.923300  0.609674  1
  N  N40  1  0.754014  0.599986  0.427292  1
  N  N41  1  0.691991  0.541565  0.220556  1
  N  N42  1  0.627746  0.117620  0.163656  1
  N  N43  1  0.834116  0.272725  0.563231  1
  F  F44  1  0.050493  0.660617  0.084314  1
  F  F45  1  0.019749  0.321707  0.124171  1
  F  F46  1  0.118620  0.148127  0.006929  1
  F  F47  1  0.651122  0.638395  0.968005  1
  F  F48  1  0.348878  0.361605  0.031995  1
  F  F49  1  0.881380  0.851873  0.993071  1
  F  F50  1  0.980251  0.678293  0.875829  1
  F  F51  1  0.949507  0.339383  0.915686  1
