# generated using pymatgen
data_Ba3Y2Br12
_symmetry_space_group_name_H-M   'P 1'
_cell_length_a   9.62577376
_cell_length_b   9.62577376
_cell_length_c   15.93641085
_cell_angle_alpha   79.60905420
_cell_angle_beta   100.39094580
_cell_angle_gamma   68.88590906
_symmetry_Int_Tables_number   1
_chemical_formula_structural   Ba3Y2Br12
_chemical_formula_sum   'Ba6 Y4 Br24'
_cell_volume   1305.54660948
_cell_formula_units_Z   2
loop_
 _symmetry_equiv_pos_site_id
 _symmetry_equiv_pos_as_xyz
  1  'x, y, z'
loop_
 _atom_site_type_symbol
 _atom_site_label
 _atom_site_symmetry_multiplicity
 _atom_site_fract_x
 _atom_site_fract_y
 _atom_site_fract_z
 _atom_site_occupancy
  Ba  Ba0  1  0.552630  0.220879  0.073336  1
  Ba  Ba1  1  0.137786  0.137786  0.250000  1
  Ba  Ba2  1  0.779121  0.447370  0.573336  1
  Ba  Ba3  1  0.220879  0.552630  0.426664  1
  Ba  Ba4  1  0.862214  0.862214  0.750000  1
  Ba  Ba5  1  0.447370  0.779121  0.926664  1
  Y  Y6  1  0.668798  0.064843  0.403077  1
  Y  Y7  1  0.935157  0.331202  0.903077  1
  Y  Y8  1  0.064843  0.668798  0.096923  1
  Y  Y9  1  0.331202  0.935157  0.596923  1
  Br  Br10  1  0.173549  0.367905  0.073239  1
  Br  Br11  1  0.503303  0.002898  0.254771  1
  Br  Br12  1  0.784429  0.174214  0.268917  1
  Br  Br13  1  0.632095  0.826451  0.573239  1
  Br  Br14  1  0.997102  0.496697  0.754771  1
  Br  Br15  1  0.153468  0.927356  0.440090  1
  Br  Br16  1  0.412051  0.572019  0.104393  1
  Br  Br17  1  0.738982  0.864851  0.065842  1
  Br  Br18  1  0.825786  0.215571  0.768917  1
  Br  Br19  1  0.864851  0.738982  0.434158  1
  Br  Br20  1  0.572019  0.412051  0.395607  1
  Br  Br21  1  0.927356  0.153468  0.059910  1
  Br  Br22  1  0.072644  0.846532  0.940090  1
  Br  Br23  1  0.427981  0.587949  0.604393  1
  Br  Br24  1  0.135149  0.261018  0.565842  1
  Br  Br25  1  0.174214  0.784429  0.231083  1
  Br  Br26  1  0.261018  0.135149  0.934158  1
  Br  Br27  1  0.587949  0.427981  0.895607  1
  Br  Br28  1  0.846532  0.072644  0.559910  1
  Br  Br29  1  0.002898  0.503303  0.245229  1
  Br  Br30  1  0.367905  0.173549  0.426761  1
  Br  Br31  1  0.215571  0.825786  0.731083  1
  Br  Br32  1  0.496697  0.997102  0.745229  1
  Br  Br33  1  0.826451  0.632095  0.926761  1
