# generated using pymatgen
data_Li4Mn3Cr3(SbO8)2
_symmetry_space_group_name_H-M   'P 1'
_cell_length_a   5.99294700
_cell_length_b   5.99294700
_cell_length_c   9.75710443
_cell_angle_alpha   88.60550554
_cell_angle_beta   91.39449446
_cell_angle_gamma   120.56862945
_symmetry_Int_Tables_number   1
_chemical_formula_structural   Li4Mn3Cr3(SbO8)2
_chemical_formula_sum   'Li4 Mn3 Cr3 Sb2 O16'
_cell_volume   301.60935477
_cell_formula_units_Z   1
loop_
 _symmetry_equiv_pos_site_id
 _symmetry_equiv_pos_as_xyz
  1  'x, y, z'
loop_
 _atom_site_type_symbol
 _atom_site_label
 _atom_site_symmetry_multiplicity
 _atom_site_fract_x
 _atom_site_fract_y
 _atom_site_fract_z
 _atom_site_occupancy
  Li  Li0  1  0.663271  0.336729  0.907009  1
  Li  Li1  1  0.000691  0.999309  0.988660  1
  Li  Li2  1  0.003792  0.996208  0.488568  1
  Li  Li3  1  0.334033  0.665967  0.401364  1
  Mn  Mn4  1  0.832016  0.167984  0.211305  1
  Mn  Mn5  1  0.170127  0.337416  0.712535  1
  Mn  Mn6  1  0.662584  0.829873  0.712535  1
  Cr  Cr7  1  0.340016  0.168820  0.214136  1
  Cr  Cr8  1  0.831180  0.659984  0.214136  1
  Cr  Cr9  1  0.170621  0.829379  0.714996  1
  Sb  Sb10  1  0.668681  0.331319  0.484844  1
  Sb  Sb11  1  0.328995  0.671005  0.987285  1
  O  O12  1  0.338215  0.160220  0.591807  1
  O  O13  1  0.518637  0.481363  0.339568  1
  O  O14  1  0.670404  0.329596  0.113629  1
  O  O15  1  0.996952  0.003048  0.302792  1
  O  O16  1  0.999682  0.000318  0.800773  1
  O  O17  1  0.839780  0.661785  0.591807  1
  O  O18  1  0.511147  0.034186  0.346867  1
  O  O19  1  0.965814  0.488853  0.346867  1
  O  O20  1  0.164964  0.835036  0.099282  1
  O  O21  1  0.838766  0.161234  0.591922  1
  O  O22  1  0.028495  0.529351  0.849542  1
  O  O23  1  0.470649  0.971505  0.849542  1
  O  O24  1  0.334779  0.665221  0.615305  1
  O  O25  1  0.168979  0.331486  0.091603  1
  O  O26  1  0.477943  0.522057  0.847568  1
  O  O27  1  0.668514  0.831021  0.091603  1
