# generated using pymatgen
data_Li4V3Ni3(WO8)2
_symmetry_space_group_name_H-M   'P 1'
_cell_length_a   5.95142211
_cell_length_b   5.95142211
_cell_length_c   9.72156853
_cell_angle_alpha   89.84806913
_cell_angle_beta   90.15193087
_cell_angle_gamma   119.48165087
_symmetry_Int_Tables_number   1
_chemical_formula_structural   Li4V3Ni3(WO8)2
_chemical_formula_sum   'Li4 V3 Ni3 W2 O16'
_cell_volume   299.74451231
_cell_formula_units_Z   1
loop_
 _symmetry_equiv_pos_site_id
 _symmetry_equiv_pos_as_xyz
  1  'x, y, z'
loop_
 _atom_site_type_symbol
 _atom_site_label
 _atom_site_symmetry_multiplicity
 _atom_site_fract_x
 _atom_site_fract_y
 _atom_site_fract_z
 _atom_site_occupancy
  Li  Li0  1  0.336540  0.663460  0.096720  1
  Li  Li1  1  0.998003  0.001997  0.013101  1
  Li  Li2  1  0.000633  0.999367  0.510564  1
  Li  Li3  1  0.667904  0.332096  0.595153  1
  V  V4  1  0.163287  0.344782  0.782782  1
  V  V5  1  0.655218  0.836713  0.782782  1
  V  V6  1  0.824947  0.175053  0.276204  1
  Ni  Ni7  1  0.170834  0.829166  0.788652  1
  Ni  Ni8  1  0.340701  0.168130  0.288758  1
  Ni  Ni9  1  0.831870  0.659299  0.288758  1
  W  W10  1  0.333695  0.666305  0.510205  1
  W  W11  1  0.659584  0.340416  0.010534  1
  O  O12  1  0.169480  0.346341  0.409737  1
  O  O13  1  0.480234  0.519766  0.647199  1
  O  O14  1  0.341335  0.658665  0.894803  1
  O  O15  1  0.998302  0.001698  0.698938  1
  O  O16  1  0.990598  0.009402  0.202636  1
  O  O17  1  0.653659  0.830520  0.409737  1
  O  O18  1  0.040266  0.515699  0.649700  1
  O  O19  1  0.484301  0.959734  0.649700  1
  O  O20  1  0.822277  0.177723  0.908125  1
  O  O21  1  0.171604  0.828396  0.414083  1
  O  O22  1  0.531468  0.038037  0.148495  1
  O  O23  1  0.961963  0.468532  0.148495  1
  O  O24  1  0.683321  0.316679  0.390783  1
  O  O25  1  0.340289  0.175423  0.912856  1
  O  O26  1  0.522865  0.477135  0.149751  1
  O  O27  1  0.824577  0.659711  0.912856  1
