# generated using pymatgen
data_Y2Zr2O7
_symmetry_space_group_name_H-M   'P 1'
_cell_length_a   7.89282608
_cell_length_b   5.54618933
_cell_length_c   13.86062684
_cell_angle_alpha   90.00000000
_cell_angle_beta   98.44324227
_cell_angle_gamma   90.00000000
_symmetry_Int_Tables_number   1
_chemical_formula_structural   Y2Zr2O7
_chemical_formula_sum   'Y8 Zr8 O28'
_cell_volume   600.17435102
_cell_formula_units_Z   4
loop_
 _symmetry_equiv_pos_site_id
 _symmetry_equiv_pos_as_xyz
  1  'x, y, z'
loop_
 _atom_site_type_symbol
 _atom_site_label
 _atom_site_symmetry_multiplicity
 _atom_site_fract_x
 _atom_site_fract_y
 _atom_site_fract_z
 _atom_site_occupancy
  Y  Y0  1  0.862454  0.326923  0.940789  1
  Y  Y1  1  0.762749  0.779267  0.572341  1
  Y  Y2  1  0.713296  0.243433  0.366047  1
  Y  Y3  1  0.638198  0.759180  0.101289  1
  Y  Y4  1  0.361802  0.259180  0.898711  1
  Y  Y5  1  0.286704  0.743433  0.633953  1
  Y  Y6  1  0.237251  0.279267  0.427659  1
  Y  Y7  1  0.137546  0.826923  0.059211  1
  Zr  Zr8  1  0.925764  0.264964  0.180297  1
  Zr  Zr9  1  0.973185  0.763231  0.381422  1
  Zr  Zr10  1  0.589342  0.776668  0.826916  1
  Zr  Zr11  1  0.532278  0.265050  0.625077  1
  Zr  Zr12  1  0.467722  0.765050  0.374923  1
  Zr  Zr13  1  0.410658  0.276668  0.173084  1
  Zr  Zr14  1  0.026815  0.263231  0.618578  1
  Zr  Zr15  1  0.074236  0.764964  0.819703  1
  O  O16  1  0.922518  0.551255  0.083067  1
  O  O17  1  0.004001  0.420517  0.325499  1
  O  O18  1  0.830327  0.634331  0.825913  1
  O  O19  1  0.778041  0.385075  0.616691  1
  O  O20  1  0.846023  0.043697  0.065714  1
  O  O21  1  0.925528  0.050771  0.478441  1
  O  O22  1  0.861731  0.966592  0.270492  1
  O  O23  1  0.634339  0.110795  0.877519  1
  O  O24  1  0.584666  0.915426  0.673162  1
  O  O25  1  0.728509  0.635488  0.415291  1
  O  O26  1  0.676508  0.402434  0.201464  1
  O  O27  1  0.577761  0.576225  0.952452  1
  O  O28  1  0.439576  0.546568  0.523194  1
  O  O29  1  0.474491  0.474597  0.733457  1
  O  O30  1  0.525509  0.974597  0.266543  1
  O  O31  1  0.560424  0.046568  0.476806  1
  O  O32  1  0.422239  0.076225  0.047548  1
  O  O33  1  0.323492  0.902434  0.798536  1
  O  O34  1  0.271491  0.135488  0.584709  1
  O  O35  1  0.415334  0.415426  0.326838  1
  O  O36  1  0.365661  0.610795  0.122481  1
  O  O37  1  0.138269  0.466592  0.729508  1
  O  O38  1  0.074472  0.550771  0.521559  1
  O  O39  1  0.153977  0.543697  0.934286  1
  O  O40  1  0.221959  0.885075  0.383309  1
  O  O41  1  0.169673  0.134331  0.174087  1
  O  O42  1  0.995999  0.920517  0.674501  1
  O  O43  1  0.077482  0.051255  0.916933  1
