# generated using pymatgen
data_LiMnSiO4
_symmetry_space_group_name_H-M   'P 1'
_cell_length_a   5.92197882
_cell_length_b   6.31832478
_cell_length_c   9.60046912
_cell_angle_alpha   76.02344058
_cell_angle_beta   86.34554448
_cell_angle_gamma   79.48874874
_symmetry_Int_Tables_number   1
_chemical_formula_structural   LiMnSiO4
_chemical_formula_sum   'Li4 Mn4 Si4 O16'
_cell_volume   342.66326728
_cell_formula_units_Z   4
loop_
 _symmetry_equiv_pos_site_id
 _symmetry_equiv_pos_as_xyz
  1  'x, y, z'
loop_
 _atom_site_type_symbol
 _atom_site_label
 _atom_site_symmetry_multiplicity
 _atom_site_fract_x
 _atom_site_fract_y
 _atom_site_fract_z
 _atom_site_occupancy
  Li  Li0  1  0.571057  0.841095  0.736593  1
  Li  Li1  1  0.431075  0.650011  0.332574  1
  Li  Li2  1  0.568925  0.349989  0.667426  1
  Li  Li3  1  0.428943  0.158905  0.263407  1
  Mn  Mn4  1  0.002487  0.933718  0.275637  1
  Mn  Mn5  1  0.806410  0.631759  0.078402  1
  Mn  Mn6  1  0.193590  0.368241  0.921598  1
  Mn  Mn7  1  0.997513  0.066282  0.724363  1
  Si  Si8  1  0.136121  0.717646  0.614932  1
  Si  Si9  1  0.288064  0.825561  0.998599  1
  Si  Si10  1  0.711936  0.174439  0.001401  1
  Si  Si11  1  0.863879  0.282354  0.385068  1
  O  O12  1  0.546940  0.745547  0.945134  1
  O  O13  1  0.267458  0.917467  0.645133  1
  O  O14  1  0.880673  0.805254  0.677256  1
  O  O15  1  0.814188  0.926243  0.107643  1
  O  O16  1  0.120942  0.656840  0.967772  1
  O  O17  1  0.161223  0.706486  0.447549  1
  O  O18  1  0.273798  0.830591  0.168048  1
  O  O19  1  0.737491  0.522362  0.285863  1
  O  O20  1  0.262509  0.477638  0.714137  1
  O  O21  1  0.726202  0.169409  0.831952  1
  O  O22  1  0.838777  0.293514  0.552451  1
  O  O23  1  0.879058  0.343160  0.032228  1
  O  O24  1  0.185812  0.073757  0.892357  1
  O  O25  1  0.119327  0.194746  0.322744  1
  O  O26  1  0.732542  0.082533  0.354867  1
  O  O27  1  0.453060  0.254453  0.054866  1
