# generated using pymatgen
data_Na5Fe2P2(CO7)2
_symmetry_space_group_name_H-M   'P 1'
_cell_length_a   9.01531254
_cell_length_b   6.59432209
_cell_length_c   10.50311971
_cell_angle_alpha   90.00000000
_cell_angle_beta   90.47793332
_cell_angle_gamma   90.00000000
_symmetry_Int_Tables_number   1
_chemical_formula_structural   Na5Fe2P2(CO7)2
_chemical_formula_sum   'Na10 Fe4 P4 C4 O28'
_cell_volume   624.38742671
_cell_formula_units_Z   2
loop_
 _symmetry_equiv_pos_site_id
 _symmetry_equiv_pos_as_xyz
  1  'x, y, z'
loop_
 _atom_site_type_symbol
 _atom_site_label
 _atom_site_symmetry_multiplicity
 _atom_site_fract_x
 _atom_site_fract_y
 _atom_site_fract_z
 _atom_site_occupancy
  Na  Na0  1  0.913124  0.001406  0.383971  1
  Na  Na1  1  0.913124  0.998594  0.883971  1
  Na  Na2  1  0.733062  0.230273  0.126049  1
  Na  Na3  1  0.733062  0.769727  0.626049  1
  Na  Na4  1  0.261611  0.753423  0.375117  1
  Na  Na5  1  0.261330  0.246941  0.372469  1
  Na  Na6  1  0.261330  0.753059  0.872469  1
  Na  Na7  1  0.261611  0.246577  0.875117  1
  Na  Na8  1  0.073404  0.509054  0.121169  1
  Na  Na9  1  0.073404  0.490946  0.621169  1
  Fe  Fe10  1  0.654109  0.496773  0.393055  1
  Fe  Fe11  1  0.654109  0.503227  0.893055  1
  Fe  Fe12  1  0.352215  0.997963  0.111559  1
  Fe  Fe13  1  0.352215  0.002037  0.611559  1
  P  P14  1  0.582248  0.999636  0.350290  1
  P  P15  1  0.582248  0.000364  0.850290  1
  P  P16  1  0.421117  0.498648  0.143444  1
  P  P17  1  0.421117  0.501352  0.643444  1
  C  C18  1  0.936385  0.501613  0.365841  1
  C  C19  1  0.936385  0.498387  0.865841  1
  C  C20  1  0.061873  0.004594  0.136460  1
  C  C21  1  0.061873  0.995406  0.636460  1
  O  O22  1  0.922071  0.017787  0.147501  1
  O  O23  1  0.922071  0.982213  0.647501  1
  O  O24  1  0.872935  0.515801  0.476796  1
  O  O25  1  0.872935  0.484199  0.976796  1
  O  O26  1  0.848763  0.488397  0.267484  1
  O  O27  1  0.848763  0.511603  0.767484  1
  O  O28  1  0.678353  0.192030  0.383205  1
  O  O29  1  0.676993  0.811305  0.392840  1
  O  O30  1  0.676993  0.188695  0.892840  1
  O  O31  1  0.678353  0.807970  0.883205  1
  O  O32  1  0.565820  0.491745  0.065443  1
  O  O33  1  0.565820  0.508255  0.565443  1
  O  O34  1  0.554536  0.000194  0.205564  1
  O  O35  1  0.554536  0.999806  0.705564  1
  O  O36  1  0.464139  0.500333  0.289075  1
  O  O37  1  0.464139  0.499667  0.789075  1
  O  O38  1  0.433700  0.001874  0.422557  1
  O  O39  1  0.433700  0.998126  0.922557  1
  O  O40  1  0.322756  0.684600  0.112108  1
  O  O41  1  0.319453  0.313160  0.116337  1
  O  O42  1  0.319453  0.686840  0.616337  1
  O  O43  1  0.322756  0.315400  0.612108  1
  O  O44  1  0.149230  0.996784  0.237373  1
  O  O45  1  0.149230  0.003216  0.737373  1
  O  O46  1  0.125223  0.997719  0.024086  1
  O  O47  1  0.125223  0.002281  0.524086  1
  O  O48  1  0.079030  0.500527  0.355416  1
  O  O49  1  0.079030  0.499473  0.855416  1
