# generated using pymatgen
data_Li4Ni2OF7
_symmetry_space_group_name_H-M   'P 1'
_cell_length_a   5.91603771
_cell_length_b   5.91603771
_cell_length_c   5.87536328
_cell_angle_alpha   60.93379061
_cell_angle_beta   119.06620939
_cell_angle_gamma   119.44541835
_symmetry_Int_Tables_number   1
_chemical_formula_structural   Li4Ni2OF7
_chemical_formula_sum   'Li4 Ni2 O1 F7'
_cell_volume   148.04936431
_cell_formula_units_Z   1
loop_
 _symmetry_equiv_pos_site_id
 _symmetry_equiv_pos_as_xyz
  1  'x, y, z'
loop_
 _atom_site_type_symbol
 _atom_site_label
 _atom_site_symmetry_multiplicity
 _atom_site_fract_x
 _atom_site_fract_y
 _atom_site_fract_z
 _atom_site_occupancy
  Li  Li0  1  0.884656  0.115344  0.137390  1
  Li  Li1  1  0.116210  0.883790  0.872446  1
  Li  Li2  1  0.500391  0.499609  0.998741  1
  Li  Li3  1  0.488101  0.511899  0.484992  1
  Ni  Ni4  1  0.991820  0.494493  0.507381  1
  Ni  Ni5  1  0.505507  0.008180  0.507381  1
  O  O6  1  0.764505  0.235495  0.731839  1
  F  F7  1  0.720755  0.744503  0.733551  1
  F  F8  1  0.255497  0.279245  0.733551  1
  F  F9  1  0.252249  0.747751  0.275762  1
  F  F10  1  0.252748  0.747252  0.741315  1
  F  F11  1  0.743938  0.256062  0.253340  1
  F  F12  1  0.746647  0.722858  0.261173  1
  F  F13  1  0.277142  0.253353  0.261173  1
