# generated using pymatgen
data_Li2MnCoO4
_symmetry_space_group_name_H-M   'P 1'
_cell_length_a   5.81472697
_cell_length_b   5.81472697
_cell_length_c   6.05196625
_cell_angle_alpha   60.85026651
_cell_angle_beta   119.14973349
_cell_angle_gamma   91.51557217
_symmetry_Int_Tables_number   1
_chemical_formula_structural   Li2MnCoO4
_chemical_formula_sum   'Li4 Mn2 Co2 O8'
_cell_volume   149.99468852
_cell_formula_units_Z   2
loop_
 _symmetry_equiv_pos_site_id
 _symmetry_equiv_pos_as_xyz
  1  'x, y, z'
loop_
 _atom_site_type_symbol
 _atom_site_label
 _atom_site_symmetry_multiplicity
 _atom_site_fract_x
 _atom_site_fract_y
 _atom_site_fract_z
 _atom_site_occupancy
  Li  Li0  1  0.500000  0.500000  0.500000  1
  Li  Li1  1  0.500000  0.000000  0.000000  1
  Li  Li2  1  0.000000  0.500000  0.500000  1
  Li  Li3  1  0.500000  0.500000  0.000000  1
  Mn  Mn4  1  0.500000  1.000000  0.500000  1
  Mn  Mn5  1  0.000000  0.500000  0.000000  1
  Co  Co6  1  0.000000  0.000000  0.500000  1
  Co  Co7  1  0.000000  0.000000  0.000000  1
  O  O8  1  0.776645  0.244361  0.023317  1
  O  O9  1  0.739843  0.779836  0.486528  1
  O  O10  1  0.220164  0.260157  0.986528  1
  O  O11  1  0.755639  0.223355  0.523317  1
  O  O12  1  0.244361  0.776645  0.476683  1
  O  O13  1  0.779836  0.739843  0.013472  1
  O  O14  1  0.260157  0.220164  0.513472  1
  O  O15  1  0.223355  0.755639  0.976683  1
