# generated using pymatgen
data_Li5FeO3F
_symmetry_space_group_name_H-M   'P 1'
_cell_length_a   5.47630045
_cell_length_b   5.47630045
_cell_length_c   6.68974895
_cell_angle_alpha   90.00000000
_cell_angle_beta   90.00000000
_cell_angle_gamma   94.19267460
_symmetry_Int_Tables_number   1
_chemical_formula_structural   Li5FeO3F
_chemical_formula_sum   'Li10 Fe2 O6 F2'
_cell_volume   200.08777330
_cell_formula_units_Z   2
loop_
 _symmetry_equiv_pos_site_id
 _symmetry_equiv_pos_as_xyz
  1  'x, y, z'
loop_
 _atom_site_type_symbol
 _atom_site_label
 _atom_site_symmetry_multiplicity
 _atom_site_fract_x
 _atom_site_fract_y
 _atom_site_fract_z
 _atom_site_occupancy
  Li  Li0  1  0.093872  0.971723  0.750000  1
  Li  Li1  1  0.807208  0.807208  0.000000  1
  Li  Li2  1  0.807208  0.807208  0.500000  1
  Li  Li3  1  0.337942  0.638974  0.750000  1
  Li  Li4  1  0.083522  0.385869  0.976546  1
  Li  Li5  1  0.083522  0.385869  0.523454  1
  Li  Li6  1  0.638974  0.337942  0.250000  1
  Li  Li7  1  0.385869  0.083522  0.023454  1
  Li  Li8  1  0.385869  0.083522  0.476546  1
  Li  Li9  1  0.971723  0.093872  0.250000  1
  Fe  Fe10  1  0.272524  0.669139  0.250000  1
  Fe  Fe11  1  0.669139  0.272524  0.750000  1
  O  O12  1  0.169437  0.771940  0.513367  1
  O  O13  1  0.169437  0.771940  0.986633  1
  O  O14  1  0.272841  0.287140  0.250000  1
  O  O15  1  0.287140  0.272841  0.750000  1
  O  O16  1  0.771940  0.169437  0.013367  1
  O  O17  1  0.771940  0.169437  0.486633  1
  F  F18  1  0.682192  0.684639  0.250000  1
  F  F19  1  0.684639  0.682192  0.750000  1
