# generated using pymatgen
data_Li5VO4F
_symmetry_space_group_name_H-M   'P 1'
_cell_length_a   5.24274234
_cell_length_b   8.91983626
_cell_length_c   5.37772818
_cell_angle_alpha   90.00000000
_cell_angle_beta   114.26953204
_cell_angle_gamma   90.00000000
_symmetry_Int_Tables_number   1
_chemical_formula_structural   Li5VO4F
_chemical_formula_sum   'Li10 V2 O8 F2'
_cell_volume   229.26039148
_cell_formula_units_Z   2
loop_
 _symmetry_equiv_pos_site_id
 _symmetry_equiv_pos_as_xyz
  1  'x, y, z'
loop_
 _atom_site_type_symbol
 _atom_site_label
 _atom_site_symmetry_multiplicity
 _atom_site_fract_x
 _atom_site_fract_y
 _atom_site_fract_z
 _atom_site_occupancy
  Li  Li0  1  0.708028  0.066557  0.018805  1
  Li  Li1  1  0.753553  0.440686  0.083552  1
  Li  Li2  1  0.815336  0.252418  0.461185  1
  Li  Li3  1  0.798587  0.540231  0.576044  1
  Li  Li4  1  0.707228  0.953787  0.472401  1
  Li  Li5  1  0.292772  0.453787  0.527599  1
  Li  Li6  1  0.201413  0.040231  0.423956  1
  Li  Li7  1  0.184664  0.752418  0.538815  1
  Li  Li8  1  0.246447  0.940686  0.916448  1
  Li  Li9  1  0.291972  0.566557  0.981195  1
  V  V10  1  0.765044  0.769157  0.933919  1
  V  V11  1  0.234956  0.269157  0.066081  1
  O  O12  1  0.899315  0.885096  0.238731  1
  O  O13  1  0.945454  0.243301  0.165881  1
  O  O14  1  0.496211  0.411114  0.290217  1
  O  O15  1  0.440553  0.095794  0.198681  1
  O  O16  1  0.559447  0.595794  0.801319  1
  O  O17  1  0.503789  0.911114  0.709783  1
  O  O18  1  0.054546  0.743301  0.834119  1
  O  O19  1  0.100685  0.385096  0.761269  1
  F  F20  1  0.998239  0.582423  0.319402  1
  F  F21  1  0.001761  0.082423  0.680598  1
