# generated using pymatgen
data_LiMnF3
_symmetry_space_group_name_H-M   'P 1'
_cell_length_a   6.57832757
_cell_length_b   6.76339221
_cell_length_c   8.92642565
_cell_angle_alpha   90.56612752
_cell_angle_beta   107.65830410
_cell_angle_gamma   98.91742766
_symmetry_Int_Tables_number   1
_chemical_formula_structural   LiMnF3
_chemical_formula_sum   'Li6 Mn6 F18'
_cell_volume   373.18205833
_cell_formula_units_Z   6
loop_
 _symmetry_equiv_pos_site_id
 _symmetry_equiv_pos_as_xyz
  1  'x, y, z'
loop_
 _atom_site_type_symbol
 _atom_site_label
 _atom_site_symmetry_multiplicity
 _atom_site_fract_x
 _atom_site_fract_y
 _atom_site_fract_z
 _atom_site_occupancy
  Li  Li0  1  0.652214  0.560976  0.262361  1
  Li  Li1  1  0.778250  0.696220  0.982138  1
  Li  Li2  1  0.976795  0.102398  0.699935  1
  Li  Li3  1  0.023205  0.897602  0.300065  1
  Li  Li4  1  0.221750  0.303780  0.017862  1
  Li  Li5  1  0.347786  0.439024  0.737639  1
  Mn  Mn6  1  0.788218  0.638116  0.593504  1
  Mn  Mn7  1  0.579435  0.072750  0.335200  1
  Mn  Mn8  1  0.272617  0.799564  0.998296  1
  Mn  Mn9  1  0.727383  0.200436  0.001704  1
  Mn  Mn10  1  0.420565  0.927250  0.664800  1
  Mn  Mn11  1  0.211782  0.361884  0.406496  1
  F  F12  1  0.168854  0.414959  0.186229  1
  F  F13  1  0.504281  0.778880  0.233935  1
  F  F14  1  0.704330  0.952256  0.570575  1
  F  F15  1  0.585655  0.381269  0.416237  1
  F  F16  1  0.420168  0.119119  0.087452  1
  F  F17  1  0.708814  0.474627  0.090446  1
  F  F18  1  0.956279  0.164410  0.894410  1
  F  F19  1  0.139347  0.880256  0.738240  1
  F  F20  1  0.921529  0.690353  0.414609  1
  F  F21  1  0.078471  0.309647  0.585391  1
  F  F22  1  0.860653  0.119744  0.261760  1
  F  F23  1  0.043721  0.835590  0.105590  1
  F  F24  1  0.291186  0.525373  0.909554  1
  F  F25  1  0.579832  0.880881  0.912548  1
  F  F26  1  0.414345  0.618731  0.583763  1
  F  F27  1  0.295670  0.047744  0.429425  1
  F  F28  1  0.495719  0.221120  0.766065  1
  F  F29  1  0.831146  0.585041  0.813771  1
