# generated using pymatgen
data_Li2TiO3
_symmetry_space_group_name_H-M   'P 1'
_cell_length_a   5.03823166
_cell_length_b   5.08712433
_cell_length_c   7.62320871
_cell_angle_alpha   109.20093956
_cell_angle_beta   89.55531507
_cell_angle_gamma   118.11150122
_symmetry_Int_Tables_number   1
_chemical_formula_structural   Li2TiO3
_chemical_formula_sum   'Li6 Ti3 O9'
_cell_volume   160.18634810
_cell_formula_units_Z   3
loop_
 _symmetry_equiv_pos_site_id
 _symmetry_equiv_pos_as_xyz
  1  'x, y, z'
loop_
 _atom_site_type_symbol
 _atom_site_label
 _atom_site_symmetry_multiplicity
 _atom_site_fract_x
 _atom_site_fract_y
 _atom_site_fract_z
 _atom_site_occupancy
  Li  Li0  1  0.668566  0.845909  0.997435  1
  Li  Li1  1  0.107914  0.729506  0.332060  1
  Li  Li2  1  0.892086  0.270494  0.667940  1
  Li  Li3  1  0.331434  0.154091  0.002565  1
  Li  Li4  1  0.782732  0.052943  0.334443  1
  Li  Li5  1  0.217268  0.947057  0.665557  1
  Ti  Ti6  1  0.538037  0.613333  0.666615  1
  Ti  Ti7  1  0.000000  0.500000  0.000000  1
  Ti  Ti8  1  0.461963  0.386667  0.333385  1
  O  O9  1  0.635241  0.261882  0.840486  1
  O  O10  1  0.364759  0.738119  0.159514  1
  O  O11  1  0.729340  0.443814  0.172851  1
  O  O12  1  0.079126  0.146385  0.169597  1
  O  O13  1  0.790352  0.648369  0.491815  1
  O  O14  1  0.500000  0.000000  0.500000  1
  O  O15  1  0.209648  0.351631  0.508185  1
  O  O16  1  0.920874  0.853615  0.830403  1
  O  O17  1  0.270660  0.556186  0.827149  1
