# generated using pymatgen
data_Ca2P6O17
_symmetry_space_group_name_H-M   'P 1'
_cell_length_a   5.86184700
_cell_length_b   18.40467364
_cell_length_c   7.79773559
_cell_angle_alpha   90.00000000
_cell_angle_beta   112.05819796
_cell_angle_gamma   90.00000000
_symmetry_Int_Tables_number   1
_chemical_formula_structural   Ca2P6O17
_chemical_formula_sum   'Ca4 P12 O34'
_cell_volume   779.68373560
_cell_formula_units_Z   2
loop_
 _symmetry_equiv_pos_site_id
 _symmetry_equiv_pos_as_xyz
  1  'x, y, z'
loop_
 _atom_site_type_symbol
 _atom_site_label
 _atom_site_symmetry_multiplicity
 _atom_site_fract_x
 _atom_site_fract_y
 _atom_site_fract_z
 _atom_site_occupancy
  Ca  Ca0  1  0.093252  0.573321  0.105555  1
  Ca  Ca1  1  0.089023  0.925504  0.605990  1
  Ca  Ca2  1  0.906748  0.073321  0.894445  1
  Ca  Ca3  1  0.910977  0.425504  0.394010  1
  P  P4  1  0.315352  0.320356  0.227075  1
  P  P5  1  0.273187  0.332274  0.833405  1
  P  P6  1  0.315305  0.178804  0.726784  1
  P  P7  1  0.482559  0.971607  0.056377  1
  P  P8  1  0.517441  0.471607  0.943623  1
  P  P9  1  0.271976  0.167055  0.331263  1
  P  P10  1  0.726813  0.832274  0.166595  1
  P  P11  1  0.493868  0.527579  0.553941  1
  P  P12  1  0.506132  0.027579  0.446059  1
  P  P13  1  0.684648  0.820356  0.772925  1
  P  P14  1  0.728024  0.667055  0.668737  1
  P  P15  1  0.684695  0.678804  0.273216  1
  O  O16  1  0.061316  0.138121  0.173389  1
  O  O17  1  0.196148  0.311835  0.000722  1
  O  O18  1  0.108157  0.159590  0.784007  1
  O  O19  1  0.064555  0.362220  0.675727  1
  O  O20  1  0.234022  0.986748  0.907947  1
  O  O21  1  0.287114  0.497282  0.962417  1
  O  O22  1  0.453195  0.636122  0.216414  1
  O  O23  1  0.198795  0.187262  0.500467  1
  O  O24  1  0.492744  0.883340  0.086931  1
  O  O25  1  0.108098  0.339446  0.284146  1
  O  O26  1  0.600248  0.763032  0.212382  1
  O  O27  1  0.399752  0.263032  0.787618  1
  O  O28  1  0.238179  0.511101  0.417842  1
  O  O29  1  0.507256  0.383340  0.913069  1
  O  O30  1  0.285772  0.008536  0.487836  1
  O  O31  1  0.454750  0.863763  0.716513  1
  O  O32  1  0.546805  0.136122  0.783586  1
  O  O33  1  0.531145  0.495936  0.752169  1
  O  O34  1  0.712886  0.997282  0.037583  1
  O  O35  1  0.495677  0.614966  0.595084  1
  O  O36  1  0.765978  0.486748  0.092053  1
  O  O37  1  0.598912  0.736325  0.712116  1
  O  O38  1  0.401088  0.236325  0.287884  1
  O  O39  1  0.891843  0.659590  0.215993  1
  O  O40  1  0.504323  0.114966  0.404916  1
  O  O41  1  0.803852  0.811835  0.999278  1
  O  O42  1  0.468855  0.995936  0.247831  1
  O  O43  1  0.545250  0.363763  0.283487  1
  O  O44  1  0.714228  0.508536  0.512164  1
  O  O45  1  0.761821  0.011101  0.582158  1
  O  O46  1  0.938684  0.638121  0.826611  1
  O  O47  1  0.891902  0.839446  0.715854  1
  O  O48  1  0.801205  0.687262  0.499533  1
  O  O49  1  0.935445  0.862220  0.324273  1
