# generated using pymatgen
data_LiVTe(WO6)2
_symmetry_space_group_name_H-M   'P 1'
_cell_length_a   5.15159466
_cell_length_b   5.34609718
_cell_length_c   7.47610484
_cell_angle_alpha   86.99340618
_cell_angle_beta   89.81332774
_cell_angle_gamma   89.51372349
_symmetry_Int_Tables_number   1
_chemical_formula_structural   LiVTe(WO6)2
_chemical_formula_sum   'Li1 V1 Te1 W2 O12'
_cell_volume   205.60720796
_cell_formula_units_Z   1
loop_
 _symmetry_equiv_pos_site_id
 _symmetry_equiv_pos_as_xyz
  1  'x, y, z'
loop_
 _atom_site_type_symbol
 _atom_site_label
 _atom_site_symmetry_multiplicity
 _atom_site_fract_x
 _atom_site_fract_y
 _atom_site_fract_z
 _atom_site_occupancy
  Li  Li0  1  0.000998  0.474703  0.226957  1
  V  V1  1  0.006514  0.036168  0.029117  1
  Te  Te2  1  0.497812  0.501519  0.496579  1
  W  W3  1  0.502108  0.535874  0.988613  1
  W  W4  1  0.003903  0.997773  0.526763  1
  O  O5  1  0.694838  0.201215  0.555593  1
  O  O6  1  0.910336  0.008455  0.252619  1
  O  O7  1  0.704843  0.805686  0.952608  1
  O  O8  1  0.799916  0.698801  0.553286  1
  O  O9  1  0.195351  0.698711  0.056093  1
  O  O10  1  0.619751  0.499690  0.252658  1
  O  O11  1  0.391874  0.502015  0.745085  1
  O  O12  1  0.795105  0.298813  0.965909  1
  O  O13  1  0.190588  0.310587  0.439539  1
  O  O14  1  0.285524  0.210084  0.052402  1
  O  O15  1  0.100774  0.002042  0.755477  1
  O  O16  1  0.299764  0.803469  0.443503  1
