# generated using pymatgen
data_Li2Fe(CO3)2
_symmetry_space_group_name_H-M   'P 1'
_cell_length_a   7.60409739
_cell_length_b   9.70986290
_cell_length_c   9.19804448
_cell_angle_alpha   90.00000000
_cell_angle_beta   121.27107106
_cell_angle_gamma   90.00000000
_symmetry_Int_Tables_number   1
_chemical_formula_structural   Li2Fe(CO3)2
_chemical_formula_sum   'Li8 Fe4 C8 O24'
_cell_volume   580.47118143
_cell_formula_units_Z   4
loop_
 _symmetry_equiv_pos_site_id
 _symmetry_equiv_pos_as_xyz
  1  'x, y, z'
loop_
 _atom_site_type_symbol
 _atom_site_label
 _atom_site_symmetry_multiplicity
 _atom_site_fract_x
 _atom_site_fract_y
 _atom_site_fract_z
 _atom_site_occupancy
  Li  Li0  1  0.374583  0.103636  0.850915  1
  Li  Li1  1  0.946313  0.222117  0.299665  1
  Li  Li2  1  0.625417  0.603636  0.649085  1
  Li  Li3  1  0.053687  0.722117  0.200335  1
  Li  Li4  1  0.946313  0.277883  0.799665  1
  Li  Li5  1  0.374583  0.396364  0.350915  1
  Li  Li6  1  0.053687  0.777883  0.700335  1
  Li  Li7  1  0.625417  0.896364  0.149085  1
  Fe  Fe8  1  0.478223  0.630259  0.934557  1
  Fe  Fe9  1  0.521777  0.130259  0.565443  1
  Fe  Fe10  1  0.478223  0.869741  0.434557  1
  Fe  Fe11  1  0.521777  0.369741  0.065443  1
  C  C12  1  0.467885  0.384980  0.719857  1
  C  C13  1  0.532115  0.884980  0.780143  1
  C  C14  1  0.923588  0.500668  0.160854  1
  C  C15  1  0.076412  0.000668  0.339146  1
  C  C16  1  0.923588  0.999332  0.660854  1
  C  C17  1  0.076412  0.499332  0.839146  1
  C  C18  1  0.467885  0.115020  0.219857  1
  C  C19  1  0.532115  0.615020  0.280143  1
  O  O20  1  0.535272  0.838500  0.912836  1
  O  O21  1  0.479545  0.300385  0.833072  1
  O  O22  1  0.462496  0.517456  0.737506  1
  O  O23  1  0.537504  0.017456  0.762494  1
  O  O24  1  0.520455  0.800385  0.666928  1
  O  O25  1  0.464728  0.338500  0.587164  1
  O  O26  1  0.839985  0.383789  0.165793  1
  O  O27  1  0.881057  0.015418  0.260167  1
  O  O28  1  0.808441  0.606446  0.077858  1
  O  O29  1  0.191559  0.106446  0.422142  1
  O  O30  1  0.118943  0.515418  0.239833  1
  O  O31  1  0.160015  0.883789  0.334207  1
  O  O32  1  0.839985  0.116211  0.665793  1
  O  O33  1  0.881057  0.484582  0.760167  1
  O  O34  1  0.808441  0.893554  0.577858  1
  O  O35  1  0.191559  0.393554  0.922142  1
  O  O36  1  0.118943  0.984582  0.739833  1
  O  O37  1  0.160015  0.616211  0.834207  1
  O  O38  1  0.535272  0.661500  0.412836  1
  O  O39  1  0.479545  0.199615  0.333072  1
  O  O40  1  0.462496  0.982544  0.237506  1
  O  O41  1  0.537504  0.482544  0.262494  1
  O  O42  1  0.520455  0.699615  0.166928  1
  O  O43  1  0.464728  0.161500  0.087164  1
