# generated using pymatgen
data_Mn3Cr3(TeO8)2
_symmetry_space_group_name_H-M   'P 1'
_cell_length_a   5.95578071
_cell_length_b   5.95578071
_cell_length_c   9.21617472
_cell_angle_alpha   89.76518890
_cell_angle_beta   90.23481110
_cell_angle_gamma   119.87220763
_symmetry_Int_Tables_number   1
_chemical_formula_structural   Mn3Cr3(TeO8)2
_chemical_formula_sum   'Mn3 Cr3 Te2 O16'
_cell_volume   283.47298070
_cell_formula_units_Z   1
loop_
 _symmetry_equiv_pos_site_id
 _symmetry_equiv_pos_as_xyz
  1  'x, y, z'
loop_
 _atom_site_type_symbol
 _atom_site_label
 _atom_site_symmetry_multiplicity
 _atom_site_fract_x
 _atom_site_fract_y
 _atom_site_fract_z
 _atom_site_occupancy
  Mn  Mn0  1  0.168821  0.831179  0.210750  1
  Mn  Mn1  1  0.832025  0.665037  0.709668  1
  Mn  Mn2  1  0.334963  0.167975  0.709668  1
  Cr  Cr3  1  0.662458  0.830859  0.210569  1
  Cr  Cr4  1  0.169141  0.337542  0.210569  1
  Cr  Cr5  1  0.830064  0.169936  0.711410  1
  Te  Te6  1  0.335213  0.664787  0.486709  1
  Te  Te7  1  0.667676  0.332324  0.988693  1
  O  O8  1  0.656343  0.828916  0.596324  1
  O  O9  1  0.478835  0.521165  0.345541  1
  O  O10  1  0.328190  0.671810  0.109301  1
  O  O11  1  0.004461  0.995539  0.303407  1
  O  O12  1  0.004412  0.995588  0.801850  1
  O  O13  1  0.171084  0.343657  0.596324  1
  O  O14  1  0.475414  0.958005  0.342680  1
  O  O15  1  0.041995  0.524586  0.342680  1
  O  O16  1  0.828864  0.171136  0.095707  1
  O  O17  1  0.176314  0.823686  0.597745  1
  O  O18  1  0.957133  0.478184  0.844876  1
  O  O19  1  0.521816  0.042867  0.844876  1
  O  O20  1  0.660427  0.339573  0.611671  1
  O  O21  1  0.829980  0.655077  0.097649  1
  O  O22  1  0.519870  0.480130  0.849414  1
  O  O23  1  0.344923  0.170020  0.097649  1
