# generated using pymatgen
data_LiCoSnO4
_symmetry_space_group_name_H-M   'P 1'
_cell_length_a   6.14553436
_cell_length_b   6.14553436
_cell_length_c   6.14553436
_cell_angle_alpha   121.36222184
_cell_angle_beta   118.58437793
_cell_angle_gamma   90.06307239
_symmetry_Int_Tables_number   1
_chemical_formula_structural   LiCoSnO4
_chemical_formula_sum   'Li2 Co2 Sn2 O8'
_cell_volume   164.06659459
_cell_formula_units_Z   2
loop_
 _symmetry_equiv_pos_site_id
 _symmetry_equiv_pos_as_xyz
  1  'x, y, z'
loop_
 _atom_site_type_symbol
 _atom_site_label
 _atom_site_symmetry_multiplicity
 _atom_site_fract_x
 _atom_site_fract_y
 _atom_site_fract_z
 _atom_site_occupancy
  Li  Li0  1  0.874316  0.124316  0.250000  1
  Li  Li1  1  0.125684  0.875684  0.750000  1
  Co  Co2  1  0.500000  0.500000  0.000000  1
  Co  Co3  1  0.500000  0.000000  0.500000  1
  Sn  Sn4  1  0.000000  0.500000  0.000000  1
  Sn  Sn5  1  0.500000  0.500000  0.500000  1
  O  O6  1  0.272646  0.740096  0.032550  1
  O  O7  1  0.707547  0.740096  0.467450  1
  O  O8  1  0.260188  0.741809  0.481621  1
  O  O9  1  0.260188  0.278567  0.018379  1
  O  O10  1  0.739812  0.721433  0.981621  1
  O  O11  1  0.739812  0.258191  0.518379  1
  O  O12  1  0.292453  0.259904  0.532550  1
  O  O13  1  0.727354  0.259904  0.967450  1
