# generated using pymatgen
data_Li2MnSiO4
_symmetry_space_group_name_H-M   'P 1'
_cell_length_a   5.07452669
_cell_length_b   6.36049516
_cell_length_c   11.05764604
_cell_angle_alpha   90.00000000
_cell_angle_beta   90.00000000
_cell_angle_gamma   90.00000000
_symmetry_Int_Tables_number   1
_chemical_formula_structural   Li2MnSiO4
_chemical_formula_sum   'Li8 Mn4 Si4 O16'
_cell_volume   356.90213952
_cell_formula_units_Z   4
loop_
 _symmetry_equiv_pos_site_id
 _symmetry_equiv_pos_as_xyz
  1  'x, y, z'
loop_
 _atom_site_type_symbol
 _atom_site_label
 _atom_site_symmetry_multiplicity
 _atom_site_fract_x
 _atom_site_fract_y
 _atom_site_fract_z
 _atom_site_occupancy
  Li  Li0  1  0.705524  0.870277  0.595029  1
  Li  Li1  1  0.196294  0.117095  0.673676  1
  Li  Li2  1  0.696294  0.617095  0.826324  1
  Li  Li3  1  0.205524  0.370277  0.904971  1
  Li  Li4  1  0.794476  0.870277  0.095029  1
  Li  Li5  1  0.303706  0.117095  0.173676  1
  Li  Li6  1  0.803706  0.617095  0.326324  1
  Li  Li7  1  0.294476  0.370277  0.404971  1
  Mn  Mn8  1  0.700799  0.362648  0.586447  1
  Mn  Mn9  1  0.200799  0.862648  0.913553  1
  Mn  Mn10  1  0.799201  0.362648  0.086447  1
  Mn  Mn11  1  0.299201  0.862648  0.413553  1
  Si  Si12  1  0.190331  0.618209  0.664480  1
  Si  Si13  1  0.690331  0.118209  0.835520  1
  Si  Si14  1  0.309669  0.618209  0.164480  1
  Si  Si15  1  0.809669  0.118209  0.335520  1
  O  O16  1  0.301867  0.834611  0.598769  1
  O  O17  1  0.284026  0.403802  0.590060  1
  O  O18  1  0.864673  0.624719  0.665191  1
  O  O19  1  0.803207  0.110751  0.695021  1
  O  O20  1  0.303207  0.610751  0.804979  1
  O  O21  1  0.364673  0.124719  0.834809  1
  O  O22  1  0.784026  0.903802  0.909940  1
  O  O23  1  0.801867  0.334611  0.901231  1
  O  O24  1  0.198133  0.834611  0.098769  1
  O  O25  1  0.215974  0.403802  0.090060  1
  O  O26  1  0.635327  0.624719  0.165191  1
  O  O27  1  0.696793  0.110751  0.195021  1
  O  O28  1  0.196793  0.610751  0.304979  1
  O  O29  1  0.135327  0.124719  0.334809  1
  O  O30  1  0.715974  0.903802  0.409940  1
  O  O31  1  0.698133  0.334611  0.401231  1
