# generated using pymatgen
data_KH3(SeO3)2
_symmetry_space_group_name_H-M   'P 1'
_cell_length_a   6.40290174
_cell_length_b   6.47790401
_cell_length_c   16.25214093
_cell_angle_alpha   90.00000000
_cell_angle_beta   90.00000000
_cell_angle_gamma   90.00000000
_symmetry_Int_Tables_number   1
_chemical_formula_structural   KH3(SeO3)2
_chemical_formula_sum   'K4 H12 Se8 O24'
_cell_volume   674.09627160
_cell_formula_units_Z   4
loop_
 _symmetry_equiv_pos_site_id
 _symmetry_equiv_pos_as_xyz
  1  'x, y, z'
loop_
 _atom_site_type_symbol
 _atom_site_label
 _atom_site_symmetry_multiplicity
 _atom_site_fract_x
 _atom_site_fract_y
 _atom_site_fract_z
 _atom_site_occupancy
  K  K0  1  0.811387  0.750000  0.500000  1
  K  K1  1  0.688613  0.250000  0.000000  1
  K  K2  1  0.188613  0.250000  0.500000  1
  K  K3  1  0.311387  0.750000  0.000000  1
  H  H4  1  0.558463  0.969026  0.171991  1
  H  H5  1  0.941537  0.469026  0.328009  1
  H  H6  1  0.941537  0.030974  0.671991  1
  H  H7  1  0.558463  0.530974  0.828009  1
  H  H8  1  0.441537  0.030974  0.828009  1
  H  H9  1  0.058463  0.530974  0.671991  1
  H  H10  1  0.058463  0.969026  0.328009  1
  H  H11  1  0.441537  0.469026  0.171991  1
  H  H12  1  0.876657  0.750000  0.000000  1
  H  H13  1  0.623343  0.250000  0.500000  1
  H  H14  1  0.123343  0.250000  0.000000  1
  H  H15  1  0.376657  0.750000  0.500000  1
  Se  Se16  1  0.807987  0.709194  0.150201  1
  Se  Se17  1  0.692013  0.209194  0.349799  1
  Se  Se18  1  0.692013  0.290806  0.650201  1
  Se  Se19  1  0.807987  0.790806  0.849799  1
  Se  Se20  1  0.192013  0.290806  0.849799  1
  Se  Se21  1  0.307987  0.790806  0.650201  1
  Se  Se22  1  0.307987  0.709194  0.349799  1
  Se  Se23  1  0.192013  0.209194  0.150201  1
  O  O24  1  0.609092  0.567219  0.111179  1
  O  O25  1  0.890908  0.067219  0.388821  1
  O  O26  1  0.890908  0.432781  0.611179  1
  O  O27  1  0.609092  0.932781  0.888821  1
  O  O28  1  0.390908  0.432781  0.888821  1
  O  O29  1  0.109092  0.932781  0.611179  1
  O  O30  1  0.109092  0.567219  0.388821  1
  O  O31  1  0.390908  0.067219  0.111179  1
  O  O32  1  0.886585  0.850885  0.063445  1
  O  O33  1  0.613415  0.350885  0.436555  1
  O  O34  1  0.613415  0.149115  0.563445  1
  O  O35  1  0.886585  0.649115  0.936555  1
  O  O36  1  0.113415  0.149115  0.936555  1
  O  O37  1  0.386585  0.649115  0.563445  1
  O  O38  1  0.386585  0.850885  0.436555  1
  O  O39  1  0.113415  0.350885  0.063445  1
  O  O40  1  0.678529  0.908591  0.206865  1
  O  O41  1  0.821471  0.408591  0.293135  1
  O  O42  1  0.821471  0.091409  0.706865  1
  O  O43  1  0.678529  0.591409  0.793135  1
  O  O44  1  0.321471  0.091409  0.793135  1
  O  O45  1  0.178529  0.591409  0.706865  1
  O  O46  1  0.178529  0.908591  0.293135  1
  O  O47  1  0.321471  0.408591  0.206865  1
