# generated using pymatgen
data_Li4Ti2Nb3Cr3O16
_symmetry_space_group_name_H-M   'P 1'
_cell_length_a   6.05401807
_cell_length_b   6.05401807
_cell_length_c   9.75156758
_cell_angle_alpha   89.64803164
_cell_angle_beta   90.35196836
_cell_angle_gamma   120.52327316
_symmetry_Int_Tables_number   1
_chemical_formula_structural   Li4Ti2Nb3Cr3O16
_chemical_formula_sum   'Li4 Ti2 Nb3 Cr3 O16'
_cell_volume   307.87003475
_cell_formula_units_Z   1
loop_
 _symmetry_equiv_pos_site_id
 _symmetry_equiv_pos_as_xyz
  1  'x, y, z'
loop_
 _atom_site_type_symbol
 _atom_site_label
 _atom_site_symmetry_multiplicity
 _atom_site_fract_x
 _atom_site_fract_y
 _atom_site_fract_z
 _atom_site_occupancy
  Li  Li0  1  0.667387  0.332613  0.095528  1
  Li  Li1  1  0.009887  0.990113  0.007423  1
  Li  Li2  1  0.006218  0.993782  0.504634  1
  Li  Li3  1  0.334040  0.665960  0.613899  1
  Ti  Ti4  1  0.662804  0.337196  0.511534  1
  Ti  Ti5  1  0.329184  0.670816  0.003735  1
  Nb  Nb6  1  0.832383  0.167617  0.782045  1
  Nb  Nb7  1  0.637395  0.813371  0.286692  1
  Nb  Nb8  1  0.186629  0.362605  0.286692  1
  Cr  Cr9  1  0.830269  0.658399  0.785646  1
  Cr  Cr10  1  0.341601  0.169731  0.785646  1
  Cr  Cr11  1  0.165524  0.834476  0.289016  1
  O  O12  1  0.827025  0.665466  0.403153  1
  O  O13  1  0.523760  0.476240  0.658963  1
  O  O14  1  0.669961  0.330039  0.893696  1
  O  O15  1  0.003163  0.996837  0.688691  1
  O  O16  1  0.001673  0.998327  0.191685  1
  O  O17  1  0.334534  0.172975  0.403153  1
  O  O18  1  0.959918  0.479758  0.659078  1
  O  O19  1  0.520242  0.040082  0.659078  1
  O  O20  1  0.169492  0.830508  0.902377  1
  O  O21  1  0.831410  0.168590  0.408628  1
  O  O22  1  0.480348  0.957536  0.158849  1
  O  O23  1  0.042464  0.519652  0.158849  1
  O  O24  1  0.318515  0.681485  0.413761  1
  O  O25  1  0.669516  0.838810  0.900255  1
  O  O26  1  0.483898  0.516102  0.139192  1
  O  O27  1  0.161190  0.330484  0.900255  1
