# generated using pymatgen
data_LiVNiO4
_symmetry_space_group_name_H-M   'P 1'
_cell_length_a   4.92463670
_cell_length_b   6.03136052
_cell_length_c   10.38384940
_cell_angle_alpha   90.00000000
_cell_angle_beta   90.00000000
_cell_angle_gamma   90.00000000
_symmetry_Int_Tables_number   1
_chemical_formula_structural   LiVNiO4
_chemical_formula_sum   'Li4 V4 Ni4 O16'
_cell_volume   308.42378812
_cell_formula_units_Z   4
loop_
 _symmetry_equiv_pos_site_id
 _symmetry_equiv_pos_as_xyz
  1  'x, y, z'
loop_
 _atom_site_type_symbol
 _atom_site_label
 _atom_site_symmetry_multiplicity
 _atom_site_fract_x
 _atom_site_fract_y
 _atom_site_fract_z
 _atom_site_occupancy
  Li  Li0  1  0.500000  0.500000  0.000000  1
  Li  Li1  1  0.000000  0.500000  0.500000  1
  Li  Li2  1  0.500000  0.000000  0.000000  1
  Li  Li3  1  0.000000  0.000000  0.500000  1
  V  V4  1  0.930497  0.750000  0.904825  1
  V  V5  1  0.569503  0.750000  0.404825  1
  V  V6  1  0.430497  0.250000  0.595175  1
  V  V7  1  0.069503  0.250000  0.095175  1
  Ni  Ni8  1  0.493646  0.750000  0.731126  1
  Ni  Ni9  1  0.006354  0.750000  0.231126  1
  Ni  Ni10  1  0.993646  0.250000  0.768874  1
  Ni  Ni11  1  0.506354  0.250000  0.268874  1
  O  O12  1  0.773254  0.521452  0.830649  1
  O  O13  1  0.726746  0.521452  0.330649  1
  O  O14  1  0.702823  0.750000  0.559684  1
  O  O15  1  0.282678  0.750000  0.903715  1
  O  O16  1  0.217322  0.750000  0.403715  1
  O  O17  1  0.797177  0.750000  0.059684  1
  O  O18  1  0.773254  0.978548  0.830649  1
  O  O19  1  0.726746  0.978548  0.330649  1
  O  O20  1  0.226746  0.021452  0.169351  1
  O  O21  1  0.273254  0.021452  0.669351  1
  O  O22  1  0.297177  0.250000  0.440316  1
  O  O23  1  0.202823  0.250000  0.940316  1
  O  O24  1  0.782678  0.250000  0.596285  1
  O  O25  1  0.717322  0.250000  0.096285  1
  O  O26  1  0.273254  0.478548  0.669351  1
  O  O27  1  0.226746  0.478548  0.169351  1
