# generated using pymatgen
data_Li(FeO2)2
_symmetry_space_group_name_H-M   'P 1'
_cell_length_a   8.31128026
_cell_length_b   8.31305855
_cell_length_c   8.32581076
_cell_angle_alpha   90.00235412
_cell_angle_beta   90.06508032
_cell_angle_gamma   90.15608484
_symmetry_Int_Tables_number   1
_chemical_formula_structural   Li(FeO2)2
_chemical_formula_sum   'Li8 Fe16 O32'
_cell_volume   575.24573839
_cell_formula_units_Z   8
loop_
 _symmetry_equiv_pos_site_id
 _symmetry_equiv_pos_as_xyz
  1  'x, y, z'
loop_
 _atom_site_type_symbol
 _atom_site_label
 _atom_site_symmetry_multiplicity
 _atom_site_fract_x
 _atom_site_fract_y
 _atom_site_fract_z
 _atom_site_occupancy
  Li  Li0  1  0.624737  0.879182  0.874392  1
  Li  Li1  1  0.255094  0.746678  0.751334  1
  Li  Li2  1  0.755306  0.750645  0.251484  1
  Li  Li3  1  0.121075  0.623663  0.123306  1
  Li  Li4  1  0.379319  0.376911  0.626291  1
  Li  Li5  1  0.748255  0.245111  0.748816  1
  Li  Li6  1  0.252272  0.248047  0.249280  1
  Li  Li7  1  0.874880  0.121114  0.374437  1
  Fe  Fe8  1  0.501081  0.002367  0.501722  1
  Fe  Fe9  1  0.877314  0.880206  0.620139  1
  Fe  Fe10  1  0.119353  0.880441  0.378692  1
  Fe  Fe11  1  0.377974  0.874336  0.120968  1
  Fe  Fe12  1  0.876047  0.626273  0.881297  1
  Fe  Fe13  1  0.621379  0.622001  0.620341  1
  Fe  Fe14  1  0.374886  0.620053  0.377217  1
  Fe  Fe15  1  0.996171  0.502900  0.497556  1
  Fe  Fe16  1  0.496518  0.498719  0.995228  1
  Fe  Fe17  1  0.120011  0.378114  0.879673  1
  Fe  Fe18  1  0.876499  0.377307  0.122253  1
  Fe  Fe19  1  0.621917  0.377370  0.377359  1
  Fe  Fe20  1  0.122819  0.126864  0.620468  1
  Fe  Fe21  1  0.378971  0.123362  0.879329  1
  Fe  Fe22  1  0.621329  0.124216  0.122944  1
  Fe  Fe23  1  0.997471  0.002270  0.003355  1
  O  O24  1  0.617284  0.904698  0.130360  1
  O  O25  1  0.372958  0.902762  0.886620  1
  O  O26  1  0.107654  0.878137  0.610157  1
  O  O27  1  0.895265  0.874954  0.394340  1
  O  O28  1  0.128022  0.878144  0.144174  1
  O  O29  1  0.362795  0.870465  0.369104  1
  O  O30  1  0.642043  0.860503  0.619455  1
  O  O31  1  0.879584  0.865498  0.861521  1
  O  O32  1  0.382731  0.637284  0.131043  1
  O  O33  1  0.134579  0.640842  0.376794  1
  O  O34  1  0.861380  0.639352  0.629676  1
  O  O35  1  0.633326  0.617015  0.854104  1
  O  O36  1  0.403016  0.626664  0.614564  1
  O  O37  1  0.621329  0.609589  0.390256  1
  O  O38  1  0.870267  0.598107  0.114060  1
  O  O39  1  0.114757  0.596548  0.873554  1
  O  O40  1  0.400958  0.384704  0.375234  1
  O  O41  1  0.631975  0.396537  0.602544  1
  O  O42  1  0.890269  0.377552  0.890659  1
  O  O43  1  0.102201  0.371621  0.105728  1
  O  O44  1  0.860881  0.375944  0.357515  1
  O  O45  1  0.635159  0.363681  0.135543  1
  O  O46  1  0.355004  0.358261  0.878069  1
  O  O47  1  0.115214  0.365630  0.635521  1
  O  O48  1  0.622900  0.143654  0.361530  1
  O  O49  1  0.856639  0.141525  0.121964  1
  O  O50  1  0.135459  0.137169  0.870681  1
  O  O51  1  0.370428  0.123910  0.646533  1
  O  O52  1  0.603436  0.131574  0.897771  1
  O  O53  1  0.391899  0.121938  0.110332  1
  O  O54  1  0.126566  0.100786  0.386840  1
  O  O55  1  0.883265  0.096803  0.625948  1
