# generated using pymatgen
data_Na2CdO2
_symmetry_space_group_name_H-M   'P 1'
_cell_length_a   9.39789417
_cell_length_b   9.39789417
_cell_length_c   10.85919846
_cell_angle_alpha   54.75075109
_cell_angle_beta   125.24924891
_cell_angle_gamma   109.86453023
_symmetry_Int_Tables_number   1
_chemical_formula_structural   Na2CdO2
_chemical_formula_sum   'Na16 Cd8 O16'
_cell_volume   639.59913128
_cell_formula_units_Z   8
loop_
 _symmetry_equiv_pos_site_id
 _symmetry_equiv_pos_as_xyz
  1  'x, y, z'
loop_
 _atom_site_type_symbol
 _atom_site_label
 _atom_site_symmetry_multiplicity
 _atom_site_fract_x
 _atom_site_fract_y
 _atom_site_fract_z
 _atom_site_occupancy
  Na  Na0  1  0.037997  0.758049  0.527989  1
  Na  Na1  1  0.453645  0.731800  0.741656  1
  Na  Na2  1  0.026922  0.222143  0.298784  1
  Na  Na3  1  0.729390  0.542362  0.481212  1
  Na  Na4  1  0.222143  0.026922  0.701216  1
  Na  Na5  1  0.542362  0.729390  0.518788  1
  Na  Na6  1  0.758049  0.037997  0.472011  1
  Na  Na7  1  0.731800  0.453645  0.258344  1
  Na  Na8  1  0.513093  0.780381  0.018780  1
  Na  Na9  1  0.224931  0.489194  0.526228  1
  Na  Na10  1  0.285045  0.009047  0.295390  1
  Na  Na11  1  0.984063  0.729553  0.776976  1
  Na  Na12  1  0.009047  0.285045  0.704610  1
  Na  Na13  1  0.729553  0.984063  0.223024  1
  Na  Na14  1  0.489194  0.224931  0.473772  1
  Na  Na15  1  0.780381  0.513093  0.981220  1
  Cd  Cd16  1  0.232753  0.954494  0.015415  1
  Cd  Cd17  1  0.268434  0.534506  0.250804  1
  Cd  Cd18  1  0.767765  0.960624  0.786064  1
  Cd  Cd19  1  0.478832  0.276043  0.998956  1
  Cd  Cd20  1  0.276043  0.478832  0.001044  1
  Cd  Cd21  1  0.960624  0.767765  0.213936  1
  Cd  Cd22  1  0.534506  0.268434  0.749197  1
  Cd  Cd23  1  0.954494  0.232753  0.984585  1
  O  O24  1  0.963482  0.540769  0.455462  1
  O  O25  1  0.000570  0.002231  0.238092  1
  O  O26  1  0.729475  0.729475  0.000000  1
  O  O27  1  0.783177  0.783177  0.500000  1
  O  O28  1  0.253805  0.742433  0.790734  1
  O  O29  1  0.241476  0.752506  0.265706  1
  O  O30  1  0.540769  0.963482  0.544538  1
  O  O31  1  0.002231  0.000570  0.761908  1
  O  O32  1  0.457672  0.044935  0.960024  1
  O  O33  1  0.500377  0.485701  0.757777  1
  O  O34  1  0.485701  0.500377  0.242223  1
  O  O35  1  0.752506  0.241476  0.734294  1
  O  O36  1  0.742433  0.253805  0.209266  1
  O  O37  1  0.287891  0.287891  0.500000  1
  O  O38  1  0.222438  0.222438  0.000000  1
  O  O39  1  0.044935  0.457672  0.039976  1
