# generated using pymatgen
data_Li3Fe4(BO3)4
_symmetry_space_group_name_H-M   'P 1'
_cell_length_a   5.25119450
_cell_length_b   9.05982668
_cell_length_c   10.19564154
_cell_angle_alpha   90.14439678
_cell_angle_beta   91.55704166
_cell_angle_gamma   90.38624491
_symmetry_Int_Tables_number   1
_chemical_formula_structural   Li3Fe4(BO3)4
_chemical_formula_sum   'Li6 Fe8 B8 O24'
_cell_volume   484.86486049
_cell_formula_units_Z   2
loop_
 _symmetry_equiv_pos_site_id
 _symmetry_equiv_pos_as_xyz
  1  'x, y, z'
loop_
 _atom_site_type_symbol
 _atom_site_label
 _atom_site_symmetry_multiplicity
 _atom_site_fract_x
 _atom_site_fract_y
 _atom_site_fract_z
 _atom_site_occupancy
  Li  Li0  1  0.665533  0.006509  0.158082  1
  Li  Li1  1  0.337999  0.006521  0.909576  1
  Li  Li2  1  0.839068  0.503253  0.904978  1
  Li  Li3  1  0.155854  0.488562  0.662944  1
  Li  Li4  1  0.158176  0.512254  0.165837  1
  Li  Li5  1  0.351719  0.988955  0.418781  1
  Fe  Fe6  1  0.827222  0.158689  0.873738  1
  Fe  Fe7  1  0.158201  0.153244  0.635118  1
  Fe  Fe8  1  0.668620  0.339084  0.130021  1
  Fe  Fe9  1  0.341811  0.334299  0.382925  1
  Fe  Fe10  1  0.661237  0.673480  0.631006  1
  Fe  Fe11  1  0.844596  0.829544  0.381090  1
  Fe  Fe12  1  0.341588  0.664382  0.885067  1
  Fe  Fe13  1  0.162139  0.841610  0.127996  1
  B  B14  1  0.831014  0.166467  0.376246  1
  B  B15  1  0.664771  0.340726  0.627334  1
  B  B16  1  0.165266  0.170941  0.131355  1
  B  B17  1  0.336897  0.330811  0.876415  1
  B  B18  1  0.666320  0.668780  0.124916  1
  B  B19  1  0.342328  0.668599  0.379138  1
  B  B20  1  0.836194  0.834563  0.877278  1
  B  B21  1  0.175491  0.825623  0.626017  1
  O  O22  1  0.704851  0.034255  0.362835  1
  O  O23  1  0.906605  0.165157  0.099492  1
  O  O24  1  0.312421  0.046320  0.116528  1
  O  O25  1  0.791862  0.215052  0.662626  1
  O  O26  1  0.699916  0.297514  0.349259  1
  O  O27  1  0.218787  0.195768  0.846944  1
  O  O28  1  0.093572  0.171970  0.409825  1
  O  O29  1  0.592316  0.336372  0.916610  1
  O  O30  1  0.786642  0.476098  0.640395  1
  O  O31  1  0.403644  0.336208  0.583445  1
  O  O32  1  0.279548  0.304723  0.174937  1
  O  O33  1  0.812953  0.543375  0.107761  1
  O  O34  1  0.197034  0.459576  0.862737  1
  O  O35  1  0.725394  0.699001  0.835143  1
  O  O36  1  0.582135  0.677923  0.437380  1
  O  O37  1  0.226254  0.532268  0.357323  1
  O  O38  1  0.404753  0.662518  0.094876  1
  O  O39  1  0.918781  0.816859  0.592305  1
  O  O40  1  0.780086  0.800040  0.166456  1
  O  O41  1  0.296556  0.694038  0.667533  1
  O  O42  1  0.220642  0.797465  0.340206  1
  O  O43  1  0.686593  0.956621  0.887502  1
  O  O44  1  0.094582  0.838062  0.912790  1
  O  O45  1  0.306203  0.954702  0.612280  1
