# generated using pymatgen
data_LiMn3(BO3)3
_symmetry_space_group_name_H-M   'P 1'
_cell_length_a   5.40066173
_cell_length_b   8.10310988
_cell_length_c   9.28054045
_cell_angle_alpha   105.09081169
_cell_angle_beta   106.47580587
_cell_angle_gamma   87.58485799
_symmetry_Int_Tables_number   1
_chemical_formula_structural   LiMn3(BO3)3
_chemical_formula_sum   'Li2 Mn6 B6 O18'
_cell_volume   375.80910622
_cell_formula_units_Z   2
loop_
 _symmetry_equiv_pos_site_id
 _symmetry_equiv_pos_as_xyz
  1  'x, y, z'
loop_
 _atom_site_type_symbol
 _atom_site_label
 _atom_site_symmetry_multiplicity
 _atom_site_fract_x
 _atom_site_fract_y
 _atom_site_fract_z
 _atom_site_occupancy
  Li  Li0  1  0.022307  0.615255  0.699750  1
  Li  Li1  1  0.977693  0.384745  0.300250  1
  Mn  Mn2  1  0.161961  0.365455  0.896234  1
  Mn  Mn3  1  0.190164  0.969988  0.779562  1
  Mn  Mn4  1  0.838039  0.634545  0.103766  1
  Mn  Mn5  1  0.809836  0.030012  0.220438  1
  Mn  Mn6  1  0.457487  0.710446  0.542328  1
  Mn  Mn7  1  0.542513  0.289554  0.457672  1
  B  B8  1  0.566356  0.482464  0.777131  1
  B  B9  1  0.755622  0.839264  0.873938  1
  B  B10  1  0.433644  0.517536  0.222869  1
  B  B11  1  0.244378  0.160736  0.126062  1
  B  B12  1  0.899586  0.783080  0.434044  1
  B  B13  1  0.100414  0.216920  0.565956  1
  O  O14  1  0.317650  0.494340  0.786054  1
  O  O15  1  0.044201  0.190952  0.697554  1
  O  O16  1  0.537609  0.860884  0.755165  1
  O  O17  1  0.776392  0.470197  0.900977  1
  O  O18  1  0.991138  0.818053  0.851879  1
  O  O19  1  0.712619  0.828137  0.012942  1
  O  O20  1  0.223608  0.529803  0.099023  1
  O  O21  1  0.287381  0.171863  0.987058  1
  O  O22  1  0.682350  0.505660  0.213946  1
  O  O23  1  0.008862  0.181947  0.148121  1
  O  O24  1  0.370114  0.506894  0.357585  1
  O  O25  1  0.462391  0.139116  0.244835  1
  O  O26  1  0.955799  0.809048  0.302446  1
  O  O27  1  0.662356  0.817427  0.454178  1
  O  O28  1  0.906476  0.262488  0.449271  1
  O  O29  1  0.093524  0.737512  0.550729  1
  O  O30  1  0.629886  0.493106  0.642415  1
  O  O31  1  0.337644  0.182573  0.545822  1
