# generated using pymatgen
data_K2PrPCO7
_symmetry_space_group_name_H-M   'P 1'
_cell_length_a   5.82477138
_cell_length_b   7.39595767
_cell_length_c   10.03574648
_cell_angle_alpha   90.00000000
_cell_angle_beta   93.08139889
_cell_angle_gamma   90.00000000
_symmetry_Int_Tables_number   1
_chemical_formula_structural   K2PrPCO7
_chemical_formula_sum   'K4 Pr2 P2 C2 O14'
_cell_volume   431.71249047
_cell_formula_units_Z   2
loop_
 _symmetry_equiv_pos_site_id
 _symmetry_equiv_pos_as_xyz
  1  'x, y, z'
loop_
 _atom_site_type_symbol
 _atom_site_label
 _atom_site_symmetry_multiplicity
 _atom_site_fract_x
 _atom_site_fract_y
 _atom_site_fract_z
 _atom_site_occupancy
  K  K0  1  0.241577  0.009496  0.219064  1
  K  K1  1  0.241577  0.490504  0.219064  1
  K  K2  1  0.758423  0.509496  0.780936  1
  K  K3  1  0.758423  0.990504  0.780936  1
  Pr  Pr4  1  0.775621  0.750000  0.370901  1
  Pr  Pr5  1  0.224379  0.250000  0.629099  1
  P  P6  1  0.709444  0.250000  0.424724  1
  P  P7  1  0.290556  0.750000  0.575276  1
  C  C8  1  0.730533  0.750000  0.082937  1
  C  C9  1  0.269467  0.250000  0.917063  1
  O  O10  1  0.297395  0.250000  0.041985  1
  O  O11  1  0.934824  0.750000  0.146129  1
  O  O12  1  0.553930  0.750000  0.162043  1
  O  O13  1  0.782926  0.075949  0.351828  1
  O  O14  1  0.782926  0.424051  0.351828  1
  O  O15  1  0.176851  0.750000  0.428960  1
  O  O16  1  0.441810  0.250000  0.434922  1
  O  O17  1  0.558190  0.750000  0.565078  1
  O  O18  1  0.823149  0.250000  0.571040  1
  O  O19  1  0.217074  0.575949  0.648172  1
  O  O20  1  0.217074  0.924051  0.648172  1
  O  O21  1  0.446070  0.250000  0.837957  1
  O  O22  1  0.065176  0.250000  0.853871  1
  O  O23  1  0.702605  0.750000  0.958015  1
