# generated using pymatgen
data_Li2MnCSO7
_symmetry_space_group_name_H-M   'P 1'
_cell_length_a   4.93651621
_cell_length_b   6.49271249
_cell_length_c   9.35344009
_cell_angle_alpha   90.00000000
_cell_angle_beta   97.97592933
_cell_angle_gamma   90.00000000
_symmetry_Int_Tables_number   1
_chemical_formula_structural   Li2MnCSO7
_chemical_formula_sum   'Li4 Mn2 C2 S2 O14'
_cell_volume   296.89062678
_cell_formula_units_Z   2
loop_
 _symmetry_equiv_pos_site_id
 _symmetry_equiv_pos_as_xyz
  1  'x, y, z'
loop_
 _atom_site_type_symbol
 _atom_site_label
 _atom_site_symmetry_multiplicity
 _atom_site_fract_x
 _atom_site_fract_y
 _atom_site_fract_z
 _atom_site_occupancy
  Li  Li0  1  0.792785  0.485430  0.164504  1
  Li  Li1  1  0.792785  0.014570  0.164504  1
  Li  Li2  1  0.207215  0.985430  0.835496  1
  Li  Li3  1  0.207215  0.514570  0.835496  1
  Mn  Mn4  1  0.251620  0.250000  0.362507  1
  Mn  Mn5  1  0.748380  0.750000  0.637493  1
  C  C6  1  0.274994  0.250000  0.075989  1
  C  C7  1  0.725006  0.750000  0.924011  1
  S  S8  1  0.227987  0.750000  0.400725  1
  S  S9  1  0.772013  0.250000  0.599275  1
  O  O10  1  0.693166  0.750000  0.057823  1
  O  O11  1  0.033228  0.250000  0.117384  1
  O  O12  1  0.487781  0.250000  0.178669  1
  O  O13  1  0.125717  0.934279  0.314967  1
  O  O14  1  0.125717  0.565721  0.314967  1
  O  O15  1  0.862578  0.250000  0.454938  1
  O  O16  1  0.534195  0.750000  0.422336  1
  O  O17  1  0.465805  0.250000  0.577664  1
  O  O18  1  0.137422  0.750000  0.545062  1
  O  O19  1  0.874283  0.434279  0.685033  1
  O  O20  1  0.874283  0.065721  0.685033  1
  O  O21  1  0.512219  0.750000  0.821331  1
  O  O22  1  0.966772  0.750000  0.882616  1
  O  O23  1  0.306834  0.250000  0.942177  1
