# generated using pymatgen
data_Li5Fe8(BO3)8
_symmetry_space_group_name_H-M   'P 1'
_cell_length_a   5.28798792
_cell_length_b   9.03423756
_cell_length_c   11.35121435
_cell_angle_alpha   113.27586961
_cell_angle_beta   102.14574126
_cell_angle_gamma   89.84956770
_symmetry_Int_Tables_number   1
_chemical_formula_structural   Li5Fe8(BO3)8
_chemical_formula_sum   'Li5 Fe8 B8 O24'
_cell_volume   485.03425508
_cell_formula_units_Z   1
loop_
 _symmetry_equiv_pos_site_id
 _symmetry_equiv_pos_as_xyz
  1  'x, y, z'
loop_
 _atom_site_type_symbol
 _atom_site_label
 _atom_site_symmetry_multiplicity
 _atom_site_fract_x
 _atom_site_fract_y
 _atom_site_fract_z
 _atom_site_occupancy
  Li  Li0  1  0.832981  0.177714  0.345116  1
  Li  Li1  1  0.638052  0.294642  0.589025  1
  Li  Li2  1  0.385564  0.044060  0.091830  1
  Li  Li3  1  0.890520  0.545026  0.094431  1
  Li  Li4  1  0.574045  0.906950  0.838215  1
  Fe  Fe5  1  0.600945  0.589776  0.872676  1
  Fe  Fe6  1  0.902226  0.888428  0.116556  1
  Fe  Fe7  1  0.152761  0.485610  0.624726  1
  Fe  Fe8  1  0.335753  0.004719  0.364031  1
  Fe  Fe9  1  0.656679  0.977776  0.622323  1
  Fe  Fe10  1  0.844550  0.519887  0.361771  1
  Fe  Fe11  1  0.089976  0.108182  0.873907  1
  Fe  Fe12  1  0.392343  0.400736  0.120473  1
  B  B13  1  0.364362  0.352289  0.374352  1
  B  B14  1  0.103528  0.775298  0.871704  1
  B  B15  1  0.844535  0.855661  0.369756  1
  B  B16  1  0.600633  0.260776  0.874243  1
  B  B17  1  0.145963  0.148799  0.620428  1
  B  B18  1  0.393108  0.729879  0.119845  1
  B  B19  1  0.652943  0.636730  0.618072  1
  B  B20  1  0.900214  0.231214  0.131210  1
  O  O21  1  0.865472  0.785151  0.907945  1
  O  O22  1  0.532723  0.520489  0.646946  1
  O  O23  1  0.763267  0.110539  0.142224  1
  O  O24  1  0.493017  0.227850  0.389952  1
  O  O25  1  0.118197  0.381803  0.407711  1
  O  O26  1  0.198964  0.624002  0.812415  1
  O  O27  1  0.738166  0.390962  0.879021  1
  O  O28  1  0.945455  0.963984  0.327895  1
  O  O29  1  0.304368  0.885553  0.159938  1
  O  O30  1  0.387937  0.122204  0.589373  1
  O  O31  1  0.019849  0.279769  0.608643  1
  O  O32  1  0.628800  0.708592  0.079887  1
  O  O33  1  0.382165  0.275214  0.924189  1
  O  O34  1  0.638805  0.898933  0.431604  1
  O  O35  1  0.688121  0.103750  0.821349  1
  O  O36  1  0.027846  0.045880  0.659505  1
  O  O37  1  0.249138  0.604214  0.118126  1
  O  O38  1  0.806270  0.386669  0.166053  1
  O  O39  1  0.869700  0.592469  0.562544  1
  O  O40  1  0.569708  0.785389  0.646378  1
  O  O41  1  0.943728  0.710291  0.350504  1
  O  O42  1  0.252068  0.912101  0.893735  1
  O  O43  1  0.474144  0.457537  0.332884  1
  O  O44  1  0.131512  0.209093  0.090920  1
