# generated using pymatgen
data_Na5(WO3)7
_symmetry_space_group_name_H-M   'P 1'
_cell_length_a   11.81108586
_cell_length_b   11.81108586
_cell_length_c   6.79838363
_cell_angle_alpha   79.01484411
_cell_angle_beta   100.98515589
_cell_angle_gamma   152.35081917
_symmetry_Int_Tables_number   1
_chemical_formula_structural   Na5(WO3)7
_chemical_formula_sum   'Na5 W7 O21'
_cell_volume   431.54753662
_cell_formula_units_Z   1
loop_
 _symmetry_equiv_pos_site_id
 _symmetry_equiv_pos_as_xyz
  1  'x, y, z'
loop_
 _atom_site_type_symbol
 _atom_site_label
 _atom_site_symmetry_multiplicity
 _atom_site_fract_x
 _atom_site_fract_y
 _atom_site_fract_z
 _atom_site_occupancy
  Na  Na0  1  0.714638  0.285362  0.145591  1
  Na  Na1  1  0.427730  0.572270  0.286420  1
  Na  Na2  1  0.000000  0.000000  0.000000  1
  Na  Na3  1  0.285362  0.714638  0.854409  1
  Na  Na4  1  0.572270  0.427730  0.713580  1
  W  W5  1  0.855920  0.144080  0.072402  1
  W  W6  1  0.285661  0.714339  0.360596  1
  W  W7  1  0.714339  0.285661  0.639404  1
  W  W8  1  1.000000  0.000000  0.500000  1
  W  W9  1  0.427333  0.572667  0.784614  1
  W  W10  1  0.572667  0.427333  0.215386  1
  W  W11  1  0.144080  0.855920  0.927598  1
  O  O12  1  0.076269  0.435285  0.214006  1
  O  O13  1  0.923731  0.564715  0.785994  1
  O  O14  1  0.787093  0.212907  0.864552  1
  O  O15  1  0.212907  0.787093  0.135448  1
  O  O16  1  0.000000  0.500000  0.500000  1
  O  O17  1  0.435285  0.076269  0.785994  1
  O  O18  1  0.564715  0.923731  0.214006  1
  O  O19  1  0.929307  0.070693  0.283491  1
  O  O20  1  0.776764  0.707301  0.353666  1
  O  O21  1  0.500000  1.000000  0.500000  1
  O  O22  1  0.635623  0.845792  0.933210  1
  O  O23  1  0.707301  0.776764  0.646334  1
  O  O24  1  0.292699  0.223236  0.353666  1
  O  O25  1  0.070693  0.929307  0.716509  1
  O  O26  1  0.641213  0.358787  0.421449  1
  O  O27  1  0.500000  0.500000  0.000000  1
  O  O28  1  0.154208  0.364377  0.933210  1
  O  O29  1  0.845792  0.635623  0.066790  1
  O  O30  1  0.358787  0.641213  0.578551  1
  O  O31  1  0.223236  0.292699  0.646334  1
  O  O32  1  0.364377  0.154208  0.066790  1
