# generated using pymatgen
data_TiWO4
_symmetry_space_group_name_H-M   'P 1'
_cell_length_a   4.71396571
_cell_length_b   3.12368143
_cell_length_c   14.94898509
_cell_angle_alpha   90.00000000
_cell_angle_beta   108.42776357
_cell_angle_gamma   90.00000000
_symmetry_Int_Tables_number   1
_chemical_formula_structural   TiWO4
_chemical_formula_sum   'Ti3 W3 O12'
_cell_volume   208.83547251
_cell_formula_units_Z   3
loop_
 _symmetry_equiv_pos_site_id
 _symmetry_equiv_pos_as_xyz
  1  'x, y, z'
loop_
 _atom_site_type_symbol
 _atom_site_label
 _atom_site_symmetry_multiplicity
 _atom_site_fract_x
 _atom_site_fract_y
 _atom_site_fract_z
 _atom_site_occupancy
  Ti  Ti0  1  0.656592  0.000000  0.658927  1
  Ti  Ti1  1  0.343408  0.000000  0.341073  1
  Ti  Ti2  1  0.000000  0.500000  0.500000  1
  W  W3  1  0.000000  0.000000  0.000000  1
  W  W4  1  0.325586  0.500000  0.825415  1
  W  W5  1  0.674414  0.500000  0.174585  1
  O  O6  1  0.408942  0.500000  0.596734  1
  O  O7  1  0.723783  0.500000  0.931539  1
  O  O8  1  0.083599  0.500000  0.276099  1
  O  O9  1  0.123312  0.000000  0.436389  1
  O  O10  1  0.809738  0.000000  0.104885  1
  O  O11  1  0.468825  0.000000  0.758041  1
  O  O12  1  0.876688  0.000000  0.563611  1
  O  O13  1  0.190262  0.000000  0.895115  1
  O  O14  1  0.531175  0.000000  0.241959  1
  O  O15  1  0.591058  0.500000  0.403266  1
  O  O16  1  0.916401  0.500000  0.723901  1
  O  O17  1  0.276217  0.500000  0.068461  1
