# generated using pymatgen
data_LiMnF3
_symmetry_space_group_name_H-M   'P 1'
_cell_length_a   7.13482546
_cell_length_b   7.13482546
_cell_length_c   6.17613110
_cell_angle_alpha   65.94312177
_cell_angle_beta   114.05687823
_cell_angle_gamma   113.43638982
_symmetry_Int_Tables_number   1
_chemical_formula_structural   LiMnF3
_chemical_formula_sum   'Li4 Mn4 F12'
_cell_volume   251.84409387
_cell_formula_units_Z   4
loop_
 _symmetry_equiv_pos_site_id
 _symmetry_equiv_pos_as_xyz
  1  'x, y, z'
loop_
 _atom_site_type_symbol
 _atom_site_label
 _atom_site_symmetry_multiplicity
 _atom_site_fract_x
 _atom_site_fract_y
 _atom_site_fract_z
 _atom_site_occupancy
  Li  Li0  1  0.761527  0.805023  0.792190  1
  Li  Li1  1  0.241255  0.200673  0.777762  1
  Li  Li2  1  0.194977  0.238473  0.292190  1
  Li  Li3  1  0.799327  0.758745  0.277762  1
  Mn  Mn4  1  0.687546  0.196779  0.362680  1
  Mn  Mn5  1  0.803221  0.312454  0.862680  1
  Mn  Mn6  1  0.211103  0.680248  0.177455  1
  Mn  Mn7  1  0.319752  0.788897  0.677455  1
  F  F8  1  0.884331  0.109468  0.744705  1
  F  F9  1  0.890532  0.115669  0.244705  1
  F  F10  1  0.869260  0.570611  0.998872  1
  F  F11  1  0.525238  0.233856  0.985606  1
  F  F12  1  0.429389  0.130740  0.498872  1
  F  F13  1  0.766144  0.474762  0.485606  1
  F  F14  1  0.226996  0.415421  0.478358  1
  F  F15  1  0.534232  0.822782  0.465186  1
  F  F16  1  0.584579  0.773004  0.978358  1
  F  F17  1  0.177218  0.465768  0.965186  1
  F  F18  1  0.182944  0.903571  0.828187  1
  F  F19  1  0.096429  0.817056  0.328187  1
