# generated using pymatgen
data_Ti2V(PO4)3
_symmetry_space_group_name_H-M   'P 1'
_cell_length_a   8.58437278
_cell_length_b   8.58437278
_cell_length_c   8.58437278
_cell_angle_alpha   60.90824843
_cell_angle_beta   60.90824843
_cell_angle_gamma   60.90824843
_symmetry_Int_Tables_number   1
_chemical_formula_structural   Ti2V(PO4)3
_chemical_formula_sum   'Ti4 V2 P6 O24'
_cell_volume   456.46902385
_cell_formula_units_Z   2
loop_
 _symmetry_equiv_pos_site_id
 _symmetry_equiv_pos_as_xyz
  1  'x, y, z'
loop_
 _atom_site_type_symbol
 _atom_site_label
 _atom_site_symmetry_multiplicity
 _atom_site_fract_x
 _atom_site_fract_y
 _atom_site_fract_z
 _atom_site_occupancy
  Ti  Ti0  1  0.643625  0.643625  0.643625  1
  Ti  Ti1  1  0.143625  0.143625  0.143625  1
  Ti  Ti2  1  0.856375  0.856375  0.856375  1
  Ti  Ti3  1  0.356375  0.356375  0.356375  1
  V  V4  1  0.000000  0.000000  0.000000  1
  V  V5  1  0.500000  0.500000  0.500000  1
  P  P6  1  0.542644  0.957356  0.250000  1
  P  P7  1  0.250000  0.542644  0.957356  1
  P  P8  1  0.957356  0.250000  0.542644  1
  P  P9  1  0.042644  0.750000  0.457356  1
  P  P10  1  0.750000  0.457356  0.042644  1
  P  P11  1  0.457356  0.042644  0.750000  1
  O  O12  1  0.317368  0.499204  0.114587  1
  O  O13  1  0.114587  0.317368  0.499204  1
  O  O14  1  0.499204  0.114587  0.317368  1
  O  O15  1  0.737393  0.942998  0.090130  1
  O  O16  1  0.385413  0.000796  0.182632  1
  O  O17  1  0.557002  0.762608  0.409870  1
  O  O18  1  0.090130  0.737393  0.942998  1
  O  O19  1  0.409870  0.557002  0.762607  1
  O  O20  1  0.999204  0.817368  0.614587  1
  O  O21  1  0.762607  0.409870  0.557002  1
  O  O22  1  0.057002  0.909870  0.262608  1
  O  O23  1  0.817368  0.614587  0.999204  1
  O  O24  1  0.182632  0.385413  0.000796  1
  O  O25  1  0.942998  0.090130  0.737393  1
  O  O26  1  0.237393  0.590130  0.442998  1
  O  O27  1  0.000796  0.182632  0.385413  1
  O  O28  1  0.590130  0.442998  0.237393  1
  O  O29  1  0.909870  0.262607  0.057002  1
  O  O30  1  0.442998  0.237393  0.590130  1
  O  O31  1  0.614587  0.999204  0.817368  1
  O  O32  1  0.262607  0.057002  0.909870  1
  O  O33  1  0.500796  0.885413  0.682632  1
  O  O34  1  0.885413  0.682632  0.500796  1
  O  O35  1  0.682632  0.500796  0.885413  1
