# generated using pymatgen
data_Li4Cr3Ni2Sb3O16
_symmetry_space_group_name_H-M   'P 1'
_cell_length_a   6.08260315
_cell_length_b   6.08260315
_cell_length_c   9.79254720
_cell_angle_alpha   89.38414464
_cell_angle_beta   90.61585536
_cell_angle_gamma   119.74671916
_symmetry_Int_Tables_number   1
_chemical_formula_structural   Li4Cr3Ni2Sb3O16
_chemical_formula_sum   'Li4 Cr3 Ni2 Sb3 O16'
_cell_volume   314.53899963
_cell_formula_units_Z   1
loop_
 _symmetry_equiv_pos_site_id
 _symmetry_equiv_pos_as_xyz
  1  'x, y, z'
loop_
 _atom_site_type_symbol
 _atom_site_label
 _atom_site_symmetry_multiplicity
 _atom_site_fract_x
 _atom_site_fract_y
 _atom_site_fract_z
 _atom_site_occupancy
  Li  Li0  1  0.329504  0.670496  0.901644  1
  Li  Li1  1  0.989252  0.010748  0.006591  1
  Li  Li2  1  0.986889  0.013111  0.490461  1
  Li  Li3  1  0.664645  0.335355  0.370490  1
  Cr  Cr4  1  0.663122  0.829794  0.215024  1
  Cr  Cr5  1  0.170206  0.336878  0.215024  1
  Cr  Cr6  1  0.831847  0.168153  0.716550  1
  Ni  Ni7  1  0.344753  0.655247  0.473175  1
  Ni  Ni8  1  0.672381  0.327619  0.010870  1
  Sb  Sb9  1  0.170773  0.829227  0.214679  1
  Sb  Sb10  1  0.831953  0.661991  0.715785  1
  Sb  Sb11  1  0.338009  0.168047  0.715785  1
  O  O12  1  0.688012  0.838522  0.606227  1
  O  O13  1  0.484064  0.515936  0.332290  1
  O  O14  1  0.332295  0.667705  0.104680  1
  O  O15  1  0.002851  0.997149  0.311720  1
  O  O16  1  0.000739  0.999261  0.820334  1
  O  O17  1  0.161478  0.311988  0.606227  1
  O  O18  1  0.480598  0.963375  0.336555  1
  O  O19  1  0.036625  0.519402  0.336555  1
  O  O20  1  0.840128  0.159872  0.105822  1
  O  O21  1  0.155414  0.844586  0.603181  1
  O  O22  1  0.967149  0.486466  0.830088  1
  O  O23  1  0.513534  0.032851  0.830088  1
  O  O24  1  0.666426  0.333574  0.602854  1
  O  O25  1  0.847411  0.683481  0.101271  1
  O  O26  1  0.514286  0.485714  0.832605  1
  O  O27  1  0.316519  0.152589  0.101271  1
