# generated using pymatgen
data_Li2TiVO4
_symmetry_space_group_name_H-M   'P 1'
_cell_length_a   5.18157980
_cell_length_b   6.02492062
_cell_length_c   7.92219955
_cell_angle_alpha   78.14479229
_cell_angle_beta   77.37434001
_cell_angle_gamma   73.31864361
_symmetry_Int_Tables_number   1
_chemical_formula_structural   Li2TiVO4
_chemical_formula_sum   'Li6 Ti3 V3 O12'
_cell_volume   228.47341272
_cell_formula_units_Z   3
loop_
 _symmetry_equiv_pos_site_id
 _symmetry_equiv_pos_as_xyz
  1  'x, y, z'
loop_
 _atom_site_type_symbol
 _atom_site_label
 _atom_site_symmetry_multiplicity
 _atom_site_fract_x
 _atom_site_fract_y
 _atom_site_fract_z
 _atom_site_occupancy
  Li  Li0  1  0.499754  0.168357  0.831710  1
  Li  Li1  1  0.993393  0.329780  0.665237  1
  Li  Li2  1  0.500000  0.500000  0.500000  1
  Li  Li3  1  0.006607  0.670220  0.334763  1
  Li  Li4  1  0.500246  0.831643  0.168290  1
  Li  Li5  1  0.000000  0.000000  0.000000  1
  Ti  Ti6  1  0.499913  0.328165  0.171285  1
  Ti  Ti7  1  0.500087  0.671835  0.828715  1
  Ti  Ti8  1  0.500000  0.000000  0.500000  1
  V  V9  1  0.000292  0.170745  0.329629  1
  V  V10  1  0.999708  0.829255  0.670371  1
  V  V11  1  0.000000  0.500000  0.000000  1
  O  O12  1  0.259040  0.186584  0.083527  1
  O  O13  1  0.735624  0.011838  0.252145  1
  O  O14  1  0.739366  0.152088  0.576183  1
  O  O15  1  0.264824  0.327282  0.409969  1
  O  O16  1  0.264835  0.652082  0.075948  1
  O  O17  1  0.740616  0.492591  0.236515  1
  O  O18  1  0.259384  0.507409  0.763485  1
  O  O19  1  0.735165  0.347918  0.924052  1
  O  O20  1  0.735176  0.672718  0.590031  1
  O  O21  1  0.260634  0.847912  0.423817  1
  O  O22  1  0.264376  0.988162  0.747855  1
  O  O23  1  0.740960  0.813416  0.916473  1
