# generated using pymatgen
data_LaAgO3
_symmetry_space_group_name_H-M   'P 1'
_cell_length_a   5.73108100
_cell_length_b   5.73108100
_cell_length_c   5.73108100
_cell_angle_alpha   62.31957710
_cell_angle_beta   62.31957710
_cell_angle_gamma   62.31957710
_symmetry_Int_Tables_number   1
_chemical_formula_structural   LaAgO3
_chemical_formula_sum   'La2 Ag2 O6'
_cell_volume   139.99485976
_cell_formula_units_Z   2
loop_
 _symmetry_equiv_pos_site_id
 _symmetry_equiv_pos_as_xyz
  1  'x, y, z'
loop_
 _atom_site_type_symbol
 _atom_site_label
 _atom_site_symmetry_multiplicity
 _atom_site_fract_x
 _atom_site_fract_y
 _atom_site_fract_z
 _atom_site_occupancy
  La  La0  1  0.742067  0.742067  0.742067  1
  La  La1  1  0.242067  0.242067  0.242067  1
  Ag  Ag2  1  0.002219  0.002219  0.002219  1
  Ag  Ag3  1  0.502219  0.502219  0.502219  1
  O  O4  1  0.768965  0.150424  0.354606  1
  O  O5  1  0.650424  0.268965  0.854606  1
  O  O6  1  0.854606  0.650424  0.268965  1
  O  O7  1  0.150424  0.354606  0.768965  1
  O  O8  1  0.354606  0.768965  0.150424  1
  O  O9  1  0.268965  0.854606  0.650424  1
