# generated using pymatgen
data_VZn2O4
_symmetry_space_group_name_H-M   'P 1'
_cell_length_a   6.04895723
_cell_length_b   6.04895723
_cell_length_c   6.04895723
_cell_angle_alpha   120.75379906
_cell_angle_beta   119.85841396
_cell_angle_gamma   89.47238595
_symmetry_Int_Tables_number   1
_chemical_formula_structural   VZn2O4
_chemical_formula_sum   'V2 Zn4 O8'
_cell_volume   155.76109894
_cell_formula_units_Z   2
loop_
 _symmetry_equiv_pos_site_id
 _symmetry_equiv_pos_as_xyz
  1  'x, y, z'
loop_
 _atom_site_type_symbol
 _atom_site_label
 _atom_site_symmetry_multiplicity
 _atom_site_fract_x
 _atom_site_fract_y
 _atom_site_fract_z
 _atom_site_occupancy
  V  V0  1  0.500000  0.500000  0.500000  1
  V  V1  1  0.000000  0.500000  0.000000  1
  Zn  Zn2  1  0.114819  0.864819  0.750000  1
  Zn  Zn3  1  0.885181  0.135181  0.250000  1
  Zn  Zn4  1  0.500000  1.000000  0.500000  1
  Zn  Zn5  1  0.500000  0.500000  0.000000  1
  O  O6  1  0.288479  0.277625  0.510853  1
  O  O7  1  0.753253  0.279649  0.526396  1
  O  O8  1  0.766772  0.277625  0.989147  1
  O  O9  1  0.246747  0.273143  0.026396  1
  O  O10  1  0.753253  0.726857  0.973604  1
  O  O11  1  0.233228  0.722375  0.010853  1
  O  O12  1  0.246747  0.720351  0.473604  1
  O  O13  1  0.711521  0.722375  0.489147  1
