# generated using pymatgen
data_NaLi2NiPCO7
_symmetry_space_group_name_H-M   'P 1'
_cell_length_a   5.04504878
_cell_length_b   6.53520024
_cell_length_c   8.48418403
_cell_angle_alpha   90.00000000
_cell_angle_beta   94.39212749
_cell_angle_gamma   90.00000000
_symmetry_Int_Tables_number   1
_chemical_formula_structural   NaLi2NiPCO7
_chemical_formula_sum   'Na2 Li4 Ni2 P2 C2 O14'
_cell_volume   278.90549611
_cell_formula_units_Z   2
loop_
 _symmetry_equiv_pos_site_id
 _symmetry_equiv_pos_as_xyz
  1  'x, y, z'
loop_
 _atom_site_type_symbol
 _atom_site_label
 _atom_site_symmetry_multiplicity
 _atom_site_fract_x
 _atom_site_fract_y
 _atom_site_fract_z
 _atom_site_occupancy
  Na  Na0  1  0.261314  0.025895  0.731028  1
  Na  Na1  1  0.738686  0.525895  0.268972  1
  Li  Li2  1  0.768770  0.273504  0.891673  1
  Li  Li3  1  0.224792  0.532940  0.759555  1
  Li  Li4  1  0.775208  0.032940  0.240445  1
  Li  Li5  1  0.231230  0.773504  0.108327  1
  Ni  Ni6  1  0.782713  0.748389  0.659442  1
  Ni  Ni7  1  0.217287  0.248389  0.340558  1
  P  P8  1  0.724482  0.250393  0.584499  1
  P  P9  1  0.275518  0.750393  0.415501  1
  C  C10  1  0.706700  0.761838  0.954023  1
  C  C11  1  0.293300  0.261838  0.045977  1
  O  O12  1  0.362700  0.295023  0.905036  1
  O  O13  1  0.954803  0.745820  0.923383  1
  O  O14  1  0.524266  0.745119  0.837368  1
  O  O15  1  0.797418  0.064773  0.695021  1
  O  O16  1  0.827188  0.435171  0.688612  1
  O  O17  1  0.149654  0.740718  0.575346  1
  O  O18  1  0.418926  0.261758  0.552624  1
  O  O19  1  0.581074  0.761758  0.447376  1
  O  O20  1  0.850346  0.240718  0.424654  1
  O  O21  1  0.172812  0.935171  0.311388  1
  O  O22  1  0.202582  0.564773  0.304979  1
  O  O23  1  0.475734  0.245119  0.162632  1
  O  O24  1  0.045197  0.245820  0.076617  1
  O  O25  1  0.637300  0.795023  0.094964  1
