# generated using pymatgen
data_Ti3CoSn2(PO4)6
_symmetry_space_group_name_H-M   'P 1'
_cell_length_a   9.05123860
_cell_length_b   9.05123860
_cell_length_c   9.05123860
_cell_angle_alpha   57.14564646
_cell_angle_beta   57.14564646
_cell_angle_gamma   57.14564646
_symmetry_Int_Tables_number   1
_chemical_formula_structural   Ti3CoSn2(PO4)6
_chemical_formula_sum   'Ti3 Co1 Sn2 P6 O24'
_cell_volume   489.85121532
_cell_formula_units_Z   1
loop_
 _symmetry_equiv_pos_site_id
 _symmetry_equiv_pos_as_xyz
  1  'x, y, z'
loop_
 _atom_site_type_symbol
 _atom_site_label
 _atom_site_symmetry_multiplicity
 _atom_site_fract_x
 _atom_site_fract_y
 _atom_site_fract_z
 _atom_site_occupancy
  Ti  Ti0  1  0.647898  0.647898  0.647898  1
  Ti  Ti1  1  0.855350  0.855350  0.855350  1
  Ti  Ti2  1  0.348516  0.348516  0.348516  1
  Co  Co3  1  0.150041  0.150041  0.150041  1
  Sn  Sn4  1  0.012436  0.012436  0.012436  1
  Sn  Sn5  1  0.497441  0.497441  0.497441  1
  P  P6  1  0.249110  0.537274  0.958438  1
  P  P7  1  0.958438  0.249110  0.537274  1
  P  P8  1  0.537274  0.958438  0.249110  1
  P  P9  1  0.465951  0.037728  0.746711  1
  P  P10  1  0.037728  0.746711  0.465951  1
  P  P11  1  0.746711  0.465951  0.037728  1
  O  O12  1  0.129229  0.284131  0.502316  1
  O  O13  1  0.502316  0.129229  0.284131  1
  O  O14  1  0.284131  0.502316  0.129229  1
  O  O15  1  0.075572  0.721065  0.935733  1
  O  O16  1  0.222291  0.375554  0.979358  1
  O  O17  1  0.422017  0.574285  0.777739  1
  O  O18  1  0.935733  0.075572  0.721065  1
  O  O19  1  0.777739  0.422017  0.574285  1
  O  O20  1  0.629354  0.003093  0.787549  1
  O  O21  1  0.574285  0.777739  0.422017  1
  O  O22  1  0.281386  0.056560  0.916780  1
  O  O23  1  0.003093  0.787549  0.629354  1
  O  O24  1  0.979358  0.222291  0.375554  1
  O  O25  1  0.721065  0.935733  0.075572  1
  O  O26  1  0.443799  0.221871  0.571616  1
  O  O27  1  0.375554  0.979358  0.222291  1
  O  O28  1  0.221871  0.571616  0.443799  1
  O  O29  1  0.056560  0.916780  0.281386  1
  O  O30  1  0.571616  0.443799  0.221871  1
  O  O31  1  0.787549  0.629354  0.003093  1
  O  O32  1  0.916780  0.281386  0.056560  1
  O  O33  1  0.699873  0.506393  0.875567  1
  O  O34  1  0.506393  0.875567  0.699873  1
  O  O35  1  0.875567  0.699873  0.506393  1
