# generated using pymatgen
data_Li3FeF5
_symmetry_space_group_name_H-M   'P 1'
_cell_length_a   5.75838972
_cell_length_b   5.75838972
_cell_length_c   11.06589371
_cell_angle_alpha   90.00000000
_cell_angle_beta   90.00000000
_cell_angle_gamma   90.00000000
_symmetry_Int_Tables_number   1
_chemical_formula_structural   Li3FeF5
_chemical_formula_sum   'Li12 Fe4 F20'
_cell_volume   366.93454681
_cell_formula_units_Z   4
loop_
 _symmetry_equiv_pos_site_id
 _symmetry_equiv_pos_as_xyz
  1  'x, y, z'
loop_
 _atom_site_type_symbol
 _atom_site_label
 _atom_site_symmetry_multiplicity
 _atom_site_fract_x
 _atom_site_fract_y
 _atom_site_fract_z
 _atom_site_occupancy
  Li  Li0  1  0.014857  0.168564  0.321286  1
  Li  Li1  1  0.085621  0.324863  0.846469  1
  Li  Li2  1  0.211050  0.442373  0.611636  1
  Li  Li3  1  0.168564  0.985143  0.071286  1
  Li  Li4  1  0.324863  0.914379  0.596469  1
  Li  Li5  1  0.442373  0.788950  0.361636  1
  Li  Li6  1  0.557627  0.211050  0.861636  1
  Li  Li7  1  0.675137  0.085621  0.096469  1
  Li  Li8  1  0.831436  0.014857  0.571286  1
  Li  Li9  1  0.788950  0.557627  0.111636  1
  Li  Li10  1  0.914379  0.675137  0.346469  1
  Li  Li11  1  0.985143  0.831436  0.821286  1
  Fe  Fe12  1  0.287445  0.491266  0.143601  1
  Fe  Fe13  1  0.491266  0.712555  0.893601  1
  Fe  Fe14  1  0.508734  0.287445  0.393601  1
  Fe  Fe15  1  0.712555  0.508734  0.643601  1
  F  F16  1  0.973632  0.255039  0.143394  1
  F  F17  1  0.013173  0.774189  0.176718  1
  F  F18  1  0.157724  0.577631  0.968894  1
  F  F19  1  0.225811  0.013173  0.426718  1
  F  F20  1  0.200981  0.483953  0.329795  1
  F  F21  1  0.255039  0.026368  0.893394  1
  F  F22  1  0.422369  0.157724  0.218894  1
  F  F23  1  0.373966  0.442337  0.769648  1
  F  F24  1  0.557663  0.373966  0.019648  1
  F  F25  1  0.483953  0.799019  0.079795  1
  F  F26  1  0.516047  0.200981  0.579795  1
  F  F27  1  0.442337  0.626034  0.519648  1
  F  F28  1  0.626034  0.557663  0.269648  1
  F  F29  1  0.577631  0.842276  0.718894  1
  F  F30  1  0.744961  0.973632  0.393394  1
  F  F31  1  0.799019  0.516047  0.829795  1
  F  F32  1  0.774189  0.986827  0.926718  1
  F  F33  1  0.842276  0.422369  0.468894  1
  F  F34  1  0.986827  0.225811  0.676718  1
  F  F35  1  0.026368  0.744961  0.643394  1
