# generated using pymatgen
data_Li5Fe8(BO3)8
_symmetry_space_group_name_H-M   'P 1'
_cell_length_a   5.24921649
_cell_length_b   9.12148373
_cell_length_c   10.11828468
_cell_angle_alpha   88.84817713
_cell_angle_beta   88.57212029
_cell_angle_gamma   89.67217646
_symmetry_Int_Tables_number   1
_chemical_formula_structural   Li5Fe8(BO3)8
_chemical_formula_sum   'Li5 Fe8 B8 O24'
_cell_volume   484.21507075
_cell_formula_units_Z   1
loop_
 _symmetry_equiv_pos_site_id
 _symmetry_equiv_pos_as_xyz
  1  'x, y, z'
loop_
 _atom_site_type_symbol
 _atom_site_label
 _atom_site_symmetry_multiplicity
 _atom_site_fract_x
 _atom_site_fract_y
 _atom_site_fract_z
 _atom_site_occupancy
  Li  Li0  1  0.150637  0.173467  0.656683  1
  Li  Li1  1  0.329111  0.330754  0.404668  1
  Li  Li2  1  0.336910  0.320812  0.918300  1
  Li  Li3  1  0.659948  0.673711  0.659760  1
  Li  Li4  1  0.834502  0.831573  0.385901  1
  Fe  Fe5  1  0.162847  0.832397  0.633250  1
  Fe  Fe6  1  0.166574  0.503849  0.133633  1
  Fe  Fe7  1  0.315387  0.989602  0.883227  1
  Fe  Fe8  1  0.352790  0.661232  0.374555  1
  Fe  Fe9  1  0.663282  0.343660  0.632233  1
  Fe  Fe10  1  0.667463  0.001932  0.123629  1
  Fe  Fe11  1  0.843551  0.160641  0.374027  1
  Fe  Fe12  1  0.823052  0.510181  0.887726  1
  B  B13  1  0.161265  0.503211  0.624522  1
  B  B14  1  0.166021  0.832424  0.134646  1
  B  B15  1  0.335585  0.998834  0.384845  1
  B  B16  1  0.324780  0.662120  0.869530  1
  B  B17  1  0.666640  0.998130  0.625716  1
  B  B18  1  0.666692  0.332010  0.129138  1
  B  B19  1  0.836573  0.497593  0.378655  1
  B  B20  1  0.825985  0.172265  0.878012  1
  O  O21  1  0.096757  0.484576  0.337910  1
  O  O22  1  0.089244  0.168646  0.859356  1
  O  O23  1  0.178019  0.783200  0.826002  1
  O  O24  1  0.208133  0.869642  0.428175  1
  O  O25  1  0.216740  0.131628  0.390089  1
  O  O26  1  0.202596  0.539567  0.928021  1
  O  O27  1  0.283052  0.369645  0.613061  1
  O  O28  1  0.321038  0.945148  0.086694  1
  O  O29  1  0.294827  0.633417  0.592282  1
  O  O30  1  0.278474  0.699423  0.170184  1
  O  O31  1  0.407080  0.346466  0.119274  1
  O  O32  1  0.404315  0.996762  0.660676  1
  O  O33  1  0.588166  0.985255  0.338412  1
  O  O34  1  0.579650  0.665613  0.849476  1
  O  O35  1  0.688986  0.299476  0.844922  1
  O  O36  1  0.702821  0.370296  0.412457  1
  O  O37  1  0.725497  0.632736  0.387702  1
  O  O38  1  0.691841  0.051487  0.927975  1
  O  O39  1  0.822522  0.449734  0.094749  1
  O  O40  1  0.797612  0.866134  0.615804  1
  O  O41  1  0.788697  0.128854  0.597329  1
  O  O42  1  0.773789  0.198958  0.167936  1
  O  O43  1  0.909811  0.851826  0.150359  1
  O  O44  1  0.908395  0.512639  0.664071  1
