# generated using pymatgen
data_Zn2Fe7O12
_symmetry_space_group_name_H-M   'P 1'
_cell_length_a   13.55155614
_cell_length_b   13.55155614
_cell_length_c   13.55155614
_cell_angle_alpha   154.14899857
_cell_angle_beta   154.14899857
_cell_angle_gamma   36.88307424
_symmetry_Int_Tables_number   1
_chemical_formula_structural   Zn2Fe7O12
_chemical_formula_sum   'Zn4 Fe14 O24'
_cell_volume   472.49985523
_cell_formula_units_Z   2
loop_
 _symmetry_equiv_pos_site_id
 _symmetry_equiv_pos_as_xyz
  1  'x, y, z'
loop_
 _atom_site_type_symbol
 _atom_site_label
 _atom_site_symmetry_multiplicity
 _atom_site_fract_x
 _atom_site_fract_y
 _atom_site_fract_z
 _atom_site_occupancy
  Zn  Zn0  1  0.833563  0.833563  0.000000  1
  Zn  Zn1  1  0.916437  0.416437  0.500000  1
  Zn  Zn2  1  0.583563  0.083563  0.500000  1
  Zn  Zn3  1  0.166437  0.166437  0.000000  1
  Fe  Fe4  1  0.375000  0.625000  0.250000  1
  Fe  Fe5  1  0.375000  0.125000  0.750000  1
  Fe  Fe6  1  0.708253  0.958156  0.750097  1
  Fe  Fe7  1  0.208060  0.958156  0.249903  1
  Fe  Fe8  1  0.500000  0.500000  0.000000  1
  Fe  Fe9  1  0.041844  0.791940  0.750097  1
  Fe  Fe10  1  0.041844  0.291747  0.249903  1
  Fe  Fe11  1  0.875000  0.625000  0.250000  1
  Fe  Fe12  1  0.375000  0.625000  0.750000  1
  Fe  Fe13  1  0.708156  0.958253  0.250097  1
  Fe  Fe14  1  0.708156  0.458060  0.749903  1
  Fe  Fe15  1  0.250000  0.750000  0.500000  1
  Fe  Fe16  1  0.041747  0.291844  0.749903  1
  Fe  Fe17  1  0.541940  0.291844  0.250097  1
  O  O18  1  0.142446  0.371663  0.770783  1
  O  O19  1  0.600880  0.371663  0.229217  1
  O  O20  1  0.149120  0.878337  0.270783  1
  O  O21  1  0.607555  0.878337  0.729217  1
  O  O22  1  0.454128  0.179542  0.725414  1
  O  O23  1  0.454128  0.728715  0.274586  1
  O  O24  1  0.961834  0.732616  0.770783  1
  O  O25  1  0.961834  0.191051  0.229217  1
  O  O26  1  0.267384  0.038166  0.229217  1
  O  O27  1  0.808949  0.038166  0.770783  1
  O  O28  1  0.271285  0.545872  0.725414  1
  O  O29  1  0.820458  0.545872  0.274586  1
  O  O30  1  0.121663  0.392445  0.270783  1
  O  O31  1  0.121663  0.850880  0.729217  1
  O  O32  1  0.628337  0.399120  0.770783  1
  O  O33  1  0.628337  0.857555  0.229217  1
  O  O34  1  0.929542  0.704128  0.225414  1
  O  O35  1  0.478715  0.704128  0.774586  1
  O  O36  1  0.941051  0.211834  0.729217  1
  O  O37  1  0.482616  0.211834  0.270783  1
  O  O38  1  0.788166  0.058949  0.270783  1
  O  O39  1  0.788166  0.517384  0.729217  1
  O  O40  1  0.295872  0.070458  0.774586  1
  O  O41  1  0.295872  0.521285  0.225414  1
