# generated using pymatgen
data_Li4FeO4
_symmetry_space_group_name_H-M   'P 1'
_cell_length_a   5.25575924
_cell_length_b   5.28898322
_cell_length_c   7.23496661
_cell_angle_alpha   106.15150019
_cell_angle_beta   88.76038133
_cell_angle_gamma   109.88940877
_symmetry_Int_Tables_number   1
_chemical_formula_structural   Li4FeO4
_chemical_formula_sum   'Li8 Fe2 O8'
_cell_volume   181.05965345
_cell_formula_units_Z   2
loop_
 _symmetry_equiv_pos_site_id
 _symmetry_equiv_pos_as_xyz
  1  'x, y, z'
loop_
 _atom_site_type_symbol
 _atom_site_label
 _atom_site_symmetry_multiplicity
 _atom_site_fract_x
 _atom_site_fract_y
 _atom_site_fract_z
 _atom_site_occupancy
  Li  Li0  1  0.242828  0.784575  0.687344  1
  Li  Li1  1  0.751466  0.787285  0.515801  1
  Li  Li2  1  0.719855  0.942919  0.933843  1
  Li  Li3  1  0.793323  0.597794  0.142059  1
  Li  Li4  1  0.206677  0.402206  0.857941  1
  Li  Li5  1  0.280145  0.057081  0.066157  1
  Li  Li6  1  0.248534  0.212715  0.484199  1
  Li  Li7  1  0.757172  0.215425  0.312656  1
  Fe  Fe8  1  0.286504  0.594843  0.252464  1
  Fe  Fe9  1  0.713496  0.405157  0.747536  1
  O  O10  1  0.537110  0.845305  0.158788  1
  O  O11  1  0.107069  0.792508  0.414327  1
  O  O12  1  0.009240  0.297903  0.106047  1
  O  O13  1  0.499017  0.410074  0.300885  1
  O  O14  1  0.500983  0.589926  0.699115  1
  O  O15  1  0.990760  0.702097  0.893953  1
  O  O16  1  0.892931  0.207492  0.585673  1
  O  O17  1  0.462890  0.154695  0.841212  1
