# generated using pymatgen
data_Li3Mn2P2(CO7)2
_symmetry_space_group_name_H-M   'P 1'
_cell_length_a   5.03537022
_cell_length_b   6.35970341
_cell_length_c   8.30543398
_cell_angle_alpha   89.73296247
_cell_angle_beta   85.74686768
_cell_angle_gamma   89.91207139
_symmetry_Int_Tables_number   1
_chemical_formula_structural   Li3Mn2P2(CO7)2
_chemical_formula_sum   'Li3 Mn2 P2 C2 O14'
_cell_volume   265.23323030
_cell_formula_units_Z   1
loop_
 _symmetry_equiv_pos_site_id
 _symmetry_equiv_pos_as_xyz
  1  'x, y, z'
loop_
 _atom_site_type_symbol
 _atom_site_label
 _atom_site_symmetry_multiplicity
 _atom_site_fract_x
 _atom_site_fract_y
 _atom_site_fract_z
 _atom_site_occupancy
  Li  Li0  1  0.243516  0.047335  0.273857  1
  Li  Li1  1  0.748140  0.529723  0.730234  1
  Li  Li2  1  0.234017  0.756558  0.902397  1
  Mn  Mn3  1  0.806032  0.746239  0.328445  1
  Mn  Mn4  1  0.204245  0.244290  0.673050  1
  P  P5  1  0.726363  0.250825  0.421618  1
  P  P6  1  0.281163  0.749036  0.579340  1
  C  C7  1  0.709124  0.749831  0.041734  1
  C  C8  1  0.293309  0.250179  0.953254  1
  O  O9  1  0.956343  0.752736  0.071574  1
  O  O10  1  0.343326  0.231852  0.095621  1
  O  O11  1  0.538709  0.767175  0.169754  1
  O  O12  1  0.828101  0.058579  0.323473  1
  O  O13  1  0.795385  0.440462  0.314590  1
  O  O14  1  0.151119  0.764924  0.418525  1
  O  O15  1  0.418429  0.228819  0.464511  1
  O  O16  1  0.581327  0.725617  0.547480  1
  O  O17  1  0.857038  0.265741  0.584992  1
  O  O18  1  0.204651  0.936866  0.694554  1
  O  O19  1  0.170539  0.561795  0.689148  1
  O  O20  1  0.476628  0.267623  0.829878  1
  O  O21  1  0.623892  0.728040  0.903603  1
  O  O22  1  0.053034  0.248125  0.899204  1
