# generated using pymatgen
data_Li4TiCrO6
_symmetry_space_group_name_H-M   'P 1'
_cell_length_a   5.06539600
_cell_length_b   8.76788217
_cell_length_c   9.80324134
_cell_angle_alpha   98.37742905
_cell_angle_beta   94.92118918
_cell_angle_gamma   90.05600761
_symmetry_Int_Tables_number   1
_chemical_formula_structural   Li4TiCrO6
_chemical_formula_sum   'Li16 Ti4 Cr4 O24'
_cell_volume   429.11567479
_cell_formula_units_Z   4
loop_
 _symmetry_equiv_pos_site_id
 _symmetry_equiv_pos_as_xyz
  1  'x, y, z'
loop_
 _atom_site_type_symbol
 _atom_site_label
 _atom_site_symmetry_multiplicity
 _atom_site_fract_x
 _atom_site_fract_y
 _atom_site_fract_z
 _atom_site_occupancy
  Li  Li0  1  0.987654  0.165312  0.500068  1
  Li  Li1  1  0.875015  0.375414  0.749869  1
  Li  Li2  1  0.750771  0.251462  0.998602  1
  Li  Li3  1  0.741981  0.920185  0.999027  1
  Li  Li4  1  0.760659  0.576860  0.998334  1
  Li  Li5  1  0.625034  0.122776  0.249643  1
  Li  Li6  1  0.510534  0.332475  0.499920  1
  Li  Li7  1  0.500174  0.002348  0.498451  1
  Li  Li8  1  0.491500  0.664478  0.498040  1
  Li  Li9  1  0.375308  0.874526  0.749600  1
  Li  Li10  1  0.245930  0.751167  0.000979  1
  Li  Li11  1  0.242943  0.422287  0.001100  1
  Li  Li12  1  0.257036  0.077600  0.000606  1
  Li  Li13  1  0.124582  0.622650  0.250258  1
  Li  Li14  1  0.011108  0.833666  0.502068  1
  Li  Li15  1  0.995024  0.502456  0.501473  1
  Ti  Ti16  1  0.626051  0.793266  0.250257  1
  Ti  Ti17  1  0.379750  0.542668  0.753736  1
  Ti  Ti18  1  0.368887  0.208065  0.746307  1
  Ti  Ti19  1  0.125739  0.293453  0.251068  1
  Cr  Cr20  1  0.881362  0.711179  0.751114  1
  Cr  Cr21  1  0.867670  0.039147  0.749148  1
  Cr  Cr22  1  0.624265  0.456804  0.249016  1
  Cr  Cr23  1  0.124430  0.956900  0.249772  1
  O  O24  1  0.965216  0.103795  0.138612  1
  O  O25  1  0.935578  0.788171  0.138000  1
  O  O26  1  0.931918  0.426772  0.133310  1
  O  O27  1  0.818085  0.965131  0.364330  1
  O  O28  1  0.816255  0.325809  0.364304  1
  O  O29  1  0.785709  0.640642  0.361390  1
  O  O30  1  0.712111  0.862728  0.638626  1
  O  O31  1  0.680901  0.538630  0.638518  1
  O  O32  1  0.673787  0.178739  0.633762  1
  O  O33  1  0.464573  0.604021  0.138205  1
  O  O34  1  0.576149  0.717559  0.862330  1
  O  O35  1  0.580947  0.070778  0.864732  1
  O  O36  1  0.430931  0.926760  0.133092  1
  O  O37  1  0.435309  0.287781  0.137829  1
  O  O38  1  0.535430  0.393740  0.864285  1
  O  O39  1  0.317298  0.825812  0.364707  1
  O  O40  1  0.318531  0.465556  0.364388  1
  O  O41  1  0.285989  0.140656  0.361811  1
  O  O42  1  0.213949  0.356917  0.635438  1
  O  O43  1  0.169625  0.680042  0.635383  1
  O  O44  1  0.174170  0.032503  0.638316  1
  O  O45  1  0.076134  0.571863  0.866478  1
  O  O46  1  0.070286  0.211347  0.862205  1
  O  O47  1  0.037710  0.887099  0.861500  1
