# generated using pymatgen
data_Fe3CoNi2(PO4)6
_symmetry_space_group_name_H-M   'P 1'
_cell_length_a   8.43322433
_cell_length_b   8.43322433
_cell_length_c   8.43322433
_cell_angle_alpha   61.02737331
_cell_angle_beta   61.02737331
_cell_angle_gamma   61.02737331
_symmetry_Int_Tables_number   1
_chemical_formula_structural   Fe3CoNi2(PO4)6
_chemical_formula_sum   'Fe3 Co1 Ni2 P6 O24'
_cell_volume   433.91016252
_cell_formula_units_Z   1
loop_
 _symmetry_equiv_pos_site_id
 _symmetry_equiv_pos_as_xyz
  1  'x, y, z'
loop_
 _atom_site_type_symbol
 _atom_site_label
 _atom_site_symmetry_multiplicity
 _atom_site_fract_x
 _atom_site_fract_y
 _atom_site_fract_z
 _atom_site_occupancy
  Fe  Fe0  1  0.857129  0.857129  0.857129  1
  Fe  Fe1  1  0.643999  0.643999  0.643999  1
  Fe  Fe2  1  0.356949  0.356949  0.356949  1
  Co  Co3  1  0.141692  0.141692  0.141692  1
  Ni  Ni4  1  0.999766  0.999766  0.999766  1
  Ni  Ni5  1  0.499557  0.499557  0.499557  1
  P  P6  1  0.957850  0.249444  0.541220  1
  P  P7  1  0.541220  0.957850  0.249444  1
  P  P8  1  0.249444  0.541220  0.957850  1
  P  P9  1  0.752642  0.454031  0.048821  1
  P  P10  1  0.454031  0.048821  0.752642  1
  P  P11  1  0.048821  0.752642  0.454031  1
  O  O12  1  0.890702  0.688516  0.488367  1
  O  O13  1  0.688516  0.488367  0.890702  1
  O  O14  1  0.942859  0.090845  0.740303  1
  O  O15  1  0.488367  0.890702  0.688516  1
  O  O16  1  0.995302  0.180122  0.381000  1
  O  O17  1  0.757600  0.407371  0.553233  1
  O  O18  1  0.740303  0.942859  0.090845  1
  O  O19  1  0.553233  0.757600  0.407371  1
  O  O20  1  0.822251  0.609924  0.006457  1
  O  O21  1  0.407371  0.553233  0.757600  1
  O  O22  1  0.918090  0.252233  0.061020  1
  O  O23  1  0.609924  0.006457  0.822251  1
  O  O24  1  0.381000  0.995302  0.180122  1
  O  O25  1  0.090845  0.740303  0.942859  1
  O  O26  1  0.594912  0.436388  0.247494  1
  O  O27  1  0.180122  0.381000  0.995302  1
  O  O28  1  0.436388  0.247494  0.594912  1
  O  O29  1  0.252233  0.061020  0.918090  1
  O  O30  1  0.247494  0.594912  0.436388  1
  O  O31  1  0.006457  0.822251  0.609924  1
  O  O32  1  0.499846  0.111800  0.320266  1
  O  O33  1  0.061020  0.918090  0.252233  1
  O  O34  1  0.320266  0.499846  0.111800  1
  O  O35  1  0.111800  0.320266  0.499846  1
