# generated using pymatgen
data_SrCrO3
_symmetry_space_group_name_H-M   'P 1'
_cell_length_a   5.55380761
_cell_length_b   5.55380761
_cell_length_c   32.27837448
_cell_angle_alpha   90.00000000
_cell_angle_beta   90.00000000
_cell_angle_gamma   119.99977902
_symmetry_Int_Tables_number   1
_chemical_formula_structural   SrCrO3
_chemical_formula_sum   'Sr14 Cr14 O42'
_cell_volume   862.23354757
_cell_formula_units_Z   14
loop_
 _symmetry_equiv_pos_site_id
 _symmetry_equiv_pos_as_xyz
  1  'x, y, z'
loop_
 _atom_site_type_symbol
 _atom_site_label
 _atom_site_symmetry_multiplicity
 _atom_site_fract_x
 _atom_site_fract_y
 _atom_site_fract_z
 _atom_site_occupancy
  Sr  Sr0  1  0.666055  0.335228  0.540245  1
  Sr  Sr1  1  0.667760  0.335495  0.677324  1
  Sr  Sr2  1  0.666065  0.337392  0.250000  1
  Sr  Sr3  1  0.996720  0.000659  0.605516  1
  Sr  Sr4  1  0.996720  0.000659  0.894484  1
  Sr  Sr5  1  0.000659  0.996720  0.105516  1
  Sr  Sr6  1  0.667760  0.335495  0.822676  1
  Sr  Sr7  1  0.666055  0.335228  0.959755  1
  Sr  Sr8  1  0.000659  0.996720  0.394484  1
  Sr  Sr9  1  0.337392  0.666065  0.750000  1
  Sr  Sr10  1  0.335228  0.666055  0.040245  1
  Sr  Sr11  1  0.335495  0.667760  0.177325  1
  Sr  Sr12  1  0.335495  0.667760  0.322676  1
  Sr  Sr13  1  0.335228  0.666055  0.459755  1
  Cr  Cr14  1  0.662362  0.323821  0.065844  1
  Cr  Cr15  1  0.661002  0.324886  0.145435  1
  Cr  Cr16  1  0.995382  0.995382  0.500000  1
  Cr  Cr17  1  0.005081  0.008052  0.710549  1
  Cr  Cr18  1  0.005081  0.008052  0.789451  1
  Cr  Cr19  1  0.995382  0.995382  1.000000  1
  Cr  Cr20  1  0.008052  0.005081  0.210549  1
  Cr  Cr21  1  0.008052  0.005081  0.289451  1
  Cr  Cr22  1  0.661002  0.324886  0.354565  1
  Cr  Cr23  1  0.662362  0.323821  0.434156  1
  Cr  Cr24  1  0.323821  0.662362  0.565844  1
  Cr  Cr25  1  0.324886  0.661002  0.645435  1
  Cr  Cr26  1  0.324886  0.661002  0.854565  1
  Cr  Cr27  1  0.323821  0.662362  0.934156  1
  O  O28  1  0.309122  0.153707  0.750000  1
  O  O29  1  0.339826  0.174571  0.177341  1
  O  O30  1  0.339826  0.174571  0.322659  1
  O  O31  1  0.332688  0.175579  0.034587  1
  O  O32  1  0.332688  0.175579  0.465413  1
  O  O33  1  0.515599  0.485417  0.106325  1
  O  O34  1  0.515599  0.485417  0.393675  1
  O  O35  1  0.837250  0.672886  0.321631  1
  O  O36  1  0.851304  0.697597  0.750000  1
  O  O37  1  0.842762  0.685500  0.034806  1
  O  O38  1  0.507202  0.015037  0.105620  1
  O  O39  1  0.507202  0.015037  0.394380  1
  O  O40  1  0.842762  0.685500  0.465194  1
  O  O41  1  0.837250  0.672886  0.178369  1
  O  O42  1  0.969381  0.484071  0.106044  1
  O  O43  1  0.969381  0.484071  0.393956  1
  O  O44  1  0.154552  0.849731  0.250000  1
  O  O45  1  0.837499  0.178721  0.034036  1
  O  O46  1  0.837499  0.178721  0.465964  1
  O  O47  1  0.162524  0.828526  0.678128  1
  O  O48  1  0.162524  0.828526  0.821872  1
  O  O49  1  0.828526  0.162524  0.178128  1
  O  O50  1  0.828526  0.162524  0.321872  1
  O  O51  1  0.178721  0.837499  0.534036  1
  O  O52  1  0.178721  0.837499  0.965964  1
  O  O53  1  0.849731  0.154552  0.750000  1
  O  O54  1  0.015037  0.507202  0.605620  1
  O  O55  1  0.015037  0.507202  0.894380  1
  O  O56  1  0.153707  0.309122  0.250000  1
  O  O57  1  0.175579  0.332688  0.534587  1
  O  O58  1  0.175579  0.332688  0.965413  1
  O  O59  1  0.484071  0.969381  0.606044  1
  O  O60  1  0.484071  0.969381  0.893956  1
  O  O61  1  0.174571  0.339826  0.677341  1
  O  O62  1  0.174571  0.339826  0.822659  1
  O  O63  1  0.485417  0.515599  0.606325  1
  O  O64  1  0.485417  0.515599  0.893675  1
  O  O65  1  0.685500  0.842762  0.534806  1
  O  O66  1  0.685500  0.842762  0.965194  1
  O  O67  1  0.672886  0.837250  0.678369  1
  O  O68  1  0.672886  0.837250  0.821631  1
  O  O69  1  0.697597  0.851304  0.250000  1
