# generated using pymatgen
data_Co3Sn(PO4)4
_symmetry_space_group_name_H-M   'P 1'
_cell_length_a   4.91871333
_cell_length_b   5.97610792
_cell_length_c   9.90642173
_cell_angle_alpha   90.00000000
_cell_angle_beta   90.41267273
_cell_angle_gamma   90.00000000
_symmetry_Int_Tables_number   1
_chemical_formula_structural   Co3Sn(PO4)4
_chemical_formula_sum   'Co3 Sn1 P4 O16'
_cell_volume   291.18935260
_cell_formula_units_Z   1
loop_
 _symmetry_equiv_pos_site_id
 _symmetry_equiv_pos_as_xyz
  1  'x, y, z'
loop_
 _atom_site_type_symbol
 _atom_site_label
 _atom_site_symmetry_multiplicity
 _atom_site_fract_x
 _atom_site_fract_y
 _atom_site_fract_z
 _atom_site_occupancy
  Co  Co0  1  0.968162  0.500000  0.732511  1
  Co  Co1  1  0.542207  0.500000  0.224210  1
  Co  Co2  1  0.460861  0.000000  0.767644  1
  Sn  Sn3  1  0.040143  0.000000  0.276998  1
  P  P4  1  0.900763  0.000000  0.603494  1
  P  P5  1  0.596874  0.000000  0.090827  1
  P  P6  1  0.410652  0.500000  0.898229  1
  P  P7  1  0.085029  0.500000  0.410463  1
  O  O8  1  0.830908  0.000000  0.450856  1
  O  O9  1  0.757574  0.202301  0.672576  1
  O  O10  1  0.757574  0.797699  0.672576  1
  O  O11  1  0.783721  0.500000  0.382392  1
  O  O12  1  0.720757  0.500000  0.872072  1
  O  O13  1  0.746926  0.199155  0.165586  1
  O  O14  1  0.746926  0.800845  0.165586  1
  O  O15  1  0.644981  0.000000  0.938586  1
  O  O16  1  0.356381  0.500000  0.048164  1
  O  O17  1  0.264930  0.702122  0.825496  1
  O  O18  1  0.264930  0.297878  0.825496  1
  O  O19  1  0.288352  0.000000  0.115320  1
  O  O20  1  0.212598  0.000000  0.622504  1
  O  O21  1  0.235326  0.703993  0.338069  1
  O  O22  1  0.235326  0.296007  0.338069  1
  O  O23  1  0.148100  0.500000  0.562277  1
