# generated using pymatgen
data_Li5V4(PO4)6
_symmetry_space_group_name_H-M   'P 1'
_cell_length_a   8.69277549
_cell_length_b   8.80156756
_cell_length_c   14.95384254
_cell_angle_alpha   90.00000000
_cell_angle_beta   125.42347514
_cell_angle_gamma   90.00000000
_symmetry_Int_Tables_number   1
_chemical_formula_structural   Li5V4(PO4)6
_chemical_formula_sum   'Li10 V8 P12 O48'
_cell_volume   932.33177747
_cell_formula_units_Z   2
loop_
 _symmetry_equiv_pos_site_id
 _symmetry_equiv_pos_as_xyz
  1  'x, y, z'
loop_
 _atom_site_type_symbol
 _atom_site_label
 _atom_site_symmetry_multiplicity
 _atom_site_fract_x
 _atom_site_fract_y
 _atom_site_fract_z
 _atom_site_occupancy
  Li  Li0  1  0.678651  0.954113  0.767003  1
  Li  Li1  1  0.963925  0.022365  0.181299  1
  Li  Li2  1  0.024368  0.523709  0.317479  1
  Li  Li3  1  0.333789  0.458503  0.722893  1
  Li  Li4  1  0.376634  0.842363  0.801193  1
  Li  Li5  1  0.678651  0.045887  0.267003  1
  Li  Li6  1  0.963925  0.977635  0.681299  1
  Li  Li7  1  0.024368  0.476291  0.817479  1
  Li  Li8  1  0.333789  0.541497  0.222893  1
  Li  Li9  1  0.376634  0.157637  0.301193  1
  V  V10  1  0.630506  0.280949  0.886033  1
  V  V11  1  0.134489  0.211499  0.389507  1
  V  V12  1  0.863196  0.709174  0.114058  1
  V  V13  1  0.367343  0.779494  0.611494  1
  V  V14  1  0.630506  0.719051  0.386033  1
  V  V15  1  0.134489  0.788501  0.889507  1
  V  V16  1  0.863196  0.290826  0.614058  1
  V  V17  1  0.367343  0.220506  0.111494  1
  P  P18  1  0.458964  0.499092  0.495122  1
  P  P19  1  0.749676  0.636357  0.856864  1
  P  P20  1  0.037016  0.349162  0.146358  1
  P  P21  1  0.958589  0.849112  0.353248  1
  P  P22  1  0.252806  0.135227  0.649570  1
  P  P23  1  0.544658  0.999994  0.006438  1
  P  P24  1  0.458964  0.500908  0.995122  1
  P  P25  1  0.749676  0.363643  0.356864  1
  P  P26  1  0.037016  0.650838  0.646358  1
  P  P27  1  0.958589  0.150888  0.853248  1
  P  P28  1  0.252806  0.864773  0.149570  1
  P  P29  1  0.544658  0.000006  0.506438  1
  O  O30  1  0.377097  0.108489  0.430516  1
  O  O31  1  0.530672  0.917757  0.592395  1
  O  O32  1  0.774639  0.151581  0.850668  1
  O  O33  1  0.090826  0.850404  0.163668  1
  O  O34  1  0.457495  0.603251  0.576222  1
  O  O35  1  0.834041  0.671830  0.975970  1
  O  O36  1  0.668439  0.471691  0.825064  1
  O  O37  1  0.076216  0.225571  0.232306  1
  O  O38  1  0.265395  0.417294  0.423383  1
  O  O39  1  0.022251  0.508532  0.183812  1
  O  O40  1  0.859603  0.303223  0.034383  1
  O  O41  1  0.587380  0.754843  0.782935  1
  O  O42  1  0.409378  0.253452  0.728893  1
  O  O43  1  0.132304  0.810010  0.465006  1
  O  O44  1  0.962860  0.014572  0.316509  1
  O  O45  1  0.734163  0.916447  0.070645  1
  O  O46  1  0.934428  0.731862  0.269513  1
  O  O47  1  0.332641  0.970955  0.682004  1
  O  O48  1  0.186906  0.173332  0.533216  1
  O  O49  1  0.546219  0.108376  0.924330  1
  O  O50  1  0.903435  0.346510  0.335237  1
  O  O51  1  0.217053  0.646235  0.647876  1
  O  O52  1  0.475032  0.408505  0.909855  1
  O  O53  1  0.621422  0.612592  0.059437  1
  O  O54  1  0.377097  0.891511  0.930516  1
  O  O55  1  0.530672  0.082243  0.092395  1
  O  O56  1  0.774639  0.848419  0.350668  1
  O  O57  1  0.090826  0.149596  0.663668  1
  O  O58  1  0.457495  0.396749  0.076222  1
  O  O59  1  0.834041  0.328170  0.475970  1
  O  O60  1  0.668439  0.528309  0.325064  1
  O  O61  1  0.076216  0.774429  0.732306  1
  O  O62  1  0.265395  0.582706  0.923383  1
  O  O63  1  0.022251  0.491468  0.683812  1
  O  O64  1  0.859603  0.696777  0.534383  1
  O  O65  1  0.587380  0.245157  0.282935  1
  O  O66  1  0.409378  0.746548  0.228893  1
  O  O67  1  0.132304  0.189990  0.965006  1
  O  O68  1  0.962860  0.985428  0.816509  1
  O  O69  1  0.734163  0.083553  0.570645  1
  O  O70  1  0.934428  0.268138  0.769513  1
  O  O71  1  0.332641  0.029045  0.182004  1
  O  O72  1  0.186906  0.826668  0.033216  1
  O  O73  1  0.546219  0.891624  0.424330  1
  O  O74  1  0.903435  0.653490  0.835237  1
  O  O75  1  0.217053  0.353765  0.147876  1
  O  O76  1  0.475032  0.591495  0.409855  1
  O  O77  1  0.621422  0.387408  0.559437  1
