# generated using pymatgen
data_Sb2(SO4)3
_symmetry_space_group_name_H-M   'P 1'
_cell_length_a   9.30824424
_cell_length_b   9.30824424
_cell_length_c   9.30824424
_cell_angle_alpha   59.96523987
_cell_angle_beta   59.96523987
_cell_angle_gamma   59.96523987
_symmetry_Int_Tables_number   1
_chemical_formula_structural   Sb2(SO4)3
_chemical_formula_sum   'Sb4 S6 O24'
_cell_volume   569.83069021
_cell_formula_units_Z   2
loop_
 _symmetry_equiv_pos_site_id
 _symmetry_equiv_pos_as_xyz
  1  'x, y, z'
loop_
 _atom_site_type_symbol
 _atom_site_label
 _atom_site_symmetry_multiplicity
 _atom_site_fract_x
 _atom_site_fract_y
 _atom_site_fract_z
 _atom_site_occupancy
  Sb  Sb0  1  0.638709  0.638709  0.638709  1
  Sb  Sb1  1  0.861291  0.861291  0.861291  1
  Sb  Sb2  1  0.361291  0.361291  0.361291  1
  Sb  Sb3  1  0.138709  0.138709  0.138709  1
  S  S4  1  0.545277  0.954723  0.250000  1
  S  S5  1  0.750000  0.454723  0.045277  1
  S  S6  1  0.045277  0.750000  0.454723  1
  S  S7  1  0.954723  0.250000  0.545277  1
  S  S8  1  0.250000  0.545277  0.954723  1
  S  S9  1  0.454723  0.045277  0.750000  1
  O  O10  1  0.718270  0.940487  0.102398  1
  O  O11  1  0.059513  0.897602  0.281730  1
  O  O12  1  0.308671  0.507855  0.094901  1
  O  O13  1  0.191329  0.405099  0.992145  1
  O  O14  1  0.559513  0.781730  0.397602  1
  O  O15  1  0.602398  0.440487  0.218270  1
  O  O16  1  0.897602  0.281730  0.059513  1
  O  O17  1  0.594901  0.007855  0.808671  1
  O  O18  1  0.905099  0.691329  0.492145  1
  O  O19  1  0.492145  0.905099  0.691329  1
  O  O20  1  0.007855  0.808671  0.594901  1
  O  O21  1  0.218270  0.602398  0.440487  1
  O  O22  1  0.781730  0.397602  0.559513  1
  O  O23  1  0.507855  0.094901  0.308671  1
  O  O24  1  0.992145  0.191329  0.405099  1
  O  O25  1  0.405099  0.992145  0.191329  1
  O  O26  1  0.094901  0.308671  0.507855  1
  O  O27  1  0.102398  0.718270  0.940487  1
  O  O28  1  0.397602  0.559513  0.781730  1
  O  O29  1  0.440487  0.218270  0.602398  1
  O  O30  1  0.691329  0.492145  0.905099  1
  O  O31  1  0.808671  0.594901  0.007855  1
  O  O32  1  0.940487  0.102398  0.718270  1
  O  O33  1  0.281730  0.059513  0.897602  1
