# generated using pymatgen
data_Li2Bi2B2O7
_symmetry_space_group_name_H-M   'P 1'
_cell_length_a   10.47995332
_cell_length_b   6.50344983
_cell_length_c   10.57185713
_cell_angle_alpha   90.00000000
_cell_angle_beta   118.95452322
_cell_angle_gamma   90.00000000
_symmetry_Int_Tables_number   1
_chemical_formula_structural   Li2Bi2B2O7
_chemical_formula_sum   'Li8 Bi8 B8 O28'
_cell_volume   630.47022734
_cell_formula_units_Z   4
loop_
 _symmetry_equiv_pos_site_id
 _symmetry_equiv_pos_as_xyz
  1  'x, y, z'
loop_
 _atom_site_type_symbol
 _atom_site_label
 _atom_site_symmetry_multiplicity
 _atom_site_fract_x
 _atom_site_fract_y
 _atom_site_fract_z
 _atom_site_occupancy
  Li  Li0  1  0.401158  0.280230  0.479682  1
  Li  Li1  1  0.500244  0.907847  0.224101  1
  Li  Li2  1  0.499756  0.407847  0.275899  1
  Li  Li3  1  0.401158  0.219770  0.979682  1
  Li  Li4  1  0.598842  0.780230  0.020318  1
  Li  Li5  1  0.500244  0.592153  0.724101  1
  Li  Li6  1  0.499756  0.092153  0.775899  1
  Li  Li7  1  0.598842  0.719770  0.520318  1
  Bi  Bi8  1  0.998328  0.455112  0.315593  1
  Bi  Bi9  1  0.998328  0.044888  0.815593  1
  Bi  Bi10  1  0.199901  0.574018  0.096649  1
  Bi  Bi11  1  0.199901  0.925982  0.596649  1
  Bi  Bi12  1  0.800099  0.074018  0.403351  1
  Bi  Bi13  1  0.800099  0.425982  0.903351  1
  Bi  Bi14  1  0.001672  0.955112  0.184407  1
  Bi  Bi15  1  0.001672  0.544888  0.684407  1
  B  B16  1  0.339266  0.747370  0.432557  1
  B  B17  1  0.233506  0.151464  0.157598  1
  B  B18  1  0.339266  0.752630  0.932557  1
  B  B19  1  0.233506  0.348536  0.657598  1
  B  B20  1  0.766494  0.651464  0.342402  1
  B  B21  1  0.660734  0.247370  0.067443  1
  B  B22  1  0.766494  0.848536  0.842402  1
  B  B23  1  0.660734  0.252630  0.567443  1
  O  O24  1  0.018457  0.128720  0.402558  1
  O  O25  1  0.188611  0.795957  0.376668  1
  O  O26  1  0.189256  0.248564  0.247527  1
  O  O27  1  0.018457  0.371280  0.902558  1
  O  O28  1  0.165507  0.963259  0.096355  1
  O  O29  1  0.390237  0.648080  0.351447  1
  O  O30  1  0.188611  0.704043  0.876668  1
  O  O31  1  0.329330  0.243505  0.121664  1
  O  O32  1  0.189256  0.251436  0.747527  1
  O  O33  1  0.165507  0.536741  0.596355  1
  O  O34  1  0.430620  0.700025  0.074835  1
  O  O35  1  0.569380  0.200025  0.425165  1
  O  O36  1  0.390237  0.851920  0.851447  1
  O  O37  1  0.329330  0.256495  0.621664  1
  O  O38  1  0.670670  0.743505  0.378336  1
  O  O39  1  0.609763  0.148080  0.148553  1
  O  O40  1  0.430620  0.799975  0.574835  1
  O  O41  1  0.569380  0.299975  0.925165  1
  O  O42  1  0.834493  0.463259  0.403645  1
  O  O43  1  0.810744  0.748564  0.252473  1
  O  O44  1  0.670670  0.756495  0.878336  1
  O  O45  1  0.811389  0.295957  0.123332  1
  O  O46  1  0.609763  0.351920  0.648553  1
  O  O47  1  0.834493  0.036741  0.903645  1
  O  O48  1  0.981543  0.628720  0.097442  1
  O  O49  1  0.810744  0.751436  0.752473  1
  O  O50  1  0.811389  0.204043  0.623332  1
  O  O51  1  0.981543  0.871280  0.597442  1
