# generated using pymatgen
data_Li3Mn(FeO2)4
_symmetry_space_group_name_H-M   'P 1'
_cell_length_a   5.98086274
_cell_length_b   5.98086274
_cell_length_c   6.03244691
_cell_angle_alpha   59.82787322
_cell_angle_beta   120.17212678
_cell_angle_gamma   119.35206211
_symmetry_Int_Tables_number   1
_chemical_formula_structural   Li3Mn(FeO2)4
_chemical_formula_sum   'Li3 Mn1 Fe4 O8'
_cell_volume   152.91204178
_cell_formula_units_Z   1
loop_
 _symmetry_equiv_pos_site_id
 _symmetry_equiv_pos_as_xyz
  1  'x, y, z'
loop_
 _atom_site_type_symbol
 _atom_site_label
 _atom_site_symmetry_multiplicity
 _atom_site_fract_x
 _atom_site_fract_y
 _atom_site_fract_z
 _atom_site_occupancy
  Li  Li0  1  0.500000  0.000000  0.000000  1
  Li  Li1  1  0.000000  0.000000  0.500000  1
  Li  Li2  1  0.000000  0.500000  0.000000  1
  Mn  Mn3  1  0.500000  0.500000  0.000000  1
  Fe  Fe4  1  0.500000  0.500000  0.500000  1
  Fe  Fe5  1  0.000000  0.000000  0.000000  1
  Fe  Fe6  1  0.500000  0.000000  0.500000  1
  Fe  Fe7  1  0.000000  0.500000  0.500000  1
  O  O8  1  0.730204  0.269796  0.244368  1
  O  O9  1  0.253619  0.246742  0.754321  1
  O  O10  1  0.753258  0.746381  0.754321  1
  O  O11  1  0.250703  0.749297  0.247465  1
  O  O12  1  0.749297  0.250703  0.752535  1
  O  O13  1  0.246742  0.253619  0.245679  1
  O  O14  1  0.746381  0.753258  0.245679  1
  O  O15  1  0.269796  0.730204  0.755632  1
