# generated using pymatgen
data_YbVO3
_symmetry_space_group_name_H-M   'P 1'
_cell_length_a   5.27259530
_cell_length_b   5.45927487
_cell_length_c   7.55483833
_cell_angle_alpha   90.00000000
_cell_angle_beta   90.00000000
_cell_angle_gamma   90.00000000
_symmetry_Int_Tables_number   1
_chemical_formula_structural   YbVO3
_chemical_formula_sum   'Yb4 V4 O12'
_cell_volume   217.46259915
_cell_formula_units_Z   4
loop_
 _symmetry_equiv_pos_site_id
 _symmetry_equiv_pos_as_xyz
  1  'x, y, z'
loop_
 _atom_site_type_symbol
 _atom_site_label
 _atom_site_symmetry_multiplicity
 _atom_site_fract_x
 _atom_site_fract_y
 _atom_site_fract_z
 _atom_site_occupancy
  Yb  Yb0  1  0.513261  0.557041  0.250000  1
  Yb  Yb1  1  0.986739  0.057041  0.250000  1
  Yb  Yb2  1  0.486739  0.442959  0.750000  1
  Yb  Yb3  1  0.013261  0.942959  0.750000  1
  V  V4  1  0.500000  0.000000  0.500000  1
  V  V5  1  0.000000  0.500000  0.000000  1
  V  V6  1  0.500000  0.000000  0.000000  1
  V  V7  1  0.000000  0.500000  0.500000  1
  O  O8  1  0.791976  0.799098  0.042114  1
  O  O9  1  0.708024  0.299098  0.457886  1
  O  O10  1  0.912558  0.519810  0.750000  1
  O  O11  1  0.708024  0.299098  0.042114  1
  O  O12  1  0.291976  0.700902  0.542114  1
  O  O13  1  0.087442  0.480190  0.250000  1
  O  O14  1  0.412558  0.980190  0.250000  1
  O  O15  1  0.587442  0.019810  0.750000  1
  O  O16  1  0.208024  0.200902  0.957886  1
  O  O17  1  0.791976  0.799098  0.457886  1
  O  O18  1  0.208024  0.200902  0.542114  1
  O  O19  1  0.291976  0.700902  0.957886  1
