# generated using pymatgen
data_Li2CoBO4
_symmetry_space_group_name_H-M   'P 1'
_cell_length_a   4.77538568
_cell_length_b   5.79570173
_cell_length_c   10.62062777
_cell_angle_alpha   90.00000000
_cell_angle_beta   90.00000000
_cell_angle_gamma   90.00000000
_symmetry_Int_Tables_number   1
_chemical_formula_structural   Li2CoBO4
_chemical_formula_sum   'Li8 Co4 B4 O16'
_cell_volume   293.94404586
_cell_formula_units_Z   4
loop_
 _symmetry_equiv_pos_site_id
 _symmetry_equiv_pos_as_xyz
  1  'x, y, z'
loop_
 _atom_site_type_symbol
 _atom_site_label
 _atom_site_symmetry_multiplicity
 _atom_site_fract_x
 _atom_site_fract_y
 _atom_site_fract_z
 _atom_site_occupancy
  Li  Li0  1  0.701014  0.498672  0.583438  1
  Li  Li1  1  0.798986  0.498672  0.083438  1
  Li  Li2  1  0.798986  0.001328  0.083438  1
  Li  Li3  1  0.701014  0.001328  0.583438  1
  Li  Li4  1  0.201014  0.998672  0.916562  1
  Li  Li5  1  0.298986  0.998672  0.416562  1
  Li  Li6  1  0.298986  0.501328  0.416562  1
  Li  Li7  1  0.201014  0.501328  0.916562  1
  Co  Co8  1  0.692493  0.750000  0.824313  1
  Co  Co9  1  0.807507  0.750000  0.324313  1
  Co  Co10  1  0.192493  0.250000  0.675687  1
  Co  Co11  1  0.307507  0.250000  0.175687  1
  B  B12  1  0.187456  0.750000  0.668618  1
  B  B13  1  0.312544  0.750000  0.168618  1
  B  B14  1  0.812544  0.250000  0.331382  1
  B  B15  1  0.687456  0.250000  0.831382  1
  O  O16  1  0.283022  0.537131  0.600097  1
  O  O17  1  0.216978  0.537131  0.100097  1
  O  O18  1  0.878091  0.750000  0.670120  1
  O  O19  1  0.200661  0.750000  0.300629  1
  O  O20  1  0.621909  0.750000  0.170120  1
  O  O21  1  0.299339  0.750000  0.800629  1
  O  O22  1  0.216978  0.962869  0.100097  1
  O  O23  1  0.283022  0.962869  0.600097  1
  O  O24  1  0.783022  0.037131  0.899903  1
  O  O25  1  0.716978  0.037131  0.399903  1
  O  O26  1  0.121909  0.250000  0.329880  1
  O  O27  1  0.378091  0.250000  0.829880  1
  O  O28  1  0.799339  0.250000  0.699371  1
  O  O29  1  0.700661  0.250000  0.199371  1
  O  O30  1  0.716978  0.462869  0.399903  1
  O  O31  1  0.783022  0.462869  0.899903  1
