# generated using pymatgen
data_LiCu2F5
_symmetry_space_group_name_H-M   'P 1'
_cell_length_a   10.03034794
_cell_length_b   10.03034794
_cell_length_c   12.28769240
_cell_angle_alpha   90.00000000
_cell_angle_beta   90.00000000
_cell_angle_gamma   90.00000000
_symmetry_Int_Tables_number   1
_chemical_formula_structural   LiCu2F5
_chemical_formula_sum   'Li8 Cu16 F40'
_cell_volume   1236.23867997
_cell_formula_units_Z   8
loop_
 _symmetry_equiv_pos_site_id
 _symmetry_equiv_pos_as_xyz
  1  'x, y, z'
loop_
 _atom_site_type_symbol
 _atom_site_label
 _atom_site_symmetry_multiplicity
 _atom_site_fract_x
 _atom_site_fract_y
 _atom_site_fract_z
 _atom_site_occupancy
  Li  Li0  1  0.500000  0.000000  0.000000  1
  Li  Li1  1  0.500000  0.000000  0.750000  1
  Li  Li2  1  0.500000  0.000000  0.250000  1
  Li  Li3  1  0.500000  0.000000  0.500000  1
  Li  Li4  1  0.000000  0.500000  0.750000  1
  Li  Li5  1  0.000000  0.500000  0.000000  1
  Li  Li6  1  0.000000  0.500000  0.250000  1
  Li  Li7  1  0.000000  0.500000  0.500000  1
  Cu  Cu8  1  0.281340  0.798301  0.141555  1
  Cu  Cu9  1  0.281340  0.201699  0.358445  1
  Cu  Cu10  1  0.298301  0.781340  0.858445  1
  Cu  Cu11  1  0.298301  0.218660  0.641555  1
  Cu  Cu12  1  0.701699  0.218660  0.858445  1
  Cu  Cu13  1  0.701699  0.781340  0.641555  1
  Cu  Cu14  1  0.718660  0.201699  0.141555  1
  Cu  Cu15  1  0.718660  0.798301  0.358445  1
  Cu  Cu16  1  0.781340  0.701699  0.141555  1
  Cu  Cu17  1  0.781340  0.298301  0.358445  1
  Cu  Cu18  1  0.798301  0.281340  0.641555  1
  Cu  Cu19  1  0.798301  0.718660  0.858445  1
  Cu  Cu20  1  0.201699  0.718660  0.641555  1
  Cu  Cu21  1  0.201699  0.281340  0.858445  1
  Cu  Cu22  1  0.218660  0.298301  0.141555  1
  Cu  Cu23  1  0.218660  0.701699  0.358445  1
  F  F24  1  0.263150  0.763150  0.500000  1
  F  F25  1  0.263150  0.236850  0.000000  1
  F  F26  1  0.305427  0.146160  0.787882  1
  F  F27  1  0.305427  0.853840  0.712118  1
  F  F28  1  0.353840  0.805427  0.287882  1
  F  F29  1  0.353840  0.194573  0.212118  1
  F  F30  1  0.381076  0.946803  0.109658  1
  F  F31  1  0.381076  0.053197  0.390342  1
  F  F32  1  0.446803  0.881076  0.890342  1
  F  F33  1  0.446803  0.118924  0.609658  1
  F  F34  1  0.553197  0.881076  0.609658  1
  F  F35  1  0.553197  0.118924  0.890342  1
  F  F36  1  0.618924  0.946803  0.390342  1
  F  F37  1  0.618924  0.053197  0.109658  1
  F  F38  1  0.646160  0.805427  0.212118  1
  F  F39  1  0.646160  0.194573  0.287882  1
  F  F40  1  0.694573  0.853840  0.787882  1
  F  F41  1  0.694573  0.146160  0.712118  1
  F  F42  1  0.736850  0.763150  0.000000  1
  F  F43  1  0.736850  0.236850  0.500000  1
  F  F44  1  0.763150  0.263150  0.000000  1
  F  F45  1  0.763150  0.736850  0.500000  1
  F  F46  1  0.805427  0.353840  0.787882  1
  F  F47  1  0.805427  0.646160  0.712118  1
  F  F48  1  0.853840  0.305427  0.212118  1
  F  F49  1  0.853840  0.694573  0.287882  1
  F  F50  1  0.881076  0.446803  0.390342  1
  F  F51  1  0.881076  0.553197  0.109658  1
  F  F52  1  0.946803  0.381076  0.609658  1
  F  F53  1  0.946803  0.618924  0.890342  1
  F  F54  1  0.053197  0.381076  0.890342  1
  F  F55  1  0.053197  0.618924  0.609658  1
  F  F56  1  0.118924  0.446803  0.109658  1
  F  F57  1  0.118924  0.553197  0.390342  1
  F  F58  1  0.146160  0.305427  0.287882  1
  F  F59  1  0.146160  0.694573  0.212118  1
  F  F60  1  0.194573  0.353840  0.712118  1
  F  F61  1  0.194573  0.646160  0.787882  1
  F  F62  1  0.236850  0.263150  0.500000  1
  F  F63  1  0.236850  0.736850  0.000000  1
