# generated using pymatgen
data_Li4Ti3Cr3(WO8)2
_symmetry_space_group_name_H-M   'P 1'
_cell_length_a   5.97448404
_cell_length_b   5.97448404
_cell_length_c   9.84283121
_cell_angle_alpha   89.04222209
_cell_angle_beta   90.95777791
_cell_angle_gamma   120.10118525
_symmetry_Int_Tables_number   1
_chemical_formula_structural   Li4Ti3Cr3(WO8)2
_chemical_formula_sum   'Li4 Ti3 Cr3 W2 O16'
_cell_volume   303.89736516
_cell_formula_units_Z   1
loop_
 _symmetry_equiv_pos_site_id
 _symmetry_equiv_pos_as_xyz
  1  'x, y, z'
loop_
 _atom_site_type_symbol
 _atom_site_label
 _atom_site_symmetry_multiplicity
 _atom_site_fract_x
 _atom_site_fract_y
 _atom_site_fract_z
 _atom_site_occupancy
  Li  Li0  1  0.664778  0.335222  0.896973  1
  Li  Li1  1  0.998847  0.001153  0.992083  1
  Li  Li2  1  0.996651  0.003349  0.494522  1
  Li  Li3  1  0.333499  0.666501  0.400491  1
  Ti  Ti4  1  0.337553  0.164604  0.215415  1
  Ti  Ti5  1  0.835396  0.662447  0.215415  1
  Ti  Ti6  1  0.169067  0.830933  0.714234  1
  Cr  Cr7  1  0.829815  0.170185  0.211697  1
  Cr  Cr8  1  0.171132  0.339290  0.713248  1
  Cr  Cr9  1  0.660710  0.828868  0.713248  1
  W  W10  1  0.668663  0.331337  0.488214  1
  W  W11  1  0.336325  0.663675  0.985429  1
  O  O12  1  0.325882  0.159173  0.602885  1
  O  O13  1  0.518829  0.481171  0.340882  1
  O  O14  1  0.661437  0.338563  0.105310  1
  O  O15  1  0.999340  0.000660  0.309968  1
  O  O16  1  0.004004  0.995996  0.808408  1
  O  O17  1  0.840827  0.674118  0.602885  1
  O  O18  1  0.516932  0.036659  0.337646  1
  O  O19  1  0.963341  0.483068  0.337646  1
  O  O20  1  0.162999  0.837001  0.104948  1
  O  O21  1  0.836201  0.163799  0.598666  1
  O  O22  1  0.038765  0.521095  0.839194  1
  O  O23  1  0.478905  0.961235  0.839194  1
  O  O24  1  0.326849  0.673151  0.606919  1
  O  O25  1  0.163031  0.324872  0.098007  1
  O  O26  1  0.483142  0.516858  0.836232  1
  O  O27  1  0.675128  0.836969  0.098007  1
