# generated using pymatgen
data_LiBi(BO3)2
_symmetry_space_group_name_H-M   'P 1'
_cell_length_a   4.62087811
_cell_length_b   5.98673756
_cell_length_c   9.08124481
_cell_angle_alpha   90.00000000
_cell_angle_beta   117.79328681
_cell_angle_gamma   90.00000000
_symmetry_Int_Tables_number   1
_chemical_formula_structural   LiBi(BO3)2
_chemical_formula_sum   'Li2 Bi2 B4 O12'
_cell_volume   222.24118084
_cell_formula_units_Z   2
loop_
 _symmetry_equiv_pos_site_id
 _symmetry_equiv_pos_as_xyz
  1  'x, y, z'
loop_
 _atom_site_type_symbol
 _atom_site_label
 _atom_site_symmetry_multiplicity
 _atom_site_fract_x
 _atom_site_fract_y
 _atom_site_fract_z
 _atom_site_occupancy
  Li  Li0  1  0.500000  0.500000  0.500000  1
  Li  Li1  1  0.500000  0.000000  0.000000  1
  Bi  Bi2  1  0.000000  0.500000  0.000000  1
  Bi  Bi3  1  0.000000  0.000000  0.500000  1
  B  B4  1  0.735667  0.138888  0.740412  1
  B  B5  1  0.264333  0.638888  0.759588  1
  B  B6  1  0.735667  0.361112  0.240412  1
  B  B7  1  0.264333  0.861112  0.259588  1
  O  O8  1  0.011111  0.445890  0.237435  1
  O  O9  1  0.757533  0.187863  0.895286  1
  O  O10  1  0.453800  0.183680  0.593877  1
  O  O11  1  0.546200  0.683680  0.906123  1
  O  O12  1  0.242467  0.687863  0.604714  1
  O  O13  1  0.988889  0.945890  0.262565  1
  O  O14  1  0.011111  0.054110  0.737435  1
  O  O15  1  0.757533  0.312137  0.395286  1
  O  O16  1  0.453800  0.316320  0.093877  1
  O  O17  1  0.546200  0.816320  0.406123  1
  O  O18  1  0.242467  0.812137  0.104714  1
  O  O19  1  0.988889  0.554110  0.762565  1
