# generated using pymatgen
data_NdTe3
_symmetry_space_group_name_H-M   'P 1'
_cell_length_a   13.93519789
_cell_length_b   13.93519789
_cell_length_c   4.39527771
_cell_angle_alpha   90.00000000
_cell_angle_beta   90.00000000
_cell_angle_gamma   161.87287070
_symmetry_Int_Tables_number   1
_chemical_formula_structural   NdTe3
_chemical_formula_sum   'Nd2 Te6'
_cell_volume   265.55198282
_cell_formula_units_Z   2
loop_
 _symmetry_equiv_pos_site_id
 _symmetry_equiv_pos_as_xyz
  1  'x, y, z'
loop_
 _atom_site_type_symbol
 _atom_site_label
 _atom_site_symmetry_multiplicity
 _atom_site_fract_x
 _atom_site_fract_y
 _atom_site_fract_z
 _atom_site_occupancy
  Nd  Nd0  1  0.672064  0.327936  0.750000  1
  Nd  Nd1  1  0.327936  0.672064  0.250000  1
  Te  Te2  1  0.921479  0.078521  0.250000  1
  Te  Te3  1  0.078521  0.921479  0.750000  1
  Te  Te4  1  0.207277  0.792723  0.250000  1
  Te  Te5  1  0.792723  0.207277  0.750000  1
  Te  Te6  1  0.421457  0.578543  0.750000  1
  Te  Te7  1  0.578543  0.421457  0.250000  1
