# generated using pymatgen
data_LiFe(PO3)3
_symmetry_space_group_name_H-M   'P 1'
_cell_length_a   6.80583244
_cell_length_b   7.07361341
_cell_length_c   7.40666504
_cell_angle_alpha   84.04074935
_cell_angle_beta   77.19689091
_cell_angle_gamma   84.67761465
_symmetry_Int_Tables_number   1
_chemical_formula_structural   LiFe(PO3)3
_chemical_formula_sum   'Li2 Fe2 P6 O18'
_cell_volume   344.93055143
_cell_formula_units_Z   2
loop_
 _symmetry_equiv_pos_site_id
 _symmetry_equiv_pos_as_xyz
  1  'x, y, z'
loop_
 _atom_site_type_symbol
 _atom_site_label
 _atom_site_symmetry_multiplicity
 _atom_site_fract_x
 _atom_site_fract_y
 _atom_site_fract_z
 _atom_site_occupancy
  Li  Li0  1  0.928662  0.725111  0.870081  1
  Li  Li1  1  0.071338  0.274889  0.129919  1
  Fe  Fe2  1  0.439497  0.853849  0.848720  1
  Fe  Fe3  1  0.560503  0.146151  0.151280  1
  P  P4  1  0.772591  0.848096  0.451008  1
  P  P5  1  0.151928  0.702347  0.222900  1
  P  P6  1  0.583974  0.619808  0.222283  1
  P  P7  1  0.416026  0.380192  0.777717  1
  P  P8  1  0.848072  0.297653  0.777100  1
  P  P9  1  0.227409  0.151904  0.548992  1
  O  O10  1  0.259096  0.971412  0.667568  1
  O  O11  1  0.713340  0.849026  0.660016  1
  O  O12  1  0.196866  0.866583  0.074449  1
  O  O13  1  0.637326  0.768676  0.058104  1
  O  O14  1  0.008259  0.779485  0.409526  1
  O  O15  1  0.667028  0.674442  0.395359  1
  O  O16  1  0.346120  0.644313  0.311064  1
  O  O17  1  0.357881  0.585594  0.804150  1
  O  O18  1  0.935109  0.465740  0.826277  1
  O  O19  1  0.064891  0.534260  0.173723  1
  O  O20  1  0.642119  0.414406  0.195850  1
  O  O21  1  0.653880  0.355687  0.688936  1
  O  O22  1  0.332972  0.325558  0.604641  1
  O  O23  1  0.991741  0.220515  0.590474  1
  O  O24  1  0.362674  0.231324  0.941896  1
  O  O25  1  0.803134  0.133417  0.925551  1
  O  O26  1  0.286660  0.150974  0.339984  1
  O  O27  1  0.740904  0.028588  0.332432  1
