# generated using pymatgen
data_Li8MnO5F
_symmetry_space_group_name_H-M   'P 1'
_cell_length_a   5.35003764
_cell_length_b   5.36630577
_cell_length_c   5.85844550
_cell_angle_alpha   90.80871896
_cell_angle_beta   115.45299628
_cell_angle_gamma   114.00145912
_symmetry_Int_Tables_number   1
_chemical_formula_structural   Li8MnO5F
_chemical_formula_sum   'Li8 Mn1 O5 F1'
_cell_volume   135.05067492
_cell_formula_units_Z   1
loop_
 _symmetry_equiv_pos_site_id
 _symmetry_equiv_pos_as_xyz
  1  'x, y, z'
loop_
 _atom_site_type_symbol
 _atom_site_label
 _atom_site_symmetry_multiplicity
 _atom_site_fract_x
 _atom_site_fract_y
 _atom_site_fract_z
 _atom_site_occupancy
  Li  Li0  1  0.245909  0.475575  0.360780  1
  Li  Li1  1  0.123978  0.229347  0.651650  1
  Li  Li2  1  0.408367  0.890549  0.647040  1
  Li  Li3  1  0.712821  0.361394  0.011103  1
  Li  Li4  1  0.300340  0.662288  0.965527  1
  Li  Li5  1  0.581393  0.094525  0.347056  1
  Li  Li6  1  0.900751  0.793842  0.369058  1
  Li  Li7  1  0.753095  0.518352  0.652435  1
  Mn  Mn8  1  0.957826  0.968330  0.978992  1
  O  O9  1  0.492319  0.580316  0.760360  1
  O  O10  1  0.877959  0.112802  0.239840  1
  O  O11  1  0.168543  0.778500  0.231654  1
  O  O12  1  0.818416  0.208902  0.756135  1
  O  O13  1  0.111227  0.884821  0.751853  1
  F  F14  1  0.547058  0.440458  0.276514  1
