# generated using pymatgen
data_SrCaI4
_symmetry_space_group_name_H-M   'P 1'
_cell_length_a   7.19542111
_cell_length_b   7.94285832
_cell_length_c   18.83531628
_cell_angle_alpha   90.00000000
_cell_angle_beta   90.00000000
_cell_angle_gamma   90.00000000
_symmetry_Int_Tables_number   1
_chemical_formula_structural   SrCaI4
_chemical_formula_sum   'Sr4 Ca4 I16'
_cell_volume   1076.47995954
_cell_formula_units_Z   4
loop_
 _symmetry_equiv_pos_site_id
 _symmetry_equiv_pos_as_xyz
  1  'x, y, z'
loop_
 _atom_site_type_symbol
 _atom_site_label
 _atom_site_symmetry_multiplicity
 _atom_site_fract_x
 _atom_site_fract_y
 _atom_site_fract_z
 _atom_site_occupancy
  Sr  Sr0  1  0.000000  0.750000  0.070852  1
  Sr  Sr1  1  0.000000  0.250000  0.929148  1
  Sr  Sr2  1  0.500000  0.250000  0.429148  1
  Sr  Sr3  1  0.500000  0.750000  0.570852  1
  Ca  Ca4  1  0.000000  0.750000  0.317679  1
  Ca  Ca5  1  0.000000  0.250000  0.682321  1
  Ca  Ca6  1  0.500000  0.750000  0.817679  1
  Ca  Ca7  1  0.500000  0.250000  0.182321  1
  I  I8  1  0.742085  0.408565  0.059162  1
  I  I9  1  0.742085  0.908565  0.940838  1
  I  I10  1  0.747232  0.913768  0.198127  1
  I  I11  1  0.747232  0.413768  0.801873  1
  I  I12  1  0.752768  0.413768  0.301873  1
  I  I13  1  0.752768  0.913768  0.698127  1
  I  I14  1  0.757915  0.908565  0.440838  1
  I  I15  1  0.757915  0.408565  0.559162  1
  I  I16  1  0.242085  0.591435  0.440838  1
  I  I17  1  0.242085  0.091435  0.559162  1
  I  I18  1  0.247232  0.586232  0.698127  1
  I  I19  1  0.247232  0.086232  0.301873  1
  I  I20  1  0.252768  0.586232  0.198127  1
  I  I21  1  0.252768  0.086232  0.801873  1
  I  I22  1  0.257915  0.091435  0.059162  1
  I  I23  1  0.257915  0.591435  0.940838  1
