# generated using pymatgen
data_Na3NiAsCO7
_symmetry_space_group_name_H-M   'P 1'
_cell_length_a   5.21784997
_cell_length_b   6.80946336
_cell_length_c   9.09044293
_cell_angle_alpha   90.00000000
_cell_angle_beta   91.14614870
_cell_angle_gamma   90.00000000
_symmetry_Int_Tables_number   1
_chemical_formula_structural   Na3NiAsCO7
_chemical_formula_sum   'Na6 Ni2 As2 C2 O14'
_cell_volume   322.92570733
_cell_formula_units_Z   2
loop_
 _symmetry_equiv_pos_site_id
 _symmetry_equiv_pos_as_xyz
  1  'x, y, z'
loop_
 _atom_site_type_symbol
 _atom_site_label
 _atom_site_symmetry_multiplicity
 _atom_site_fract_x
 _atom_site_fract_y
 _atom_site_fract_z
 _atom_site_occupancy
  Na  Na0  1  0.238673  0.750000  0.080252  1
  Na  Na1  1  0.752252  0.996742  0.257305  1
  Na  Na2  1  0.752252  0.503258  0.257305  1
  Na  Na3  1  0.247748  0.496742  0.742695  1
  Na  Na4  1  0.247748  0.003258  0.742695  1
  Na  Na5  1  0.761327  0.250000  0.919748  1
  Ni  Ni6  1  0.212490  0.250000  0.343891  1
  Ni  Ni7  1  0.787510  0.750000  0.656109  1
  As  As8  1  0.296972  0.750000  0.417749  1
  As  As9  1  0.703028  0.250000  0.582251  1
  C  C10  1  0.269426  0.250000  0.062095  1
  C  C11  1  0.730574  0.750000  0.937905  1
  O  O12  1  0.713784  0.750000  0.079470  1
  O  O13  1  0.046351  0.250000  0.123881  1
  O  O14  1  0.473357  0.250000  0.146482  1
  O  O15  1  0.214283  0.946897  0.307060  1
  O  O16  1  0.214283  0.553103  0.307060  1
  O  O17  1  0.626137  0.750000  0.446283  1
  O  O18  1  0.842999  0.250000  0.414158  1
  O  O19  1  0.157001  0.750000  0.585842  1
  O  O20  1  0.373863  0.250000  0.553717  1
  O  O21  1  0.785717  0.446897  0.692940  1
  O  O22  1  0.785717  0.053103  0.692940  1
  O  O23  1  0.526643  0.750000  0.853518  1
  O  O24  1  0.953649  0.750000  0.876119  1
  O  O25  1  0.286216  0.250000  0.920530  1
