# generated using pymatgen
data_Zr3N2O3
_symmetry_space_group_name_H-M   'P 1'
_cell_length_a   5.77220186
_cell_length_b   5.77220186
_cell_length_c   10.82210164
_cell_angle_alpha   89.53823654
_cell_angle_beta   90.46176346
_cell_angle_gamma   138.89097355
_symmetry_Int_Tables_number   1
_chemical_formula_structural   Zr3N2O3
_chemical_formula_sum   'Zr6 N4 O6'
_cell_volume   237.06656412
_cell_formula_units_Z   2
loop_
 _symmetry_equiv_pos_site_id
 _symmetry_equiv_pos_as_xyz
  1  'x, y, z'
loop_
 _atom_site_type_symbol
 _atom_site_label
 _atom_site_symmetry_multiplicity
 _atom_site_fract_x
 _atom_site_fract_y
 _atom_site_fract_z
 _atom_site_occupancy
  Zr  Zr0  1  0.814877  0.185123  0.751819  1
  Zr  Zr1  1  0.854872  0.145128  0.059283  1
  Zr  Zr2  1  0.862283  0.137717  0.445030  1
  Zr  Zr3  1  0.191920  0.808080  0.251504  1
  Zr  Zr4  1  0.142075  0.857925  0.945585  1
  Zr  Zr5  1  0.134741  0.865259  0.560026  1
  N  N6  1  0.700864  0.299136  0.922238  1
  N  N7  1  0.952118  0.047882  0.615720  1
  N  N8  1  0.294195  0.705805  0.425706  1
  N  N9  1  0.296896  0.703104  0.080568  1
  O  O10  1  0.689620  0.310380  0.580549  1
  O  O11  1  0.753554  0.246446  0.248981  1
  O  O12  1  0.953786  0.046214  0.887302  1
  O  O13  1  0.243440  0.756560  0.743825  1
  O  O14  1  0.043235  0.956765  0.116074  1
  O  O15  1  0.041955  0.958045  0.380984  1
