# generated using pymatgen
data_Li4AlCr3O8
_symmetry_space_group_name_H-M   'P 1'
_cell_length_a   5.11086617
_cell_length_b   7.75934191
_cell_length_c   7.76086522
_cell_angle_alpha   81.85897312
_cell_angle_beta   83.83847801
_cell_angle_gamma   71.00920023
_symmetry_Int_Tables_number   1
_chemical_formula_structural   Li4AlCr3O8
_chemical_formula_sum   'Li8 Al2 Cr6 O16'
_cell_volume   287.47035185
_cell_formula_units_Z   2
loop_
 _symmetry_equiv_pos_site_id
 _symmetry_equiv_pos_as_xyz
  1  'x, y, z'
loop_
 _atom_site_type_symbol
 _atom_site_label
 _atom_site_symmetry_multiplicity
 _atom_site_fract_x
 _atom_site_fract_y
 _atom_site_fract_z
 _atom_site_occupancy
  Li  Li0  1  0.999882  0.687877  0.937473  1
  Li  Li1  1  0.000308  0.436787  0.686930  1
  Li  Li2  1  0.999692  0.563213  0.313070  1
  Li  Li3  1  0.000178  0.062698  0.810901  1
  Li  Li4  1  0.000336  0.185987  0.438459  1
  Li  Li5  1  0.000118  0.312123  0.062527  1
  Li  Li6  1  0.999664  0.814013  0.561541  1
  Li  Li7  1  0.999822  0.937302  0.189099  1
  Al  Al8  1  0.499861  0.123784  0.623725  1
  Al  Al9  1  0.500139  0.876216  0.376275  1
  Cr  Cr10  1  0.499840  0.373713  0.873673  1
  Cr  Cr11  1  0.500000  0.500000  0.500000  1
  Cr  Cr12  1  0.500160  0.626287  0.126327  1
  Cr  Cr13  1  0.499934  0.247220  0.252929  1
  Cr  Cr14  1  0.500066  0.752780  0.747071  1
  Cr  Cr15  1  0.500000  0.000000  0.000000  1
  O  O16  1  0.726807  0.536841  0.906370  1
  O  O17  1  0.272513  0.589802  0.717445  1
  O  O18  1  0.721703  0.668228  0.525676  1
  O  O19  1  0.278382  0.210036  0.834140  1
  O  O20  1  0.720589  0.278867  0.654838  1
  O  O21  1  0.727487  0.410198  0.282555  1
  O  O22  1  0.278297  0.331772  0.474324  1
  O  O23  1  0.721335  0.919067  0.776286  1
  O  O24  1  0.715898  0.032069  0.414162  1
  O  O25  1  0.273193  0.463159  0.093630  1
  O  O26  1  0.284102  0.967931  0.585838  1
  O  O27  1  0.727281  0.160944  0.033078  1
  O  O28  1  0.278665  0.080933  0.223714  1
  O  O29  1  0.721618  0.789964  0.165860  1
  O  O30  1  0.279411  0.721133  0.345162  1
  O  O31  1  0.272719  0.839056  0.966922  1
