# generated using pymatgen
data_Li4Mn7(OF7)2
_symmetry_space_group_name_H-M   'P 1'
_cell_length_a   6.20564119
_cell_length_b   6.20564119
_cell_length_c   11.13634496
_cell_angle_alpha   72.81288065
_cell_angle_beta   107.18711935
_cell_angle_gamma   117.69257431
_symmetry_Int_Tables_number   1
_chemical_formula_structural   Li4Mn7(OF7)2
_chemical_formula_sum   'Li4 Mn7 O2 F14'
_cell_volume   356.38084074
_cell_formula_units_Z   1
loop_
 _symmetry_equiv_pos_site_id
 _symmetry_equiv_pos_as_xyz
  1  'x, y, z'
loop_
 _atom_site_type_symbol
 _atom_site_label
 _atom_site_symmetry_multiplicity
 _atom_site_fract_x
 _atom_site_fract_y
 _atom_site_fract_z
 _atom_site_occupancy
  Li  Li0  1  0.420826  0.579174  0.287310  1
  Li  Li1  1  0.079743  0.920257  0.202834  1
  Li  Li2  1  0.920257  0.079743  0.797166  1
  Li  Li3  1  0.579174  0.420826  0.712690  1
  Mn  Mn4  1  0.770614  0.229386  0.260666  1
  Mn  Mn5  1  1.000000  0.500000  0.500000  1
  Mn  Mn6  1  0.500000  0.000000  0.500000  1
  Mn  Mn7  1  0.500000  0.500000  0.000000  1
  Mn  Mn8  1  0.229386  0.770614  0.739334  1
  Mn  Mn9  1  0.500000  0.000000  0.000000  1
  Mn  Mn10  1  0.000000  0.500000  0.000000  1
  O  O11  1  0.638239  0.361761  0.909384  1
  O  O12  1  0.361761  0.638239  0.090615  1
  F  F13  1  0.601818  0.880083  0.370189  1
  F  F14  1  0.119917  0.398182  0.370189  1
  F  F15  1  0.366308  0.633692  0.625927  1
  F  F16  1  0.633692  0.366308  0.374073  1
  F  F17  1  0.859331  0.140669  0.613058  1
  F  F18  1  0.140669  0.859331  0.386942  1
  F  F19  1  0.880083  0.601818  0.629811  1
  F  F20  1  0.398182  0.119917  0.629811  1
  F  F21  1  0.126673  0.395512  0.861219  1
  F  F22  1  0.604488  0.873327  0.861219  1
  F  F23  1  0.114747  0.885253  0.862471  1
  F  F24  1  0.885253  0.114747  0.137529  1
  F  F25  1  0.395512  0.126673  0.138781  1
  F  F26  1  0.873327  0.604488  0.138781  1
