# generated using pymatgen
data_LiMn2P2HO8
_symmetry_space_group_name_H-M   'P 1'
_cell_length_a   5.15284005
_cell_length_b   8.78069387
_cell_length_c   8.84902384
_cell_angle_alpha   94.67689757
_cell_angle_beta   105.52887739
_cell_angle_gamma   102.60305806
_symmetry_Int_Tables_number   1
_chemical_formula_structural   LiMn2P2HO8
_chemical_formula_sum   'Li2 Mn4 P4 H2 O16'
_cell_volume   372.27467110
_cell_formula_units_Z   2
loop_
 _symmetry_equiv_pos_site_id
 _symmetry_equiv_pos_as_xyz
  1  'x, y, z'
loop_
 _atom_site_type_symbol
 _atom_site_label
 _atom_site_symmetry_multiplicity
 _atom_site_fract_x
 _atom_site_fract_y
 _atom_site_fract_z
 _atom_site_occupancy
  Li  Li0  1  0.585745  0.803657  0.295727  1
  Li  Li1  1  0.414255  0.196343  0.704273  1
  Mn  Mn2  1  0.323339  0.407370  0.121259  1
  Mn  Mn3  1  0.769290  0.217304  0.392095  1
  Mn  Mn4  1  0.230710  0.782696  0.607905  1
  Mn  Mn5  1  0.676661  0.592630  0.878741  1
  P  P6  1  0.870091  0.936593  0.747862  1
  P  P7  1  0.100247  0.426194  0.742778  1
  P  P8  1  0.899753  0.573806  0.257222  1
  P  P9  1  0.129909  0.063407  0.252138  1
  H  H10  1  0.908098  0.123025  0.939661  1
  H  H11  1  0.091902  0.876975  0.060339  1
  O  O12  1  0.105151  0.178833  0.128430  1
  O  O13  1  0.370925  0.132871  0.404527  1
  O  O14  1  0.812397  0.421719  0.766040  1
  O  O15  1  0.148603  0.986230  0.708927  1
  O  O16  1  0.736439  0.399320  0.256091  1
  O  O17  1  0.795832  0.087059  0.824362  1
  O  O18  1  0.699542  0.629829  0.118455  1
  O  O19  1  0.918271  0.680742  0.408435  1
  O  O20  1  0.081729  0.319258  0.591565  1
  O  O21  1  0.300458  0.370171  0.881545  1
  O  O22  1  0.204168  0.912941  0.175638  1
  O  O23  1  0.263561  0.600680  0.743909  1
  O  O24  1  0.851397  0.013770  0.291073  1
  O  O25  1  0.187603  0.578281  0.233960  1
  O  O26  1  0.629075  0.867129  0.595473  1
  O  O27  1  0.894849  0.821167  0.871570  1
