# generated using pymatgen
data_Hf2N2O
_symmetry_space_group_name_H-M   'P 1'
_cell_length_a   8.71382823
_cell_length_b   8.72397757
_cell_length_c   8.74641138
_cell_angle_alpha   109.47941080
_cell_angle_beta   109.43754206
_cell_angle_gamma   109.30725532
_symmetry_Int_Tables_number   1
_chemical_formula_structural   Hf2N2O
_chemical_formula_sum   'Hf16 N16 O8'
_cell_volume   513.02914090
_cell_formula_units_Z   8
loop_
 _symmetry_equiv_pos_site_id
 _symmetry_equiv_pos_as_xyz
  1  'x, y, z'
loop_
 _atom_site_type_symbol
 _atom_site_label
 _atom_site_symmetry_multiplicity
 _atom_site_fract_x
 _atom_site_fract_y
 _atom_site_fract_z
 _atom_site_occupancy
  Hf  Hf0  1  0.786152  0.036980  0.751160  1
  Hf  Hf1  1  0.003086  0.998894  0.510136  1
  Hf  Hf2  1  0.757540  0.217728  0.468544  1
  Hf  Hf3  1  0.240761  0.274703  0.030031  1
  Hf  Hf4  1  0.469202  0.757102  0.223167  1
  Hf  Hf5  1  0.967986  0.746202  0.711299  1
  Hf  Hf6  1  0.489307  0.998001  0.981788  1
  Hf  Hf7  1  0.278418  0.529180  0.736139  1
  Hf  Hf8  1  0.715378  0.464916  0.254053  1
  Hf  Hf9  1  0.003063  0.510156  0.012823  1
  Hf  Hf10  1  0.494908  0.489836  0.502517  1
  Hf  Hf11  1  0.529386  0.248180  0.787832  1
  Hf  Hf12  1  0.045586  0.258583  0.286208  1
  Hf  Hf13  1  0.249400  0.787527  0.532810  1
  Hf  Hf14  1  0.752110  0.705528  0.964648  1
  Hf  Hf15  1  0.212812  0.964373  0.249991  1
  N  N16  1  0.722558  0.954015  0.465852  1
  N  N17  1  0.735108  0.462148  0.508785  1
  N  N18  1  0.985596  0.264053  0.034447  1
  N  N19  1  0.963475  0.726331  0.450610  1
  N  N20  1  0.774408  0.510665  0.046210  1
  N  N21  1  0.538266  0.991230  0.764887  1
  N  N22  1  0.031554  0.274900  0.545243  1
  N  N23  1  0.274506  0.225936  0.261082  1
  N  N24  1  0.229693  0.761829  0.776396  1
  N  N25  1  0.006500  0.738677  0.966072  1
  N  N26  1  0.455455  0.227502  0.991643  1
  N  N27  1  0.262013  0.533590  0.484937  1
  N  N28  1  0.244646  0.728042  0.270475  1
  N  N29  1  0.044502  0.032424  0.773050  1
  N  N30  1  0.493023  0.461652  0.730252  1
  N  N31  1  0.271739  0.048911  0.531568  1
  O  O32  1  0.511665  0.547744  0.270018  1
  O  O33  1  0.949683  0.964567  0.224043  1
  O  O34  1  0.764952  0.274237  0.726717  1
  O  O35  1  0.550512  0.777407  0.019861  1
  O  O36  1  0.769066  0.233517  0.227094  1
  O  O37  1  0.234293  0.488842  0.956420  1
  O  O38  1  0.724989  0.773346  0.735913  1
  O  O39  1  0.466701  0.010547  0.235278  1
