# generated using pymatgen
data_V3Zn2O8
_symmetry_space_group_name_H-M   'P 1'
_cell_length_a   5.93596182
_cell_length_b   5.93596182
_cell_length_c   5.93596182
_cell_angle_alpha   60.16073416
_cell_angle_beta   60.16073416
_cell_angle_gamma   60.16073416
_symmetry_Int_Tables_number   1
_chemical_formula_structural   V3Zn2O8
_chemical_formula_sum   'V3 Zn2 O8'
_cell_volume   148.43505995
_cell_formula_units_Z   1
loop_
 _symmetry_equiv_pos_site_id
 _symmetry_equiv_pos_as_xyz
  1  'x, y, z'
loop_
 _atom_site_type_symbol
 _atom_site_label
 _atom_site_symmetry_multiplicity
 _atom_site_fract_x
 _atom_site_fract_y
 _atom_site_fract_z
 _atom_site_occupancy
  V  V0  1  0.500000  0.000000  0.500000  1
  V  V1  1  0.500000  0.500000  0.000000  1
  V  V2  1  1.000000  0.500000  0.500000  1
  Zn  Zn3  1  0.881274  0.881274  0.881274  1
  Zn  Zn4  1  0.118726  0.118726  0.118726  1
  O  O5  1  0.257014  0.257014  0.257014  1
  O  O6  1  0.713006  0.244771  0.244771  1
  O  O7  1  0.286994  0.755229  0.755229  1
  O  O8  1  0.755229  0.286994  0.755229  1
  O  O9  1  0.755229  0.755229  0.286994  1
  O  O10  1  0.742986  0.742986  0.742986  1
  O  O11  1  0.244771  0.244771  0.713006  1
  O  O12  1  0.244771  0.713006  0.244771  1
