# generated using pymatgen
data_K3LiNb6O15
_symmetry_space_group_name_H-M   'P 1'
_cell_length_a   4.08855020
_cell_length_b   12.97189774
_cell_length_c   12.96533290
_cell_angle_alpha   90.00000000
_cell_angle_beta   90.33965317
_cell_angle_gamma   90.00000000
_symmetry_Int_Tables_number   1
_chemical_formula_structural   K3LiNb6O15
_chemical_formula_sum   'K6 Li2 Nb12 O30'
_cell_volume   687.62062114
_cell_formula_units_Z   2
loop_
 _symmetry_equiv_pos_site_id
 _symmetry_equiv_pos_as_xyz
  1  'x, y, z'
loop_
 _atom_site_type_symbol
 _atom_site_label
 _atom_site_symmetry_multiplicity
 _atom_site_fract_x
 _atom_site_fract_y
 _atom_site_fract_z
 _atom_site_occupancy
  K  K0  1  0.532521  0.244164  0.997739  1
  K  K1  1  0.520513  0.415301  0.676048  1
  K  K2  1  0.520513  0.584699  0.176048  1
  K  K3  1  0.532521  0.755836  0.497739  1
  K  K4  1  0.515888  0.930950  0.828871  1
  K  K5  1  0.515888  0.069050  0.328871  1
  Li  Li6  1  0.504990  0.886524  0.136718  1
  Li  Li7  1  0.504990  0.113476  0.636718  1
  Nb  Nb8  1  0.014017  0.244660  0.505479  1
  Nb  Nb9  1  0.026383  0.322229  0.204366  1
  Nb  Nb10  1  0.369268  0.373485  0.374216  1
  Nb  Nb11  1  0.021956  0.451121  0.927126  1
  Nb  Nb12  1  0.021956  0.548879  0.427126  1
  Nb  Nb13  1  0.369268  0.626515  0.874216  1
  Nb  Nb14  1  0.026383  0.677771  0.704366  1
  Nb  Nb15  1  0.014017  0.755340  0.005479  1
  Nb  Nb16  1  0.025329  0.826955  0.295465  1
  Nb  Nb17  1  0.025111  0.956730  0.576824  1
  Nb  Nb18  1  0.025111  0.043270  0.076824  1
  Nb  Nb19  1  0.025329  0.173045  0.795465  1
  O  O20  1  0.529962  0.256186  0.494181  1
  O  O21  1  0.035988  0.246696  0.344077  1
  O  O22  1  0.027134  0.314306  0.857860  1
  O  O23  1  0.542741  0.331812  0.218116  1
  O  O24  1  0.041671  0.388730  0.064163  1
  O  O25  1  0.032835  0.405078  0.498928  1
  O  O26  1  0.041239  0.465547  0.283887  1
  O  O27  1  0.537899  0.468509  0.914746  1
  O  O28  1  0.537899  0.531491  0.414746  1
  O  O29  1  0.041239  0.534453  0.783887  1
  O  O30  1  0.032835  0.594922  0.998928  1
  O  O31  1  0.041671  0.611270  0.564163  1
  O  O32  1  0.542741  0.668188  0.718116  1
  O  O33  1  0.027134  0.685694  0.357860  1
  O  O34  1  0.035988  0.753304  0.844077  1
  O  O35  1  0.529962  0.743814  0.994181  1
  O  O36  1  0.032956  0.753391  0.154121  1
  O  O37  1  0.031562  0.818685  0.639456  1
  O  O38  1  0.526320  0.831732  0.285941  1
  O  O39  1  0.023049  0.893826  0.431283  1
  O  O40  1  0.032866  0.904565  0.002711  1
  O  O41  1  0.026088  0.959697  0.208225  1
  O  O42  1  0.526838  0.964358  0.579454  1
  O  O43  1  0.526838  0.035642  0.079454  1
  O  O44  1  0.026088  0.040303  0.708225  1
  O  O45  1  0.032866  0.095435  0.502711  1
  O  O46  1  0.023049  0.106174  0.931283  1
  O  O47  1  0.526320  0.168268  0.785941  1
  O  O48  1  0.031562  0.181315  0.139456  1
  O  O49  1  0.032956  0.246609  0.654121  1
