# generated using pymatgen
data_Na3CuO2
_symmetry_space_group_name_H-M   'P 1'
_cell_length_a   5.93494104
_cell_length_b   8.62118620
_cell_length_c   7.85565900
_cell_angle_alpha   90.00000000
_cell_angle_beta   111.58867268
_cell_angle_gamma   90.00000000
_symmetry_Int_Tables_number   1
_chemical_formula_structural   Na3CuO2
_chemical_formula_sum   'Na12 Cu4 O8'
_cell_volume   373.74776152
_cell_formula_units_Z   4
loop_
 _symmetry_equiv_pos_site_id
 _symmetry_equiv_pos_as_xyz
  1  'x, y, z'
loop_
 _atom_site_type_symbol
 _atom_site_label
 _atom_site_symmetry_multiplicity
 _atom_site_fract_x
 _atom_site_fract_y
 _atom_site_fract_z
 _atom_site_occupancy
  Na  Na0  1  0.247920  0.469238  0.001063  1
  Na  Na1  1  0.258400  0.026178  0.126521  1
  Na  Na2  1  0.760997  0.209724  0.187888  1
  Na  Na3  1  0.741600  0.526178  0.373479  1
  Na  Na4  1  0.239003  0.709724  0.312112  1
  Na  Na5  1  0.752080  0.969238  0.498937  1
  Na  Na6  1  0.247920  0.030762  0.501063  1
  Na  Na7  1  0.760997  0.290276  0.687888  1
  Na  Na8  1  0.258400  0.473822  0.626521  1
  Na  Na9  1  0.239003  0.790276  0.812112  1
  Na  Na10  1  0.741600  0.973822  0.873479  1
  Na  Na11  1  0.752080  0.530762  0.998937  1
  Cu  Cu12  1  0.708983  0.821495  0.173253  1
  Cu  Cu13  1  0.291017  0.321495  0.326747  1
  Cu  Cu14  1  0.708983  0.678505  0.673253  1
  Cu  Cu15  1  0.291017  0.178505  0.826747  1
  O  O16  1  0.468798  0.681918  0.117974  1
  O  O17  1  0.955754  0.958787  0.225493  1
  O  O18  1  0.531202  0.181918  0.382026  1
  O  O19  1  0.044246  0.458787  0.274507  1
  O  O20  1  0.955754  0.541213  0.725493  1
  O  O21  1  0.468798  0.818082  0.617974  1
  O  O22  1  0.044246  0.041213  0.774507  1
  O  O23  1  0.531202  0.318082  0.882026  1
