# generated using pymatgen
data_Li2VCrP2(HO5)2
_symmetry_space_group_name_H-M   'P 1'
_cell_length_a   5.42699041
_cell_length_b   7.45249164
_cell_length_c   14.45847961
_cell_angle_alpha   95.19234682
_cell_angle_beta   92.57668709
_cell_angle_gamma   110.49002136
_symmetry_Int_Tables_number   1
_chemical_formula_structural   Li2VCrP2(HO5)2
_chemical_formula_sum   'Li6 V3 Cr3 P6 H6 O30'
_cell_volume   543.67946032
_cell_formula_units_Z   3
loop_
 _symmetry_equiv_pos_site_id
 _symmetry_equiv_pos_as_xyz
  1  'x, y, z'
loop_
 _atom_site_type_symbol
 _atom_site_label
 _atom_site_symmetry_multiplicity
 _atom_site_fract_x
 _atom_site_fract_y
 _atom_site_fract_z
 _atom_site_occupancy
  Li  Li0  1  0.265677  0.868299  0.692201  1
  Li  Li1  1  0.067422  0.464621  0.641334  1
  Li  Li2  1  0.400541  0.797528  0.973969  1
  Li  Li3  1  0.599532  0.202527  0.025120  1
  Li  Li4  1  0.932385  0.534986  0.359049  1
  Li  Li5  1  0.734313  0.132111  0.308346  1
  V  V6  1  0.665684  0.666486  0.166918  1
  V  V7  1  0.999870  0.999949  0.500075  1
  V  V8  1  0.000011  0.999801  0.999461  1
  Cr  Cr9  1  0.334350  0.333393  0.832988  1
  Cr  Cr10  1  0.333834  0.333657  0.333496  1
  Cr  Cr11  1  0.666249  0.666561  0.666938  1
  P  P12  1  0.020496  0.380350  0.148552  1
  P  P13  1  0.313118  0.954188  0.185717  1
  P  P14  1  0.354260  0.712191  0.481421  1
  P  P15  1  0.645409  0.287751  0.518906  1
  P  P16  1  0.687623  0.048141  0.814075  1
  P  P17  1  0.978971  0.617316  0.851312  1
  H  H18  1  0.046728  0.988264  0.325928  1
  H  H19  1  0.288238  0.347749  0.005953  1
  H  H20  1  0.381822  0.321540  0.660822  1
  H  H21  1  0.619599  0.678038  0.341137  1
  H  H22  1  0.709507  0.652874  0.991703  1
  H  H23  1  0.953470  0.011474  0.674307  1
  O  O24  1  0.080900  0.826096  0.900598  1
  O  O25  1  0.042735  0.838913  0.218481  1
  O  O26  1  0.137736  0.792055  0.451752  1
  O  O27  1  0.196651  0.539621  0.881396  1
  O  O28  1  0.298768  0.959074  0.077618  1
  O  O29  1  0.037036  0.375403  0.256449  1
  O  O30  1  0.370169  0.707366  0.589358  1
  O  O31  1  0.252615  0.502723  0.432683  1
  O  O32  1  0.049582  0.097183  0.371315  1
  O  O33  1  0.290122  0.495226  0.114936  1
  O  O34  1  0.285323  0.238447  0.960792  1
  O  O35  1  0.587153  0.838520  0.765510  1
  O  O36  1  0.528456  0.873875  0.215924  1
  O  O37  1  0.380343  0.430482  0.705346  1
  O  O38  1  0.623579  0.827855  0.447999  1
  O  O39  1  0.376021  0.172100  0.552230  1
  O  O40  1  0.618161  0.569280  0.295913  1
  O  O41  1  0.469968  0.125845  0.784051  1
  O  O42  1  0.414412  0.163749  0.234199  1
  O  O43  1  0.718004  0.762031  0.037941  1
  O  O44  1  0.707075  0.503081  0.884783  1
  O  O45  1  0.949757  0.902429  0.628861  1
  O  O46  1  0.746592  0.497238  0.567591  1
  O  O47  1  0.629663  0.292261  0.410929  1
  O  O48  1  0.962062  0.623638  0.743568  1
  O  O49  1  0.702509  0.042385  0.922093  1
  O  O50  1  0.804993  0.460613  0.118468  1
  O  O51  1  0.862214  0.208049  0.548467  1
  O  O52  1  0.960112  0.163047  0.781565  1
  O  O53  1  0.918178  0.171616  0.099455  1
