# generated using pymatgen
data_Li2MnO2F
_symmetry_space_group_name_H-M   'P 1'
_cell_length_a   5.16595783
_cell_length_b   5.16595783
_cell_length_c   6.35291623
_cell_angle_alpha   90.00000000
_cell_angle_beta   90.00000000
_cell_angle_gamma   134.89144027
_symmetry_Int_Tables_number   1
_chemical_formula_structural   Li2MnO2F
_chemical_formula_sum   'Li4 Mn2 O4 F2'
_cell_volume   120.11055011
_cell_formula_units_Z   2
loop_
 _symmetry_equiv_pos_site_id
 _symmetry_equiv_pos_as_xyz
  1  'x, y, z'
loop_
 _atom_site_type_symbol
 _atom_site_label
 _atom_site_symmetry_multiplicity
 _atom_site_fract_x
 _atom_site_fract_y
 _atom_site_fract_z
 _atom_site_occupancy
  Li  Li0  1  0.667662  0.332338  0.250000  1
  Li  Li1  1  0.625663  0.374337  0.750000  1
  Li  Li2  1  0.332338  0.667662  0.750000  1
  Li  Li3  1  0.374337  0.625663  0.250000  1
  Mn  Mn4  1  0.000000  0.000000  0.000000  1
  Mn  Mn5  1  0.000000  0.000000  0.500000  1
  O  O6  1  0.118486  0.881514  0.750000  1
  O  O7  1  0.881514  0.118486  0.250000  1
  O  O8  1  0.500000  0.500000  0.500000  1
  O  O9  1  0.500000  0.500000  0.000000  1
  F  F10  1  0.170944  0.829056  0.250000  1
  F  F11  1  0.829056  0.170944  0.750000  1
