# generated using pymatgen
data_LiFeH12(SO7)2
_symmetry_space_group_name_H-M   'P 1'
_cell_length_a   6.02515715
_cell_length_b   11.89535839
_cell_length_c   8.99011325
_cell_angle_alpha   90.00000000
_cell_angle_beta   105.67922341
_cell_angle_gamma   90.00000000
_symmetry_Int_Tables_number   1
_chemical_formula_structural   LiFeH12(SO7)2
_chemical_formula_sum   'Li2 Fe2 H24 S4 O28'
_cell_volume   620.35824293
_cell_formula_units_Z   2
loop_
 _symmetry_equiv_pos_site_id
 _symmetry_equiv_pos_as_xyz
  1  'x, y, z'
loop_
 _atom_site_type_symbol
 _atom_site_label
 _atom_site_symmetry_multiplicity
 _atom_site_fract_x
 _atom_site_fract_y
 _atom_site_fract_z
 _atom_site_occupancy
  Li  Li0  1  0.648108  0.105439  0.648400  1
  Li  Li1  1  0.351892  0.605439  0.351600  1
  Fe  Fe2  1  0.996692  0.000345  0.246962  1
  Fe  Fe3  1  0.003308  0.500345  0.753038  1
  H  H4  1  0.331974  0.066499  0.138444  1
  H  H5  1  0.651609  0.856172  0.215570  1
  H  H6  1  0.063288  0.401809  0.032917  1
  H  H7  1  0.093049  0.635446  0.999539  1
  H  H8  1  0.994823  0.309498  0.894716  1
  H  H9  1  0.663039  0.102178  0.036068  1
  H  H10  1  0.336961  0.602178  0.963932  1
  H  H11  1  0.005177  0.809498  0.105284  1
  H  H12  1  0.906951  0.135446  0.000461  1
  H  H13  1  0.936712  0.901809  0.967083  1
  H  H14  1  0.348391  0.356172  0.784430  1
  H  H15  1  0.668026  0.566499  0.861556  1
  H  H16  1  0.341488  0.443856  0.643493  1
  H  H17  1  0.657841  0.647897  0.712714  1
  H  H18  1  0.069649  0.092329  0.528287  1
  H  H19  1  0.090320  0.868192  0.492691  1
  H  H20  1  0.990458  0.190907  0.399890  1
  H  H21  1  0.667547  0.408722  0.538373  1
  H  H22  1  0.332453  0.908722  0.461627  1
  H  H23  1  0.009542  0.690907  0.600110  1
  H  H24  1  0.909680  0.368192  0.507309  1
  H  H25  1  0.930351  0.592329  0.471713  1
  H  H26  1  0.342159  0.147897  0.287286  1
  H  H27  1  0.658512  0.943856  0.356507  1
  S  S28  1  0.736636  0.635768  0.169346  1
  S  S29  1  0.263364  0.135768  0.830654  1
  S  S30  1  0.731063  0.863563  0.643739  1
  S  S31  1  0.268937  0.363563  0.356261  1
  O  O32  1  0.295358  0.071179  0.241606  1
  O  O33  1  0.219375  0.420232  0.205287  1
  O  O34  1  0.021819  0.890518  0.079535  1
  O  O35  1  0.585043  0.730680  0.189969  1
  O  O36  1  0.968669  0.676824  0.156024  1
  O  O37  1  0.833771  0.113644  0.082808  1
  O  O38  1  0.384850  0.075104  0.975475  1
  O  O39  1  0.615150  0.575104  0.024525  1
  O  O40  1  0.166229  0.613644  0.917192  1
  O  O41  1  0.031331  0.176824  0.843976  1
  O  O42  1  0.414957  0.230680  0.810031  1
  O  O43  1  0.978181  0.390518  0.920465  1
  O  O44  1  0.303238  0.435410  0.745325  1
  O  O45  1  0.229056  0.059686  0.695998  1
  O  O46  1  0.780625  0.920232  0.794713  1
  O  O47  1  0.704642  0.571179  0.758394  1
  O  O48  1  0.032158  0.608999  0.579552  1
  O  O49  1  0.570902  0.766414  0.628713  1
  O  O50  1  0.945724  0.824827  0.606719  1
  O  O51  1  0.831500  0.388545  0.589842  1
  O  O52  1  0.386703  0.453561  0.472859  1
  O  O53  1  0.613297  0.953561  0.527141  1
  O  O54  1  0.168500  0.888545  0.410158  1
  O  O55  1  0.054276  0.324827  0.393281  1
  O  O56  1  0.429098  0.266414  0.371287  1
  O  O57  1  0.967842  0.108999  0.420448  1
  O  O58  1  0.770944  0.559686  0.304002  1
  O  O59  1  0.696762  0.935410  0.254675  1
