# generated using pymatgen
data_Na4Be2Si6Sn(HO5)4
_symmetry_space_group_name_H-M   'P 1'
_cell_length_a   11.10730604
_cell_length_b   11.10730604
_cell_length_c   12.14400332
_cell_angle_alpha   64.34654056
_cell_angle_beta   115.65345944
_cell_angle_gamma   140.58380859
_symmetry_Int_Tables_number   1
_chemical_formula_structural   Na4Be2Si6Sn(HO5)4
_chemical_formula_sum   'Na8 Be4 Si12 Sn2 H8 O40'
_cell_volume   844.74518448
_cell_formula_units_Z   2
loop_
 _symmetry_equiv_pos_site_id
 _symmetry_equiv_pos_as_xyz
  1  'x, y, z'
loop_
 _atom_site_type_symbol
 _atom_site_label
 _atom_site_symmetry_multiplicity
 _atom_site_fract_x
 _atom_site_fract_y
 _atom_site_fract_z
 _atom_site_occupancy
  Na  Na0  1  0.204248  0.690272  0.733054  1
  Na  Na1  1  0.690272  0.204248  0.766946  1
  Na  Na2  1  0.795752  0.309728  0.266946  1
  Na  Na3  1  0.309728  0.795752  0.233054  1
  Na  Na4  1  0.209195  0.315384  0.802608  1
  Na  Na5  1  0.315384  0.209195  0.697392  1
  Na  Na6  1  0.790805  0.684616  0.197392  1
  Na  Na7  1  0.684616  0.790805  0.302608  1
  Be  Be8  1  0.603076  0.603076  0.750000  1
  Be  Be9  1  0.396924  0.396924  0.250000  1
  Be  Be10  1  0.916466  0.916466  0.750000  1
  Be  Be11  1  0.083534  0.083534  0.250000  1
  Si  Si12  1  0.656837  0.450994  0.997690  1
  Si  Si13  1  0.450994  0.656837  0.502310  1
  Si  Si14  1  0.343163  0.549006  0.002310  1
  Si  Si15  1  0.549006  0.343163  0.497690  1
  Si  Si16  1  0.859757  0.626287  0.695548  1
  Si  Si17  1  0.626287  0.859757  0.804452  1
  Si  Si18  1  0.140243  0.373713  0.304452  1
  Si  Si19  1  0.373713  0.140243  0.195548  1
  Si  Si20  1  0.934274  0.143170  0.006030  1
  Si  Si21  1  0.143170  0.934274  0.493970  1
  Si  Si22  1  0.065726  0.856830  0.993970  1
  Si  Si23  1  0.856830  0.065726  0.506030  1
  Sn  Sn24  1  0.000000  0.500000  0.000000  1
  Sn  Sn25  1  0.500000  1.000000  0.500000  1
  H  H26  1  0.964668  0.342199  0.600784  1
  H  H27  1  0.342199  0.964668  0.899216  1
  H  H28  1  0.035332  0.657801  0.399216  1
  H  H29  1  0.657801  0.035332  0.100784  1
  H  H30  1  0.174536  0.544009  0.586778  1
  H  H31  1  0.544009  0.174536  0.913222  1
  H  H32  1  0.825464  0.455991  0.413222  1
  H  H33  1  0.455991  0.825464  0.086778  1
  O  O34  1  0.435047  0.521330  0.633176  1
  O  O35  1  0.521330  0.435047  0.866824  1
  O  O36  1  0.564953  0.478670  0.366824  1
  O  O37  1  0.478670  0.564953  0.133176  1
  O  O38  1  0.860067  0.226420  0.005219  1
  O  O39  1  0.226420  0.860067  0.494781  1
  O  O40  1  0.139933  0.773580  0.994781  1
  O  O41  1  0.773580  0.139933  0.505219  1
  O  O42  1  0.926701  0.527744  0.807021  1
  O  O43  1  0.527744  0.926701  0.692979  1
  O  O44  1  0.073299  0.472256  0.192979  1
  O  O45  1  0.472256  0.073299  0.307021  1
  O  O46  1  0.999814  0.081249  0.631668  1
  O  O47  1  0.081249  0.999814  0.868332  1
  O  O48  1  0.000186  0.918751  0.368332  1
  O  O49  1  0.918751  0.000186  0.131668  1
  O  O50  1  0.155133  0.325765  0.972541  1
  O  O51  1  0.325765  0.155133  0.527459  1
  O  O52  1  0.844867  0.674235  0.027459  1
  O  O53  1  0.674235  0.844867  0.472541  1
  O  O54  1  0.734339  0.362847  0.015718  1
  O  O55  1  0.362847  0.734339  0.484282  1
  O  O56  1  0.265661  0.637153  0.984282  1
  O  O57  1  0.637153  0.265661  0.515718  1
  O  O58  1  0.084788  0.447842  0.647453  1
  O  O59  1  0.447842  0.084788  0.852547  1
  O  O60  1  0.915212  0.552158  0.352547  1
  O  O61  1  0.552158  0.915212  0.147453  1
  O  O62  1  0.813650  0.705146  0.738623  1
  O  O63  1  0.705146  0.813650  0.761377  1
  O  O64  1  0.186350  0.294854  0.261377  1
  O  O65  1  0.294854  0.186350  0.238623  1
  O  O66  1  0.662142  0.456093  0.614385  1
  O  O67  1  0.456093  0.662142  0.885615  1
  O  O68  1  0.337858  0.543907  0.385615  1
  O  O69  1  0.543907  0.337858  0.114385  1
  O  O70  1  0.036706  0.802972  0.616509  1
  O  O71  1  0.802972  0.036706  0.883491  1
  O  O72  1  0.963294  0.197028  0.383491  1
  O  O73  1  0.197028  0.963294  0.116509  1
