# generated using pymatgen
data_VF4
_symmetry_space_group_name_H-M   'P 1'
_cell_length_a   5.75718367
_cell_length_b   5.75718367
_cell_length_c   4.98743537
_cell_angle_alpha   89.55066051
_cell_angle_beta   90.44933949
_cell_angle_gamma   116.29668348
_symmetry_Int_Tables_number   1
_chemical_formula_structural   VF4
_chemical_formula_sum   'V2 F8'
_cell_volume   148.19552267
_cell_formula_units_Z   2
loop_
 _symmetry_equiv_pos_site_id
 _symmetry_equiv_pos_as_xyz
  1  'x, y, z'
loop_
 _atom_site_type_symbol
 _atom_site_label
 _atom_site_symmetry_multiplicity
 _atom_site_fract_x
 _atom_site_fract_y
 _atom_site_fract_z
 _atom_site_occupancy
  V  V0  1  0.338980  0.338980  0.750000  1
  V  V1  1  0.661020  0.661020  0.250000  1
  F  F2  1  0.694860  0.489206  0.573410  1
  F  F3  1  0.254349  0.028883  0.621112  1
  F  F4  1  0.028883  0.254349  0.878888  1
  F  F5  1  0.489206  0.694860  0.926590  1
  F  F6  1  0.971117  0.745651  0.121112  1
  F  F7  1  0.510794  0.305140  0.073410  1
  F  F8  1  0.305140  0.510794  0.426590  1
  F  F9  1  0.745651  0.971117  0.378888  1
