# generated using pymatgen
data_Ba3La2Ti3Cr2O15
_symmetry_space_group_name_H-M   'P 1'
_cell_length_a   14.33586365
_cell_length_b   14.33586365
_cell_length_c   3.99727750
_cell_angle_alpha   90.00000000
_cell_angle_beta   90.00000000
_cell_angle_gamma   157.16807187
_symmetry_Int_Tables_number   1
_chemical_formula_structural   Ba3La2Ti3Cr2O15
_chemical_formula_sum   'Ba3 La2 Ti3 Cr2 O15'
_cell_volume   318.76928670
_cell_formula_units_Z   1
loop_
 _symmetry_equiv_pos_site_id
 _symmetry_equiv_pos_as_xyz
  1  'x, y, z'
loop_
 _atom_site_type_symbol
 _atom_site_label
 _atom_site_symmetry_multiplicity
 _atom_site_fract_x
 _atom_site_fract_y
 _atom_site_fract_z
 _atom_site_occupancy
  Ba  Ba0  1  0.601764  0.398236  0.500000  1
  Ba  Ba1  1  0.000000  0.000000  0.500000  1
  Ba  Ba2  1  0.398236  0.601764  0.500000  1
  La  La3  1  0.796264  0.203736  0.500000  1
  La  La4  1  0.203736  0.796264  0.500000  1
  Ti  Ti5  1  0.102532  0.897468  0.000000  1
  Ti  Ti6  1  0.500000  0.500000  0.000000  1
  Ti  Ti7  1  0.897468  0.102532  0.000000  1
  Cr  Cr8  1  0.299531  0.700469  0.000000  1
  Cr  Cr9  1  0.700469  0.299531  0.000000  1
  O  O10  1  0.706137  0.293863  0.500000  1
  O  O11  1  0.800396  0.698365  1.000000  1
  O  O12  1  0.199604  0.301635  0.000000  1
  O  O13  1  0.611089  0.917045  0.000000  1
  O  O14  1  0.000000  0.500000  0.000000  1
  O  O15  1  0.388911  0.082955  0.000000  1
  O  O16  1  0.698365  0.800396  0.000000  1
  O  O17  1  0.301635  0.199604  1.000000  1
  O  O18  1  0.500000  0.000000  0.000000  1
  O  O19  1  0.082955  0.388911  0.000000  1
  O  O20  1  0.917045  0.611089  0.000000  1
  O  O21  1  0.103876  0.896124  0.500000  1
  O  O22  1  0.500000  0.500000  0.500000  1
  O  O23  1  0.896124  0.103876  0.500000  1
  O  O24  1  0.293863  0.706137  0.500000  1
