# generated using pymatgen
data_LiCu2F7
_symmetry_space_group_name_H-M   'P 1'
_cell_length_a   7.05921139
_cell_length_b   10.57049267
_cell_length_c   14.35254331
_cell_angle_alpha   90.00000000
_cell_angle_beta   90.00000000
_cell_angle_gamma   90.00000000
_symmetry_Int_Tables_number   1
_chemical_formula_structural   LiCu2F7
_chemical_formula_sum   'Li8 Cu16 F56'
_cell_volume   1070.97734146
_cell_formula_units_Z   8
loop_
 _symmetry_equiv_pos_site_id
 _symmetry_equiv_pos_as_xyz
  1  'x, y, z'
loop_
 _atom_site_type_symbol
 _atom_site_label
 _atom_site_symmetry_multiplicity
 _atom_site_fract_x
 _atom_site_fract_y
 _atom_site_fract_z
 _atom_site_occupancy
  Li  Li0  1  0.905888  0.076009  0.489660  1
  Li  Li1  1  0.034058  0.113698  0.998921  1
  Li  Li2  1  0.534058  0.386302  0.498921  1
  Li  Li3  1  0.405888  0.423991  0.989660  1
  Li  Li4  1  0.905888  0.576009  0.010340  1
  Li  Li5  1  0.034058  0.613698  0.501079  1
  Li  Li6  1  0.534058  0.886302  0.001079  1
  Li  Li7  1  0.405888  0.923991  0.510340  1
  Cu  Cu8  1  0.023026  0.033135  0.682942  1
  Cu  Cu9  1  0.561236  0.181235  0.013233  1
  Cu  Cu10  1  0.704987  0.227475  0.821351  1
  Cu  Cu11  1  0.709626  0.235090  0.334109  1
  Cu  Cu12  1  0.209626  0.264910  0.834109  1
  Cu  Cu13  1  0.204987  0.272525  0.321351  1
  Cu  Cu14  1  0.061236  0.318765  0.513233  1
  Cu  Cu15  1  0.523026  0.466865  0.182942  1
  Cu  Cu16  1  0.023026  0.533135  0.817058  1
  Cu  Cu17  1  0.561236  0.681235  0.486767  1
  Cu  Cu18  1  0.704987  0.727475  0.678649  1
  Cu  Cu19  1  0.709626  0.735090  0.165891  1
  Cu  Cu20  1  0.209626  0.764910  0.665891  1
  Cu  Cu21  1  0.204987  0.772525  0.178649  1
  Cu  Cu22  1  0.061236  0.818765  0.986767  1
  Cu  Cu23  1  0.523026  0.966865  0.317058  1
  F  F24  1  0.375316  0.030254  0.410872  1
  F  F25  1  0.483642  0.035147  0.069943  1
  F  F26  1  0.738701  0.063019  0.389287  1
  F  F27  1  0.625135  0.088518  0.902161  1
  F  F28  1  0.184076  0.106245  0.770713  1
  F  F29  1  0.795517  0.103332  0.738180  1
  F  F30  1  0.593237  0.129097  0.244841  1
  F  F31  1  0.251357  0.144577  0.240226  1
  F  F32  1  0.810410  0.173222  0.058873  1
  F  F33  1  0.107715  0.175508  0.432274  1
  F  F34  1  0.001274  0.188784  0.600977  1
  F  F35  1  0.287087  0.196820  0.958360  1
  F  F36  1  0.956604  0.226236  0.884863  1
  F  F37  1  0.950471  0.240333  0.272733  1
  F  F38  1  0.450471  0.259667  0.772733  1
  F  F39  1  0.456604  0.273764  0.384863  1
  F  F40  1  0.787087  0.303180  0.458360  1
  F  F41  1  0.501274  0.311216  0.100977  1
  F  F42  1  0.607715  0.324492  0.932274  1
  F  F43  1  0.310410  0.326778  0.558873  1
  F  F44  1  0.751357  0.355423  0.740226  1
  F  F45  1  0.093237  0.370903  0.744841  1
  F  F46  1  0.295517  0.396668  0.238180  1
  F  F47  1  0.684076  0.393755  0.270713  1
  F  F48  1  0.125135  0.411482  0.402161  1
  F  F49  1  0.238701  0.436981  0.889287  1
  F  F50  1  0.983642  0.464853  0.569943  1
  F  F51  1  0.875316  0.469746  0.910872  1
  F  F52  1  0.375316  0.530254  0.089128  1
  F  F53  1  0.483642  0.535147  0.430057  1
  F  F54  1  0.738701  0.563019  0.110713  1
  F  F55  1  0.625135  0.588518  0.597839  1
  F  F56  1  0.184076  0.606245  0.729287  1
  F  F57  1  0.795517  0.603332  0.761820  1
  F  F58  1  0.593237  0.629097  0.255159  1
  F  F59  1  0.251357  0.644577  0.259774  1
  F  F60  1  0.810410  0.673222  0.441127  1
  F  F61  1  0.107715  0.675508  0.067726  1
  F  F62  1  0.001274  0.688784  0.899023  1
  F  F63  1  0.287087  0.696820  0.541640  1
  F  F64  1  0.956604  0.726236  0.615137  1
  F  F65  1  0.950471  0.740333  0.227267  1
  F  F66  1  0.450471  0.759667  0.727267  1
  F  F67  1  0.456604  0.773764  0.115137  1
  F  F68  1  0.787087  0.803180  0.041640  1
  F  F69  1  0.501274  0.811216  0.399023  1
  F  F70  1  0.607715  0.824492  0.567726  1
  F  F71  1  0.310410  0.826778  0.941127  1
  F  F72  1  0.751357  0.855423  0.759774  1
  F  F73  1  0.093237  0.870903  0.755159  1
  F  F74  1  0.295517  0.896668  0.261820  1
  F  F75  1  0.684076  0.893755  0.229287  1
  F  F76  1  0.125135  0.911482  0.097839  1
  F  F77  1  0.238701  0.936981  0.610713  1
  F  F78  1  0.983642  0.964853  0.930057  1
  F  F79  1  0.875316  0.969746  0.589128  1
