# generated using pymatgen
data_TeH18(Br3O4)2
_symmetry_space_group_name_H-M   'P 1'
_cell_length_a   7.72754672
_cell_length_b   9.88300674
_cell_length_c   14.05407484
_cell_angle_alpha   90.00000000
_cell_angle_beta   120.60558700
_cell_angle_gamma   90.00000000
_symmetry_Int_Tables_number   1
_chemical_formula_structural   TeH18(Br3O4)2
_chemical_formula_sum   'Te2 H36 Br12 O16'
_cell_volume   923.80637288
_cell_formula_units_Z   2
loop_
 _symmetry_equiv_pos_site_id
 _symmetry_equiv_pos_as_xyz
  1  'x, y, z'
loop_
 _atom_site_type_symbol
 _atom_site_label
 _atom_site_symmetry_multiplicity
 _atom_site_fract_x
 _atom_site_fract_y
 _atom_site_fract_z
 _atom_site_occupancy
  Te  Te0  1  0.000000  0.000000  0.500000  1
  Te  Te1  1  0.000000  0.500000  0.000000  1
  H  H2  1  0.689008  0.528801  0.496171  1
  H  H3  1  0.689008  0.971199  0.996171  1
  H  H4  1  0.310992  0.471199  0.503829  1
  H  H5  1  0.310992  0.028801  0.003829  1
  H  H6  1  0.507326  0.630898  0.394793  1
  H  H7  1  0.507326  0.869102  0.894793  1
  H  H8  1  0.492674  0.369102  0.605207  1
  H  H9  1  0.492674  0.130898  0.105207  1
  H  H10  1  0.643169  0.511232  0.364844  1
  H  H11  1  0.643169  0.988768  0.864844  1
  H  H12  1  0.356831  0.488768  0.635156  1
  H  H13  1  0.356831  0.011232  0.135156  1
  H  H14  1  0.670537  0.534747  0.231559  1
  H  H15  1  0.670537  0.965253  0.731559  1
  H  H16  1  0.329463  0.465253  0.768441  1
  H  H17  1  0.329463  0.034747  0.268441  1
  H  H18  1  0.877665  0.481312  0.328474  1
  H  H19  1  0.877665  0.018688  0.828474  1
  H  H20  1  0.122335  0.518688  0.671526  1
  H  H21  1  0.122335  0.981312  0.171526  1
  H  H22  1  0.330921  0.805892  0.308234  1
  H  H23  1  0.330921  0.694108  0.808234  1
  H  H24  1  0.669079  0.194108  0.691766  1
  H  H25  1  0.669079  0.305892  0.191766  1
  H  H26  1  0.393649  0.801435  0.434603  1
  H  H27  1  0.393649  0.698565  0.934603  1
  H  H28  1  0.606351  0.198565  0.565397  1
  H  H29  1  0.606351  0.301435  0.065397  1
  H  H30  1  0.821019  0.408109  0.637226  1
  H  H31  1  0.821019  0.091891  0.137226  1
  H  H32  1  0.178981  0.591891  0.362774  1
  H  H33  1  0.178981  0.908109  0.862774  1
  H  H34  1  0.824842  0.560043  0.667902  1
  H  H35  1  0.824842  0.939957  0.167902  1
  H  H36  1  0.175158  0.439957  0.332098  1
  H  H37  1  0.175158  0.060043  0.832098  1
  Br  Br38  1  0.185303  0.167667  0.680117  1
  Br  Br39  1  0.185303  0.332333  0.180117  1
  Br  Br40  1  0.814697  0.832333  0.319883  1
  Br  Br41  1  0.814697  0.667667  0.819883  1
  Br  Br42  1  0.332944  0.834615  0.596933  1
  Br  Br43  1  0.332944  0.665385  0.096933  1
  Br  Br44  1  0.667056  0.165385  0.403067  1
  Br  Br45  1  0.667056  0.334615  0.903067  1
  Br  Br46  1  0.830854  0.860065  0.599542  1
  Br  Br47  1  0.830854  0.639935  0.099542  1
  Br  Br48  1  0.169146  0.139935  0.400458  1
  Br  Br49  1  0.169146  0.360065  0.900458  1
  O  O50  1  0.582777  0.538299  0.413242  1
  O  O51  1  0.582777  0.961701  0.913242  1
  O  O52  1  0.417223  0.461701  0.586758  1
  O  O53  1  0.417223  0.038299  0.086758  1
  O  O54  1  0.730004  0.468130  0.292152  1
  O  O55  1  0.730004  0.031870  0.792152  1
  O  O56  1  0.269996  0.531870  0.707848  1
  O  O57  1  0.269996  0.968130  0.207848  1
  O  O58  1  0.359308  0.744115  0.369630  1
  O  O59  1  0.359308  0.755885  0.869630  1
  O  O60  1  0.640692  0.255885  0.630370  1
  O  O61  1  0.640692  0.244115  0.130370  1
  O  O62  1  0.846383  0.499720  0.618435  1
  O  O63  1  0.846383  0.000280  0.118435  1
  O  O64  1  0.153617  0.500280  0.381565  1
  O  O65  1  0.153617  0.999720  0.881565  1
