# generated using pymatgen
data_Li4CrFe3O8
_symmetry_space_group_name_H-M   'P 1'
_cell_length_a   5.20199464
_cell_length_b   5.96954597
_cell_length_c   10.33693875
_cell_angle_alpha   89.94501977
_cell_angle_beta   99.57905528
_cell_angle_gamma   106.78437524
_symmetry_Int_Tables_number   1
_chemical_formula_structural   Li4CrFe3O8
_chemical_formula_sum   'Li8 Cr2 Fe6 O16'
_cell_volume   302.66118259
_cell_formula_units_Z   2
loop_
 _symmetry_equiv_pos_site_id
 _symmetry_equiv_pos_as_xyz
  1  'x, y, z'
loop_
 _atom_site_type_symbol
 _atom_site_label
 _atom_site_symmetry_multiplicity
 _atom_site_fract_x
 _atom_site_fract_y
 _atom_site_fract_z
 _atom_site_occupancy
  Li  Li0  1  0.998279  0.249271  0.250035  1
  Li  Li1  1  0.999968  0.249397  0.750523  1
  Li  Li2  1  0.000000  0.000000  0.000000  1
  Li  Li3  1  0.000000  0.000000  0.500000  1
  Li  Li4  1  0.000032  0.750603  0.249477  1
  Li  Li5  1  0.001721  0.750729  0.749965  1
  Li  Li6  1  0.000000  0.500000  0.000000  1
  Li  Li7  1  0.000000  0.500000  0.500000  1
  Cr  Cr8  1  0.500804  0.124787  0.876040  1
  Cr  Cr9  1  0.499196  0.875213  0.123960  1
  Fe  Fe10  1  0.500030  0.124702  0.374235  1
  Fe  Fe11  1  0.499970  0.875298  0.625765  1
  Fe  Fe12  1  0.500537  0.624783  0.875538  1
  Fe  Fe13  1  0.499611  0.625287  0.374252  1
  Fe  Fe14  1  0.499463  0.375217  0.124462  1
  Fe  Fe15  1  0.500389  0.374713  0.625748  1
  O  O16  1  0.273374  0.066764  0.188177  1
  O  O17  1  0.273613  0.068449  0.691418  1
  O  O18  1  0.726031  0.180422  0.060034  1
  O  O19  1  0.728904  0.181921  0.560737  1
  O  O20  1  0.273969  0.819578  0.939966  1
  O  O21  1  0.726626  0.933236  0.811823  1
  O  O22  1  0.271096  0.818079  0.439263  1
  O  O23  1  0.726387  0.931551  0.308582  1
  O  O24  1  0.271274  0.568842  0.187693  1
  O  O25  1  0.726134  0.683584  0.061031  1
  O  O26  1  0.271292  0.567729  0.689705  1
  O  O27  1  0.728884  0.682562  0.561165  1
  O  O28  1  0.273866  0.316416  0.938969  1
  O  O29  1  0.728726  0.431158  0.812307  1
  O  O30  1  0.271116  0.317438  0.438835  1
  O  O31  1  0.728708  0.432271  0.310295  1
