# generated using pymatgen
data_Li4Mn2Ni3Sb3O16
_symmetry_space_group_name_H-M   'P 1'
_cell_length_a   6.07506806
_cell_length_b   6.07506806
_cell_length_c   9.69804707
_cell_angle_alpha   87.52942430
_cell_angle_beta   92.47057570
_cell_angle_gamma   119.72510239
_symmetry_Int_Tables_number   1
_chemical_formula_structural   Li4Mn2Ni3Sb3O16
_chemical_formula_sum   'Li4 Mn2 Ni3 Sb3 O16'
_cell_volume   310.43695972
_cell_formula_units_Z   1
loop_
 _symmetry_equiv_pos_site_id
 _symmetry_equiv_pos_as_xyz
  1  'x, y, z'
loop_
 _atom_site_type_symbol
 _atom_site_label
 _atom_site_symmetry_multiplicity
 _atom_site_fract_x
 _atom_site_fract_y
 _atom_site_fract_z
 _atom_site_occupancy
  Li  Li0  1  0.332395  0.667605  0.113293  1
  Li  Li1  1  0.025912  0.974088  0.016456  1
  Li  Li2  1  0.019148  0.980852  0.496870  1
  Li  Li3  1  0.669274  0.330726  0.594481  1
  Mn  Mn4  1  0.327117  0.672883  0.498569  1
  Mn  Mn5  1  0.650486  0.349514  0.025834  1
  Ni  Ni6  1  0.168435  0.831565  0.785964  1
  Ni  Ni7  1  0.336910  0.173358  0.285865  1
  Ni  Ni8  1  0.826642  0.663090  0.285865  1
  Sb  Sb9  1  0.164784  0.339491  0.786714  1
  Sb  Sb10  1  0.660509  0.835216  0.786714  1
  Sb  Sb11  1  0.829524  0.170476  0.287591  1
  O  O12  1  0.152589  0.324001  0.402705  1
  O  O13  1  0.479938  0.520062  0.662279  1
  O  O14  1  0.339123  0.660877  0.900473  1
  O  O15  1  0.994236  0.005764  0.684644  1
  O  O16  1  0.993948  0.006052  0.193634  1
  O  O17  1  0.675999  0.847411  0.402705  1
  O  O18  1  0.028049  0.512074  0.665457  1
  O  O19  1  0.487926  0.971951  0.665457  1
  O  O20  1  0.847148  0.152852  0.901830  1
  O  O21  1  0.171963  0.828037  0.396225  1
  O  O22  1  0.525824  0.046815  0.148327  1
  O  O23  1  0.953185  0.474176  0.148327  1
  O  O24  1  0.670891  0.329109  0.391929  1
  O  O25  1  0.327867  0.175886  0.903052  1
  O  O26  1  0.514803  0.485197  0.157923  1
  O  O27  1  0.824114  0.672133  0.903052  1
