# generated using pymatgen
data_Li4FeTe2WO12
_symmetry_space_group_name_H-M   'P 1'
_cell_length_a   5.20719827
_cell_length_b   5.48864545
_cell_length_c   7.54618892
_cell_angle_alpha   94.23955916
_cell_angle_beta   90.11159198
_cell_angle_gamma   90.07589441
_symmetry_Int_Tables_number   1
_chemical_formula_structural   Li4FeTe2WO12
_chemical_formula_sum   'Li4 Fe1 Te2 W1 O12'
_cell_volume   215.08279454
_cell_formula_units_Z   1
loop_
 _symmetry_equiv_pos_site_id
 _symmetry_equiv_pos_as_xyz
  1  'x, y, z'
loop_
 _atom_site_type_symbol
 _atom_site_label
 _atom_site_symmetry_multiplicity
 _atom_site_fract_x
 _atom_site_fract_y
 _atom_site_fract_z
 _atom_site_occupancy
  Li  Li0  1  0.995107  0.445314  0.303953  1
  Li  Li1  1  0.498334  0.919570  0.763345  1
  Li  Li2  1  0.008751  0.479867  0.746122  1
  Li  Li3  1  0.496055  0.903669  0.310570  1
  Fe  Fe4  1  0.500335  0.487521  0.500919  1
  Te  Te5  1  0.002804  0.001041  0.503798  1
  Te  Te6  1  0.500399  0.489161  0.000508  1
  W  W7  1  0.000839  0.999347  0.004153  1
  O  O8  1  0.293539  0.188121  0.428411  1
  O  O9  1  0.127651  0.017047  0.753021  1
  O  O10  1  0.310953  0.838562  0.060686  1
  O  O11  1  0.191428  0.709233  0.434311  1
  O  O12  1  0.826175  0.697363  0.930092  1
  O  O13  1  0.383056  0.528173  0.752795  1
  O  O14  1  0.620219  0.517470  0.247620  1
  O  O15  1  0.160558  0.321637  0.059844  1
  O  O16  1  0.828705  0.310895  0.548298  1
  O  O17  1  0.688105  0.175700  0.927402  1
  O  O18  1  0.870088  0.003109  0.244062  1
  O  O19  1  0.696899  0.824803  0.551289  1
