# generated using pymatgen
data_Li3AuO3
_symmetry_space_group_name_H-M   'P 1'
_cell_length_a   9.25743458
_cell_length_b   9.25743458
_cell_length_c   3.64107290
_cell_angle_alpha   90.00000000
_cell_angle_beta   90.00000000
_cell_angle_gamma   90.00000000
_symmetry_Int_Tables_number   1
_chemical_formula_structural   Li3AuO3
_chemical_formula_sum   'Li12 Au4 O12'
_cell_volume   312.04029344
_cell_formula_units_Z   4
loop_
 _symmetry_equiv_pos_site_id
 _symmetry_equiv_pos_as_xyz
  1  'x, y, z'
loop_
 _atom_site_type_symbol
 _atom_site_label
 _atom_site_symmetry_multiplicity
 _atom_site_fract_x
 _atom_site_fract_y
 _atom_site_fract_z
 _atom_site_occupancy
  Li  Li0  1  0.141487  0.592438  0.000000  1
  Li  Li1  1  0.092438  0.358513  0.500000  1
  Li  Li2  1  0.907562  0.641487  0.500000  1
  Li  Li3  1  0.858513  0.407562  0.000000  1
  Li  Li4  1  0.358513  0.092438  0.500000  1
  Li  Li5  1  0.641487  0.907562  0.500000  1
  Li  Li6  1  0.592438  0.141487  0.000000  1
  Li  Li7  1  0.407562  0.858513  0.000000  1
  Li  Li8  1  0.166545  0.166545  0.000000  1
  Li  Li9  1  0.666545  0.333455  0.500000  1
  Li  Li10  1  0.333455  0.666545  0.500000  1
  Li  Li11  1  0.833455  0.833455  0.000000  1
  Au  Au12  1  0.618178  0.618178  0.000000  1
  Au  Au13  1  0.881822  0.118178  0.500000  1
  Au  Au14  1  0.381822  0.381822  0.000000  1
  Au  Au15  1  0.118178  0.881822  0.500000  1
  O  O16  1  0.106785  0.106785  0.500000  1
  O  O17  1  0.893215  0.893215  0.500000  1
  O  O18  1  0.393215  0.606785  0.000000  1
  O  O19  1  0.606785  0.393215  0.000000  1
  O  O20  1  0.380942  0.163344  0.000000  1
  O  O21  1  0.663344  0.119058  0.500000  1
  O  O22  1  0.336656  0.880942  0.500000  1
  O  O23  1  0.619058  0.836656  0.000000  1
  O  O24  1  0.119058  0.663344  0.500000  1
  O  O25  1  0.880942  0.336656  0.500000  1
  O  O26  1  0.163344  0.380942  0.000000  1
  O  O27  1  0.836656  0.619058  0.000000  1
