# generated using pymatgen
data_Li3Fe(SbO3)4
_symmetry_space_group_name_H-M   'P 1'
_cell_length_a   5.28074499
_cell_length_b   5.59252697
_cell_length_c   7.67573552
_cell_angle_alpha   85.55103779
_cell_angle_beta   89.96464793
_cell_angle_gamma   89.87001177
_symmetry_Int_Tables_number   1
_chemical_formula_structural   Li3Fe(SbO3)4
_chemical_formula_sum   'Li3 Fe1 Sb4 O12'
_cell_volume   226.00161599
_cell_formula_units_Z   1
loop_
 _symmetry_equiv_pos_site_id
 _symmetry_equiv_pos_as_xyz
  1  'x, y, z'
loop_
 _atom_site_type_symbol
 _atom_site_label
 _atom_site_symmetry_multiplicity
 _atom_site_fract_x
 _atom_site_fract_y
 _atom_site_fract_z
 _atom_site_occupancy
  Li  Li0  1  0.499731  0.058084  0.785179  1
  Li  Li1  1  0.000381  0.568669  0.783298  1
  Li  Li2  1  0.501409  0.058168  0.279924  1
  Fe  Fe3  1  0.996146  0.576913  0.283027  1
  Sb  Sb4  1  0.000264  0.996950  0.990947  1
  Sb  Sb5  1  0.501235  0.485640  0.501028  1
  Sb  Sb6  1  0.003361  0.995240  0.500121  1
  Sb  Sb7  1  0.495991  0.488203  0.991739  1
  O  O8  1  0.701340  0.782643  0.416227  1
  O  O9  1  0.866089  0.964197  0.744901  1
  O  O10  1  0.673405  0.162161  0.048037  1
  O  O11  1  0.805429  0.291038  0.414354  1
  O  O12  1  0.194692  0.293658  0.912718  1
  O  O13  1  0.635750  0.464675  0.745402  1
  O  O14  1  0.369510  0.458645  0.242944  1
  O  O15  1  0.822126  0.661355  0.046981  1
  O  O16  1  0.168941  0.653390  0.541025  1
  O  O17  1  0.299600  0.788083  0.913059  1
  O  O18  1  0.129569  0.956998  0.240702  1
  O  O19  1  0.335030  0.154493  0.547989  1
