# generated using pymatgen
data_Gd3AsO7
_symmetry_space_group_name_H-M   'P 1'
_cell_length_a   6.36154107
_cell_length_b   6.45268408
_cell_length_c   7.50177403
_cell_angle_alpha   106.63757029
_cell_angle_beta   89.93694969
_cell_angle_gamma   98.16626783
_symmetry_Int_Tables_number   1
_chemical_formula_structural   Gd3AsO7
_chemical_formula_sum   'Gd6 As2 O14'
_cell_volume   291.80243117
_cell_formula_units_Z   2
loop_
 _symmetry_equiv_pos_site_id
 _symmetry_equiv_pos_as_xyz
  1  'x, y, z'
loop_
 _atom_site_type_symbol
 _atom_site_label
 _atom_site_symmetry_multiplicity
 _atom_site_fract_x
 _atom_site_fract_y
 _atom_site_fract_z
 _atom_site_occupancy
  Gd  Gd0  1  0.741246  0.470175  0.120642  1
  Gd  Gd1  1  0.751058  0.503823  0.623379  1
  Gd  Gd2  1  0.542344  0.001507  0.747120  1
  Gd  Gd3  1  0.457656  0.998493  0.252880  1
  Gd  Gd4  1  0.248942  0.496177  0.376621  1
  Gd  Gd5  1  0.258754  0.529825  0.879358  1
  As  As6  1  0.000000  0.000000  0.000000  1
  As  As7  1  0.000000  0.000000  0.500000  1
  O  O8  1  0.724097  0.034014  0.476821  1
  O  O9  1  0.927243  0.698319  0.957603  1
  O  O10  1  0.722838  0.053842  0.041402  1
  O  O11  1  0.940360  0.685986  0.393429  1
  O  O12  1  0.914017  0.935264  0.733175  1
  O  O13  1  0.567184  0.362883  0.834499  1
  O  O14  1  0.559317  0.359410  0.347428  1
  O  O15  1  0.440683  0.640590  0.652572  1
  O  O16  1  0.432816  0.637117  0.165501  1
  O  O17  1  0.085983  0.064736  0.266825  1
  O  O18  1  0.059640  0.314014  0.606571  1
  O  O19  1  0.277162  0.946158  0.958598  1
  O  O20  1  0.072757  0.301681  0.042397  1
  O  O21  1  0.275903  0.965986  0.523179  1
