# generated using pymatgen
data_CrOF4
_symmetry_space_group_name_H-M   'P 1'
_cell_length_a   5.54828923
_cell_length_b   16.88847966
_cell_length_c   8.06305249
_cell_angle_alpha   90.00000000
_cell_angle_beta   90.86116124
_cell_angle_gamma   90.00000000
_symmetry_Int_Tables_number   1
_chemical_formula_structural   CrOF4
_chemical_formula_sum   'Cr8 O8 F32'
_cell_volume   755.44017743
_cell_formula_units_Z   8
loop_
 _symmetry_equiv_pos_site_id
 _symmetry_equiv_pos_as_xyz
  1  'x, y, z'
loop_
 _atom_site_type_symbol
 _atom_site_label
 _atom_site_symmetry_multiplicity
 _atom_site_fract_x
 _atom_site_fract_y
 _atom_site_fract_z
 _atom_site_occupancy
  Cr  Cr0  1  0.268513  0.141837  0.990895  1
  Cr  Cr1  1  0.250924  0.611114  0.907570  1
  Cr  Cr2  1  0.268513  0.358163  0.490895  1
  Cr  Cr3  1  0.250924  0.888886  0.407570  1
  Cr  Cr4  1  0.749076  0.111114  0.592430  1
  Cr  Cr5  1  0.731487  0.641837  0.509105  1
  Cr  Cr6  1  0.749076  0.388886  0.092430  1
  Cr  Cr7  1  0.731487  0.858163  0.009105  1
  O  O8  1  0.098540  0.920769  0.554751  1
  O  O9  1  0.098540  0.579231  0.054751  1
  O  O10  1  0.435644  0.363588  0.648415  1
  O  O11  1  0.435644  0.136412  0.148415  1
  O  O12  1  0.564356  0.863588  0.851585  1
  O  O13  1  0.564356  0.636412  0.351585  1
  O  O14  1  0.901460  0.420769  0.945249  1
  O  O15  1  0.901460  0.079231  0.445249  1
  F  F16  1  0.025291  0.650526  0.771296  1
  F  F17  1  0.025291  0.849474  0.271296  1
  F  F18  1  0.019016  0.871691  0.926036  1
  F  F19  1  0.019016  0.628309  0.426036  1
  F  F20  1  0.197461  0.242646  0.970414  1
  F  F21  1  0.197461  0.257354  0.470414  1
  F  F22  1  0.254174  0.044574  0.915401  1
  F  F23  1  0.264177  0.530283  0.770678  1
  F  F24  1  0.254174  0.455426  0.415401  1
  F  F25  1  0.264177  0.969717  0.270678  1
  F  F26  1  0.310476  0.709804  0.961588  1
  F  F27  1  0.310476  0.790196  0.461588  1
  F  F28  1  0.452786  0.088501  0.528013  1
  F  F29  1  0.452786  0.411499  0.028013  1
  F  F30  1  0.482020  0.160289  0.831206  1
  F  F31  1  0.517980  0.660289  0.668794  1
  F  F32  1  0.482020  0.339711  0.331206  1
  F  F33  1  0.517980  0.839711  0.168794  1
  F  F34  1  0.547214  0.588501  0.971987  1
  F  F35  1  0.547214  0.911499  0.471987  1
  F  F36  1  0.689524  0.209804  0.538412  1
  F  F37  1  0.689524  0.290196  0.038412  1
  F  F38  1  0.735823  0.030283  0.729322  1
  F  F39  1  0.745826  0.544574  0.584599  1
  F  F40  1  0.735823  0.469717  0.229322  1
  F  F41  1  0.745826  0.955426  0.084599  1
  F  F42  1  0.802539  0.742646  0.529586  1
  F  F43  1  0.802539  0.757354  0.029586  1
  F  F44  1  0.980984  0.371691  0.573964  1
  F  F45  1  0.980984  0.128309  0.073964  1
  F  F46  1  0.974709  0.150526  0.728704  1
  F  F47  1  0.974709  0.349474  0.228704  1
