# generated using pymatgen
data_Li4Ti3Mn3(SbO8)2
_symmetry_space_group_name_H-M   'P 1'
_cell_length_a   6.10977264
_cell_length_b   6.10977264
_cell_length_c   9.90833059
_cell_angle_alpha   88.45557072
_cell_angle_beta   91.54442928
_cell_angle_gamma   121.12258167
_symmetry_Int_Tables_number   1
_chemical_formula_structural   Li4Ti3Mn3(SbO8)2
_chemical_formula_sum   'Li4 Ti3 Mn3 Sb2 O16'
_cell_volume   316.48159417
_cell_formula_units_Z   1
loop_
 _symmetry_equiv_pos_site_id
 _symmetry_equiv_pos_as_xyz
  1  'x, y, z'
loop_
 _atom_site_type_symbol
 _atom_site_label
 _atom_site_symmetry_multiplicity
 _atom_site_fract_x
 _atom_site_fract_y
 _atom_site_fract_z
 _atom_site_occupancy
  Li  Li0  1  0.655929  0.344071  0.903955  1
  Li  Li1  1  0.995286  0.004714  0.988139  1
  Li  Li2  1  0.008963  0.991037  0.490562  1
  Li  Li3  1  0.334382  0.665618  0.397791  1
  Ti  Ti4  1  0.347000  0.165819  0.216032  1
  Ti  Ti5  1  0.834181  0.653000  0.216032  1
  Ti  Ti6  1  0.170765  0.829235  0.716478  1
  Mn  Mn7  1  0.832055  0.167945  0.206501  1
  Mn  Mn8  1  0.172203  0.337554  0.715770  1
  Mn  Mn9  1  0.662446  0.827797  0.715770  1
  Sb  Sb10  1  0.677384  0.322616  0.496063  1
  Sb  Sb11  1  0.332173  0.667827  0.987433  1
  O  O12  1  0.335649  0.145960  0.605386  1
  O  O13  1  0.520023  0.479977  0.329468  1
  O  O14  1  0.649589  0.350411  0.105593  1
  O  O15  1  0.011547  0.988453  0.299798  1
  O  O16  1  0.002902  0.997098  0.803382  1
  O  O17  1  0.854040  0.664351  0.605386  1
  O  O18  1  0.492872  0.029821  0.334896  1
  O  O19  1  0.970179  0.507128  0.334896  1
  O  O20  1  0.165842  0.834158  0.096921  1
  O  O21  1  0.848945  0.151055  0.594325  1
  O  O22  1  0.031459  0.537254  0.852300  1
  O  O23  1  0.462746  0.968541  0.852300  1
  O  O24  1  0.325273  0.674727  0.611750  1
  O  O25  1  0.174011  0.334911  0.090133  1
  O  O26  1  0.473609  0.526391  0.850183  1
  O  O27  1  0.665089  0.825989  0.090133  1
