# generated using pymatgen
data_Li2Sn(BO3)2
_symmetry_space_group_name_H-M   'P 1'
_cell_length_a   5.13302247
_cell_length_b   6.72420787
_cell_length_c   8.21757458
_cell_angle_alpha   108.44265174
_cell_angle_beta   89.83266750
_cell_angle_gamma   90.59036254
_symmetry_Int_Tables_number   1
_chemical_formula_structural   Li2Sn(BO3)2
_chemical_formula_sum   'Li4 Sn2 B4 O12'
_cell_volume   269.05226735
_cell_formula_units_Z   2
loop_
 _symmetry_equiv_pos_site_id
 _symmetry_equiv_pos_as_xyz
  1  'x, y, z'
loop_
 _atom_site_type_symbol
 _atom_site_label
 _atom_site_symmetry_multiplicity
 _atom_site_fract_x
 _atom_site_fract_y
 _atom_site_fract_z
 _atom_site_occupancy
  Li  Li0  1  0.817886  0.074687  0.898108  1
  Li  Li1  1  0.630931  0.214913  0.596892  1
  Li  Li2  1  0.369069  0.785087  0.403108  1
  Li  Li3  1  0.182114  0.925313  0.101892  1
  Sn  Sn4  1  0.878990  0.423681  0.251351  1
  Sn  Sn5  1  0.121010  0.576319  0.748649  1
  B  B6  1  0.856086  0.813618  0.550356  1
  B  B7  1  0.671549  0.656321  0.886456  1
  B  B8  1  0.328451  0.343679  0.113544  1
  B  B9  1  0.143914  0.186382  0.449644  1
  O  O10  1  0.897751  0.267355  0.420747  1
  O  O11  1  0.755478  0.462475  0.778394  1
  O  O12  1  0.875607  0.797201  0.947216  1
  O  O13  1  0.728049  0.698020  0.395814  1
  O  O14  1  0.744673  0.982170  0.657995  1
  O  O15  1  0.588818  0.295080  0.081889  1
  O  O16  1  0.411182  0.704920  0.918111  1
  O  O17  1  0.255327  0.017830  0.342005  1
  O  O18  1  0.271951  0.301980  0.604186  1
  O  O19  1  0.124393  0.202799  0.052784  1
  O  O20  1  0.244522  0.537525  0.221606  1
  O  O21  1  0.102249  0.732645  0.579253  1
