# generated using pymatgen
data_LiCo2OF3
_symmetry_space_group_name_H-M   'P 1'
_cell_length_a   5.19325660
_cell_length_b   5.99905186
_cell_length_c   10.29134671
_cell_angle_alpha   90.00000000
_cell_angle_beta   90.00000000
_cell_angle_gamma   90.00000000
_symmetry_Int_Tables_number   1
_chemical_formula_structural   LiCo2OF3
_chemical_formula_sum   'Li4 Co8 O4 F12'
_cell_volume   320.62295157
_cell_formula_units_Z   4
loop_
 _symmetry_equiv_pos_site_id
 _symmetry_equiv_pos_as_xyz
  1  'x, y, z'
loop_
 _atom_site_type_symbol
 _atom_site_label
 _atom_site_symmetry_multiplicity
 _atom_site_fract_x
 _atom_site_fract_y
 _atom_site_fract_z
 _atom_site_occupancy
  Li  Li0  1  0.974880  0.750000  0.589596  1
  Li  Li1  1  0.525120  0.750000  0.089596  1
  Li  Li2  1  0.474880  0.250000  0.910404  1
  Li  Li3  1  0.025120  0.250000  0.410404  1
  Co  Co4  1  0.000000  0.000000  0.000000  1
  Co  Co5  1  0.000000  0.500000  0.000000  1
  Co  Co6  1  0.002219  0.250000  0.744788  1
  Co  Co7  1  0.497781  0.250000  0.244788  1
  Co  Co8  1  0.500000  0.500000  0.500000  1
  Co  Co9  1  0.500000  0.000000  0.500000  1
  Co  Co10  1  0.502219  0.750000  0.755212  1
  Co  Co11  1  0.997781  0.750000  0.255212  1
  O  O12  1  0.831645  0.250000  0.915546  1
  O  O13  1  0.668355  0.250000  0.415546  1
  O  O14  1  0.331645  0.750000  0.584454  1
  O  O15  1  0.168355  0.750000  0.084454  1
  F  F16  1  0.791348  0.750000  0.424890  1
  F  F17  1  0.770812  0.988329  0.666356  1
  F  F18  1  0.770812  0.511671  0.666356  1
  F  F19  1  0.729188  0.988329  0.166356  1
  F  F20  1  0.729188  0.511671  0.166356  1
  F  F21  1  0.708652  0.750000  0.924890  1
  F  F22  1  0.291348  0.250000  0.075110  1
  F  F23  1  0.270812  0.011671  0.833644  1
  F  F24  1  0.270812  0.488329  0.833644  1
  F  F25  1  0.229188  0.488329  0.333644  1
  F  F26  1  0.229188  0.011671  0.333644  1
  F  F27  1  0.208652  0.250000  0.575110  1
