# generated using pymatgen
data_BiOF
_symmetry_space_group_name_H-M   'P 1'
_cell_length_a   5.82826042
_cell_length_b   11.90167432
_cell_length_c   12.08676486
_cell_angle_alpha   90.00000000
_cell_angle_beta   90.00000000
_cell_angle_gamma   90.00000000
_symmetry_Int_Tables_number   1
_chemical_formula_structural   BiOF
_chemical_formula_sum   'Bi16 O16 F16'
_cell_volume   838.41122471
_cell_formula_units_Z   16
loop_
 _symmetry_equiv_pos_site_id
 _symmetry_equiv_pos_as_xyz
  1  'x, y, z'
loop_
 _atom_site_type_symbol
 _atom_site_label
 _atom_site_symmetry_multiplicity
 _atom_site_fract_x
 _atom_site_fract_y
 _atom_site_fract_z
 _atom_site_occupancy
  Bi  Bi0  1  0.210209  0.013279  0.114770  1
  Bi  Bi1  1  0.289791  0.513279  0.114770  1
  Bi  Bi2  1  0.717281  0.727706  0.141375  1
  Bi  Bi3  1  0.782719  0.227706  0.141375  1
  Bi  Bi4  1  0.282719  0.227706  0.358625  1
  Bi  Bi5  1  0.217281  0.727706  0.358625  1
  Bi  Bi6  1  0.789791  0.513279  0.385230  1
  Bi  Bi7  1  0.710209  0.013279  0.385230  1
  Bi  Bi8  1  0.210209  0.486721  0.614770  1
  Bi  Bi9  1  0.289791  0.986721  0.614770  1
  Bi  Bi10  1  0.782719  0.272294  0.641375  1
  Bi  Bi11  1  0.717281  0.772294  0.641375  1
  Bi  Bi12  1  0.217281  0.772294  0.858625  1
  Bi  Bi13  1  0.282719  0.272294  0.858625  1
  Bi  Bi14  1  0.789791  0.986721  0.885230  1
  Bi  Bi15  1  0.710209  0.486721  0.885230  1
  O  O16  1  0.906955  0.087166  0.041657  1
  O  O17  1  0.593045  0.587166  0.041657  1
  O  O18  1  0.071361  0.144702  0.234641  1
  O  O19  1  0.428639  0.644702  0.234641  1
  O  O20  1  0.571361  0.144702  0.265359  1
  O  O21  1  0.928639  0.644702  0.265359  1
  O  O22  1  0.093045  0.587166  0.458343  1
  O  O23  1  0.406955  0.087166  0.458343  1
  O  O24  1  0.906955  0.412834  0.541657  1
  O  O25  1  0.593045  0.912834  0.541657  1
  O  O26  1  0.071361  0.355298  0.734641  1
  O  O27  1  0.428639  0.855298  0.734641  1
  O  O28  1  0.928639  0.855298  0.765359  1
  O  O29  1  0.571361  0.355298  0.765359  1
  O  O30  1  0.093045  0.912834  0.958343  1
  O  O31  1  0.406955  0.412834  0.958343  1
  F  F32  1  0.449503  0.157454  0.029673  1
  F  F33  1  0.050497  0.657454  0.029673  1
  F  F34  1  0.488605  0.388924  0.221471  1
  F  F35  1  0.011395  0.888924  0.221471  1
  F  F36  1  0.511395  0.888924  0.278529  1
  F  F37  1  0.988605  0.388924  0.278529  1
  F  F38  1  0.949503  0.157454  0.470327  1
  F  F39  1  0.550497  0.657454  0.470327  1
  F  F40  1  0.449503  0.342546  0.529673  1
  F  F41  1  0.050497  0.842546  0.529673  1
  F  F42  1  0.011395  0.611076  0.721471  1
  F  F43  1  0.488605  0.111076  0.721471  1
  F  F44  1  0.511395  0.611076  0.778529  1
  F  F45  1  0.988605  0.111076  0.778529  1
  F  F46  1  0.949503  0.342546  0.970327  1
  F  F47  1  0.550497  0.842546  0.970327  1
