# generated using pymatgen
data_Na2Ni4Mo4(HO4)5
_symmetry_space_group_name_H-M   'P 1'
_cell_length_a   5.87071728
_cell_length_b   7.77577188
_cell_length_c   9.22890955
_cell_angle_alpha   80.71253025
_cell_angle_beta   79.61947831
_cell_angle_gamma   87.68148680
_symmetry_Int_Tables_number   1
_chemical_formula_structural   Na2Ni4Mo4(HO4)5
_chemical_formula_sum   'Na2 Ni4 Mo4 H5 O20'
_cell_volume   408.93798024
_cell_formula_units_Z   1
loop_
 _symmetry_equiv_pos_site_id
 _symmetry_equiv_pos_as_xyz
  1  'x, y, z'
loop_
 _atom_site_type_symbol
 _atom_site_label
 _atom_site_symmetry_multiplicity
 _atom_site_fract_x
 _atom_site_fract_y
 _atom_site_fract_z
 _atom_site_occupancy
  Na  Na0  1  0.752902  0.717294  0.249073  1
  Na  Na1  1  0.247098  0.282706  0.750927  1
  Ni  Ni2  1  0.000000  0.000000  0.500000  1
  Ni  Ni3  1  0.218037  0.713389  0.791145  1
  Ni  Ni4  1  0.781963  0.286611  0.208855  1
  Ni  Ni5  1  0.500000  0.500000  0.000000  1
  Mo  Mo6  1  0.797213  0.638981  0.656403  1
  Mo  Mo7  1  0.310433  0.025929  0.146354  1
  Mo  Mo8  1  0.202787  0.361019  0.343597  1
  Mo  Mo9  1  0.689567  0.974071  0.853646  1
  H  H10  1  0.829580  0.262050  0.917434  1
  H  H11  1  0.305574  0.677678  0.390950  1
  H  H12  1  0.000000  0.500000  0.000000  1
  H  H13  1  0.170420  0.737950  0.082566  1
  H  H14  1  0.694426  0.322322  0.609050  1
  O  O15  1  0.282023  0.857632  0.434834  1
  O  O16  1  0.188385  0.225280  0.518710  1
  O  O17  1  0.365109  0.566056  0.346070  1
  O  O18  1  0.812674  0.431260  0.012353  1
  O  O19  1  0.951350  0.860646  0.731920  1
  O  O20  1  0.542404  0.051828  0.678364  1
  O  O21  1  0.604939  0.865657  0.047971  1
  O  O22  1  0.457596  0.948172  0.321636  1
  O  O23  1  0.048650  0.139354  0.268080  1
  O  O24  1  0.634891  0.433944  0.653930  1
  O  O25  1  0.887922  0.156625  0.870753  1
  O  O26  1  0.447944  0.291806  0.189616  1
  O  O27  1  0.918499  0.450152  0.315726  1
  O  O28  1  0.811615  0.774720  0.481290  1
  O  O29  1  0.081501  0.549848  0.684274  1
  O  O30  1  0.552056  0.708194  0.810384  1
  O  O31  1  0.717977  0.142368  0.565166  1
  O  O32  1  0.112078  0.843375  0.129247  1
  O  O33  1  0.395061  0.134343  0.952029  1
  O  O34  1  0.187326  0.568740  0.987647  1
