# generated using pymatgen
data_Li2VCrO4
_symmetry_space_group_name_H-M   'P 1'
_cell_length_a   5.15207467
_cell_length_b   5.99885385
_cell_length_c   7.87207593
_cell_angle_alpha   100.83023134
_cell_angle_beta   108.78742351
_cell_angle_gamma   89.96140584
_symmetry_Int_Tables_number   1
_chemical_formula_structural   Li2VCrO4
_chemical_formula_sum   'Li6 V3 Cr3 O12'
_cell_volume   225.76404636
_cell_formula_units_Z   3
loop_
 _symmetry_equiv_pos_site_id
 _symmetry_equiv_pos_as_xyz
  1  'x, y, z'
loop_
 _atom_site_type_symbol
 _atom_site_label
 _atom_site_symmetry_multiplicity
 _atom_site_fract_x
 _atom_site_fract_y
 _atom_site_fract_z
 _atom_site_occupancy
  Li  Li0  1  0.997982  0.745830  0.496737  1
  Li  Li1  1  0.002018  0.254170  0.503263  1
  Li  Li2  1  0.000250  0.909795  0.167682  1
  Li  Li3  1  0.000948  0.420104  0.166731  1
  Li  Li4  1  0.999750  0.090205  0.832318  1
  Li  Li5  1  0.999052  0.579896  0.833269  1
  V  V6  1  0.500000  0.000000  0.500000  1
  V  V7  1  0.500279  0.163853  0.166494  1
  V  V8  1  0.499721  0.836147  0.833506  1
  Cr  Cr9  1  0.500000  0.500000  0.500000  1
  Cr  Cr10  1  0.498827  0.663025  0.166623  1
  Cr  Cr11  1  0.501173  0.336975  0.833377  1
  O  O12  1  0.273083  0.050490  0.672042  1
  O  O13  1  0.275314  0.545563  0.672686  1
  O  O14  1  0.725553  0.790210  0.658987  1
  O  O15  1  0.728209  0.297303  0.663048  1
  O  O16  1  0.271791  0.702697  0.336952  1
  O  O17  1  0.726917  0.949510  0.327958  1
  O  O18  1  0.274447  0.209790  0.341013  1
  O  O19  1  0.272518  0.873907  0.006735  1
  O  O20  1  0.724686  0.454437  0.327314  1
  O  O21  1  0.274178  0.376846  0.004508  1
  O  O22  1  0.725822  0.623154  0.995492  1
  O  O23  1  0.727482  0.126093  0.993265  1
