# generated using pymatgen
data_Cr(SO4)2
_symmetry_space_group_name_H-M   'P 1'
_cell_length_a   8.89670396
_cell_length_b   8.89670396
_cell_length_c   8.89670396
_cell_angle_alpha   56.00400738
_cell_angle_beta   56.00400738
_cell_angle_gamma   56.00400738
_symmetry_Int_Tables_number   1
_chemical_formula_structural   Cr(SO4)2
_chemical_formula_sum   'Cr3 S6 O24'
_cell_volume   451.83905007
_cell_formula_units_Z   3
loop_
 _symmetry_equiv_pos_site_id
 _symmetry_equiv_pos_as_xyz
  1  'x, y, z'
loop_
 _atom_site_type_symbol
 _atom_site_label
 _atom_site_symmetry_multiplicity
 _atom_site_fract_x
 _atom_site_fract_y
 _atom_site_fract_z
 _atom_site_occupancy
  Cr  Cr0  1  0.644471  0.644471  0.644471  1
  Cr  Cr1  1  0.354924  0.354924  0.354924  1
  Cr  Cr2  1  0.150191  0.150191  0.150191  1
  S  S3  1  0.254475  0.531196  0.962225  1
  S  S4  1  0.962225  0.254475  0.531196  1
  S  S5  1  0.531196  0.962225  0.254475  1
  S  S6  1  0.464104  0.040263  0.746372  1
  S  S7  1  0.040263  0.746372  0.464104  1
  S  S8  1  0.746372  0.464104  0.040263  1
  O  O9  1  0.704156  0.483600  0.889154  1
  O  O10  1  0.483600  0.889154  0.704156  1
  O  O11  1  0.054724  0.662225  0.998628  1
  O  O12  1  0.889154  0.704156  0.483600  1
  O  O13  1  0.286432  0.339196  0.977605  1
  O  O14  1  0.390482  0.609452  0.767774  1
  O  O15  1  0.767774  0.390482  0.609452  1
  O  O16  1  0.998628  0.054724  0.662225  1
  O  O17  1  0.609452  0.767774  0.390482  1
  O  O18  1  0.321741  0.021554  0.948387  1
  O  O19  1  0.648176  0.032458  0.713198  1
  O  O20  1  0.032458  0.713198  0.648176  1
  O  O21  1  0.977605  0.286432  0.339196  1
  O  O22  1  0.339196  0.977605  0.286432  1
  O  O23  1  0.662225  0.998628  0.054724  1
  O  O24  1  0.374074  0.238203  0.612950  1
  O  O25  1  0.021554  0.948387  0.321741  1
  O  O26  1  0.238203  0.612950  0.374074  1
  O  O27  1  0.612950  0.374074  0.238203  1
  O  O28  1  0.713198  0.648176  0.032458  1
  O  O29  1  0.106926  0.319279  0.499046  1
  O  O30  1  0.948387  0.321741  0.021554  1
  O  O31  1  0.499046  0.106926  0.319279  1
  O  O32  1  0.319279  0.499046  0.106926  1
