# generated using pymatgen
data_H8C2SeS2(BrN2)2
_symmetry_space_group_name_H-M   'P 1'
_cell_length_a   8.73664916
_cell_length_b   16.75746240
_cell_length_c   9.30254055
_cell_angle_alpha   90.00000000
_cell_angle_beta   117.55608827
_cell_angle_gamma   90.00000000
_symmetry_Int_Tables_number   1
_chemical_formula_structural   H8C2SeS2(BrN2)2
_chemical_formula_sum   'H32 C8 Se4 S8 Br8 N16'
_cell_volume   1207.43028832
_cell_formula_units_Z   4
loop_
 _symmetry_equiv_pos_site_id
 _symmetry_equiv_pos_as_xyz
  1  'x, y, z'
loop_
 _atom_site_type_symbol
 _atom_site_label
 _atom_site_symmetry_multiplicity
 _atom_site_fract_x
 _atom_site_fract_y
 _atom_site_fract_z
 _atom_site_occupancy
  H  H0  1  0.733106  0.613348  0.549016  1
  H  H1  1  0.266894  0.113348  0.950984  1
  H  H2  1  0.266894  0.386652  0.450984  1
  H  H3  1  0.733106  0.886652  0.049016  1
  H  H4  1  0.778837  0.515766  0.511395  1
  H  H5  1  0.221163  0.015766  0.988605  1
  H  H6  1  0.221163  0.484234  0.488605  1
  H  H7  1  0.778837  0.984234  0.011395  1
  H  H8  1  0.717507  0.635845  0.806897  1
  H  H9  1  0.282493  0.135845  0.693103  1
  H  H10  1  0.282493  0.364155  0.193103  1
  H  H11  1  0.717507  0.864155  0.306897  1
  H  H12  1  0.754078  0.554042  0.933930  1
  H  H13  1  0.245922  0.054042  0.566070  1
  H  H14  1  0.245922  0.445958  0.066070  1
  H  H15  1  0.754078  0.945958  0.433930  1
  H  H16  1  0.542026  0.113425  0.440515  1
  H  H17  1  0.457974  0.613425  0.059485  1
  H  H18  1  0.457974  0.886575  0.559485  1
  H  H19  1  0.542026  0.386575  0.940515  1
  H  H20  1  0.435757  0.193480  0.464098  1
  H  H21  1  0.564243  0.693480  0.035902  1
  H  H22  1  0.564243  0.806520  0.535902  1
  H  H23  1  0.435757  0.306520  0.964098  1
  H  H24  1  0.800254  0.131913  0.673986  1
  H  H25  1  0.199746  0.631913  0.826014  1
  H  H26  1  0.199746  0.868087  0.326014  1
  H  H27  1  0.800254  0.368087  0.173986  1
  H  H28  1  0.470135  0.189368  0.300629  1
  H  H29  1  0.529865  0.689368  0.199371  1
  H  H30  1  0.529865  0.810632  0.699371  1
  H  H31  1  0.470135  0.310632  0.800629  1
  C  C32  1  0.766678  0.529141  0.723283  1
  C  C33  1  0.233322  0.029141  0.776717  1
  C  C34  1  0.233322  0.470859  0.276717  1
  C  C35  1  0.766678  0.970859  0.223283  1
  C  C36  1  0.692349  0.218810  0.526032  1
  C  C37  1  0.307651  0.718810  0.973968  1
  C  C38  1  0.307651  0.781190  0.473968  1
  C  C39  1  0.692349  0.281190  0.026032  1
  Se  Se40  1  0.917412  0.377724  0.628024  1
  Se  Se41  1  0.082588  0.877724  0.871976  1
  Se  Se42  1  0.082588  0.622276  0.371976  1
  Se  Se43  1  0.917412  0.122276  0.128024  1
  S  S44  1  0.822235  0.429353  0.790922  1
  S  S45  1  0.177765  0.929353  0.709078  1
  S  S46  1  0.177765  0.570647  0.209078  1
  S  S47  1  0.822235  0.070647  0.290922  1
  S  S48  1  0.675374  0.316686  0.446579  1
  S  S49  1  0.324626  0.816686  0.053421  1
  S  S50  1  0.324626  0.683314  0.553421  1
  S  S51  1  0.675374  0.183314  0.946579  1
  Br  Br52  1  0.255159  0.486942  0.819789  1
  Br  Br53  1  0.744841  0.986942  0.680211  1
  Br  Br54  1  0.744841  0.513058  0.180211  1
  Br  Br55  1  0.255159  0.013058  0.319789  1
  Br  Br56  1  0.289189  0.260924  0.560954  1
  Br  Br57  1  0.710811  0.760924  0.939046  1
  Br  Br58  1  0.710811  0.739076  0.439046  1
  Br  Br59  1  0.289189  0.239076  0.060954  1
  N  N60  1  0.752540  0.553906  0.582860  1
  N  N61  1  0.247460  0.053906  0.917140  1
  N  N62  1  0.247460  0.446094  0.417140  1
  N  N63  1  0.752540  0.946094  0.082860  1
  N  N64  1  0.740534  0.575565  0.824783  1
  N  N65  1  0.259466  0.075565  0.675217  1
  N  N66  1  0.259466  0.424435  0.175217  1
  N  N67  1  0.740534  0.924435  0.324783  1
  N  N68  1  0.527932  0.174778  0.425957  1
  N  N69  1  0.472068  0.674778  0.074043  1
  N  N70  1  0.472068  0.825222  0.574043  1
  N  N71  1  0.527932  0.325222  0.925957  1
  N  N72  1  0.817942  0.190451  0.648954  1
  N  N73  1  0.182058  0.690451  0.851046  1
  N  N74  1  0.182058  0.809549  0.351046  1
  N  N75  1  0.817942  0.309549  0.148954  1
