# generated using pymatgen
data_Li5Nb2Co5O12
_symmetry_space_group_name_H-M   'P 1'
_cell_length_a   5.25917020
_cell_length_b   5.25917020
_cell_length_c   10.06804556
_cell_angle_alpha   84.35703840
_cell_angle_beta   95.64296160
_cell_angle_gamma   58.58720902
_symmetry_Int_Tables_number   1
_chemical_formula_structural   Li5Nb2Co5O12
_chemical_formula_sum   'Li5 Nb2 Co5 O12'
_cell_volume   232.80799467
_cell_formula_units_Z   1
loop_
 _symmetry_equiv_pos_site_id
 _symmetry_equiv_pos_as_xyz
  1  'x, y, z'
loop_
 _atom_site_type_symbol
 _atom_site_label
 _atom_site_symmetry_multiplicity
 _atom_site_fract_x
 _atom_site_fract_y
 _atom_site_fract_z
 _atom_site_occupancy
  Li  Li0  1  0.314785  0.827947  0.756197  1
  Li  Li1  1  0.179499  0.676807  0.241557  1
  Li  Li2  1  0.827947  0.314785  0.243803  1
  Li  Li3  1  0.676807  0.179499  0.758443  1
  Li  Li4  1  0.075502  0.075502  0.000000  1
  Nb  Nb5  1  0.743737  0.743737  0.000000  1
  Nb  Nb6  1  0.257347  0.257347  0.500000  1
  Co  Co7  1  0.924423  0.924423  0.500000  1
  Co  Co8  1  0.497038  0.993296  0.249342  1
  Co  Co9  1  0.993296  0.497038  0.750658  1
  Co  Co10  1  0.588640  0.588640  0.500000  1
  Co  Co11  1  0.413693  0.413693  0.000000  1
  O  O12  1  0.784538  0.021632  0.118312  1
  O  O13  1  0.021632  0.784538  0.881688  1
  O  O14  1  0.631177  0.891590  0.619685  1
  O  O15  1  0.891590  0.631177  0.380315  1
  O  O16  1  0.474577  0.701743  0.119342  1
  O  O17  1  0.701743  0.474577  0.880658  1
  O  O18  1  0.289933  0.528370  0.623282  1
  O  O19  1  0.528370  0.289933  0.376718  1
  O  O20  1  0.112997  0.382166  0.118731  1
  O  O21  1  0.382166  0.112997  0.881269  1
  O  O22  1  0.988598  0.199966  0.621743  1
  O  O23  1  0.199966  0.988598  0.378257  1
