# generated using pymatgen
data_LiBi(PO3)4
_symmetry_space_group_name_H-M   'P 1'
_cell_length_a   7.26790065
_cell_length_b   13.48094547
_cell_length_c   12.33883865
_cell_angle_alpha   90.00000000
_cell_angle_beta   125.39356337
_cell_angle_gamma   90.00000000
_symmetry_Int_Tables_number   1
_chemical_formula_structural   LiBi(PO3)4
_chemical_formula_sum   'Li4 Bi4 P16 O48'
_cell_volume   985.51670510
_cell_formula_units_Z   4
loop_
 _symmetry_equiv_pos_site_id
 _symmetry_equiv_pos_as_xyz
  1  'x, y, z'
loop_
 _atom_site_type_symbol
 _atom_site_label
 _atom_site_symmetry_multiplicity
 _atom_site_fract_x
 _atom_site_fract_y
 _atom_site_fract_z
 _atom_site_occupancy
  Li  Li0  1  0.903567  0.210319  0.954559  1
  Li  Li1  1  0.096433  0.710319  0.545441  1
  Li  Li2  1  0.903567  0.289681  0.454559  1
  Li  Li3  1  0.096433  0.789681  0.045441  1
  Bi  Bi4  1  0.445702  0.778033  0.927138  1
  Bi  Bi5  1  0.554298  0.278033  0.572862  1
  Bi  Bi6  1  0.445702  0.721967  0.427138  1
  Bi  Bi7  1  0.554298  0.221967  0.072862  1
  P  P8  1  0.440014  0.372106  0.798517  1
  P  P9  1  0.523046  0.589876  0.803423  1
  P  P10  1  0.142989  0.122876  0.761881  1
  P  P11  1  0.031881  0.909490  0.769485  1
  P  P12  1  0.968119  0.409490  0.730515  1
  P  P13  1  0.857011  0.622876  0.738119  1
  P  P14  1  0.476954  0.089876  0.696577  1
  P  P15  1  0.559986  0.872106  0.701483  1
  P  P16  1  0.440014  0.127894  0.298517  1
  P  P17  1  0.523046  0.910124  0.303423  1
  P  P18  1  0.142989  0.377124  0.261881  1
  P  P19  1  0.031881  0.590510  0.269485  1
  P  P20  1  0.968119  0.090510  0.230515  1
  P  P21  1  0.857011  0.877124  0.238119  1
  P  P22  1  0.476954  0.410124  0.196577  1
  P  P23  1  0.559986  0.627894  0.201483  1
  O  O24  1  0.665448  0.651366  0.929320  1
  O  O25  1  0.166808  0.899674  0.919571  1
  O  O26  1  0.227887  0.151131  0.903323  1
  O  O27  1  0.588588  0.293748  0.900615  1
  O  O28  1  0.560183  0.477453  0.857105  1
  O  O29  1  0.989630  0.696457  0.846544  1
  O  O30  1  0.631045  0.857788  0.841667  1
  O  O31  1  0.227719  0.381665  0.804812  1
  O  O32  1  0.872105  0.348704  0.789891  1
  O  O33  1  0.001941  0.522664  0.778875  1
  O  O34  1  0.367065  0.084229  0.777135  1
  O  O35  1  0.717896  0.122248  0.789183  1
  O  O36  1  0.282104  0.622248  0.710817  1
  O  O37  1  0.632935  0.584229  0.722865  1
  O  O38  1  0.998059  0.022664  0.721125  1
  O  O39  1  0.127895  0.848704  0.710109  1
  O  O40  1  0.772281  0.881665  0.695188  1
  O  O41  1  0.368955  0.357788  0.658333  1
  O  O42  1  0.010370  0.196457  0.653456  1
  O  O43  1  0.439817  0.977453  0.642895  1
  O  O44  1  0.411412  0.793748  0.599385  1
  O  O45  1  0.772113  0.651131  0.596677  1
  O  O46  1  0.833192  0.399674  0.580429  1
  O  O47  1  0.334552  0.151366  0.570680  1
  O  O48  1  0.665448  0.848634  0.429320  1
  O  O49  1  0.166808  0.600326  0.419571  1
  O  O50  1  0.227887  0.348869  0.403323  1
  O  O51  1  0.588588  0.206252  0.400615  1
  O  O52  1  0.560183  0.022547  0.357105  1
  O  O53  1  0.989630  0.803543  0.346544  1
  O  O54  1  0.631045  0.642212  0.341667  1
  O  O55  1  0.227719  0.118335  0.304812  1
  O  O56  1  0.872105  0.151296  0.289891  1
  O  O57  1  0.001941  0.977336  0.278875  1
  O  O58  1  0.367065  0.415771  0.277135  1
  O  O59  1  0.717896  0.377752  0.289183  1
  O  O60  1  0.282104  0.877752  0.210817  1
  O  O61  1  0.632935  0.915771  0.222865  1
  O  O62  1  0.998059  0.477336  0.221125  1
  O  O63  1  0.127895  0.651296  0.210109  1
  O  O64  1  0.772281  0.618335  0.195188  1
  O  O65  1  0.368955  0.142212  0.158333  1
  O  O66  1  0.010370  0.303543  0.153456  1
  O  O67  1  0.439817  0.522547  0.142895  1
  O  O68  1  0.411412  0.706252  0.099385  1
  O  O69  1  0.772113  0.848869  0.096677  1
  O  O70  1  0.833192  0.100326  0.080429  1
  O  O71  1  0.334552  0.348634  0.070680  1
