# generated using pymatgen
data_Li4V3Fe3(SnO8)2
_symmetry_space_group_name_H-M   'P 1'
_cell_length_a   5.98730925
_cell_length_b   5.99181608
_cell_length_c   9.80311412
_cell_angle_alpha   90.07024254
_cell_angle_beta   90.15948383
_cell_angle_gamma   119.82374552
_symmetry_Int_Tables_number   1
_chemical_formula_structural   Li4V3Fe3(SnO8)2
_chemical_formula_sum   'Li4 V3 Fe3 Sn2 O16'
_cell_volume   305.10533528
_cell_formula_units_Z   1
loop_
 _symmetry_equiv_pos_site_id
 _symmetry_equiv_pos_as_xyz
  1  'x, y, z'
loop_
 _atom_site_type_symbol
 _atom_site_label
 _atom_site_symmetry_multiplicity
 _atom_site_fract_x
 _atom_site_fract_y
 _atom_site_fract_z
 _atom_site_occupancy
  Li  Li0  1  0.658788  0.330953  0.104281  1
  Li  Li1  1  0.007427  0.002972  0.006894  1
  Li  Li2  1  0.005913  0.002070  0.505836  1
  Li  Li3  1  0.324798  0.663262  0.606561  1
  V  V4  1  0.173603  0.824436  0.282795  1
  V  V5  1  0.342980  0.170991  0.780102  1
  V  V6  1  0.171510  0.342775  0.286386  1
  Fe  Fe7  1  0.833054  0.662266  0.787101  1
  Fe  Fe8  1  0.832343  0.170430  0.787141  1
  Fe  Fe9  1  0.668772  0.832165  0.285643  1
  Sn  Sn10  1  0.665779  0.331749  0.508294  1
  Sn  Sn11  1  0.336431  0.667921  0.007987  1
  O  O12  1  0.842086  0.677334  0.400524  1
  O  O13  1  0.959382  0.479008  0.660965  1
  O  O14  1  0.641576  0.321104  0.892681  1
  O  O15  1  0.015660  0.007645  0.693278  1
  O  O16  1  0.011652  0.994202  0.194113  1
  O  O17  1  0.842807  0.161478  0.399829  1
  O  O18  1  0.508343  0.475139  0.660945  1
  O  O19  1  0.509643  0.033396  0.661505  1
  O  O20  1  0.682185  0.841414  0.901332  1
  O  O21  1  0.324012  0.157351  0.400942  1
  O  O22  1  0.476679  0.964226  0.162713  1
  O  O23  1  0.479212  0.516527  0.162432  1
  O  O24  1  0.326395  0.679017  0.393945  1
  O  O25  1  0.164284  0.840365  0.899119  1
  O  O26  1  0.031555  0.526604  0.158494  1
  O  O27  1  0.163130  0.323504  0.900322  1
