# generated using pymatgen
data_Hf5N5O2
_symmetry_space_group_name_H-M   'P 1'
_cell_length_a   5.43065245
_cell_length_b   5.43065245
_cell_length_c   9.11705571
_cell_angle_alpha   75.17307990
_cell_angle_beta   104.82692010
_cell_angle_gamma   147.19029342
_symmetry_Int_Tables_number   1
_chemical_formula_structural   Hf5N5O2
_chemical_formula_sum   'Hf5 N5 O2'
_cell_volume   140.41337050
_cell_formula_units_Z   1
loop_
 _symmetry_equiv_pos_site_id
 _symmetry_equiv_pos_as_xyz
  1  'x, y, z'
loop_
 _atom_site_type_symbol
 _atom_site_label
 _atom_site_symmetry_multiplicity
 _atom_site_fract_x
 _atom_site_fract_y
 _atom_site_fract_z
 _atom_site_occupancy
  Hf  Hf0  1  0.114046  0.885954  0.423353  1
  Hf  Hf1  1  0.702277  0.297723  0.806931  1
  Hf  Hf2  1  0.297723  0.702277  0.193069  1
  Hf  Hf3  1  0.885954  0.114046  0.576647  1
  Hf  Hf4  1  0.000000  0.000000  0.000000  1
  N  N5  1  0.500000  0.500000  0.500000  1
  N  N6  1  0.655282  0.344718  0.051894  1
  N  N7  1  0.738538  0.261462  0.352093  1
  N  N8  1  0.261462  0.738538  0.647907  1
  N  N9  1  0.344718  0.655282  0.948106  1
  O  O10  1  0.044991  0.955009  0.787117  1
  O  O11  1  0.955009  0.044991  0.212883  1
