# generated using pymatgen
data_Li2Ti3CoO8
_symmetry_space_group_name_H-M   'P 1'
_cell_length_a   8.44457580
_cell_length_b   8.44457580
_cell_length_c   8.44457580
_cell_angle_alpha   90.00000000
_cell_angle_beta   90.00000000
_cell_angle_gamma   90.00000000
_symmetry_Int_Tables_number   1
_chemical_formula_structural   Li2Ti3CoO8
_chemical_formula_sum   'Li8 Ti12 Co4 O32'
_cell_volume   602.18996566
_cell_formula_units_Z   4
loop_
 _symmetry_equiv_pos_site_id
 _symmetry_equiv_pos_as_xyz
  1  'x, y, z'
loop_
 _atom_site_type_symbol
 _atom_site_label
 _atom_site_symmetry_multiplicity
 _atom_site_fract_x
 _atom_site_fract_y
 _atom_site_fract_z
 _atom_site_occupancy
  Li  Li0  1  0.497678  0.497678  0.497678  1
  Li  Li1  1  0.502322  0.997678  0.002322  1
  Li  Li2  1  0.624345  0.375655  0.875655  1
  Li  Li3  1  0.875655  0.624345  0.375655  1
  Li  Li4  1  0.002322  0.502322  0.997678  1
  Li  Li5  1  0.997678  0.002322  0.502322  1
  Li  Li6  1  0.124345  0.124345  0.124345  1
  Li  Li7  1  0.375655  0.875655  0.624345  1
  Ti  Ti8  1  0.634995  0.620064  0.127608  1
  Ti  Ti9  1  0.620064  0.127608  0.634995  1
  Ti  Ti10  1  0.627608  0.865005  0.379936  1
  Ti  Ti11  1  0.879936  0.872392  0.134995  1
  Ti  Ti12  1  0.872392  0.134995  0.879936  1
  Ti  Ti13  1  0.865005  0.379936  0.627608  1
  Ti  Ti14  1  0.127608  0.634995  0.620064  1
  Ti  Ti15  1  0.134995  0.879936  0.872392  1
  Ti  Ti16  1  0.120064  0.372392  0.365005  1
  Ti  Ti17  1  0.379936  0.627608  0.865005  1
  Ti  Ti18  1  0.372392  0.365005  0.120064  1
  Ti  Ti19  1  0.365005  0.120064  0.372392  1
  Co  Co20  1  0.752486  0.752486  0.752486  1
  Co  Co21  1  0.747514  0.247514  0.252486  1
  Co  Co22  1  0.252486  0.747514  0.247514  1
  Co  Co23  1  0.247514  0.252486  0.747514  1
  O  O24  1  0.627977  0.889577  0.607526  1
  O  O25  1  0.639268  0.860732  0.139268  1
  O  O26  1  0.643890  0.358751  0.623236  1
  O  O27  1  0.610423  0.392474  0.127977  1
  O  O28  1  0.607526  0.627977  0.889577  1
  O  O29  1  0.623236  0.643890  0.358751  1
  O  O30  1  0.641249  0.123236  0.856110  1
  O  O31  1  0.611893  0.111893  0.388107  1
  O  O32  1  0.889577  0.607526  0.627977  1
  O  O33  1  0.856110  0.641249  0.123236  1
  O  O34  1  0.888107  0.888107  0.888107  1
  O  O35  1  0.858751  0.876764  0.356110  1
  O  O36  1  0.860732  0.139268  0.639268  1
  O  O37  1  0.872023  0.110423  0.107526  1
  O  O38  1  0.876764  0.356110  0.858751  1
  O  O39  1  0.892474  0.372023  0.389577  1
  O  O40  1  0.139268  0.639268  0.860732  1
  O  O41  1  0.123236  0.856110  0.641249  1
  O  O42  1  0.107526  0.872023  0.110423  1
  O  O43  1  0.110423  0.107526  0.872023  1
  O  O44  1  0.111893  0.388107  0.611893  1
  O  O45  1  0.141249  0.376764  0.143890  1
  O  O46  1  0.127977  0.610423  0.392474  1
  O  O47  1  0.143890  0.141249  0.376764  1
  O  O48  1  0.358751  0.623236  0.643890  1
  O  O49  1  0.388107  0.611893  0.111893  1
  O  O50  1  0.356110  0.858751  0.876764  1
  O  O51  1  0.392474  0.127977  0.610423  1
  O  O52  1  0.376764  0.143890  0.141249  1
  O  O53  1  0.372023  0.389577  0.892474  1
  O  O54  1  0.389577  0.892474  0.372023  1
  O  O55  1  0.360732  0.360732  0.360732  1
