# generated using pymatgen
data_LiMnCSO7
_symmetry_space_group_name_H-M   'P 1'
_cell_length_a   5.08923781
_cell_length_b   6.80486082
_cell_length_c   8.70744984
_cell_angle_alpha   90.00000000
_cell_angle_beta   94.73788693
_cell_angle_gamma   90.00000000
_symmetry_Int_Tables_number   1
_chemical_formula_structural   LiMnCSO7
_chemical_formula_sum   'Li2 Mn2 C2 S2 O14'
_cell_volume   300.52211868
_cell_formula_units_Z   2
loop_
 _symmetry_equiv_pos_site_id
 _symmetry_equiv_pos_as_xyz
  1  'x, y, z'
loop_
 _atom_site_type_symbol
 _atom_site_label
 _atom_site_symmetry_multiplicity
 _atom_site_fract_x
 _atom_site_fract_y
 _atom_site_fract_z
 _atom_site_occupancy
  Li  Li0  1  0.788841  0.477004  0.183794  1
  Li  Li1  1  0.211159  0.977004  0.816206  1
  Mn  Mn2  1  0.226822  0.253127  0.345997  1
  Mn  Mn3  1  0.773178  0.753127  0.654003  1
  C  C4  1  0.280641  0.249003  0.072775  1
  C  C5  1  0.719359  0.749003  0.927225  1
  S  S6  1  0.252460  0.756963  0.417042  1
  S  S7  1  0.747540  0.256963  0.582958  1
  O  O8  1  0.690707  0.708589  0.062739  1
  O  O9  1  0.049599  0.259492  0.133356  1
  O  O10  1  0.476208  0.278184  0.181392  1
  O  O11  1  0.200942  0.934394  0.324966  1
  O  O12  1  0.158896  0.581948  0.328353  1
  O  O13  1  0.872100  0.267684  0.432843  1
  O  O14  1  0.545371  0.735765  0.458870  1
  O  O15  1  0.454629  0.235765  0.541130  1
  O  O16  1  0.127900  0.767684  0.567157  1
  O  O17  1  0.841104  0.081948  0.671647  1
  O  O18  1  0.799058  0.434394  0.675034  1
  O  O19  1  0.523792  0.778184  0.818608  1
  O  O20  1  0.950401  0.759492  0.866644  1
  O  O21  1  0.309293  0.208589  0.937261  1
