# generated using pymatgen
data_RbPH3O4F
_symmetry_space_group_name_H-M   'P 1'
_cell_length_a   4.65848954
_cell_length_b   9.17079486
_cell_length_c   12.11251427
_cell_angle_alpha   90.00000000
_cell_angle_beta   90.00000000
_cell_angle_gamma   90.00000000
_symmetry_Int_Tables_number   1
_chemical_formula_structural   RbPH3O4F
_chemical_formula_sum   'Rb4 P4 H12 O16 F4'
_cell_volume   517.47146363
_cell_formula_units_Z   4
loop_
 _symmetry_equiv_pos_site_id
 _symmetry_equiv_pos_as_xyz
  1  'x, y, z'
loop_
 _atom_site_type_symbol
 _atom_site_label
 _atom_site_symmetry_multiplicity
 _atom_site_fract_x
 _atom_site_fract_y
 _atom_site_fract_z
 _atom_site_occupancy
  Rb  Rb0  1  0.632364  0.845364  0.699097  1
  Rb  Rb1  1  0.132364  0.654636  0.199097  1
  Rb  Rb2  1  0.867636  0.345364  0.699097  1
  Rb  Rb3  1  0.367636  0.154636  0.199097  1
  P  P4  1  0.920684  0.977754  0.955533  1
  P  P5  1  0.420684  0.522246  0.455533  1
  P  P6  1  0.579316  0.477754  0.955533  1
  P  P7  1  0.079316  0.022246  0.455533  1
  H  H8  1  0.363221  0.896895  0.992962  1
  H  H9  1  0.751452  0.899129  0.295280  1
  H  H10  1  0.183560  0.786780  0.489753  1
  H  H11  1  0.683560  0.713220  0.989753  1
  H  H12  1  0.251452  0.600871  0.795280  1
  H  H13  1  0.863221  0.603105  0.492962  1
  H  H14  1  0.136779  0.396895  0.992962  1
  H  H15  1  0.748548  0.399129  0.295280  1
  H  H16  1  0.316440  0.286780  0.489753  1
  H  H17  1  0.816440  0.213220  0.989753  1
  H  H18  1  0.248548  0.100871  0.795280  1
  H  H19  1  0.636779  0.103105  0.492962  1
  O  O20  1  0.965581  0.975009  0.344056  1
  O  O21  1  0.162604  0.902100  0.028426  1
  O  O22  1  0.183425  0.887547  0.527632  1
  O  O23  1  0.668183  0.870484  0.947572  1
  O  O24  1  0.168183  0.629516  0.447572  1
  O  O25  1  0.683425  0.612453  0.027632  1
  O  O26  1  0.662604  0.597900  0.528426  1
  O  O27  1  0.465581  0.524991  0.844056  1
  O  O28  1  0.534419  0.475009  0.344056  1
  O  O29  1  0.337396  0.402100  0.028426  1
  O  O30  1  0.316575  0.387547  0.527632  1
  O  O31  1  0.831817  0.370484  0.947572  1
  O  O32  1  0.331817  0.129516  0.447572  1
  O  O33  1  0.816575  0.112453  0.027632  1
  O  O34  1  0.837396  0.097900  0.528426  1
  O  O35  1  0.034419  0.024991  0.844056  1
  F  F36  1  0.601558  0.843844  0.247720  1
  F  F37  1  0.101558  0.656156  0.747720  1
  F  F38  1  0.898442  0.343844  0.247720  1
  F  F39  1  0.398442  0.156156  0.747720  1
