# generated using pymatgen
data_Li6VO5F
_symmetry_space_group_name_H-M   'P 1'
_cell_length_a   5.55706876
_cell_length_b   5.61737231
_cell_length_c   10.72856636
_cell_angle_alpha   90.18076396
_cell_angle_beta   89.91564568
_cell_angle_gamma   119.56910883
_symmetry_Int_Tables_number   1
_chemical_formula_structural   Li6VO5F
_chemical_formula_sum   'Li12 V2 O10 F2'
_cell_volume   291.28525075
_cell_formula_units_Z   2
loop_
 _symmetry_equiv_pos_site_id
 _symmetry_equiv_pos_as_xyz
  1  'x, y, z'
loop_
 _atom_site_type_symbol
 _atom_site_label
 _atom_site_symmetry_multiplicity
 _atom_site_fract_x
 _atom_site_fract_y
 _atom_site_fract_z
 _atom_site_occupancy
  Li  Li0  1  0.360876  0.322351  0.743152  1
  Li  Li1  1  0.646793  0.327790  0.428527  1
  Li  Li2  1  0.680466  0.329062  0.911480  1
  Li  Li3  1  0.974964  0.703800  0.761505  1
  Li  Li4  1  0.646256  0.985629  0.746896  1
  Li  Li5  1  0.985410  0.380148  0.635781  1
  Li  Li6  1  0.322064  0.957077  0.240950  1
  Li  Li7  1  0.987151  0.338352  0.250008  1
  Li  Li8  1  0.335486  0.657349  0.411037  1
  Li  Li9  1  0.322898  0.660818  0.928361  1
  Li  Li10  1  0.381534  0.392297  0.136169  1
  Li  Li11  1  0.707895  0.724550  0.260864  1
  V  V12  1  0.994196  0.997672  0.000837  1
  V  V13  1  0.001706  0.996053  0.500444  1
  O  O14  1  0.005465  0.020849  0.664776  1
  O  O15  1  0.291498  0.994230  0.442640  1
  O  O16  1  0.711971  0.704283  0.447781  1
  O  O17  1  0.697015  0.341037  0.733504  1
  O  O18  1  0.001562  0.710459  0.947765  1
  O  O19  1  0.988865  0.291626  0.452810  1
  O  O20  1  0.341450  0.641301  0.233177  1
  O  O21  1  0.296225  0.297389  0.952815  1
  O  O22  1  0.696894  0.986280  0.944000  1
  O  O23  1  0.017952  0.020670  0.165154  1
  F  F24  1  0.645065  0.336002  0.234054  1
  F  F25  1  0.305970  0.644302  0.733707  1
