# generated using pymatgen
data_Li5Mn7O15
_symmetry_space_group_name_H-M   'P 1'
_cell_length_a   5.90812782
_cell_length_b   5.90812782
_cell_length_c   10.01213075
_cell_angle_alpha   74.12041463
_cell_angle_beta   105.87958537
_cell_angle_gamma   118.10765291
_symmetry_Int_Tables_number   1
_chemical_formula_structural   Li5Mn7O15
_chemical_formula_sum   'Li5 Mn7 O15'
_cell_volume   292.15790273
_cell_formula_units_Z   1
loop_
 _symmetry_equiv_pos_site_id
 _symmetry_equiv_pos_as_xyz
  1  'x, y, z'
loop_
 _atom_site_type_symbol
 _atom_site_label
 _atom_site_symmetry_multiplicity
 _atom_site_fract_x
 _atom_site_fract_y
 _atom_site_fract_z
 _atom_site_occupancy
  Li  Li0  1  0.816010  0.183990  0.932099  1
  Li  Li1  1  0.242376  0.757624  0.764156  1
  Li  Li2  1  0.302566  0.697434  0.408126  1
  Li  Li3  1  0.682156  0.317844  0.565231  1
  Li  Li4  1  0.186400  0.813600  0.065141  1
  Mn  Mn5  1  0.492065  0.507935  0.992005  1
  Mn  Mn6  1  0.246911  0.229621  0.759707  1
  Mn  Mn7  1  0.770379  0.753089  0.759707  1
  Mn  Mn8  1  0.000725  0.999275  0.505496  1
  Mn  Mn9  1  0.750325  0.754207  0.249234  1
  Mn  Mn10  1  0.747101  0.252899  0.248376  1
  Mn  Mn11  1  0.245793  0.249675  0.249234  1
  O  O12  1  0.601580  0.398420  0.859333  1
  O  O13  1  0.609449  0.832242  0.869299  1
  O  O14  1  0.167758  0.390551  0.869299  1
  O  O15  1  0.332300  0.128687  0.620364  1
  O  O16  1  0.118450  0.881550  0.870932  1
  O  O17  1  0.871313  0.667700  0.620364  1
  O  O18  1  0.891432  0.108568  0.633167  1
  O  O19  1  0.106732  0.893268  0.374303  1
  O  O20  1  0.096538  0.343499  0.365772  1
  O  O21  1  0.875273  0.124727  0.140652  1
  O  O22  1  0.656501  0.903462  0.365772  1
  O  O23  1  0.835527  0.600672  0.131409  1
  O  O24  1  0.620829  0.379171  0.357683  1
  O  O25  1  0.399328  0.164473  0.131409  1
  O  O26  1  0.390752  0.609248  0.125690  1
