# generated using pymatgen
data_Li5Fe2Co3O10
_symmetry_space_group_name_H-M   'P 1'
_cell_length_a   5.15702449
_cell_length_b   5.16593627
_cell_length_c   7.78243400
_cell_angle_alpha   103.92324599
_cell_angle_beta   108.44907031
_cell_angle_gamma   99.06327895
_symmetry_Int_Tables_number   1
_chemical_formula_structural   Li5Fe2Co3O10
_chemical_formula_sum   'Li5 Fe2 Co3 O10'
_cell_volume   184.64646034
_cell_formula_units_Z   1
loop_
 _symmetry_equiv_pos_site_id
 _symmetry_equiv_pos_as_xyz
  1  'x, y, z'
loop_
 _atom_site_type_symbol
 _atom_site_label
 _atom_site_symmetry_multiplicity
 _atom_site_fract_x
 _atom_site_fract_y
 _atom_site_fract_z
 _atom_site_occupancy
  Li  Li0  1  0.080163  0.791097  0.587466  1
  Li  Li1  1  0.703794  0.601387  0.211847  1
  Li  Li2  1  0.500000  0.500000  0.500000  1
  Li  Li3  1  0.296206  0.398613  0.788153  1
  Li  Li4  1  0.919837  0.208903  0.412534  1
  Fe  Fe5  1  0.307502  0.901189  0.308364  1
  Fe  Fe6  1  0.692498  0.098811  0.691636  1
  Co  Co7  1  0.500000  0.000000  0.000000  1
  Co  Co8  1  0.100840  0.307279  0.109583  1
  Co  Co9  1  0.899160  0.692721  0.890417  1
  O  O10  1  0.907745  0.947331  0.139960  1
  O  O11  1  0.287914  0.657628  0.049638  1
  O  O12  1  0.686187  0.856984  0.452091  1
  O  O13  1  0.514294  0.773724  0.769825  1
  O  O14  1  0.102688  0.541650  0.332917  1
  O  O15  1  0.897312  0.458350  0.667083  1
  O  O16  1  0.485706  0.226276  0.230175  1
  O  O17  1  0.313813  0.143016  0.547909  1
  O  O18  1  0.712086  0.342372  0.950362  1
  O  O19  1  0.092255  0.052669  0.860040  1
