# generated using pymatgen
data_K3MnCrO8
_symmetry_space_group_name_H-M   'P 1'
_cell_length_a   7.94865021
_cell_length_b   7.94865021
_cell_length_c   7.94865021
_cell_angle_alpha   43.44275759
_cell_angle_beta   43.44275759
_cell_angle_gamma   43.44275759
_symmetry_Int_Tables_number   1
_chemical_formula_structural   K3MnCrO8
_chemical_formula_sum   'K3 Mn1 Cr1 O8'
_cell_volume   215.42893954
_cell_formula_units_Z   1
loop_
 _symmetry_equiv_pos_site_id
 _symmetry_equiv_pos_as_xyz
  1  'x, y, z'
loop_
 _atom_site_type_symbol
 _atom_site_label
 _atom_site_symmetry_multiplicity
 _atom_site_fract_x
 _atom_site_fract_y
 _atom_site_fract_z
 _atom_site_occupancy
  K  K0  1  0.295340  0.295340  0.295340  1
  K  K1  1  0.699808  0.699808  0.699808  1
  K  K2  1  0.504556  0.504556  0.504556  1
  Mn  Mn3  1  0.094910  0.094910  0.094910  1
  Cr  Cr4  1  0.908946  0.908946  0.908946  1
  O  O5  1  0.220086  0.220086  0.769266  1
  O  O6  1  0.781081  0.781081  0.243660  1
  O  O7  1  0.220086  0.769266  0.220086  1
  O  O8  1  0.243660  0.781081  0.781081  1
  O  O9  1  0.169427  0.169427  0.169427  1
  O  O10  1  0.769266  0.220086  0.220086  1
  O  O11  1  0.831704  0.831704  0.831704  1
  O  O12  1  0.781081  0.243660  0.781081  1
