# generated using pymatgen
data_Li4Mn3Nb3(SnO8)2
_symmetry_space_group_name_H-M   'P 1'
_cell_length_a   6.28912891
_cell_length_b   6.28912891
_cell_length_c   10.07127282
_cell_angle_alpha   88.67355149
_cell_angle_beta   91.32644851
_cell_angle_gamma   121.61350508
_symmetry_Int_Tables_number   1
_chemical_formula_structural   Li4Mn3Nb3(SnO8)2
_chemical_formula_sum   'Li4 Mn3 Nb3 Sn2 O16'
_cell_volume   339.11734241
_cell_formula_units_Z   1
loop_
 _symmetry_equiv_pos_site_id
 _symmetry_equiv_pos_as_xyz
  1  'x, y, z'
loop_
 _atom_site_type_symbol
 _atom_site_label
 _atom_site_symmetry_multiplicity
 _atom_site_fract_x
 _atom_site_fract_y
 _atom_site_fract_z
 _atom_site_occupancy
  Li  Li0  1  0.671134  0.328866  0.092045  1
  Li  Li1  1  0.002592  0.997408  0.003727  1
  Li  Li2  1  0.004671  0.995329  0.516595  1
  Li  Li3  1  0.344795  0.655205  0.607263  1
  Mn  Mn4  1  0.829288  0.659652  0.789274  1
  Mn  Mn5  1  0.340348  0.170712  0.789274  1
  Mn  Mn6  1  0.166502  0.833498  0.285957  1
  Nb  Nb7  1  0.829363  0.170637  0.783202  1
  Nb  Nb8  1  0.658246  0.833810  0.286970  1
  Nb  Nb9  1  0.166190  0.341754  0.286970  1
  Sn  Sn10  1  0.659398  0.340602  0.518079  1
  Sn  Sn11  1  0.324712  0.675288  0.000941  1
  O  O12  1  0.817534  0.676548  0.399788  1
  O  O13  1  0.522596  0.477404  0.650131  1
  O  O14  1  0.686443  0.313557  0.898016  1
  O  O15  1  0.988985  0.011015  0.696629  1
  O  O16  1  0.993538  0.006462  0.187161  1
  O  O17  1  0.323452  0.182466  0.399788  1
  O  O18  1  0.970178  0.463819  0.651401  1
  O  O19  1  0.536181  0.029822  0.651401  1
  O  O20  1  0.157915  0.842085  0.915595  1
  O  O21  1  0.829599  0.170401  0.395815  1
  O  O22  1  0.499045  0.956720  0.160454  1
  O  O23  1  0.043280  0.500955  0.160454  1
  O  O24  1  0.339593  0.660407  0.400497  1
  O  O25  1  0.662136  0.847084  0.902553  1
  O  O26  1  0.480470  0.519530  0.159611  1
  O  O27  1  0.152916  0.337864  0.902553  1
