# generated using pymatgen
data_V4(OF3)3
_symmetry_space_group_name_H-M   'P 1'
_cell_length_a   5.25278750
_cell_length_b   5.38656604
_cell_length_c   17.46649538
_cell_angle_alpha   89.28094210
_cell_angle_beta   97.95863138
_cell_angle_gamma   118.79022079
_symmetry_Int_Tables_number   1
_chemical_formula_structural   V4(OF3)3
_chemical_formula_sum   'V8 O6 F18'
_cell_volume   428.10951661
_cell_formula_units_Z   2
loop_
 _symmetry_equiv_pos_site_id
 _symmetry_equiv_pos_as_xyz
  1  'x, y, z'
loop_
 _atom_site_type_symbol
 _atom_site_label
 _atom_site_symmetry_multiplicity
 _atom_site_fract_x
 _atom_site_fract_y
 _atom_site_fract_z
 _atom_site_occupancy
  V  V0  1  0.743623  0.366662  0.125275  1
  V  V1  1  0.753034  0.905131  0.629881  1
  V  V2  1  0.506701  0.716258  0.248774  1
  V  V3  1  0.516821  0.258311  0.750494  1
  V  V4  1  0.249449  0.135946  0.370719  1
  V  V5  1  0.215799  0.613044  0.872584  1
  V  V6  1  0.976080  0.011713  0.002092  1
  V  V7  1  0.984207  0.485233  0.505138  1
  O  O8  1  0.816183  0.212326  0.560875  1
  O  O9  1  0.838781  0.196674  0.042447  1
  O  O10  1  0.293928  0.407733  0.314102  1
  O  O11  1  0.862255  0.428896  0.832609  1
  O  O12  1  0.652056  0.541299  0.207250  1
  O  O13  1  0.671561  0.047165  0.702584  1
  F  F14  1  0.314139  0.137223  0.083657  1
  F  F15  1  0.766771  0.669232  0.058032  1
  F  F16  1  0.718849  0.067125  0.193335  1
  F  F17  1  0.323122  0.927015  0.292976  1
  F  F18  1  0.338045  0.682095  0.582559  1
  F  F19  1  0.351742  0.480684  0.789651  1
  F  F20  1  0.173432  0.596963  0.166478  1
  F  F21  1  0.173397  0.090808  0.664016  1
  F  F22  1  0.184000  0.301166  0.460371  1
  F  F23  1  0.725310  0.573120  0.684740  1
  F  F24  1  0.822783  0.903118  0.338249  1
  F  F25  1  0.829054  0.721760  0.540734  1
  F  F26  1  0.158785  0.791791  0.960619  1
  F  F27  1  0.672387  0.322303  0.414566  1
  F  F28  1  0.290954  0.953006  0.815643  1
  F  F29  1  0.218321  0.310763  0.937298  1
  F  F30  1  0.200411  0.812331  0.438306  1
  F  F31  1  0.658022  0.833111  0.913947  1
