# generated using pymatgen
data_Na2Bi2C4SO16
_symmetry_space_group_name_H-M   'P 1'
_cell_length_a   10.68917323
_cell_length_b   10.53536411
_cell_length_c   10.39471483
_cell_angle_alpha   61.41773772
_cell_angle_beta   59.93933142
_cell_angle_gamma   58.64293087
_symmetry_Int_Tables_number   1
_chemical_formula_structural   Na2Bi2C4SO16
_chemical_formula_sum   'Na4 Bi4 C8 S2 O32'
_cell_volume   826.76061550
_cell_formula_units_Z   2
loop_
 _symmetry_equiv_pos_site_id
 _symmetry_equiv_pos_as_xyz
  1  'x, y, z'
loop_
 _atom_site_type_symbol
 _atom_site_label
 _atom_site_symmetry_multiplicity
 _atom_site_fract_x
 _atom_site_fract_y
 _atom_site_fract_z
 _atom_site_occupancy
  Na  Na0  1  0.290527  0.709473  0.709473  1
  Na  Na1  1  0.709473  0.290527  0.290527  1
  Na  Na2  1  0.540527  0.959473  0.959473  1
  Na  Na3  1  0.959473  0.540527  0.540527  1
  Bi  Bi4  1  0.125000  0.125000  0.625000  1
  Bi  Bi5  1  0.125000  0.125000  0.125000  1
  Bi  Bi6  1  0.625000  0.125000  0.125000  1
  Bi  Bi7  1  0.125000  0.625000  0.125000  1
  C  C8  1  0.279194  0.899792  0.908895  1
  C  C9  1  0.899792  0.279194  0.912119  1
  C  C10  1  0.908895  0.912119  0.279194  1
  C  C11  1  0.912119  0.908895  0.899792  1
  C  C12  1  0.337881  0.341105  0.350207  1
  C  C13  1  0.341105  0.337881  0.970806  1
  C  C14  1  0.350207  0.970806  0.337881  1
  C  C15  1  0.970806  0.350207  0.341105  1
  S  S16  1  0.500000  0.500000  0.500000  1
  S  S17  1  0.750000  0.750000  0.750000  1
  O  O18  1  0.273823  0.913371  0.780562  1
  O  O19  1  0.272729  0.777426  0.025217  1
  O  O20  1  0.913371  0.273823  0.032244  1
  O  O21  1  0.777426  0.272729  0.924628  1
  O  O22  1  0.239648  0.957382  0.472485  1
  O  O23  1  0.025217  0.924628  0.272729  1
  O  O24  1  0.957382  0.239648  0.330486  1
  O  O25  1  0.919514  0.777515  0.292618  1
  O  O26  1  0.780562  0.032244  0.273823  1
  O  O27  1  0.559539  0.552901  0.326957  1
  O  O28  1  0.472485  0.330486  0.239648  1
  O  O29  1  0.923043  0.689397  0.690461  1
  O  O30  1  0.924628  0.025217  0.777426  1
  O  O31  1  0.032244  0.780562  0.913371  1
  O  O32  1  0.552901  0.559539  0.560603  1
  O  O33  1  0.560603  0.326957  0.552901  1
  O  O34  1  0.689397  0.923043  0.697099  1
  O  O35  1  0.697099  0.690461  0.689397  1
  O  O36  1  0.217756  0.469438  0.336629  1
  O  O37  1  0.325372  0.224783  0.472574  1
  O  O38  1  0.326957  0.560603  0.559539  1
  O  O39  1  0.777515  0.919514  0.010352  1
  O  O40  1  0.690461  0.697099  0.923043  1
  O  O41  1  0.469438  0.217756  0.976177  1
  O  O42  1  0.330486  0.472485  0.957382  1
  O  O43  1  0.292618  0.010352  0.919514  1
  O  O44  1  0.224783  0.325372  0.977271  1
  O  O45  1  0.010352  0.292618  0.777516  1
  O  O46  1  0.472574  0.977271  0.325372  1
  O  O47  1  0.336629  0.976177  0.217756  1
  O  O48  1  0.977271  0.472574  0.224783  1
  O  O49  1  0.976177  0.336629  0.469438  1
