# generated using pymatgen
data_Li3Mn3FeO8
_symmetry_space_group_name_H-M   'P 1'
_cell_length_a   5.83574242
_cell_length_b   5.96198455
_cell_length_c   9.53501649
_cell_angle_alpha   89.90416665
_cell_angle_beta   90.52175290
_cell_angle_gamma   119.08633692
_symmetry_Int_Tables_number   1
_chemical_formula_structural   Li3Mn3FeO8
_chemical_formula_sum   'Li6 Mn6 Fe2 O16'
_cell_volume   289.89725745
_cell_formula_units_Z   2
loop_
 _symmetry_equiv_pos_site_id
 _symmetry_equiv_pos_as_xyz
  1  'x, y, z'
loop_
 _atom_site_type_symbol
 _atom_site_label
 _atom_site_symmetry_multiplicity
 _atom_site_fract_x
 _atom_site_fract_y
 _atom_site_fract_z
 _atom_site_occupancy
  Li  Li0  1  0.820658  0.161667  0.556180  1
  Li  Li1  1  0.831444  0.645950  0.556660  1
  Li  Li2  1  0.351405  0.170785  0.559629  1
  Li  Li3  1  0.659737  0.835642  0.055381  1
  Li  Li4  1  0.185825  0.355661  0.056962  1
  Li  Li5  1  0.174553  0.818741  0.058721  1
  Mn  Mn6  1  0.828515  0.164758  0.285387  1
  Mn  Mn7  1  0.828152  0.660292  0.284424  1
  Mn  Mn8  1  0.331498  0.166374  0.285582  1
  Mn  Mn9  1  0.664706  0.833781  0.784352  1
  Mn  Mn10  1  0.168512  0.339472  0.785073  1
  Mn  Mn11  1  0.168124  0.834300  0.786614  1
  Fe  Fe12  1  0.672500  0.348687  0.003397  1
  Fe  Fe13  1  0.321849  0.657098  0.504523  1
  O  O14  1  0.008304  0.027595  0.174660  1
  O  O15  1  0.031355  0.024502  0.676112  1
  O  O16  1  0.842938  0.169278  0.897334  1
  O  O17  1  0.966239  0.472517  0.164836  1
  O  O18  1  0.849474  0.694676  0.902937  1
  O  O19  1  0.649042  0.299339  0.402960  1
  O  O20  1  0.521746  0.040416  0.157909  1
  O  O21  1  0.540850  0.510239  0.150188  1
  O  O22  1  0.672895  0.843404  0.399762  1
  O  O23  1  0.331445  0.194208  0.909072  1
  O  O24  1  0.484694  0.516288  0.661539  1
  O  O25  1  0.477343  0.954273  0.661191  1
  O  O26  1  0.304296  0.649823  0.903154  1
  O  O27  1  0.152770  0.312200  0.401707  1
  O  O28  1  0.027714  0.490138  0.652487  1
  O  O29  1  0.131664  0.808136  0.411630  1
