# generated using pymatgen
data_LiFe(CO3)2
_symmetry_space_group_name_H-M   'P 1'
_cell_length_a   5.17168521
_cell_length_b   7.77864357
_cell_length_c   6.38064465
_cell_angle_alpha   90.00000000
_cell_angle_beta   111.71205390
_cell_angle_gamma   90.00000000
_symmetry_Int_Tables_number   1
_chemical_formula_structural   LiFe(CO3)2
_chemical_formula_sum   'Li2 Fe2 C4 O12'
_cell_volume   238.47443457
_cell_formula_units_Z   2
loop_
 _symmetry_equiv_pos_site_id
 _symmetry_equiv_pos_as_xyz
  1  'x, y, z'
loop_
 _atom_site_type_symbol
 _atom_site_label
 _atom_site_symmetry_multiplicity
 _atom_site_fract_x
 _atom_site_fract_y
 _atom_site_fract_z
 _atom_site_occupancy
  Li  Li0  1  0.552200  0.937694  0.934212  1
  Li  Li1  1  0.447800  0.437694  0.065788  1
  Fe  Fe2  1  0.243291  0.999593  0.271764  1
  Fe  Fe3  1  0.756709  0.499593  0.728236  1
  C  C4  1  0.511931  0.735138  0.366457  1
  C  C5  1  0.488069  0.235138  0.633543  1
  C  C6  1  0.029261  0.762996  0.887157  1
  C  C7  1  0.970739  0.262996  0.112843  1
  O  O8  1  0.622699  0.868379  0.311132  1
  O  O9  1  0.635725  0.586409  0.411805  1
  O  O10  1  0.737693  0.254585  0.630997  1
  O  O11  1  0.262307  0.754585  0.369003  1
  O  O12  1  0.364275  0.086409  0.588195  1
  O  O13  1  0.377301  0.368379  0.688868  1
  O  O14  1  0.144210  0.619691  0.859762  1
  O  O15  1  0.167326  0.903768  0.946277  1
  O  O16  1  0.237899  0.253844  0.154100  1
  O  O17  1  0.762101  0.753844  0.845900  1
  O  O18  1  0.832674  0.403768  0.053723  1
  O  O19  1  0.855790  0.119691  0.140238  1
