# generated using pymatgen
data_LiTi2Mn3O10
_symmetry_space_group_name_H-M   'P 1'
_cell_length_a   5.02144344
_cell_length_b   5.08531775
_cell_length_c   7.92643162
_cell_angle_alpha   74.94057244
_cell_angle_beta   73.60722254
_cell_angle_gamma   81.99385441
_symmetry_Int_Tables_number   1
_chemical_formula_structural   LiTi2Mn3O10
_chemical_formula_sum   'Li1 Ti2 Mn3 O10'
_cell_volume   187.03407042
_cell_formula_units_Z   1
loop_
 _symmetry_equiv_pos_site_id
 _symmetry_equiv_pos_as_xyz
  1  'x, y, z'
loop_
 _atom_site_type_symbol
 _atom_site_label
 _atom_site_symmetry_multiplicity
 _atom_site_fract_x
 _atom_site_fract_y
 _atom_site_fract_z
 _atom_site_occupancy
  Li  Li0  1  0.676271  0.500564  0.455701  1
  Ti  Ti1  1  0.124062  0.985531  0.317038  1
  Ti  Ti2  1  0.893329  0.992016  0.673560  1
  Mn  Mn3  1  0.009628  0.502205  0.997032  1
  Mn  Mn4  1  0.704578  0.017021  0.094229  1
  Mn  Mn5  1  0.312148  0.994082  0.895783  1
  O  O6  1  0.045170  0.785587  0.122270  1
  O  O7  1  0.363729  0.211051  0.053141  1
  O  O8  1  0.092315  0.217965  0.469077  1
  O  O9  1  0.195947  0.757084  0.784090  1
  O  O10  1  0.477987  0.817154  0.305636  1
  O  O11  1  0.547898  0.182489  0.685246  1
  O  O12  1  0.818614  0.250932  0.211269  1
  O  O13  1  0.900846  0.768542  0.518998  1
  O  O14  1  0.651095  0.793931  0.940832  1
  O  O15  1  0.969096  0.220760  0.873470  1
