# generated using pymatgen
data_Mn7Fe3O20
_symmetry_space_group_name_H-M   'P 1'
_cell_length_a   5.88468017
_cell_length_b   5.88468017
_cell_length_c   24.37743188
_cell_angle_alpha   83.23401186
_cell_angle_beta   96.76598814
_cell_angle_gamma   120.66625297
_symmetry_Int_Tables_number   1
_chemical_formula_structural   Mn7Fe3O20
_chemical_formula_sum   'Mn14 Fe6 O40'
_cell_volume   719.41603976
_cell_formula_units_Z   2
loop_
 _symmetry_equiv_pos_site_id
 _symmetry_equiv_pos_as_xyz
  1  'x, y, z'
loop_
 _atom_site_type_symbol
 _atom_site_label
 _atom_site_symmetry_multiplicity
 _atom_site_fract_x
 _atom_site_fract_y
 _atom_site_fract_z
 _atom_site_occupancy
  Mn  Mn0  1  0.699364  0.300636  0.099678  1
  Mn  Mn1  1  0.196659  0.297986  0.099874  1
  Mn  Mn2  1  0.803341  0.702014  0.900126  1
  Mn  Mn3  1  0.297986  0.196659  0.900126  1
  Mn  Mn4  1  0.702014  0.803341  0.099874  1
  Mn  Mn5  1  0.300636  0.699364  0.900322  1
  Mn  Mn6  1  0.396455  0.100225  0.699774  1
  Mn  Mn7  1  0.100225  0.396455  0.300226  1
  Mn  Mn8  1  0.899775  0.603545  0.699774  1
  Mn  Mn9  1  0.500000  1.000000  0.500000  1
  Mn  Mn10  1  0.603545  0.899775  0.300226  1
  Mn  Mn11  1  1.000000  0.500000  0.500000  1
  Mn  Mn12  1  0.296915  0.703085  0.399979  1
  Mn  Mn13  1  0.703085  0.296915  0.600021  1
  Fe  Fe14  1  0.097943  0.902057  0.800116  1
  Fe  Fe15  1  0.902057  0.097943  0.199884  1
  Fe  Fe16  1  0.500000  0.500000  0.000000  1
  Fe  Fe17  1  0.897891  0.102109  0.700194  1
  Fe  Fe18  1  0.500000  0.500000  0.500000  1
  Fe  Fe19  1  0.102109  0.897891  0.299806  1
  O  O20  1  0.026651  0.411338  0.145169  1
  O  O21  1  0.588662  0.973349  0.145169  1
  O  O22  1  0.145004  0.854996  0.940678  1
  O  O23  1  0.546706  0.453294  0.140416  1
  O  O24  1  0.810508  0.628300  0.054333  1
  O  O25  1  0.371700  0.189492  0.054333  1
  O  O26  1  0.973349  0.588662  0.854831  1
  O  O27  1  0.369377  0.630623  0.054597  1
  O  O28  1  0.630623  0.369377  0.945403  1
  O  O29  1  0.029582  0.970418  0.144894  1
  O  O30  1  0.628300  0.810508  0.945667  1
  O  O31  1  0.189492  0.371700  0.945667  1
  O  O32  1  0.780251  0.763642  0.746366  1
  O  O33  1  0.054612  0.945388  0.659112  1
  O  O34  1  0.854996  0.145004  0.059322  1
  O  O35  1  0.453294  0.546706  0.859584  1
  O  O36  1  0.411338  0.026651  0.854831  1
  O  O37  1  0.970418  0.029582  0.855106  1
  O  O38  1  0.570233  0.429767  0.653019  1
  O  O39  1  0.562582  0.990468  0.652549  1
  O  O40  1  0.236358  0.219749  0.746366  1
  O  O41  1  0.826050  0.173950  0.546890  1
  O  O42  1  0.227730  0.772270  0.745599  1
  O  O43  1  0.386548  0.165290  0.547830  1
  O  O44  1  0.613452  0.834710  0.452170  1
  O  O45  1  0.741001  0.258999  0.741185  1
  O  O46  1  0.009532  0.437418  0.652549  1
  O  O47  1  0.341367  0.658633  0.540882  1
  O  O48  1  0.945388  0.054612  0.340888  1
  O  O49  1  0.772270  0.227730  0.254401  1
  O  O50  1  0.173950  0.826050  0.453110  1
  O  O51  1  0.165290  0.386548  0.452170  1
  O  O52  1  0.834710  0.613452  0.547830  1
  O  O53  1  0.429767  0.570233  0.346981  1
  O  O54  1  0.437418  0.009532  0.347451  1
  O  O55  1  0.990468  0.562582  0.347451  1
  O  O56  1  0.658633  0.341367  0.459118  1
  O  O57  1  0.258999  0.741001  0.258815  1
  O  O58  1  0.219749  0.236358  0.253634  1
  O  O59  1  0.763642  0.780251  0.253634  1
