# generated using pymatgen
data_LiMn2Fe3O8
_symmetry_space_group_name_H-M   'P 1'
_cell_length_a   6.00374016
_cell_length_b   6.00374016
_cell_length_c   6.00374016
_cell_angle_alpha   119.67495294
_cell_angle_beta   119.35739732
_cell_angle_gamma   90.84028897
_symmetry_Int_Tables_number   1
_chemical_formula_structural   LiMn2Fe3O8
_chemical_formula_sum   'Li1 Mn2 Fe3 O8'
_cell_volume   154.12051567
_cell_formula_units_Z   1
loop_
 _symmetry_equiv_pos_site_id
 _symmetry_equiv_pos_as_xyz
  1  'x, y, z'
loop_
 _atom_site_type_symbol
 _atom_site_label
 _atom_site_symmetry_multiplicity
 _atom_site_fract_x
 _atom_site_fract_y
 _atom_site_fract_z
 _atom_site_occupancy
  Li  Li0  1  0.367682  0.867682  0.500000  1
  Mn  Mn1  1  0.255742  0.502135  0.753607  1
  Mn  Mn2  1  0.748528  0.502135  0.246393  1
  Fe  Fe3  1  0.748570  0.996018  0.247448  1
  Fe  Fe4  1  0.748570  0.501121  0.752552  1
  Fe  Fe5  1  0.129216  0.129216  0.000000  1
  O  O6  1  0.508642  0.283342  0.774700  1
  O  O7  1  0.508642  0.733942  0.225300  1
  O  O8  1  0.502694  0.731029  0.771664  1
  O  O9  1  0.959365  0.731029  0.228336  1
  O  O10  1  0.541281  0.269287  0.271994  1
  O  O11  1  0.997293  0.269287  0.728006  1
  O  O12  1  0.991888  0.266947  0.275059  1
  O  O13  1  0.991888  0.716830  0.724941  1
