# generated using pymatgen
data_Hf3N4
_symmetry_space_group_name_H-M   'P 1'
_cell_length_a   8.63881195
_cell_length_b   8.63881195
_cell_length_c   8.63881195
_cell_angle_alpha   22.76035730
_cell_angle_beta   22.76035730
_cell_angle_gamma   22.76035730
_symmetry_Int_Tables_number   1
_chemical_formula_structural   Hf3N4
_chemical_formula_sum   'Hf3 N4'
_cell_volume   84.66641679
_cell_formula_units_Z   1
loop_
 _symmetry_equiv_pos_site_id
 _symmetry_equiv_pos_as_xyz
  1  'x, y, z'
loop_
 _atom_site_type_symbol
 _atom_site_label
 _atom_site_symmetry_multiplicity
 _atom_site_fract_x
 _atom_site_fract_y
 _atom_site_fract_z
 _atom_site_occupancy
  Hf  Hf0  1  0.221990  0.221990  0.221990  1
  Hf  Hf1  1  0.778010  0.778010  0.778010  1
  Hf  Hf2  1  1.000000  0.000000  0.000000  1
  N  N3  1  0.621884  0.621884  0.621884  1
  N  N4  1  0.867736  0.867736  0.867736  1
  N  N5  1  0.132264  0.132264  0.132264  1
  N  N6  1  0.378116  0.378116  0.378116  1
