# generated using pymatgen
data_BaCaI4
_symmetry_space_group_name_H-M   'P 1'
_cell_length_a   9.25224227
_cell_length_b   9.25224227
_cell_length_c   9.25224227
_cell_angle_alpha   114.76066682
_cell_angle_beta   107.15518997
_cell_angle_gamma   106.63121039
_symmetry_Int_Tables_number   1
_chemical_formula_structural   BaCaI4
_chemical_formula_sum   'Ba2 Ca2 I8'
_cell_volume   605.75885175
_cell_formula_units_Z   2
loop_
 _symmetry_equiv_pos_site_id
 _symmetry_equiv_pos_as_xyz
  1  'x, y, z'
loop_
 _atom_site_type_symbol
 _atom_site_label
 _atom_site_symmetry_multiplicity
 _atom_site_fract_x
 _atom_site_fract_y
 _atom_site_fract_z
 _atom_site_occupancy
  Ba  Ba0  1  0.020536  0.750000  0.270536  1
  Ba  Ba1  1  0.979464  0.250000  0.729464  1
  Ca  Ca2  1  0.500000  0.500000  0.500000  1
  Ca  Ca3  1  0.500000  0.000000  0.000000  1
  I  I4  1  0.298638  0.567117  0.731521  1
  I  I5  1  0.213792  0.019864  0.733656  1
  I  I6  1  0.786208  0.519864  0.806072  1
  I  I7  1  0.664404  0.932883  0.731521  1
  I  I8  1  0.335596  0.067117  0.268479  1
  I  I9  1  0.786208  0.980136  0.266344  1
  I  I10  1  0.213792  0.480136  0.193928  1
  I  I11  1  0.701362  0.432883  0.268479  1
