# generated using pymatgen
data_K2TeH6SeO10
_symmetry_space_group_name_H-M   'P 1'
_cell_length_a   6.72287847
_cell_length_b   6.72287847
_cell_length_c   14.10299634
_cell_angle_alpha   75.33571704
_cell_angle_beta   104.66428296
_cell_angle_gamma   121.86741801
_symmetry_Int_Tables_number   1
_chemical_formula_structural   K2TeH6SeO10
_chemical_formula_sum   'K4 Te2 H12 Se2 O20'
_cell_volume   518.13555016
_cell_formula_units_Z   2
loop_
 _symmetry_equiv_pos_site_id
 _symmetry_equiv_pos_as_xyz
  1  'x, y, z'
loop_
 _atom_site_type_symbol
 _atom_site_label
 _atom_site_symmetry_multiplicity
 _atom_site_fract_x
 _atom_site_fract_y
 _atom_site_fract_z
 _atom_site_occupancy
  K  K0  1  0.435241  0.135164  0.644432  1
  K  K1  1  0.135164  0.435241  0.855568  1
  K  K2  1  0.564759  0.864836  0.355568  1
  K  K3  1  0.864836  0.564759  0.144432  1
  Te  Te4  1  0.500000  1.000000  0.000000  1
  Te  Te5  1  0.000000  0.500000  0.500000  1
  H  H6  1  0.074739  0.880807  0.932971  1
  H  H7  1  0.880807  0.074739  0.567029  1
  H  H8  1  0.925261  0.119193  0.067029  1
  H  H9  1  0.119193  0.925261  0.432971  1
  H  H10  1  0.624894  0.942587  0.863596  1
  H  H11  1  0.942587  0.624894  0.636404  1
  H  H12  1  0.375106  0.057413  0.136404  1
  H  H13  1  0.057413  0.375106  0.363596  1
  H  H14  1  0.595094  0.379511  0.890992  1
  H  H15  1  0.379511  0.595094  0.609008  1
  H  H16  1  0.404906  0.620489  0.109008  1
  H  H17  1  0.620489  0.404906  0.390992  1
  Se  Se18  1  0.779170  0.779170  0.750000  1
  Se  Se19  1  0.220830  0.220830  0.250000  1
  O  O20  1  0.515916  0.711198  0.057646  1
  O  O21  1  0.711198  0.515916  0.442354  1
  O  O22  1  0.484084  0.288802  0.942354  1
  O  O23  1  0.288802  0.484084  0.557646  1
  O  O24  1  0.523863  0.063054  0.132797  1
  O  O25  1  0.063054  0.523863  0.367203  1
  O  O26  1  0.476137  0.936946  0.867203  1
  O  O27  1  0.936946  0.476137  0.632797  1
  O  O28  1  0.155328  0.815312  0.991442  1
  O  O29  1  0.815312  0.155328  0.508558  1
  O  O30  1  0.844672  0.184688  0.008558  1
  O  O31  1  0.184688  0.844672  0.491442  1
  O  O32  1  0.752104  0.513741  0.798961  1
  O  O33  1  0.513741  0.752104  0.701039  1
  O  O34  1  0.247896  0.486259  0.201039  1
  O  O35  1  0.486259  0.247896  0.298961  1
  O  O36  1  0.954414  0.892489  0.661637  1
  O  O37  1  0.892489  0.954414  0.838363  1
  O  O38  1  0.045586  0.107511  0.338363  1
  O  O39  1  0.107511  0.045586  0.161637  1
