# generated using pymatgen
data_V3(O2F)2
_symmetry_space_group_name_H-M   'P 1'
_cell_length_a   4.73163195
_cell_length_b   5.62311893
_cell_length_c   7.71405238
_cell_angle_alpha   84.83667371
_cell_angle_beta   87.13339314
_cell_angle_gamma   86.21359994
_symmetry_Int_Tables_number   1
_chemical_formula_structural   V3(O2F)2
_chemical_formula_sum   'V6 O8 F4'
_cell_volume   203.76448848
_cell_formula_units_Z   2
loop_
 _symmetry_equiv_pos_site_id
 _symmetry_equiv_pos_as_xyz
  1  'x, y, z'
loop_
 _atom_site_type_symbol
 _atom_site_label
 _atom_site_symmetry_multiplicity
 _atom_site_fract_x
 _atom_site_fract_y
 _atom_site_fract_z
 _atom_site_occupancy
  V  V0  1  0.500000  0.500000  0.500000  1
  V  V1  1  0.452992  0.134479  0.818547  1
  V  V2  1  0.547008  0.865521  0.181453  1
  V  V3  1  0.000000  0.000000  0.500000  1
  V  V4  1  0.993648  0.330285  0.163180  1
  V  V5  1  0.006352  0.669715  0.836820  1
  O  O6  1  0.802324  0.038947  0.268044  1
  O  O7  1  0.690609  0.870161  0.936112  1
  O  O8  1  0.692691  0.197373  0.604825  1
  O  O9  1  0.701677  0.543103  0.265133  1
  O  O10  1  0.307309  0.802627  0.395175  1
  O  O11  1  0.309391  0.129839  0.063888  1
  O  O12  1  0.298323  0.456897  0.734867  1
  O  O13  1  0.197676  0.961053  0.731956  1
  F  F14  1  0.802529  0.369871  0.931928  1
  F  F15  1  0.804581  0.699428  0.603512  1
  F  F16  1  0.197471  0.630129  0.068072  1
  F  F17  1  0.195419  0.300572  0.396488  1
