# generated using pymatgen
data_Li2V(OF)2
_symmetry_space_group_name_H-M   'P 1'
_cell_length_a   5.95409216
_cell_length_b   5.95409216
_cell_length_c   5.95409216
_cell_angle_alpha   58.99984590
_cell_angle_beta   58.99984590
_cell_angle_gamma   58.99984590
_symmetry_Int_Tables_number   1
_chemical_formula_structural   Li2V(OF)2
_chemical_formula_sum   'Li4 V2 O4 F4'
_cell_volume   145.85082639
_cell_formula_units_Z   2
loop_
 _symmetry_equiv_pos_site_id
 _symmetry_equiv_pos_as_xyz
  1  'x, y, z'
loop_
 _atom_site_type_symbol
 _atom_site_label
 _atom_site_symmetry_multiplicity
 _atom_site_fract_x
 _atom_site_fract_y
 _atom_site_fract_z
 _atom_site_occupancy
  Li  Li0  1  0.862789  0.384536  0.384536  1
  Li  Li1  1  0.744187  0.744187  0.744187  1
  Li  Li2  1  0.384536  0.862789  0.384536  1
  Li  Li3  1  0.384536  0.384536  0.862789  1
  V  V4  1  0.370212  0.370212  0.370212  1
  V  V5  1  0.003750  0.003750  0.003750  1
  O  O6  1  0.132531  0.629796  0.132531  1
  O  O7  1  0.118360  0.118360  0.118360  1
  O  O8  1  0.132531  0.132531  0.629796  1
  O  O9  1  0.629796  0.132531  0.132531  1
  F  F10  1  0.610936  0.610936  0.148572  1
  F  F11  1  0.610936  0.148572  0.610936  1
  F  F12  1  0.148572  0.610936  0.610936  1
  F  F13  1  0.616323  0.616323  0.616323  1
