# generated using pymatgen
data_Li2Si2WO7
_symmetry_space_group_name_H-M   'P 1'
_cell_length_a   5.44063831
_cell_length_b   6.17162807
_cell_length_c   8.77498480
_cell_angle_alpha   70.46177669
_cell_angle_beta   87.00440219
_cell_angle_gamma   84.80137566
_symmetry_Int_Tables_number   1
_chemical_formula_structural   Li2Si2WO7
_chemical_formula_sum   'Li4 Si4 W2 O14'
_cell_volume   276.45905618
_cell_formula_units_Z   2
loop_
 _symmetry_equiv_pos_site_id
 _symmetry_equiv_pos_as_xyz
  1  'x, y, z'
loop_
 _atom_site_type_symbol
 _atom_site_label
 _atom_site_symmetry_multiplicity
 _atom_site_fract_x
 _atom_site_fract_y
 _atom_site_fract_z
 _atom_site_occupancy
  Li  Li0  1  0.291469  0.941629  0.145743  1
  Li  Li1  1  0.252525  0.809834  0.531442  1
  Li  Li2  1  0.747475  0.190166  0.468558  1
  Li  Li3  1  0.708531  0.058371  0.854257  1
  Si  Si4  1  0.691652  0.728626  0.340669  1
  Si  Si5  1  0.209870  0.799905  0.869455  1
  Si  Si6  1  0.790130  0.200095  0.130545  1
  Si  Si7  1  0.308348  0.271374  0.659331  1
  W  W8  1  0.765333  0.579755  0.720342  1
  W  W9  1  0.234667  0.420245  0.279658  1
  O  O10  1  0.601012  0.324038  0.646673  1
  O  O11  1  0.109405  0.484711  0.654077  1
  O  O12  1  0.781348  0.319237  0.935607  1
  O  O13  1  0.713753  0.931885  0.158384  1
  O  O14  1  0.741410  0.830266  0.488466  1
  O  O15  1  0.422107  0.697775  0.770250  1
  O  O16  1  0.933969  0.823725  0.797598  1
  O  O17  1  0.066031  0.176275  0.202402  1
  O  O18  1  0.577893  0.302225  0.229750  1
  O  O19  1  0.258590  0.169734  0.511534  1
  O  O20  1  0.286247  0.068115  0.841616  1
  O  O21  1  0.218652  0.680763  0.064393  1
  O  O22  1  0.890595  0.515289  0.345923  1
  O  O23  1  0.398988  0.675962  0.353327  1
