# generated using pymatgen
data_Li5Fe8(BO3)8
_symmetry_space_group_name_H-M   'P 1'
_cell_length_a   5.25726086
_cell_length_b   8.98026812
_cell_length_c   10.34804203
_cell_angle_alpha   89.63170278
_cell_angle_beta   88.50897552
_cell_angle_gamma   89.81904710
_symmetry_Int_Tables_number   1
_chemical_formula_structural   Li5Fe8(BO3)8
_chemical_formula_sum   'Li5 Fe8 B8 O24'
_cell_volume   488.37005557
_cell_formula_units_Z   1
loop_
 _symmetry_equiv_pos_site_id
 _symmetry_equiv_pos_as_xyz
  1  'x, y, z'
loop_
 _atom_site_type_symbol
 _atom_site_label
 _atom_site_symmetry_multiplicity
 _atom_site_fract_x
 _atom_site_fract_y
 _atom_site_fract_z
 _atom_site_occupancy
  Li  Li0  1  0.662940  0.986527  0.832944  1
  Li  Li1  1  0.347748  0.985423  0.089748  1
  Li  Li2  1  0.160065  0.490801  0.844808  1
  Li  Li3  1  0.657960  0.011013  0.335016  1
  Li  Li4  1  0.345329  0.007576  0.583175  1
  Fe  Fe5  1  0.843839  0.827882  0.115575  1
  Fe  Fe6  1  0.150492  0.819243  0.368873  1
  Fe  Fe7  1  0.665835  0.656047  0.870546  1
  Fe  Fe8  1  0.343690  0.666939  0.625555  1
  Fe  Fe9  1  0.666813  0.344763  0.360682  1
  Fe  Fe10  1  0.841368  0.180041  0.617372  1
  Fe  Fe11  1  0.334136  0.340087  0.119016  1
  Fe  Fe12  1  0.151590  0.159429  0.871205  1
  B  B13  1  0.832153  0.834457  0.627540  1
  B  B14  1  0.661668  0.673128  0.379033  1
  B  B15  1  0.166716  0.833003  0.870006  1
  B  B16  1  0.343641  0.670004  0.120355  1
  B  B17  1  0.663883  0.327147  0.876681  1
  B  B18  1  0.345195  0.328694  0.621392  1
  B  B19  1  0.829423  0.168980  0.127152  1
  B  B20  1  0.176687  0.166373  0.365299  1
  O  O21  1  0.703837  0.968525  0.633676  1
  O  O22  1  0.909913  0.838546  0.900853  1
  O  O23  1  0.316197  0.957388  0.889685  1
  O  O24  1  0.775258  0.805195  0.337632  1
  O  O25  1  0.702362  0.704702  0.659425  1
  O  O26  1  0.219988  0.799096  0.164826  1
  O  O27  1  0.091341  0.829993  0.593207  1
  O  O28  1  0.583800  0.681391  0.068148  1
  O  O29  1  0.780209  0.539441  0.359954  1
  O  O30  1  0.419733  0.681391  0.437266  1
  O  O31  1  0.278644  0.701564  0.823822  1
  O  O32  1  0.805152  0.452753  0.869705  1
  O  O33  1  0.220716  0.535129  0.126262  1
  O  O34  1  0.702141  0.301335  0.158991  1
  O  O35  1  0.573507  0.315450  0.550911  1
  O  O36  1  0.249961  0.463317  0.655975  1
  O  O37  1  0.406971  0.329444  0.922451  1
  O  O38  1  0.913451  0.178263  0.390557  1
  O  O39  1  0.769658  0.191902  0.836568  1
  O  O40  1  0.308820  0.291565  0.317732  1
  O  O41  1  0.221024  0.197290  0.661008  1
  O  O42  1  0.700585  0.036971  0.135517  1
  O  O43  1  0.087190  0.172867  0.089242  1
  O  O44  1  0.300803  0.035771  0.388657  1
