# generated using pymatgen
data_Li5MnCr3O8
_symmetry_space_group_name_H-M   'P 1'
_cell_length_a   8.68204639
_cell_length_b   8.68204639
_cell_length_c   8.39527985
_cell_angle_alpha   90.00000000
_cell_angle_beta   90.00000000
_cell_angle_gamma   90.00000000
_symmetry_Int_Tables_number   1
_chemical_formula_structural   Li5MnCr3O8
_chemical_formula_sum   'Li20 Mn4 Cr12 O32'
_cell_volume   632.81881292
_cell_formula_units_Z   4
loop_
 _symmetry_equiv_pos_site_id
 _symmetry_equiv_pos_as_xyz
  1  'x, y, z'
loop_
 _atom_site_type_symbol
 _atom_site_label
 _atom_site_symmetry_multiplicity
 _atom_site_fract_x
 _atom_site_fract_y
 _atom_site_fract_z
 _atom_site_occupancy
  Li  Li0  1  0.801934  0.950949  0.943185  1
  Li  Li1  1  0.852808  0.147192  0.750000  1
  Li  Li2  1  0.866756  0.389397  0.516961  1
  Li  Li3  1  0.889397  0.633244  0.266961  1
  Li  Li4  1  0.049051  0.198066  0.556815  1
  Li  Li5  1  0.950949  0.801934  0.056815  1
  Li  Li6  1  0.110603  0.366756  0.766961  1
  Li  Li7  1  0.133244  0.610603  0.016961  1
  Li  Li8  1  0.147192  0.852808  0.250000  1
  Li  Li9  1  0.198066  0.049051  0.443185  1
  Li  Li10  1  0.301934  0.549051  0.806815  1
  Li  Li11  1  0.389397  0.866756  0.483039  1
  Li  Li12  1  0.366756  0.110603  0.233039  1
  Li  Li13  1  0.352808  0.352808  0.000000  1
  Li  Li14  1  0.549051  0.301934  0.193185  1
  Li  Li15  1  0.450949  0.698066  0.693185  1
  Li  Li16  1  0.647192  0.647192  0.500000  1
  Li  Li17  1  0.633244  0.889397  0.733039  1
  Li  Li18  1  0.610603  0.133244  0.983039  1
  Li  Li19  1  0.698066  0.450949  0.306815  1
  Mn  Mn20  1  0.880625  0.880625  0.500000  1
  Mn  Mn21  1  0.119375  0.119375  0.000000  1
  Mn  Mn22  1  0.380625  0.619375  0.250000  1
  Mn  Mn23  1  0.619375  0.380625  0.750000  1
  Cr  Cr24  1  0.870930  0.129070  0.250000  1
  Cr  Cr25  1  0.878808  0.626123  0.752714  1
  Cr  Cr26  1  0.121192  0.373877  0.252714  1
  Cr  Cr27  1  0.129070  0.870930  0.750000  1
  Cr  Cr28  1  0.378808  0.873877  0.997286  1
  Cr  Cr29  1  0.370930  0.370930  0.500000  1
  Cr  Cr30  1  0.629070  0.629070  0.000000  1
  Cr  Cr31  1  0.621192  0.126123  0.497286  1
  Cr  Cr32  1  0.873877  0.378808  0.002714  1
  Cr  Cr33  1  0.126123  0.621192  0.502714  1
  Cr  Cr34  1  0.373877  0.121192  0.747286  1
  Cr  Cr35  1  0.626123  0.878808  0.247286  1
  O  O36  1  0.877606  0.386055  0.759713  1
  O  O37  1  0.862507  0.893186  0.240325  1
  O  O38  1  0.866383  0.612737  0.995272  1
  O  O39  1  0.854085  0.133245  0.493985  1
  O  O40  1  0.887263  0.366383  0.245272  1
  O  O41  1  0.893186  0.862507  0.759675  1
  O  O42  1  0.886055  0.622394  0.509713  1
  O  O43  1  0.866755  0.145915  0.006015  1
  O  O44  1  0.133245  0.854085  0.506015  1
  O  O45  1  0.113945  0.377606  0.009713  1
  O  O46  1  0.106814  0.137493  0.259675  1
  O  O47  1  0.112737  0.633617  0.745272  1
  O  O48  1  0.145915  0.866755  0.993985  1
  O  O49  1  0.133617  0.387263  0.495272  1
  O  O50  1  0.137493  0.106814  0.740325  1
  O  O51  1  0.122394  0.613945  0.259713  1
  O  O52  1  0.377606  0.113945  0.990287  1
  O  O53  1  0.362507  0.606814  0.509675  1
  O  O54  1  0.354085  0.366755  0.256015  1
  O  O55  1  0.366383  0.887263  0.754728  1
  O  O56  1  0.393186  0.637493  0.990325  1
  O  O57  1  0.387263  0.133617  0.504728  1
  O  O58  1  0.386055  0.877606  0.240287  1
  O  O59  1  0.366755  0.354085  0.743985  1
  O  O60  1  0.633245  0.645915  0.243985  1
  O  O61  1  0.613945  0.122394  0.740287  1
  O  O62  1  0.612737  0.866383  0.004728  1
  O  O63  1  0.606814  0.362507  0.490325  1
  O  O64  1  0.633617  0.112737  0.254728  1
  O  O65  1  0.645915  0.633245  0.756015  1
  O  O66  1  0.637493  0.393186  0.009675  1
  O  O67  1  0.622394  0.886055  0.490287  1
