# generated using pymatgen
data_Ti3CrNi2(PO4)6
_symmetry_space_group_name_H-M   'P 1'
_cell_length_a   8.50409618
_cell_length_b   8.50409618
_cell_length_c   8.50409618
_cell_angle_alpha   60.83299673
_cell_angle_beta   60.83299673
_cell_angle_gamma   60.83299673
_symmetry_Int_Tables_number   1
_chemical_formula_structural   Ti3CrNi2(PO4)6
_chemical_formula_sum   'Ti3 Cr1 Ni2 P6 O24'
_cell_volume   443.04895034
_cell_formula_units_Z   1
loop_
 _symmetry_equiv_pos_site_id
 _symmetry_equiv_pos_as_xyz
  1  'x, y, z'
loop_
 _atom_site_type_symbol
 _atom_site_label
 _atom_site_symmetry_multiplicity
 _atom_site_fract_x
 _atom_site_fract_y
 _atom_site_fract_z
 _atom_site_occupancy
  Ti  Ti0  1  0.856878  0.856878  0.856878  1
  Ti  Ti1  1  0.644458  0.644458  0.644458  1
  Ti  Ti2  1  0.355923  0.355923  0.355923  1
  Cr  Cr3  1  0.140995  0.140995  0.140995  1
  Ni  Ni4  1  0.999912  0.999912  0.999912  1
  Ni  Ni5  1  0.501121  0.501121  0.501121  1
  P  P6  1  0.751042  0.454704  0.045720  1
  P  P7  1  0.454704  0.045720  0.751042  1
  P  P8  1  0.045720  0.751042  0.454704  1
  P  P9  1  0.955672  0.249314  0.541586  1
  P  P10  1  0.541586  0.955672  0.249314  1
  P  P11  1  0.249314  0.541586  0.955672  1
  O  O12  1  0.886103  0.682726  0.500383  1
  O  O13  1  0.682726  0.500383  0.886103  1
  O  O14  1  0.944652  0.089264  0.740744  1
  O  O15  1  0.500383  0.886103  0.682726  1
  O  O16  1  0.992687  0.186295  0.385324  1
  O  O17  1  0.758226  0.411903  0.560320  1
  O  O18  1  0.740744  0.944652  0.089264  1
  O  O19  1  0.560320  0.758226  0.411903  1
  O  O20  1  0.816613  0.615399  0.001821  1
  O  O21  1  0.411903  0.560320  0.758226  1
  O  O22  1  0.910403  0.257812  0.056332  1
  O  O23  1  0.615399  0.001821  0.816613  1
  O  O24  1  0.385324  0.992687  0.186295  1
  O  O25  1  0.089264  0.740744  0.944652  1
  O  O26  1  0.588110  0.443648  0.242158  1
  O  O27  1  0.186295  0.385324  0.992687  1
  O  O28  1  0.443648  0.242158  0.588110  1
  O  O29  1  0.257812  0.056332  0.910403  1
  O  O30  1  0.242158  0.588110  0.443648  1
  O  O31  1  0.001821  0.816613  0.615399  1
  O  O32  1  0.498234  0.117120  0.316399  1
  O  O33  1  0.056332  0.910403  0.257812  1
  O  O34  1  0.316399  0.498234  0.117120  1
  O  O35  1  0.117120  0.316399  0.498234  1
