# generated using pymatgen
data_Sm2WO6
_symmetry_space_group_name_H-M   'P 1'
_cell_length_a   7.84558845
_cell_length_b   5.50656659
_cell_length_c   11.68730140
_cell_angle_alpha   90.00000000
_cell_angle_beta   104.09378834
_cell_angle_gamma   90.00000000
_symmetry_Int_Tables_number   1
_chemical_formula_structural   Sm2WO6
_chemical_formula_sum   'Sm8 W4 O24'
_cell_volume   489.71895544
_cell_formula_units_Z   4
loop_
 _symmetry_equiv_pos_site_id
 _symmetry_equiv_pos_as_xyz
  1  'x, y, z'
loop_
 _atom_site_type_symbol
 _atom_site_label
 _atom_site_symmetry_multiplicity
 _atom_site_fract_x
 _atom_site_fract_y
 _atom_site_fract_z
 _atom_site_occupancy
  Sm  Sm0  1  0.000000  0.737334  0.750000  1
  Sm  Sm1  1  0.000000  0.262666  0.250000  1
  Sm  Sm2  1  0.203399  0.190191  0.576865  1
  Sm  Sm3  1  0.203399  0.809809  0.076865  1
  Sm  Sm4  1  0.500000  0.683203  0.750000  1
  Sm  Sm5  1  0.500000  0.316797  0.250000  1
  Sm  Sm6  1  0.796601  0.190191  0.923135  1
  Sm  Sm7  1  0.796601  0.809809  0.423135  1
  W  W8  1  0.278189  0.253425  0.886085  1
  W  W9  1  0.278189  0.746575  0.386085  1
  W  W10  1  0.721811  0.253425  0.613915  1
  W  W11  1  0.721811  0.746575  0.113915  1
  O  O12  1  0.064546  0.040959  0.896065  1
  O  O13  1  0.149017  0.518314  0.930496  1
  O  O14  1  0.064546  0.959041  0.396065  1
  O  O15  1  0.216287  0.461285  0.731064  1
  O  O16  1  0.149017  0.481686  0.430496  1
  O  O17  1  0.291208  0.989902  0.773115  1
  O  O18  1  0.216287  0.538715  0.231064  1
  O  O19  1  0.363999  0.849529  0.545072  1
  O  O20  1  0.506269  0.361918  0.888089  1
  O  O21  1  0.291208  0.010098  0.273115  1
  O  O22  1  0.493731  0.361918  0.611911  1
  O  O23  1  0.636001  0.849529  0.954928  1
  O  O24  1  0.363999  0.150471  0.045072  1
  O  O25  1  0.506269  0.638082  0.388089  1
  O  O26  1  0.708792  0.989902  0.726885  1
  O  O27  1  0.493731  0.638082  0.111911  1
  O  O28  1  0.636001  0.150471  0.454928  1
  O  O29  1  0.783713  0.461285  0.768936  1
  O  O30  1  0.708792  0.010098  0.226885  1
  O  O31  1  0.850983  0.518314  0.569504  1
  O  O32  1  0.783713  0.538715  0.268936  1
  O  O33  1  0.935454  0.040959  0.603935  1
  O  O34  1  0.850983  0.481686  0.069504  1
  O  O35  1  0.935454  0.959041  0.103935  1
