# generated using pymatgen
data_CrP2
_symmetry_space_group_name_H-M   'P 1'
_cell_length_a   4.35842086
_cell_length_b   4.35842086
_cell_length_c   7.09738534
_cell_angle_alpha   62.51746673
_cell_angle_beta   117.48253327
_cell_angle_gamma   139.63228584
_symmetry_Int_Tables_number   1
_chemical_formula_structural   CrP2
_chemical_formula_sum   'Cr2 P4'
_cell_volume   76.03843267
_cell_formula_units_Z   2
loop_
 _symmetry_equiv_pos_site_id
 _symmetry_equiv_pos_as_xyz
  1  'x, y, z'
loop_
 _atom_site_type_symbol
 _atom_site_label
 _atom_site_symmetry_multiplicity
 _atom_site_fract_x
 _atom_site_fract_y
 _atom_site_fract_z
 _atom_site_occupancy
  Cr  Cr0  1  0.157253  0.842747  0.704680  1
  Cr  Cr1  1  0.842747  0.157253  0.295320  1
  P  P2  1  0.855625  0.144375  0.971365  1
  P  P3  1  0.144375  0.855625  0.028635  1
  P  P4  1  0.601434  0.398566  0.400863  1
  P  P5  1  0.398566  0.601434  0.599137  1
