# generated using pymatgen
data_FeOF
_symmetry_space_group_name_H-M   'P 1'
_cell_length_a   14.16493386
_cell_length_b   3.11859499
_cell_length_c   14.24144418
_cell_angle_alpha   90.00000000
_cell_angle_beta   90.06447554
_cell_angle_gamma   90.00000000
_symmetry_Int_Tables_number   1
_chemical_formula_structural   FeOF
_chemical_formula_sum   'Fe18 O18 F18'
_cell_volume   629.11100881
_cell_formula_units_Z   18
loop_
 _symmetry_equiv_pos_site_id
 _symmetry_equiv_pos_as_xyz
  1  'x, y, z'
loop_
 _atom_site_type_symbol
 _atom_site_label
 _atom_site_symmetry_multiplicity
 _atom_site_fract_x
 _atom_site_fract_y
 _atom_site_fract_z
 _atom_site_occupancy
  Fe  Fe0  1  0.987022  0.000000  0.996388  1
  Fe  Fe1  1  0.987808  0.000000  0.332324  1
  Fe  Fe2  1  0.993493  0.000000  0.658682  1
  Fe  Fe3  1  0.848257  0.500000  0.165432  1
  Fe  Fe4  1  0.847628  0.500000  0.498653  1
  Fe  Fe5  1  0.851622  0.500000  0.825215  1
  Fe  Fe6  1  0.660226  0.000000  0.991514  1
  Fe  Fe7  1  0.654301  0.000000  0.330721  1
  Fe  Fe8  1  0.654924  0.000000  0.663875  1
  Fe  Fe9  1  0.512893  0.500000  0.497863  1
  Fe  Fe10  1  0.495007  0.500000  0.182597  1
  Fe  Fe11  1  0.511838  0.500000  0.829770  1
  Fe  Fe12  1  0.319862  0.000000  0.997380  1
  Fe  Fe13  1  0.326971  0.000000  0.324549  1
  Fe  Fe14  1  0.319234  0.000000  0.663081  1
  Fe  Fe15  1  0.179195  0.500000  0.165040  1
  Fe  Fe16  1  0.160971  0.500000  0.515463  1
  Fe  Fe17  1  0.179418  0.500000  0.830185  1
  O  O18  1  0.935766  0.500000  0.269578  1
  O  O19  1  0.933107  0.500000  0.602996  1
  O  O20  1  0.936035  0.500000  0.933774  1
  O  O21  1  0.897070  0.000000  0.100834  1
  O  O22  1  0.899258  0.000000  0.435736  1
  O  O23  1  0.900989  0.000000  0.765430  1
  O  O24  1  0.604891  0.500000  0.265163  1
  O  O25  1  0.602062  0.500000  0.602239  1
  O  O26  1  0.601629  0.500000  0.937317  1
  O  O27  1  0.564211  0.000000  0.434146  1
  O  O28  1  0.566344  0.000000  0.769973  1
  O  O29  1  0.432742  0.000000  0.234472  1
  O  O30  1  0.263809  0.500000  0.273631  1
  O  O31  1  0.270672  0.500000  0.599386  1
  O  O32  1  0.268624  0.500000  0.935548  1
  O  O33  1  0.232928  0.000000  0.103457  1
  O  O34  1  0.232446  0.000000  0.768619  1
  O  O35  1  0.099946  0.000000  0.567584  1
  F  F36  1  0.768577  0.000000  0.232279  1
  F  F37  1  0.767497  0.000000  0.566899  1
  F  F38  1  0.768436  0.000000  0.898166  1
  F  F39  1  0.729775  0.500000  0.065548  1
  F  F40  1  0.732747  0.500000  0.732531  1
  F  F41  1  0.732397  0.500000  0.399226  1
  F  F42  1  0.565660  0.000000  0.101685  1
  F  F43  1  0.435849  0.000000  0.567029  1
  F  F44  1  0.435143  0.000000  0.899038  1
  F  F45  1  0.403147  0.500000  0.063236  1
  F  F46  1  0.394778  0.500000  0.404238  1
  F  F47  1  0.399617  0.500000  0.733039  1
  F  F48  1  0.230104  0.000000  0.436723  1
  F  F49  1  0.100419  0.000000  0.231609  1
  F  F50  1  0.101980  0.000000  0.900596  1
  F  F51  1  0.065460  0.500000  0.066181  1
  F  F52  1  0.068653  0.500000  0.396337  1
  F  F53  1  0.066561  0.500000  0.737022  1
