# generated using pymatgen
data_Fe5(OF2)4
_symmetry_space_group_name_H-M   'P 1'
_cell_length_a   4.67640569
_cell_length_b   4.67640569
_cell_length_c   8.93748857
_cell_angle_alpha   90.00000000
_cell_angle_beta   90.00000000
_cell_angle_gamma   93.68721721
_symmetry_Int_Tables_number   1
_chemical_formula_structural   Fe5(OF2)4
_chemical_formula_sum   'Fe5 O4 F8'
_cell_volume   195.04729630
_cell_formula_units_Z   1
loop_
 _symmetry_equiv_pos_site_id
 _symmetry_equiv_pos_as_xyz
  1  'x, y, z'
loop_
 _atom_site_type_symbol
 _atom_site_label
 _atom_site_symmetry_multiplicity
 _atom_site_fract_x
 _atom_site_fract_y
 _atom_site_fract_z
 _atom_site_occupancy
  Fe  Fe0  1  0.000000  0.000000  0.319280  1
  Fe  Fe1  1  0.000000  0.000000  0.680720  1
  Fe  Fe2  1  0.500000  0.500000  0.500000  1
  Fe  Fe3  1  0.500000  0.500000  0.827025  1
  Fe  Fe4  1  0.500000  0.500000  0.172975  1
  O  O5  1  0.303124  0.303124  0.654391  1
  O  O6  1  0.303124  0.303124  0.345609  1
  O  O7  1  0.696876  0.696876  0.654391  1
  O  O8  1  0.696876  0.696876  0.345609  1
  F  F9  1  0.792029  0.207971  0.500000  1
  F  F10  1  0.791265  0.208735  0.174727  1
  F  F11  1  0.791265  0.208735  0.825273  1
  F  F12  1  0.306200  0.306200  1.000000  1
  F  F13  1  0.693800  0.693800  0.000000  1
  F  F14  1  0.208735  0.791265  0.825273  1
  F  F15  1  0.208735  0.791265  0.174727  1
  F  F16  1  0.207971  0.792029  0.500000  1
