# generated using pymatgen
data_MnF3
_symmetry_space_group_name_H-M   'P 1'
_cell_length_a   8.57670125
_cell_length_b   8.57670125
_cell_length_c   4.69511888
_cell_angle_alpha   90.00000000
_cell_angle_beta   90.00000000
_cell_angle_gamma   120.00000000
_symmetry_Int_Tables_number   1
_chemical_formula_structural   MnF3
_chemical_formula_sum   'Mn6 F18'
_cell_volume   299.10094851
_cell_formula_units_Z   6
loop_
 _symmetry_equiv_pos_site_id
 _symmetry_equiv_pos_as_xyz
  1  'x, y, z'
loop_
 _atom_site_type_symbol
 _atom_site_label
 _atom_site_symmetry_multiplicity
 _atom_site_fract_x
 _atom_site_fract_y
 _atom_site_fract_z
 _atom_site_occupancy
  Mn  Mn0  1  0.669872  0.669872  0.000000  1
  Mn  Mn1  1  0.000000  0.663041  0.500000  1
  Mn  Mn2  1  0.336959  0.336959  0.500000  1
  Mn  Mn3  1  0.000000  0.330128  0.000000  1
  Mn  Mn4  1  0.330128  0.000000  0.000000  1
  Mn  Mn5  1  0.663041  0.000000  0.500000  1
  F  F6  1  0.114188  0.873852  0.263049  1
  F  F7  1  0.885812  0.759664  0.736951  1
  F  F8  1  0.226320  0.797781  0.771307  1
  F  F9  1  0.773680  0.571461  0.228693  1
  F  F10  1  0.458376  0.904092  0.259309  1
  F  F11  1  0.541624  0.445716  0.740691  1
  F  F12  1  0.095908  0.554284  0.259309  1
  F  F13  1  0.904092  0.458376  0.740691  1
  F  F14  1  0.759664  0.885812  0.263049  1
  F  F15  1  0.240336  0.126148  0.736951  1
  F  F16  1  0.571461  0.773680  0.771307  1
  F  F17  1  0.428539  0.202219  0.228693  1
  F  F18  1  0.202219  0.428539  0.771307  1
  F  F19  1  0.797781  0.226320  0.228693  1
  F  F20  1  0.554284  0.095908  0.740691  1
  F  F21  1  0.445716  0.541624  0.259309  1
  F  F22  1  0.126148  0.240336  0.263049  1
  F  F23  1  0.873852  0.114188  0.736951  1
