# generated using pymatgen
data_K4CuP6(H4O11)2
_symmetry_space_group_name_H-M   'P 1'
_cell_length_a   8.57523662
_cell_length_b   14.50087024
_cell_length_c   8.61823038
_cell_angle_alpha   90.00000000
_cell_angle_beta   96.65208011
_cell_angle_gamma   90.00000000
_symmetry_Int_Tables_number   1
_chemical_formula_structural   K4CuP6(H4O11)2
_chemical_formula_sum   'K8 Cu2 P12 H16 O44'
_cell_volume   1064.44853901
_cell_formula_units_Z   2
loop_
 _symmetry_equiv_pos_site_id
 _symmetry_equiv_pos_as_xyz
  1  'x, y, z'
loop_
 _atom_site_type_symbol
 _atom_site_label
 _atom_site_symmetry_multiplicity
 _atom_site_fract_x
 _atom_site_fract_y
 _atom_site_fract_z
 _atom_site_occupancy
  K  K0  1  0.553596  0.096765  0.324995  1
  K  K1  1  0.446404  0.596765  0.175005  1
  K  K2  1  0.446404  0.903235  0.675005  1
  K  K3  1  0.553596  0.403235  0.824995  1
  K  K4  1  0.167222  0.281734  0.497305  1
  K  K5  1  0.832778  0.781734  0.002695  1
  K  K6  1  0.832778  0.718266  0.502695  1
  K  K7  1  0.167222  0.218266  0.997305  1
  Cu  Cu8  1  0.000000  0.500000  0.000000  1
  Cu  Cu9  1  0.000000  0.000000  0.500000  1
  P  P10  1  0.498458  0.334790  0.242565  1
  P  P11  1  0.501542  0.834790  0.257435  1
  P  P12  1  0.501542  0.665210  0.757435  1
  P  P13  1  0.498458  0.165210  0.742565  1
  P  P14  1  0.828189  0.325847  0.190641  1
  P  P15  1  0.171811  0.825847  0.309359  1
  P  P16  1  0.171811  0.674153  0.809359  1
  P  P17  1  0.828189  0.174153  0.690641  1
  P  P18  1  0.733615  0.450055  0.433249  1
  P  P19  1  0.266385  0.950055  0.066751  1
  P  P20  1  0.266385  0.549945  0.566751  1
  P  P21  1  0.733615  0.049945  0.933249  1
  H  H22  1  0.150883  0.070554  0.284354  1
  H  H23  1  0.849117  0.570554  0.215646  1
  H  H24  1  0.849117  0.929446  0.715646  1
  H  H25  1  0.150883  0.429446  0.784354  1
  H  H26  1  0.000547  0.135562  0.300107  1
  H  H27  1  0.999453  0.635562  0.199893  1
  H  H28  1  0.999453  0.864438  0.699893  1
  H  H29  1  0.000547  0.364438  0.800107  1
  H  H30  1  0.240288  0.422708  0.136841  1
  H  H31  1  0.759712  0.922708  0.363159  1
  H  H32  1  0.759712  0.577292  0.863159  1
  H  H33  1  0.240288  0.077292  0.636841  1
  H  H34  1  0.165617  0.483092  0.267492  1
  H  H35  1  0.834383  0.983092  0.232508  1
  H  H36  1  0.834383  0.516908  0.732508  1
  H  H37  1  0.165617  0.016908  0.767492  1
  O  O38  1  0.388683  0.263658  0.293570  1
  O  O39  1  0.611317  0.763658  0.206430  1
  O  O40  1  0.611317  0.736342  0.706430  1
  O  O41  1  0.388683  0.236342  0.793570  1
  O  O42  1  0.437351  0.399334  0.112039  1
  O  O43  1  0.562649  0.899334  0.387961  1
  O  O44  1  0.562649  0.600666  0.887961  1
  O  O45  1  0.437351  0.100666  0.612039  1
  O  O46  1  0.655167  0.279742  0.204334  1
  O  O47  1  0.344833  0.779742  0.295666  1
  O  O48  1  0.344833  0.720258  0.795666  1
  O  O49  1  0.655167  0.220258  0.704334  1
  O  O50  1  0.809734  0.391354  0.054920  1
  O  O51  1  0.190266  0.891354  0.445080  1
  O  O52  1  0.190266  0.608646  0.945080  1
  O  O53  1  0.809734  0.108646  0.554920  1
  O  O54  1  0.947807  0.250583  0.203384  1
  O  O55  1  0.052193  0.750583  0.296616  1
  O  O56  1  0.052193  0.749417  0.796616  1
  O  O57  1  0.947807  0.249417  0.703384  1
  O  O58  1  0.770914  0.446213  0.607279  1
  O  O59  1  0.229086  0.946213  0.892721  1
  O  O60  1  0.229086  0.553787  0.392721  1
  O  O61  1  0.770914  0.053787  0.107279  1
  O  O62  1  0.728999  0.542712  0.353365  1
  O  O63  1  0.271001  0.042712  0.146635  1
  O  O64  1  0.271001  0.457288  0.646635  1
  O  O65  1  0.728999  0.957288  0.853365  1
  O  O66  1  0.855064  0.382354  0.357154  1
  O  O67  1  0.144936  0.882354  0.142846  1
  O  O68  1  0.144936  0.617646  0.642846  1
  O  O69  1  0.855064  0.117646  0.857154  1
  O  O70  1  0.567126  0.396221  0.394097  1
  O  O71  1  0.432874  0.896221  0.105903  1
  O  O72  1  0.432874  0.603779  0.605903  1
  O  O73  1  0.567126  0.103779  0.894097  1
  O  O74  1  0.082111  0.096836  0.360177  1
  O  O75  1  0.917889  0.596836  0.139823  1
  O  O76  1  0.917889  0.903164  0.639823  1
  O  O77  1  0.082111  0.403164  0.860177  1
  O  O78  1  0.138303  0.440461  0.174208  1
  O  O79  1  0.861697  0.940461  0.325792  1
  O  O80  1  0.861697  0.559539  0.825792  1
  O  O81  1  0.138303  0.059539  0.674208  1
