# generated using pymatgen
data_Na3Sb(PO4)2
_symmetry_space_group_name_H-M   'P 1'
_cell_length_a   14.12780683
_cell_length_b   5.39379949
_cell_length_c   20.12593782
_cell_angle_alpha   90.00000000
_cell_angle_beta   110.42922715
_cell_angle_gamma   90.00000000
_symmetry_Int_Tables_number   1
_chemical_formula_structural   Na3Sb(PO4)2
_chemical_formula_sum   'Na24 Sb8 P16 O64'
_cell_volume   1437.18769693
_cell_formula_units_Z   8
loop_
 _symmetry_equiv_pos_site_id
 _symmetry_equiv_pos_as_xyz
  1  'x, y, z'
loop_
 _atom_site_type_symbol
 _atom_site_label
 _atom_site_symmetry_multiplicity
 _atom_site_fract_x
 _atom_site_fract_y
 _atom_site_fract_z
 _atom_site_occupancy
  Na  Na0  1  0.688627  0.743497  0.035084  1
  Na  Na1  1  0.798802  0.249206  0.136130  1
  Na  Na2  1  0.946019  0.704737  0.199711  1
  Na  Na3  1  0.188627  0.756503  0.035084  1
  Na  Na4  1  0.298802  0.250794  0.136130  1
  Na  Na5  1  0.446019  0.795263  0.199711  1
  Na  Na6  1  0.749709  0.243190  0.302272  1
  Na  Na7  1  0.660735  0.754735  0.361714  1
  Na  Na8  1  0.249709  0.256810  0.302272  1
  Na  Na9  1  0.655115  0.245115  0.465411  1
  Na  Na10  1  0.160735  0.745265  0.361714  1
  Na  Na11  1  0.844885  0.745115  0.534589  1
  Na  Na12  1  0.155115  0.254885  0.465411  1
  Na  Na13  1  0.839265  0.254735  0.638286  1
  Na  Na14  1  0.344885  0.754885  0.534589  1
  Na  Na15  1  0.750291  0.743190  0.697728  1
  Na  Na16  1  0.339265  0.245265  0.638286  1
  Na  Na17  1  0.250291  0.756810  0.697728  1
  Na  Na18  1  0.553981  0.204737  0.800289  1
  Na  Na19  1  0.701198  0.749206  0.863870  1
  Na  Na20  1  0.811373  0.243497  0.964916  1
  Na  Na21  1  0.053981  0.295263  0.800289  1
  Na  Na22  1  0.201198  0.750794  0.863870  1
  Na  Na23  1  0.311373  0.256503  0.964916  1
  Sb  Sb24  1  0.536534  0.312052  0.125022  1
  Sb  Sb25  1  0.036534  0.187948  0.125022  1
  Sb  Sb26  1  0.912645  0.702996  0.376718  1
  Sb  Sb27  1  0.412645  0.797004  0.376718  1
  Sb  Sb28  1  0.587355  0.202996  0.623282  1
  Sb  Sb29  1  0.087355  0.297004  0.623282  1
  Sb  Sb30  1  0.963466  0.812052  0.874978  1
  Sb  Sb31  1  0.463466  0.687948  0.874978  1
  P  P32  1  0.921042  0.725891  0.041582  1
  P  P33  1  0.421042  0.774109  0.041582  1
  P  P34  1  0.712203  0.770458  0.208597  1
  P  P35  1  0.212203  0.729542  0.208597  1
  P  P36  1  0.503730  0.278827  0.291884  1
  P  P37  1  0.881180  0.231391  0.460275  1
  P  P38  1  0.003730  0.221173  0.291884  1
  P  P39  1  0.381180  0.268609  0.460275  1
  P  P40  1  0.618820  0.731391  0.539725  1
  P  P41  1  0.996270  0.778827  0.708116  1
  P  P42  1  0.118820  0.768609  0.539725  1
  P  P43  1  0.496270  0.721173  0.708116  1
  P  P44  1  0.787797  0.270458  0.791403  1
  P  P45  1  0.287797  0.229542  0.791403  1
  P  P46  1  0.578958  0.225891  0.958418  1
  P  P47  1  0.078958  0.274109  0.958418  1
  O  O48  1  0.916572  0.483683  0.084304  1
  O  O49  1  0.909136  0.953648  0.091050  1
  O  O50  1  0.674997  0.233092  0.024854  1
  O  O51  1  0.522178  0.741819  0.031932  1
  O  O52  1  0.984451  0.265776  0.209337  1
  O  O53  1  0.768597  0.657089  0.163533  1
  O  O54  1  0.416572  0.016317  0.084304  1
  O  O55  1  0.409136  0.546352  0.091050  1
  O  O56  1  0.174997  0.266908  0.024854  1
  O  O57  1  0.694320  0.051274  0.194231  1
  O  O58  1  0.022178  0.758181  0.031932  1
  O  O59  1  0.610801  0.632965  0.198883  1
  O  O60  1  0.993242  0.940154  0.302970  1
  O  O61  1  0.916389  0.368575  0.303955  1
  O  O62  1  0.484451  0.234224  0.209337  1
  O  O63  1  0.268597  0.842911  0.163533  1
  O  O64  1  0.773831  0.741492  0.291875  1
  O  O65  1  0.194320  0.448726  0.194231  1
  O  O66  1  0.110801  0.867035  0.198883  1
  O  O67  1  0.493242  0.559846  0.302970  1
  O  O68  1  0.607982  0.179012  0.337151  1
  O  O69  1  0.416389  0.131425  0.303955  1
  O  O70  1  0.831594  0.995625  0.414399  1
  O  O71  1  0.822077  0.464958  0.413782  1
  O  O72  1  0.273831  0.758508  0.291875  1
  O  O73  1  0.992539  0.254939  0.470636  1
  O  O74  1  0.648369  0.730035  0.473111  1
  O  O75  1  0.107982  0.320988  0.337151  1
  O  O76  1  0.851631  0.230035  0.526889  1
  O  O77  1  0.331594  0.504375  0.414399  1
  O  O78  1  0.322077  0.035042  0.413782  1
  O  O79  1  0.492539  0.245061  0.470636  1
  O  O80  1  0.507461  0.754939  0.529364  1
  O  O81  1  0.677923  0.964958  0.586218  1
  O  O82  1  0.668406  0.495625  0.585601  1
  O  O83  1  0.148369  0.769965  0.473111  1
  O  O84  1  0.892018  0.679012  0.662849  1
  O  O85  1  0.351631  0.269965  0.526889  1
  O  O86  1  0.007461  0.745061  0.529364  1
  O  O87  1  0.726169  0.241492  0.708125  1
  O  O88  1  0.177923  0.535042  0.586218  1
  O  O89  1  0.168406  0.004375  0.585601  1
  O  O90  1  0.583611  0.868575  0.696045  1
  O  O91  1  0.392018  0.820988  0.662849  1
  O  O92  1  0.506758  0.440154  0.697030  1
  O  O93  1  0.889199  0.132965  0.801117  1
  O  O94  1  0.805680  0.551274  0.805769  1
  O  O95  1  0.226169  0.258508  0.708125  1
  O  O96  1  0.731403  0.157089  0.836467  1
  O  O97  1  0.515549  0.765776  0.790663  1
  O  O98  1  0.083611  0.631425  0.696045  1
  O  O99  1  0.006758  0.059846  0.697030  1
  O  O100  1  0.389199  0.367035  0.801117  1
  O  O101  1  0.977822  0.241819  0.968068  1
  O  O102  1  0.305680  0.948726  0.805769  1
  O  O103  1  0.825003  0.733092  0.975146  1
  O  O104  1  0.590864  0.453648  0.908950  1
  O  O105  1  0.583428  0.983683  0.915696  1
  O  O106  1  0.231403  0.342911  0.836467  1
  O  O107  1  0.015549  0.734224  0.790663  1
  O  O108  1  0.477822  0.258181  0.968068  1
  O  O109  1  0.325003  0.766908  0.975146  1
  O  O110  1  0.090864  0.046352  0.908950  1
  O  O111  1  0.083428  0.516317  0.915696  1
