# generated using pymatgen
data_LiMnF3
_symmetry_space_group_name_H-M   'P 1'
_cell_length_a   5.20246558
_cell_length_b   5.20246558
_cell_length_c   4.86105440
_cell_angle_alpha   90.00000000
_cell_angle_beta   90.00000000
_cell_angle_gamma   120.00000000
_symmetry_Int_Tables_number   1
_chemical_formula_structural   LiMnF3
_chemical_formula_sum   'Li2 Mn2 F6'
_cell_volume   113.94087351
_cell_formula_units_Z   2
loop_
 _symmetry_equiv_pos_site_id
 _symmetry_equiv_pos_as_xyz
  1  'x, y, z'
loop_
 _atom_site_type_symbol
 _atom_site_label
 _atom_site_symmetry_multiplicity
 _atom_site_fract_x
 _atom_site_fract_y
 _atom_site_fract_z
 _atom_site_occupancy
  Li  Li0  1  0.000000  0.000000  0.250000  1
  Li  Li1  1  0.000000  0.000000  0.750000  1
  Mn  Mn2  1  0.333333  0.666667  0.750000  1
  Mn  Mn3  1  0.666667  0.333333  0.250000  1
  F  F4  1  0.311097  0.000000  0.500000  1
  F  F5  1  0.000000  0.311097  0.500000  1
  F  F6  1  0.311097  0.311097  0.000000  1
  F  F7  1  0.688903  0.688903  0.500000  1
  F  F8  1  0.000000  0.688903  0.000000  1
  F  F9  1  0.688903  0.000000  0.000000  1
