# generated using pymatgen
data_TiMn3(PO4)6
_symmetry_space_group_name_H-M   'P 1'
_cell_length_a   8.75742354
_cell_length_b   8.75742354
_cell_length_c   8.75742354
_cell_angle_alpha   58.25334087
_cell_angle_beta   58.25334087
_cell_angle_gamma   58.25334087
_symmetry_Int_Tables_number   1
_chemical_formula_structural   TiMn3(PO4)6
_chemical_formula_sum   'Ti1 Mn3 P6 O24'
_cell_volume   455.91120077
_cell_formula_units_Z   1
loop_
 _symmetry_equiv_pos_site_id
 _symmetry_equiv_pos_as_xyz
  1  'x, y, z'
loop_
 _atom_site_type_symbol
 _atom_site_label
 _atom_site_symmetry_multiplicity
 _atom_site_fract_x
 _atom_site_fract_y
 _atom_site_fract_z
 _atom_site_occupancy
  Ti  Ti0  1  0.139921  0.139921  0.139921  1
  Mn  Mn1  1  0.855084  0.855084  0.855084  1
  Mn  Mn2  1  0.644200  0.644200  0.644200  1
  Mn  Mn3  1  0.355038  0.355038  0.355038  1
  P  P4  1  0.249987  0.536745  0.964582  1
  P  P5  1  0.964582  0.249987  0.536745  1
  P  P6  1  0.536745  0.964582  0.249987  1
  P  P7  1  0.470352  0.033378  0.743180  1
  P  P8  1  0.033378  0.743180  0.470352  1
  P  P9  1  0.743180  0.470352  0.033378  1
  O  O10  1  0.722350  0.490585  0.858901  1
  O  O11  1  0.490585  0.858901  0.722350  1
  O  O12  1  0.075041  0.723016  0.938252  1
  O  O13  1  0.858901  0.722350  0.490585  1
  O  O14  1  0.425180  0.562892  0.779181  1
  O  O15  1  0.221748  0.363578  0.993774  1
  O  O16  1  0.938252  0.075041  0.723016  1
  O  O17  1  0.779181  0.425180  0.562892  1
  O  O18  1  0.562892  0.779181  0.425180  1
  O  O19  1  0.643009  0.011546  0.769646  1
  O  O20  1  0.288692  0.060773  0.919800  1
  O  O21  1  0.011546  0.769646  0.643009  1
  O  O22  1  0.993774  0.221748  0.363578  1
  O  O23  1  0.723016  0.938252  0.075041  1
  O  O24  1  0.363578  0.993774  0.221748  1
  O  O25  1  0.446052  0.217527  0.568357  1
  O  O26  1  0.217527  0.568357  0.446052  1
  O  O27  1  0.060773  0.919800  0.288692  1
  O  O28  1  0.769646  0.643009  0.011546  1
  O  O29  1  0.568357  0.446052  0.217527  1
  O  O30  1  0.138501  0.274547  0.514585  1
  O  O31  1  0.919800  0.288692  0.060773  1
  O  O32  1  0.514585  0.138501  0.274547  1
  O  O33  1  0.274547  0.514585  0.138501  1
