# generated using pymatgen
data_YB5O9
_symmetry_space_group_name_H-M   'P 1'
_cell_length_a   6.38490878
_cell_length_b   11.48887148
_cell_length_c   8.14422628
_cell_angle_alpha   90.00000000
_cell_angle_beta   105.65869555
_cell_angle_gamma   90.00000000
_symmetry_Int_Tables_number   1
_chemical_formula_structural   YB5O9
_chemical_formula_sum   'Y4 B20 O36'
_cell_volume   575.25053401
_cell_formula_units_Z   4
loop_
 _symmetry_equiv_pos_site_id
 _symmetry_equiv_pos_as_xyz
  1  'x, y, z'
loop_
 _atom_site_type_symbol
 _atom_site_label
 _atom_site_symmetry_multiplicity
 _atom_site_fract_x
 _atom_site_fract_y
 _atom_site_fract_z
 _atom_site_occupancy
  Y  Y0  1  0.252311  0.176193  0.863320  1
  Y  Y1  1  0.252311  0.323807  0.363320  1
  Y  Y2  1  0.747689  0.676193  0.636680  1
  Y  Y3  1  0.747689  0.823807  0.136680  1
  B  B4  1  0.190630  0.872557  0.911748  1
  B  B5  1  0.141877  0.469272  0.742868  1
  B  B6  1  0.225921  0.747387  0.671696  1
  B  B7  1  0.190630  0.627443  0.411748  1
  B  B8  1  0.141877  0.030728  0.242868  1
  B  B9  1  0.290132  0.058415  0.548950  1
  B  B10  1  0.225921  0.752613  0.171696  1
  B  B11  1  0.488233  0.902524  0.780011  1
  B  B12  1  0.290132  0.441585  0.048950  1
  B  B13  1  0.511767  0.402524  0.719989  1
  B  B14  1  0.488233  0.597476  0.280011  1
  B  B15  1  0.709868  0.558415  0.951050  1
  B  B16  1  0.511767  0.097476  0.219989  1
  B  B17  1  0.774079  0.247387  0.828304  1
  B  B18  1  0.709868  0.941585  0.451050  1
  B  B19  1  0.858123  0.969272  0.757132  1
  B  B20  1  0.809370  0.372557  0.588252  1
  B  B21  1  0.774079  0.252613  0.328304  1
  B  B22  1  0.858123  0.530728  0.257132  1
  B  B23  1  0.809370  0.127443  0.088252  1
  O  O24  1  0.076862  0.982414  0.839479  1
  O  O25  1  0.104870  0.779309  0.781221  1
  O  O26  1  0.222719  0.512570  0.906449  1
  O  O27  1  0.133198  0.657452  0.567458  1
  O  O28  1  0.076862  0.517586  0.339479  1
  O  O29  1  0.104870  0.720691  0.281221  1
  O  O30  1  0.241004  0.174064  0.550342  1
  O  O31  1  0.271222  0.403652  0.667578  1
  O  O32  1  0.222719  0.987430  0.406449  1
  O  O33  1  0.424810  0.883948  0.938798  1
  O  O34  1  0.133198  0.842548  0.067458  1
  O  O35  1  0.400932  0.013732  0.705489  1
  O  O36  1  0.419296  0.798543  0.667390  1
  O  O37  1  0.241004  0.325936  0.050342  1
  O  O38  1  0.271222  0.096348  0.167578  1
  O  O39  1  0.424810  0.616052  0.438798  1
  O  O40  1  0.580704  0.298543  0.832610  1
  O  O41  1  0.599068  0.513732  0.794511  1
  O  O42  1  0.400932  0.486268  0.205489  1
  O  O43  1  0.419296  0.701457  0.167390  1
  O  O44  1  0.575190  0.383948  0.561202  1
  O  O45  1  0.728778  0.903652  0.832422  1
  O  O46  1  0.758996  0.674064  0.949658  1
  O  O47  1  0.580704  0.201457  0.332610  1
  O  O48  1  0.599068  0.986268  0.294511  1
  O  O49  1  0.866802  0.157452  0.932542  1
  O  O50  1  0.575190  0.116052  0.061202  1
  O  O51  1  0.777281  0.012570  0.593551  1
  O  O52  1  0.728778  0.596348  0.332422  1
  O  O53  1  0.758996  0.825936  0.449658  1
  O  O54  1  0.895130  0.279309  0.718779  1
  O  O55  1  0.923138  0.482414  0.660521  1
  O  O56  1  0.866802  0.342548  0.432542  1
  O  O57  1  0.777281  0.487430  0.093551  1
  O  O58  1  0.895130  0.220691  0.218779  1
  O  O59  1  0.923138  0.017586  0.160521  1
