# generated using pymatgen
data_Li5VF8
_symmetry_space_group_name_H-M   'P 1'
_cell_length_a   7.62155447
_cell_length_b   7.74482768
_cell_length_c   10.54361322
_cell_angle_alpha   90.00000000
_cell_angle_beta   105.50828751
_cell_angle_gamma   90.00000000
_symmetry_Int_Tables_number   1
_chemical_formula_structural   Li5VF8
_chemical_formula_sum   'Li20 V4 F32'
_cell_volume   599.70528144
_cell_formula_units_Z   4
loop_
 _symmetry_equiv_pos_site_id
 _symmetry_equiv_pos_as_xyz
  1  'x, y, z'
loop_
 _atom_site_type_symbol
 _atom_site_label
 _atom_site_symmetry_multiplicity
 _atom_site_fract_x
 _atom_site_fract_y
 _atom_site_fract_z
 _atom_site_occupancy
  Li  Li0  1  0.475647  0.182930  0.455349  1
  Li  Li1  1  0.367969  0.778195  0.295287  1
  Li  Li2  1  0.287857  0.426537  0.196974  1
  Li  Li3  1  0.475647  0.317070  0.955349  1
  Li  Li4  1  0.367969  0.721805  0.795287  1
  Li  Li5  1  0.287857  0.073463  0.696974  1
  Li  Li6  1  0.053269  0.164552  0.253298  1
  Li  Li7  1  0.938723  0.345593  0.021809  1
  Li  Li8  1  0.061277  0.845593  0.478191  1
  Li  Li9  1  0.946731  0.664552  0.246702  1
  Li  Li10  1  0.053269  0.335448  0.753298  1
  Li  Li11  1  0.938723  0.154407  0.521809  1
  Li  Li12  1  0.061277  0.654407  0.978191  1
  Li  Li13  1  0.946731  0.835448  0.746702  1
  Li  Li14  1  0.712143  0.926537  0.303026  1
  Li  Li15  1  0.632031  0.278195  0.204713  1
  Li  Li16  1  0.524353  0.682930  0.044651  1
  Li  Li17  1  0.712143  0.573463  0.803026  1
  Li  Li18  1  0.632031  0.221805  0.704713  1
  Li  Li19  1  0.524353  0.817070  0.544651  1
  V  V20  1  0.224475  0.019075  0.008262  1
  V  V21  1  0.224475  0.480925  0.508262  1
  V  V22  1  0.775525  0.519075  0.491738  1
  V  V23  1  0.775525  0.980925  0.991738  1
  F  F24  1  0.487742  0.462925  0.121285  1
  F  F25  1  0.473178  0.109226  0.095175  1
  F  F26  1  0.343522  0.808705  0.114759  1
  F  F27  1  0.487742  0.037075  0.621285  1
  F  F28  1  0.473178  0.390774  0.595175  1
  F  F29  1  0.168023  0.231141  0.099948  1
  F  F30  1  0.261182  0.319289  0.361372  1
  F  F31  1  0.343522  0.691295  0.614759  1
  F  F32  1  0.181030  0.697304  0.375769  1
  F  F33  1  0.049289  0.540415  0.131362  1
  F  F34  1  0.040590  0.935809  0.111370  1
  F  F35  1  0.168023  0.268859  0.599948  1
  F  F36  1  0.261182  0.180711  0.861372  1
  F  F37  1  0.181030  0.802696  0.875769  1
  F  F38  1  0.049289  0.959585  0.631362  1
  F  F39  1  0.959410  0.435809  0.388630  1
  F  F40  1  0.040590  0.564191  0.611370  1
  F  F41  1  0.950711  0.040415  0.368638  1
  F  F42  1  0.818970  0.197304  0.124231  1
  F  F43  1  0.738818  0.819289  0.138628  1
  F  F44  1  0.831977  0.731141  0.400052  1
  F  F45  1  0.959410  0.064191  0.888630  1
  F  F46  1  0.950711  0.459585  0.868638  1
  F  F47  1  0.818970  0.302696  0.624231  1
  F  F48  1  0.656478  0.308705  0.385241  1
  F  F49  1  0.738818  0.680711  0.638628  1
  F  F50  1  0.831977  0.768859  0.900052  1
  F  F51  1  0.526822  0.609226  0.404825  1
  F  F52  1  0.512258  0.962925  0.378715  1
  F  F53  1  0.656478  0.191295  0.885241  1
  F  F54  1  0.526822  0.890774  0.904825  1
  F  F55  1  0.512258  0.537075  0.878715  1
