# generated using pymatgen
data_Li4Sb2H6O3F10
_symmetry_space_group_name_H-M   'P 1'
_cell_length_a   5.67524680
_cell_length_b   16.67607432
_cell_length_c   5.68459758
_cell_angle_alpha   90.00000000
_cell_angle_beta   90.03537248
_cell_angle_gamma   90.00000000
_symmetry_Int_Tables_number   1
_chemical_formula_structural   Li4Sb2H6O3F10
_chemical_formula_sum   'Li8 Sb4 H12 O6 F20'
_cell_volume   537.99497248
_cell_formula_units_Z   2
loop_
 _symmetry_equiv_pos_site_id
 _symmetry_equiv_pos_as_xyz
  1  'x, y, z'
loop_
 _atom_site_type_symbol
 _atom_site_label
 _atom_site_symmetry_multiplicity
 _atom_site_fract_x
 _atom_site_fract_y
 _atom_site_fract_z
 _atom_site_occupancy
  Li  Li0  1  0.248433  0.000318  0.247732  1
  Li  Li1  1  0.248433  0.499682  0.247732  1
  Li  Li2  1  0.254967  0.388743  0.748936  1
  Li  Li3  1  0.254967  0.111257  0.748936  1
  Li  Li4  1  0.745033  0.611257  0.251064  1
  Li  Li5  1  0.745033  0.888743  0.251064  1
  Li  Li6  1  0.751567  0.999682  0.752268  1
  Li  Li7  1  0.751567  0.500318  0.752268  1
  Sb  Sb8  1  0.259251  0.628892  0.740316  1
  Sb  Sb9  1  0.259251  0.871108  0.740316  1
  Sb  Sb10  1  0.740749  0.371108  0.259684  1
  Sb  Sb11  1  0.740749  0.128892  0.259684  1
  H  H12  1  0.133340  0.796245  0.220907  1
  H  H13  1  0.133340  0.703755  0.220907  1
  H  H14  1  0.208849  0.296365  0.144947  1
  H  H15  1  0.208849  0.203635  0.144947  1
  H  H16  1  0.267660  0.250000  0.543296  1
  H  H17  1  0.465883  0.250000  0.738392  1
  H  H18  1  0.534117  0.750000  0.261608  1
  H  H19  1  0.732340  0.750000  0.456704  1
  H  H20  1  0.791151  0.796365  0.855053  1
  H  H21  1  0.791151  0.703635  0.855053  1
  H  H22  1  0.866660  0.296245  0.779093  1
  H  H23  1  0.866660  0.203755  0.779093  1
  O  O24  1  0.229462  0.750000  0.268700  1
  O  O25  1  0.252979  0.250000  0.242860  1
  O  O26  1  0.291353  0.250000  0.715772  1
  O  O27  1  0.708647  0.750000  0.284228  1
  O  O28  1  0.747021  0.750000  0.757140  1
  O  O29  1  0.770538  0.250000  0.731300  1
  F  F30  1  0.986689  0.867156  0.003904  1
  F  F31  1  0.986689  0.632844  0.003904  1
  F  F32  1  0.006292  0.901603  0.485068  1
  F  F33  1  0.006292  0.598397  0.485068  1
  F  F34  1  0.181293  0.512821  0.806531  1
  F  F35  1  0.181293  0.987179  0.806531  1
  F  F36  1  0.500442  0.921672  0.502275  1
  F  F37  1  0.500442  0.578328  0.502275  1
  F  F38  1  0.507476  0.906601  0.997521  1
  F  F39  1  0.507476  0.593399  0.997521  1
  F  F40  1  0.492524  0.406601  0.002479  1
  F  F41  1  0.492524  0.093399  0.002479  1
  F  F42  1  0.499558  0.421672  0.497725  1
  F  F43  1  0.499558  0.078328  0.497725  1
  F  F44  1  0.818707  0.012821  0.193469  1
  F  F45  1  0.818707  0.487179  0.193469  1
  F  F46  1  0.993708  0.401603  0.514932  1
  F  F47  1  0.993708  0.098397  0.514932  1
  F  F48  1  0.013311  0.367156  0.996096  1
  F  F49  1  0.013311  0.132844  0.996096  1
