# generated using pymatgen
data_Li4VFe(WO6)2
_symmetry_space_group_name_H-M   'P 1'
_cell_length_a   5.13266358
_cell_length_b   5.37366667
_cell_length_c   7.39987385
_cell_angle_alpha   86.50625940
_cell_angle_beta   89.94115027
_cell_angle_gamma   89.98410986
_symmetry_Int_Tables_number   1
_chemical_formula_structural   Li4VFe(WO6)2
_chemical_formula_sum   'Li4 V1 Fe1 W2 O12'
_cell_volume   203.71813707
_cell_formula_units_Z   1
loop_
 _symmetry_equiv_pos_site_id
 _symmetry_equiv_pos_as_xyz
  1  'x, y, z'
loop_
 _atom_site_type_symbol
 _atom_site_label
 _atom_site_symmetry_multiplicity
 _atom_site_fract_x
 _atom_site_fract_y
 _atom_site_fract_z
 _atom_site_occupancy
  Li  Li0  1  0.999894  0.540809  0.257316  1
  Li  Li1  1  0.502110  0.063597  0.798278  1
  Li  Li2  1  0.004143  0.560747  0.791524  1
  Li  Li3  1  0.495558  0.989178  0.234162  1
  V  V4  1  0.501327  0.468416  0.491624  1
  Fe  Fe5  1  0.999938  0.010043  0.002557  1
  W  W6  1  0.991819  0.977247  0.502432  1
  W  W7  1  0.504543  0.507462  0.991200  1
  O  O8  1  0.689296  0.806425  0.438873  1
  O  O9  1  0.889458  0.003764  0.747609  1
  O  O10  1  0.687838  0.198809  0.053727  1
  O  O11  1  0.800758  0.314196  0.440471  1
  O  O12  1  0.201393  0.310382  0.943282  1
  O  O13  1  0.616794  0.499993  0.743524  1
  O  O14  1  0.387009  0.501306  0.259018  1
  O  O15  1  0.805293  0.696817  0.054224  1
  O  O16  1  0.190689  0.688513  0.559250  1
  O  O17  1  0.302747  0.805888  0.946882  1
  O  O18  1  0.113102  0.000875  0.257645  1
  O  O19  1  0.316292  0.197934  0.557602  1
