# generated using pymatgen
data_Li2Cr2P4H3O16
_symmetry_space_group_name_H-M   'P 1'
_cell_length_a   4.90246671
_cell_length_b   7.47102932
_cell_length_c   8.07367603
_cell_angle_alpha   89.95316548
_cell_angle_beta   90.88218645
_cell_angle_gamma   103.48804126
_symmetry_Int_Tables_number   1
_chemical_formula_structural   Li2Cr2P4H3O16
_chemical_formula_sum   'Li2 Cr2 P4 H3 O16'
_cell_volume   287.51892216
_cell_formula_units_Z   1
loop_
 _symmetry_equiv_pos_site_id
 _symmetry_equiv_pos_as_xyz
  1  'x, y, z'
loop_
 _atom_site_type_symbol
 _atom_site_label
 _atom_site_symmetry_multiplicity
 _atom_site_fract_x
 _atom_site_fract_y
 _atom_site_fract_z
 _atom_site_occupancy
  Li  Li0  1  0.393440  0.848085  0.128193  1
  Li  Li1  1  0.589961  0.152436  0.875046  1
  Cr  Cr2  1  0.999321  0.498741  0.001432  1
  Cr  Cr3  1  0.498755  0.001346  0.499987  1
  P  P4  1  0.110664  0.253227  0.662150  1
  P  P5  1  0.372560  0.236794  0.157141  1
  P  P6  1  0.624067  0.755359  0.840298  1
  P  P7  1  0.885014  0.748947  0.338794  1
  H  H8  1  0.455900  0.482049  0.601251  1
  H  H9  1  0.550633  0.509758  0.382068  1
  H  H10  1  0.956605  0.979321  0.986513  1
  O  O11  1  0.987844  0.700875  0.168272  1
  O  O12  1  0.129558  0.842914  0.448722  1
  O  O13  1  0.179443  0.373238  0.170237  1
  O  O14  1  0.253721  0.441033  0.576051  1
  O  O15  1  0.367009  0.660929  0.943727  1
  O  O16  1  0.546930  0.815124  0.670027  1
  O  O17  1  0.254018  0.062602  0.053126  1
  O  O18  1  0.332492  0.135846  0.681244  1
  O  O19  1  0.664418  0.867031  0.318159  1
  O  O20  1  0.749256  0.937513  0.946449  1
  O  O21  1  0.450660  0.189401  0.333562  1
  O  O22  1  0.636343  0.342506  0.060030  1
  O  O23  1  0.739372  0.562558  0.428114  1
  O  O24  1  0.828335  0.629442  0.829508  1
  O  O25  1  0.867125  0.158716  0.551260  1
  O  O26  1  0.003082  0.297273  0.832796  1
