# generated using pymatgen
data_Li2MnFe(PO4)2
_symmetry_space_group_name_H-M   'P 1'
_cell_length_a   4.77050951
_cell_length_b   6.12425550
_cell_length_c   10.50313207
_cell_angle_alpha   90.00000000
_cell_angle_beta   90.20407907
_cell_angle_gamma   90.00000000
_symmetry_Int_Tables_number   1
_chemical_formula_structural   Li2MnFe(PO4)2
_chemical_formula_sum   'Li4 Mn2 Fe2 P4 O16'
_cell_volume   306.85566001
_cell_formula_units_Z   2
loop_
 _symmetry_equiv_pos_site_id
 _symmetry_equiv_pos_as_xyz
  1  'x, y, z'
loop_
 _atom_site_type_symbol
 _atom_site_label
 _atom_site_symmetry_multiplicity
 _atom_site_fract_x
 _atom_site_fract_y
 _atom_site_fract_z
 _atom_site_occupancy
  Li  Li0  1  0.000000  0.000000  0.000000  1
  Li  Li1  1  0.500000  0.500000  0.500000  1
  Li  Li2  1  0.500000  0.000000  0.500000  1
  Li  Li3  1  0.000000  0.500000  0.000000  1
  Mn  Mn4  1  0.526134  0.250000  0.218631  1
  Mn  Mn5  1  0.473866  0.750000  0.781369  1
  Fe  Fe6  1  0.970552  0.250000  0.718480  1
  Fe  Fe7  1  0.029448  0.750000  0.281520  1
  P  P8  1  0.915126  0.750000  0.591677  1
  P  P9  1  0.590714  0.750000  0.094080  1
  P  P10  1  0.409286  0.250000  0.905920  1
  P  P11  1  0.084874  0.250000  0.408323  1
  O  O12  1  0.789637  0.750000  0.454875  1
  O  O13  1  0.784318  0.952758  0.662187  1
  O  O14  1  0.784318  0.547242  0.662187  1
  O  O15  1  0.762281  0.250000  0.404863  1
  O  O16  1  0.732102  0.250000  0.902475  1
  O  O17  1  0.726537  0.951546  0.163344  1
  O  O18  1  0.726537  0.548454  0.163344  1
  O  O19  1  0.710690  0.750000  0.956337  1
  O  O20  1  0.289310  0.250000  0.043663  1
  O  O21  1  0.273463  0.451546  0.836656  1
  O  O22  1  0.273463  0.048454  0.836656  1
  O  O23  1  0.267898  0.750000  0.097525  1
  O  O24  1  0.237719  0.750000  0.595137  1
  O  O25  1  0.215682  0.452758  0.337813  1
  O  O26  1  0.215682  0.047242  0.337813  1
  O  O27  1  0.210363  0.250000  0.545125  1
