# generated using pymatgen
data_Na3VPCO7
_symmetry_space_group_name_H-M   'P 1'
_cell_length_a   5.40030030
_cell_length_b   6.77614684
_cell_length_c   8.91563930
_cell_angle_alpha   90.00000000
_cell_angle_beta   91.03427626
_cell_angle_gamma   90.00000000
_symmetry_Int_Tables_number   1
_chemical_formula_structural   Na3VPCO7
_chemical_formula_sum   'Na6 V2 P2 C2 O14'
_cell_volume   326.19886569
_cell_formula_units_Z   2
loop_
 _symmetry_equiv_pos_site_id
 _symmetry_equiv_pos_as_xyz
  1  'x, y, z'
loop_
 _atom_site_type_symbol
 _atom_site_label
 _atom_site_symmetry_multiplicity
 _atom_site_fract_x
 _atom_site_fract_y
 _atom_site_fract_z
 _atom_site_occupancy
  Na  Na0  1  0.999403  0.488857  0.997901  1
  Na  Na1  1  0.450512  0.213982  0.837815  1
  Na  Na2  1  0.503092  0.484663  0.504646  1
  Na  Na3  1  0.496908  0.984663  0.495354  1
  Na  Na4  1  0.549488  0.713982  0.162185  1
  Na  Na5  1  0.000597  0.988857  0.002099  1
  V  V6  1  0.041763  0.739921  0.721189  1
  V  V7  1  0.958237  0.239921  0.278811  1
  P  P8  1  0.984298  0.237582  0.654261  1
  P  P9  1  0.015702  0.737582  0.345739  1
  C  C10  1  0.490289  0.739885  0.836264  1
  C  C11  1  0.509711  0.239885  0.163736  1
  O  O12  1  0.305097  0.740353  0.931142  1
  O  O13  1  0.717890  0.743985  0.886836  1
  O  O14  1  0.083403  0.056786  0.748561  1
  O  O15  1  0.069070  0.422324  0.748009  1
  O  O16  1  0.438825  0.736757  0.695076  1
  O  O17  1  0.699184  0.229005  0.638631  1
  O  O18  1  0.112814  0.240501  0.499925  1
  O  O19  1  0.887186  0.740501  0.500075  1
  O  O20  1  0.300816  0.729005  0.361369  1
  O  O21  1  0.561175  0.236757  0.304924  1
  O  O22  1  0.930930  0.922324  0.251991  1
  O  O23  1  0.916597  0.556786  0.251439  1
  O  O24  1  0.282110  0.243985  0.113164  1
  O  O25  1  0.694903  0.240353  0.068858  1
