# generated using pymatgen
data_Rb2SnO3
_symmetry_space_group_name_H-M   'P 1'
_cell_length_a   7.06682664
_cell_length_b   7.06682664
_cell_length_c   13.66465461
_cell_angle_alpha   90.00000000
_cell_angle_beta   90.00000000
_cell_angle_gamma   128.26545632
_symmetry_Int_Tables_number   1
_chemical_formula_structural   Rb2SnO3
_chemical_formula_sum   'Rb8 Sn4 O12'
_cell_volume   535.79679242
_cell_formula_units_Z   4
loop_
 _symmetry_equiv_pos_site_id
 _symmetry_equiv_pos_as_xyz
  1  'x, y, z'
loop_
 _atom_site_type_symbol
 _atom_site_label
 _atom_site_symmetry_multiplicity
 _atom_site_fract_x
 _atom_site_fract_y
 _atom_site_fract_z
 _atom_site_occupancy
  Rb  Rb0  1  0.051971  0.948029  0.863955  1
  Rb  Rb1  1  0.126728  0.873272  0.423774  1
  Rb  Rb2  1  0.373272  0.626728  0.923774  1
  Rb  Rb3  1  0.551971  0.448029  0.636045  1
  Rb  Rb4  1  0.948029  0.051971  0.136045  1
  Rb  Rb5  1  0.626728  0.373272  0.076226  1
  Rb  Rb6  1  0.448029  0.551971  0.363955  1
  Rb  Rb7  1  0.873272  0.126728  0.576226  1
  Sn  Sn8  1  0.241218  0.758782  0.663160  1
  Sn  Sn9  1  0.258782  0.741218  0.163160  1
  Sn  Sn10  1  0.741218  0.258782  0.836840  1
  Sn  Sn11  1  0.758782  0.241218  0.336840  1
  O  O12  1  0.035300  0.464700  0.750000  1
  O  O13  1  0.464700  0.035300  0.250000  1
  O  O14  1  0.089237  0.910763  0.640854  1
  O  O15  1  0.340968  0.659032  0.554783  1
  O  O16  1  0.659032  0.340968  0.445217  1
  O  O17  1  0.840968  0.159032  0.945217  1
  O  O18  1  0.159032  0.840968  0.054783  1
  O  O19  1  0.410763  0.589237  0.140854  1
  O  O20  1  0.589237  0.410763  0.859146  1
  O  O21  1  0.910763  0.089237  0.359146  1
  O  O22  1  0.535300  0.964700  0.750000  1
  O  O23  1  0.964700  0.535300  0.250000  1
