# generated using pymatgen
data_Li2Co2(SO4)3
_symmetry_space_group_name_H-M   'P 1'
_cell_length_a   8.66036270
_cell_length_b   8.83685520
_cell_length_c   12.23585142
_cell_angle_alpha   90.00000000
_cell_angle_beta   90.00000000
_cell_angle_gamma   90.00000000
_symmetry_Int_Tables_number   1
_chemical_formula_structural   Li2Co2(SO4)3
_chemical_formula_sum   'Li8 Co8 S12 O48'
_cell_volume   936.41425062
_cell_formula_units_Z   4
loop_
 _symmetry_equiv_pos_site_id
 _symmetry_equiv_pos_as_xyz
  1  'x, y, z'
loop_
 _atom_site_type_symbol
 _atom_site_label
 _atom_site_symmetry_multiplicity
 _atom_site_fract_x
 _atom_site_fract_y
 _atom_site_fract_z
 _atom_site_occupancy
  Li  Li0  1  0.217915  0.275585  0.183619  1
  Li  Li1  1  0.782085  0.775585  0.183619  1
  Li  Li2  1  0.282085  0.775585  0.316381  1
  Li  Li3  1  0.717915  0.275585  0.316381  1
  Li  Li4  1  0.282085  0.724415  0.683619  1
  Li  Li5  1  0.717915  0.224415  0.683619  1
  Li  Li6  1  0.217915  0.224415  0.816381  1
  Li  Li7  1  0.782085  0.724415  0.816381  1
  Co  Co8  1  0.253757  0.962633  0.113308  1
  Co  Co9  1  0.746243  0.462633  0.113308  1
  Co  Co10  1  0.753757  0.962633  0.386692  1
  Co  Co11  1  0.246243  0.462633  0.386692  1
  Co  Co12  1  0.246243  0.037367  0.613308  1
  Co  Co13  1  0.753757  0.537367  0.613308  1
  Co  Co14  1  0.253757  0.537367  0.886692  1
  Co  Co15  1  0.746243  0.037367  0.886692  1
  S  S16  1  0.459424  0.250000  0.000000  1
  S  S17  1  0.540576  0.750000  0.000000  1
  S  S18  1  0.101156  0.605825  0.144573  1
  S  S19  1  0.898844  0.105825  0.144573  1
  S  S20  1  0.398844  0.105825  0.355427  1
  S  S21  1  0.601156  0.605825  0.355427  1
  S  S22  1  0.040576  0.750000  0.500000  1
  S  S23  1  0.959424  0.250000  0.500000  1
  S  S24  1  0.398844  0.394175  0.644573  1
  S  S25  1  0.601156  0.894175  0.644573  1
  S  S26  1  0.101156  0.894175  0.855427  1
  S  S27  1  0.898844  0.394175  0.855427  1
  O  O28  1  0.135778  0.574856  0.029829  1
  O  O29  1  0.864222  0.074856  0.029829  1
  O  O30  1  0.551075  0.364034  0.058435  1
  O  O31  1  0.448925  0.864034  0.058435  1
  O  O32  1  0.357543  0.174402  0.082539  1
  O  O33  1  0.642457  0.674402  0.082539  1
  O  O34  1  0.070350  0.111404  0.160848  1
  O  O35  1  0.929650  0.611404  0.160848  1
  O  O36  1  0.166716  0.754202  0.180155  1
  O  O37  1  0.833284  0.254202  0.180155  1
  O  O38  1  0.833386  0.983533  0.215725  1
  O  O39  1  0.166614  0.483533  0.215725  1
  O  O40  1  0.333386  0.983533  0.284275  1
  O  O41  1  0.666614  0.483533  0.284275  1
  O  O42  1  0.666716  0.754202  0.319845  1
  O  O43  1  0.333284  0.254202  0.319845  1
  O  O44  1  0.429650  0.611404  0.339152  1
  O  O45  1  0.570350  0.111404  0.339152  1
  O  O46  1  0.142457  0.674402  0.417461  1
  O  O47  1  0.857543  0.174402  0.417461  1
  O  O48  1  0.051075  0.364034  0.441565  1
  O  O49  1  0.948925  0.864034  0.441565  1
  O  O50  1  0.635778  0.574856  0.470171  1
  O  O51  1  0.364222  0.074856  0.470171  1
  O  O52  1  0.364222  0.425144  0.529829  1
  O  O53  1  0.635778  0.925144  0.529829  1
  O  O54  1  0.051075  0.135966  0.558435  1
  O  O55  1  0.948925  0.635966  0.558435  1
  O  O56  1  0.142457  0.825598  0.582539  1
  O  O57  1  0.857543  0.325598  0.582539  1
  O  O58  1  0.429650  0.888596  0.660848  1
  O  O59  1  0.570350  0.388596  0.660848  1
  O  O60  1  0.333284  0.245798  0.680155  1
  O  O61  1  0.666716  0.745798  0.680155  1
  O  O62  1  0.333386  0.516467  0.715725  1
  O  O63  1  0.666614  0.016467  0.715725  1
  O  O64  1  0.166614  0.016467  0.784275  1
  O  O65  1  0.833386  0.516467  0.784275  1
  O  O66  1  0.166716  0.745798  0.819845  1
  O  O67  1  0.833284  0.245798  0.819845  1
  O  O68  1  0.070350  0.388596  0.839152  1
  O  O69  1  0.929650  0.888596  0.839152  1
  O  O70  1  0.357543  0.325598  0.917461  1
  O  O71  1  0.642457  0.825598  0.917461  1
  O  O72  1  0.448925  0.635966  0.941565  1
  O  O73  1  0.551075  0.135966  0.941565  1
  O  O74  1  0.135778  0.925144  0.970171  1
  O  O75  1  0.864222  0.425144  0.970171  1
