# generated using pymatgen
data_Li16V3Ga13O32
_symmetry_space_group_name_H-M   'P 1'
_cell_length_a   5.51326869
_cell_length_b   6.48001434
_cell_length_c   20.39473069
_cell_angle_alpha   89.98269098
_cell_angle_beta   89.99289603
_cell_angle_gamma   89.99317506
_symmetry_Int_Tables_number   1
_chemical_formula_structural   Li16V3Ga13O32
_chemical_formula_sum   'Li16 V3 Ga13 O32'
_cell_volume   728.62333140
_cell_formula_units_Z   1
loop_
 _symmetry_equiv_pos_site_id
 _symmetry_equiv_pos_as_xyz
  1  'x, y, z'
loop_
 _atom_site_type_symbol
 _atom_site_label
 _atom_site_symmetry_multiplicity
 _atom_site_fract_x
 _atom_site_fract_y
 _atom_site_fract_z
 _atom_site_occupancy
  Li  Li0  1  0.083801  0.625836  0.125914  1
  Li  Li1  1  0.082117  0.624433  0.375547  1
  Li  Li2  1  0.080541  0.624131  0.625938  1
  Li  Li3  1  0.081523  0.625081  0.875699  1
  Li  Li4  1  0.419287  0.124391  0.000749  1
  Li  Li5  1  0.418364  0.125072  0.500809  1
  Li  Li6  1  0.416493  0.123172  0.250956  1
  Li  Li7  1  0.417537  0.124360  0.750544  1
  Li  Li8  1  0.581391  0.874884  0.125878  1
  Li  Li9  1  0.583592  0.874133  0.875728  1
  Li  Li10  1  0.582949  0.875517  0.375482  1
  Li  Li11  1  0.583368  0.876722  0.625997  1
  Li  Li12  1  0.919548  0.375683  0.250914  1
  Li  Li13  1  0.917386  0.375415  0.750492  1
  Li  Li14  1  0.916682  0.376856  0.000848  1
  Li  Li15  1  0.916421  0.374022  0.500844  1
  V  V16  1  0.083721  0.127826  0.875639  1
  V  V17  1  0.416307  0.627827  0.500584  1
  V  V18  1  0.583514  0.372397  0.125852  1
  Ga  Ga19  1  0.082535  0.123108  0.124655  1
  Ga  Ga20  1  0.081927  0.126290  0.374702  1
  Ga  Ga21  1  0.082118  0.126205  0.624990  1
  Ga  Ga22  1  0.417345  0.627131  0.999273  1
  Ga  Ga23  1  0.416822  0.628532  0.250257  1
  Ga  Ga24  1  0.417979  0.626373  0.749520  1
  Ga  Ga25  1  0.582337  0.372855  0.373876  1
  Ga  Ga26  1  0.582425  0.377153  0.875037  1
  Ga  Ga27  1  0.583246  0.371366  0.625030  1
  Ga  Ga28  1  0.917884  0.873775  0.249768  1
  Ga  Ga29  1  0.917771  0.872998  0.749118  1
  Ga  Ga30  1  0.916475  0.871176  0.000033  1
  Ga  Ga31  1  0.917507  0.877011  0.500001  1
  O  O32  1  0.068715  0.111701  0.282661  1
  O  O33  1  0.068024  0.111232  0.032056  1
  O  O34  1  0.072108  0.112865  0.532674  1
  O  O35  1  0.068101  0.110964  0.780546  1
  O  O36  1  0.093521  0.638150  0.027219  1
  O  O37  1  0.091961  0.638838  0.276939  1
  O  O38  1  0.081240  0.638325  0.527316  1
  O  O39  1  0.093205  0.638409  0.776580  1
  O  O40  1  0.403666  0.130994  0.152364  1
  O  O41  1  0.418836  0.138305  0.902289  1
  O  O42  1  0.406979  0.138573  0.401573  1
  O  O43  1  0.406652  0.137946  0.652040  1
  O  O44  1  0.427231  0.618733  0.158343  1
  O  O45  1  0.431890  0.610832  0.405355  1
  O  O46  1  0.431468  0.611420  0.657018  1
  O  O47  1  0.427339  0.613719  0.907124  1
  O  O48  1  0.568037  0.389141  0.030692  1
  O  O49  1  0.572724  0.381432  0.533161  1
  O  O50  1  0.568188  0.388443  0.782650  1
  O  O51  1  0.569173  0.387557  0.281408  1
  O  O52  1  0.592120  0.861320  0.027161  1
  O  O53  1  0.593680  0.862219  0.277009  1
  O  O54  1  0.595856  0.868872  0.527423  1
  O  O55  1  0.593139  0.861002  0.776552  1
  O  O56  1  0.919038  0.361361  0.152250  1
  O  O57  1  0.904194  0.369002  0.902391  1
  O  O58  1  0.906632  0.361173  0.401555  1
  O  O59  1  0.907634  0.361242  0.651965  1
  O  O60  1  0.927160  0.881327  0.908220  1
  O  O61  1  0.928035  0.887399  0.157538  1
  O  O62  1  0.931774  0.888365  0.407752  1
  O  O63  1  0.930774  0.887409  0.657098  1
