# generated using pymatgen
data_V(CO3)2
_symmetry_space_group_name_H-M   'P 1'
_cell_length_a   6.10019946
_cell_length_b   6.10019946
_cell_length_c   6.37057492
_cell_angle_alpha   77.59851526
_cell_angle_beta   102.40148474
_cell_angle_gamma   88.48032849
_symmetry_Int_Tables_number   1
_chemical_formula_structural   V(CO3)2
_chemical_formula_sum   'V2 C4 O12'
_cell_volume   225.47399041
_cell_formula_units_Z   2
loop_
 _symmetry_equiv_pos_site_id
 _symmetry_equiv_pos_as_xyz
  1  'x, y, z'
loop_
 _atom_site_type_symbol
 _atom_site_label
 _atom_site_symmetry_multiplicity
 _atom_site_fract_x
 _atom_site_fract_y
 _atom_site_fract_z
 _atom_site_occupancy
  V  V0  1  0.807500  0.807500  0.250000  1
  V  V1  1  0.192500  0.192500  0.750000  1
  C  C2  1  0.303899  0.883152  0.194983  1
  C  C3  1  0.116848  0.696101  0.694983  1
  C  C4  1  0.883152  0.303899  0.305017  1
  C  C5  1  0.696101  0.116848  0.805017  1
  O  O6  1  0.708731  0.919232  0.942912  1
  O  O7  1  0.208896  0.873991  0.728563  1
  O  O8  1  0.126009  0.791104  0.228563  1
  O  O9  1  0.495143  0.782740  0.295632  1
  O  O10  1  0.919232  0.708731  0.557088  1
  O  O11  1  0.217260  0.504857  0.795632  1
  O  O12  1  0.782740  0.495143  0.204368  1
  O  O13  1  0.080768  0.291269  0.442912  1
  O  O14  1  0.504857  0.217260  0.704368  1
  O  O15  1  0.873991  0.208896  0.771437  1
  O  O16  1  0.791104  0.126009  0.271437  1
  O  O17  1  0.291269  0.080768  0.057088  1
