# generated using pymatgen
data_Na3CuO3
_symmetry_space_group_name_H-M   'P 1'
_cell_length_a   9.37683854
_cell_length_b   9.37683854
_cell_length_c   4.43178584
_cell_angle_alpha   90.00000000
_cell_angle_beta   90.00000000
_cell_angle_gamma   90.00000000
_symmetry_Int_Tables_number   1
_chemical_formula_structural   Na3CuO3
_chemical_formula_sum   'Na12 Cu4 O12'
_cell_volume   389.66521762
_cell_formula_units_Z   4
loop_
 _symmetry_equiv_pos_site_id
 _symmetry_equiv_pos_as_xyz
  1  'x, y, z'
loop_
 _atom_site_type_symbol
 _atom_site_label
 _atom_site_symmetry_multiplicity
 _atom_site_fract_x
 _atom_site_fract_y
 _atom_site_fract_z
 _atom_site_occupancy
  Na  Na0  1  0.366106  0.125943  0.500000  1
  Na  Na1  1  0.625943  0.133894  0.000000  1
  Na  Na2  1  0.151233  0.151233  0.000000  1
  Na  Na3  1  0.651233  0.348767  0.500000  1
  Na  Na4  1  0.125943  0.366106  0.500000  1
  Na  Na5  1  0.866106  0.374057  0.000000  1
  Na  Na6  1  0.133894  0.625943  0.000000  1
  Na  Na7  1  0.874057  0.633894  0.500000  1
  Na  Na8  1  0.348767  0.651233  0.500000  1
  Na  Na9  1  0.848767  0.848767  0.000000  1
  Na  Na10  1  0.374057  0.866106  0.000000  1
  Na  Na11  1  0.633894  0.874057  0.500000  1
  Cu  Cu12  1  0.891172  0.108828  0.500000  1
  Cu  Cu13  1  0.391172  0.391172  0.000000  1
  Cu  Cu14  1  0.608828  0.608828  0.000000  1
  Cu  Cu15  1  0.108828  0.891172  0.500000  1
  O  O16  1  0.093960  0.093960  0.500000  1
  O  O17  1  0.694142  0.106111  0.500000  1
  O  O18  1  0.393889  0.194142  0.000000  1
  O  O19  1  0.893889  0.305858  0.500000  1
  O  O20  1  0.194142  0.393889  0.000000  1
  O  O21  1  0.593960  0.406040  0.000000  1
  O  O22  1  0.406040  0.593960  0.000000  1
  O  O23  1  0.805858  0.606111  0.000000  1
  O  O24  1  0.106111  0.694142  0.500000  1
  O  O25  1  0.606111  0.805858  0.000000  1
  O  O26  1  0.305858  0.893889  0.500000  1
  O  O27  1  0.906040  0.906040  0.500000  1
