# generated using pymatgen
data_Li10Si(PSe6)2
_symmetry_space_group_name_H-M   'P 1'
_cell_length_a   9.03004114
_cell_length_b   9.37008686
_cell_length_c   13.63826355
_cell_angle_alpha   91.74567236
_cell_angle_beta   90.68197101
_cell_angle_gamma   90.35427998
_symmetry_Int_Tables_number   1
_chemical_formula_structural   Li10Si(PSe6)2
_chemical_formula_sum   'Li20 Si2 P4 Se24'
_cell_volume   1153.32243473
_cell_formula_units_Z   2
loop_
 _symmetry_equiv_pos_site_id
 _symmetry_equiv_pos_as_xyz
  1  'x, y, z'
loop_
 _atom_site_type_symbol
 _atom_site_label
 _atom_site_symmetry_multiplicity
 _atom_site_fract_x
 _atom_site_fract_y
 _atom_site_fract_z
 _atom_site_occupancy
  Li  Li0  1  0.988463  0.516113  0.955560  1
  Li  Li1  1  0.966180  0.516850  0.424672  1
  Li  Li2  1  0.508950  0.966412  0.547543  1
  Li  Li3  1  0.497122  0.992645  0.047793  1
  Li  Li4  1  0.256641  0.292226  0.158109  1
  Li  Li5  1  0.746321  0.746771  0.281138  1
  Li  Li6  1  0.218522  0.817947  0.755478  1
  Li  Li7  1  0.230608  0.755523  0.251082  1
  Li  Li8  1  0.753819  0.219909  0.349583  1
  Li  Li9  1  0.462396  0.517004  0.751522  1
  Li  Li10  1  0.229981  0.227065  0.363852  1
  Li  Li11  1  0.731127  0.256411  0.856844  1
  Li  Li12  1  0.247912  0.760155  0.006868  1
  Li  Li13  1  0.741560  0.265926  0.132953  1
  Li  Li14  1  0.763180  0.726304  0.690485  1
  Li  Li15  1  0.224994  0.261376  0.919798  1
  Li  Li16  1  0.745137  0.759428  0.009141  1
  Li  Li17  1  0.241467  0.721925  0.484130  1
  Li  Li18  1  0.784404  0.213780  0.625639  1
  Li  Li19  1  0.241206  0.210744  0.649924  1
  Si  Si20  1  0.997070  0.485897  0.183033  1
  Si  Si21  1  0.507680  0.992706  0.816301  1
  P  P22  1  0.992996  0.965589  0.501623  1
  P  P23  1  0.492119  0.515287  0.992918  1
  P  P24  1  0.009096  0.481824  0.684365  1
  P  P25  1  0.487688  0.009619  0.310421  1
  Se  Se26  1  0.988599  0.183887  0.443698  1
  Se  Se27  1  0.005329  0.790562  0.385764  1
  Se  Se28  1  0.288526  0.534563  0.897991  1
  Se  Se29  1  0.689684  0.533800  0.895564  1
  Se  Se30  1  0.496674  0.698454  0.101807  1
  Se  Se31  1  0.485250  0.304368  0.061405  1
  Se  Se32  1  0.202950  0.945411  0.590843  1
  Se  Se33  1  0.795578  0.945471  0.593844  1
  Se  Se34  1  0.005718  0.297675  0.068790  1
  Se  Se35  1  0.000152  0.704105  0.107257  1
  Se  Se36  1  0.219665  0.485620  0.598834  1
  Se  Se37  1  0.808946  0.491574  0.586828  1
  Se  Se38  1  0.486870  0.794380  0.376211  1
  Se  Se39  1  0.496177  0.184241  0.425361  1
  Se  Se40  1  0.288117  0.990570  0.903856  1
  Se  Se41  1  0.711744  0.996299  0.917020  1
  Se  Se42  1  0.991719  0.666209  0.791473  1
  Se  Se43  1  0.003299  0.274055  0.761427  1
  Se  Se44  1  0.782403  0.466814  0.269947  1
  Se  Se45  1  0.197038  0.479590  0.289361  1
  Se  Se46  1  0.515710  0.197437  0.724596  1
  Se  Se47  1  0.492946  0.800452  0.705619  1
  Se  Se48  1  0.691912  0.014779  0.218636  1
  Se  Se49  1  0.285753  0.031349  0.216293  1
