# generated using pymatgen
data_LiVCrP2(O4F)2
_symmetry_space_group_name_H-M   'P 1'
_cell_length_a   5.16460448
_cell_length_b   7.32919286
_cell_length_c   19.50791589
_cell_angle_alpha   93.70210754
_cell_angle_beta   89.55184046
_cell_angle_gamma   106.06608970
_symmetry_Int_Tables_number   1
_chemical_formula_structural   LiVCrP2(O4F)2
_chemical_formula_sum   'Li4 V4 Cr4 P8 O32 F8'
_cell_volume   708.06107065
_cell_formula_units_Z   4
loop_
 _symmetry_equiv_pos_site_id
 _symmetry_equiv_pos_as_xyz
  1  'x, y, z'
loop_
 _atom_site_type_symbol
 _atom_site_label
 _atom_site_symmetry_multiplicity
 _atom_site_fract_x
 _atom_site_fract_y
 _atom_site_fract_z
 _atom_site_occupancy
  Li  Li0  1  0.966366  0.709219  0.109163  1
  Li  Li1  1  0.716516  0.460154  0.358552  1
  Li  Li2  1  0.467928  0.211588  0.608246  1
  Li  Li3  1  0.031056  0.288864  0.889702  1
  V  V4  1  0.000128  0.999791  0.999696  1
  V  V5  1  0.750350  0.755598  0.251127  1
  V  V6  1  0.500743  0.505707  0.501046  1
  V  V7  1  0.250633  0.249872  0.749585  1
  Cr  Cr8  1  0.870298  0.872005  0.625286  1
  Cr  Cr9  1  0.631239  0.628717  0.873905  1
  Cr  Cr10  1  0.369737  0.371951  0.125150  1
  Cr  Cr11  1  0.121618  0.122837  0.375220  1
  P  P12  1  0.910766  0.228440  0.528350  1
  P  P13  1  0.844668  0.519987  0.719887  1
  P  P14  1  0.590124  0.274545  0.972225  1
  P  P15  1  0.343924  0.022902  0.220834  1
  P  P16  1  0.656286  0.980632  0.779865  1
  P  P17  1  0.410680  0.725908  0.027527  1
  P  P18  1  0.160141  0.478351  0.278381  1
  P  P19  1  0.093843  0.772787  0.470807  1
  O  O20  1  0.945012  0.098936  0.805038  1
  O  O21  1  0.890928  0.151994  0.453643  1
  O  O22  1  0.768057  0.082971  0.579857  1
  O  O23  1  0.988312  0.627090  0.286523  1
  O  O24  1  0.755641  0.121255  0.965884  1
  O  O25  1  0.971935  0.669042  0.670000  1
  O  O26  1  0.851981  0.594831  0.794881  1
  O  O27  1  0.738815  0.377170  0.536482  1
  O  O28  1  0.733744  0.415740  0.919747  1
  O  O29  1  0.804644  0.652362  0.446551  1
  O  O30  1  0.611316  0.360417  0.045899  1
  O  O31  1  0.477057  0.124676  0.784894  1
  O  O32  1  0.472343  0.167592  0.169293  1
  O  O33  1  0.555672  0.401361  0.695260  1
  O  O34  1  0.708068  0.823924  0.050920  1
  O  O35  1  0.353446  0.106369  0.294465  1
  O  O36  1  0.650171  0.905833  0.705296  1
  O  O37  1  0.292439  0.176189  0.949451  1
  O  O38  1  0.457428  0.574345  0.301637  1
  O  O39  1  0.528749  0.831280  0.830220  1
  O  O40  1  0.516825  0.873652  0.217288  1
  O  O41  1  0.390646  0.640766  0.954176  1
  O  O42  1  0.208026  0.324381  0.551604  1
  O  O43  1  0.266782  0.584142  0.080338  1
  O  O44  1  0.266906  0.623538  0.467212  1
  O  O45  1  0.139389  0.401239  0.203706  1
  O  O46  1  0.017783  0.333169  0.330000  1
  O  O47  1  0.244032  0.878362  0.034614  1
  O  O48  1  0.023122  0.375316  0.715484  1
  O  O49  1  0.222662  0.917821  0.419464  1
  O  O50  1  0.102256  0.855477  0.544545  1
  O  O51  1  0.054652  0.902282  0.196626  1
  F  F52  1  0.937499  0.819859  0.920890  1
  F  F53  1  0.685294  0.569981  0.168848  1
  F  F54  1  0.814358  0.932675  0.330134  1
  F  F55  1  0.437277  0.319874  0.418609  1
  F  F56  1  0.563004  0.682556  0.580275  1
  F  F57  1  0.187696  0.067731  0.667951  1
  F  F58  1  0.315172  0.432574  0.831831  1
  F  F59  1  0.064409  0.180214  0.079174  1
