# generated using pymatgen
data_Fe5O3F7
_symmetry_space_group_name_H-M   'P 1'
_cell_length_a   4.76925908
_cell_length_b   15.60001137
_cell_length_c   4.78355610
_cell_angle_alpha   90.00000000
_cell_angle_beta   90.35279295
_cell_angle_gamma   90.00000000
_symmetry_Int_Tables_number   1
_chemical_formula_structural   Fe5O3F7
_chemical_formula_sum   'Fe10 O6 F14'
_cell_volume   355.89219902
_cell_formula_units_Z   2
loop_
 _symmetry_equiv_pos_site_id
 _symmetry_equiv_pos_as_xyz
  1  'x, y, z'
loop_
 _atom_site_type_symbol
 _atom_site_label
 _atom_site_symmetry_multiplicity
 _atom_site_fract_x
 _atom_site_fract_y
 _atom_site_fract_z
 _atom_site_occupancy
  Fe  Fe0  1  0.038886  0.000000  0.952917  1
  Fe  Fe1  1  0.971718  0.795408  0.018485  1
  Fe  Fe2  1  0.979403  0.600944  0.973976  1
  Fe  Fe3  1  0.979403  0.399056  0.973976  1
  Fe  Fe4  1  0.971718  0.204592  0.018485  1
  Fe  Fe5  1  0.501855  0.901283  0.489536  1
  Fe  Fe6  1  0.516632  0.500000  0.520831  1
  Fe  Fe7  1  0.533711  0.708361  0.511360  1
  Fe  Fe8  1  0.533711  0.291639  0.511360  1
  Fe  Fe9  1  0.501855  0.098717  0.489536  1
  O  O10  1  0.799516  0.696410  0.809875  1
  O  O11  1  0.816358  0.500000  0.808866  1
  O  O12  1  0.799516  0.303590  0.809875  1
  O  O13  1  0.676803  0.803598  0.319782  1
  O  O14  1  0.676803  0.196402  0.319782  1
  O  O15  1  0.326418  0.000000  0.659595  1
  F  F16  1  0.792750  0.898510  0.795886  1
  F  F17  1  0.792750  0.101490  0.795886  1
  F  F18  1  0.710870  0.000000  0.280330  1
  F  F19  1  0.698787  0.604194  0.300463  1
  F  F20  1  0.698787  0.395806  0.300463  1
  F  F21  1  0.290366  0.800714  0.707987  1
  F  F22  1  0.302940  0.606002  0.698902  1
  F  F23  1  0.302940  0.393998  0.698902  1
  F  F24  1  0.290366  0.199286  0.707987  1
  F  F25  1  0.196198  0.897260  0.196135  1
  F  F26  1  0.202051  0.500000  0.198511  1
  F  F27  1  0.200345  0.691613  0.217086  1
  F  F28  1  0.196198  0.102740  0.196135  1
  F  F29  1  0.200345  0.308387  0.217086  1
