# generated using pymatgen
data_Li2Cr3SnO8
_symmetry_space_group_name_H-M   'P 1'
_cell_length_a   5.95572340
_cell_length_b   5.95572340
_cell_length_c   9.68989512
_cell_angle_alpha   90.00000000
_cell_angle_beta   90.00000000
_cell_angle_gamma   120.00000000
_symmetry_Int_Tables_number   1
_chemical_formula_structural   Li2Cr3SnO8
_chemical_formula_sum   'Li4 Cr6 Sn2 O16'
_cell_volume   297.65881400
_cell_formula_units_Z   2
loop_
 _symmetry_equiv_pos_site_id
 _symmetry_equiv_pos_as_xyz
  1  'x, y, z'
loop_
 _atom_site_type_symbol
 _atom_site_label
 _atom_site_symmetry_multiplicity
 _atom_site_fract_x
 _atom_site_fract_y
 _atom_site_fract_z
 _atom_site_occupancy
  Li  Li0  1  0.333333  0.666667  0.891668  1
  Li  Li1  1  0.000000  0.000000  0.993727  1
  Li  Li2  1  0.000000  0.000000  0.493727  1
  Li  Li3  1  0.666667  0.333333  0.391668  1
  Cr  Cr4  1  0.170798  0.829202  0.216353  1
  Cr  Cr5  1  0.170798  0.341596  0.216353  1
  Cr  Cr6  1  0.658404  0.829202  0.216353  1
  Cr  Cr7  1  0.341596  0.170798  0.716353  1
  Cr  Cr8  1  0.829202  0.658404  0.716353  1
  Cr  Cr9  1  0.829202  0.170798  0.716353  1
  Sn  Sn10  1  0.333333  0.666667  0.494158  1
  Sn  Sn11  1  0.666667  0.333333  0.994158  1
  O  O12  1  0.159690  0.840310  0.600752  1
  O  O13  1  0.033970  0.516985  0.337898  1
  O  O14  1  0.333333  0.666667  0.107272  1
  O  O15  1  0.000000  0.000000  0.302563  1
  O  O16  1  0.000000  0.000000  0.802563  1
  O  O17  1  0.159690  0.319380  0.600752  1
  O  O18  1  0.483015  0.966030  0.337898  1
  O  O19  1  0.483015  0.516985  0.337898  1
  O  O20  1  0.319380  0.159690  0.100752  1
  O  O21  1  0.680620  0.840310  0.600752  1
  O  O22  1  0.516985  0.483015  0.837898  1
  O  O23  1  0.516985  0.033970  0.837898  1
  O  O24  1  0.666667  0.333333  0.607272  1
  O  O25  1  0.840310  0.680620  0.100752  1
  O  O26  1  0.966030  0.483015  0.837898  1
  O  O27  1  0.840310  0.159690  0.100752  1
