# generated using pymatgen
data_NaFe9Si6B3H2O31
_symmetry_space_group_name_H-M   'P 1'
_cell_length_a   9.79767274
_cell_length_b   9.79767274
_cell_length_c   7.60828046
_cell_angle_alpha   74.86883126
_cell_angle_beta   105.13116874
_cell_angle_gamma   66.68723928
_symmetry_Int_Tables_number   1
_chemical_formula_structural   NaFe9Si6B3H2O31
_chemical_formula_sum   'Na1 Fe9 Si6 B3 H2 O31'
_cell_volume   590.26690420
_cell_formula_units_Z   1
loop_
 _symmetry_equiv_pos_site_id
 _symmetry_equiv_pos_as_xyz
  1  'x, y, z'
loop_
 _atom_site_type_symbol
 _atom_site_label
 _atom_site_symmetry_multiplicity
 _atom_site_fract_x
 _atom_site_fract_y
 _atom_site_fract_z
 _atom_site_occupancy
  Na  Na0  1  0.003580  0.996420  0.237449  1
  Fe  Fe1  1  0.551424  0.661636  0.904683  1
  Fe  Fe2  1  0.226225  0.332876  0.578895  1
  Fe  Fe3  1  0.996843  0.178167  0.586643  1
  Fe  Fe4  1  0.189843  0.810157  0.766778  1
  Fe  Fe5  1  0.772121  0.561525  0.348573  1
  Fe  Fe6  1  0.338364  0.448576  0.904683  1
  Fe  Fe7  1  0.821833  0.003157  0.586643  1
  Fe  Fe8  1  0.667124  0.773775  0.578895  1
  Fe  Fe9  1  0.438475  0.227879  0.348573  1
  Si  Si10  1  0.623647  0.186007  0.812526  1
  Si  Si11  1  0.808602  0.812994  0.999190  1
  Si  Si12  1  0.374710  0.811782  0.188615  1
  Si  Si13  1  0.187006  0.191398  0.999190  1
  Si  Si14  1  0.813993  0.376353  0.812526  1
  Si  Si15  1  0.188218  0.625290  0.188615  1
  B  B16  1  0.328080  0.999198  0.565316  1
  B  B17  1  0.673585  0.326415  0.238292  1
  B  B18  1  0.000802  0.671920  0.565316  1
  H  H19  1  0.999528  0.369527  0.265411  1
  H  H20  1  0.630473  0.000472  0.265411  1
  O  O21  1  0.727164  0.999528  0.994561  1
  O  O22  1  0.279329  0.437770  0.355444  1
  O  O23  1  0.719067  0.561661  0.794830  1
  O  O24  1  0.474999  0.856275  0.646745  1
  O  O25  1  0.326107  0.146281  0.499807  1
  O  O26  1  0.725243  0.274757  0.886563  1
  O  O27  1  0.998629  0.724055  0.163556  1
  O  O28  1  0.377072  0.804142  0.977701  1
  O  O29  1  0.177513  0.202079  0.778628  1
  O  O30  1  0.384704  0.615296  0.781115  1
  O  O31  1  0.000078  0.385395  0.387138  1
  O  O32  1  0.184843  0.997569  0.551957  1
  O  O33  1  0.717892  0.717780  0.076615  1
  O  O34  1  0.438339  0.280933  0.794830  1
  O  O35  1  0.195858  0.622928  0.977701  1
  O  O36  1  0.823747  0.377827  0.601235  1
  O  O37  1  0.012055  0.987945  0.785287  1
  O  O38  1  0.143725  0.525001  0.646745  1
  O  O39  1  0.672594  0.472474  0.175272  1
  O  O40  1  0.002431  0.815157  0.551957  1
  O  O41  1  0.817526  0.182474  0.363400  1
  O  O42  1  0.527526  0.327406  0.175272  1
  O  O43  1  0.853719  0.673893  0.499807  1
  O  O44  1  0.622173  0.176253  0.601235  1
  O  O45  1  0.797921  0.822487  0.778628  1
  O  O46  1  0.614605  0.999922  0.387138  1
  O  O47  1  0.000472  0.272836  0.994561  1
  O  O48  1  0.269797  0.730203  0.262532  1
  O  O49  1  0.562230  0.720671  0.355444  1
  O  O50  1  0.282220  0.282108  0.076615  1
  O  O51  1  0.275945  0.001371  0.163556  1
