# generated using pymatgen
data_LuBiO3
_symmetry_space_group_name_H-M   'P 1'
_cell_length_a   6.10855861
_cell_length_b   6.10855861
_cell_length_c   6.10855861
_cell_angle_alpha   57.68142533
_cell_angle_beta   57.68142533
_cell_angle_gamma   57.68142533
_symmetry_Int_Tables_number   1
_chemical_formula_structural   LuBiO3
_chemical_formula_sum   'Lu2 Bi2 O6'
_cell_volume   152.58955025
_cell_formula_units_Z   2
loop_
 _symmetry_equiv_pos_site_id
 _symmetry_equiv_pos_as_xyz
  1  'x, y, z'
loop_
 _atom_site_type_symbol
 _atom_site_label
 _atom_site_symmetry_multiplicity
 _atom_site_fract_x
 _atom_site_fract_y
 _atom_site_fract_z
 _atom_site_occupancy
  Lu  Lu0  1  0.145171  0.145171  0.145171  1
  Lu  Lu1  1  0.854829  0.854829  0.854829  1
  Bi  Bi2  1  0.358776  0.358776  0.358776  1
  Bi  Bi3  1  0.641224  0.641224  0.641224  1
  O  O4  1  0.783741  0.019354  0.453196  1
  O  O5  1  0.019354  0.453196  0.783741  1
  O  O6  1  0.453196  0.783741  0.019354  1
  O  O7  1  0.546804  0.216259  0.980646  1
  O  O8  1  0.980646  0.546804  0.216259  1
  O  O9  1  0.216259  0.980646  0.546804  1
