# generated using pymatgen
data_Li2VF6
_symmetry_space_group_name_H-M   'P 1'
_cell_length_a   8.56498334
_cell_length_b   8.70751178
_cell_length_c   10.21038690
_cell_angle_alpha   86.23158446
_cell_angle_beta   85.60554758
_cell_angle_gamma   61.78229022
_symmetry_Int_Tables_number   1
_chemical_formula_structural   Li2VF6
_chemical_formula_sum   'Li12 V6 F36'
_cell_volume   668.64061614
_cell_formula_units_Z   6
loop_
 _symmetry_equiv_pos_site_id
 _symmetry_equiv_pos_as_xyz
  1  'x, y, z'
loop_
 _atom_site_type_symbol
 _atom_site_label
 _atom_site_symmetry_multiplicity
 _atom_site_fract_x
 _atom_site_fract_y
 _atom_site_fract_z
 _atom_site_occupancy
  Li  Li0  1  0.301780  0.991124  0.724529  1
  Li  Li1  1  0.947103  0.653932  0.433473  1
  Li  Li2  1  0.891828  0.450249  0.957158  1
  Li  Li3  1  0.358779  0.670184  0.967878  1
  Li  Li4  1  0.197502  0.799201  0.255906  1
  Li  Li5  1  0.006840  0.715545  0.776192  1
  Li  Li6  1  0.665045  0.377867  0.467213  1
  Li  Li7  1  0.635140  0.323363  0.031055  1
  Li  Li8  1  0.543378  0.104447  0.546178  1
  Li  Li9  1  0.056743  0.343383  0.566346  1
  Li  Li10  1  0.699552  0.005413  0.268501  1
  Li  Li11  1  0.355230  0.049692  0.064946  1
  V  V12  1  0.000839  0.001297  0.502024  1
  V  V13  1  0.664678  0.662939  0.709427  1
  V  V14  1  0.990577  0.006746  0.993751  1
  V  V15  1  0.661695  0.666131  0.207296  1
  V  V16  1  0.338303  0.335287  0.794763  1
  V  V17  1  0.334585  0.339438  0.291032  1
  F  F18  1  0.928417  0.918315  0.652385  1
  F  F19  1  0.933677  0.933176  0.157485  1
  F  F20  1  0.571543  0.890945  0.628476  1
  F  F21  1  0.578977  0.891041  0.121411  1
  F  F22  1  0.774230  0.729381  0.826851  1
  F  F23  1  0.750959  0.763025  0.328800  1
  F  F24  1  0.214677  0.938378  0.576761  1
  F  F25  1  0.890866  0.582587  0.605311  1
  F  F26  1  0.443884  0.755565  0.809192  1
  F  F27  1  0.230638  0.909388  0.065692  1
  F  F28  1  0.869977  0.585693  0.108320  1
  F  F29  1  0.441428  0.745106  0.290242  1
  F  F30  1  0.593139  0.577653  0.583084  1
  F  F31  1  0.084324  0.779290  0.925894  1
  F  F32  1  0.752602  0.452659  0.811023  1
  F  F33  1  0.583705  0.571565  0.071588  1
  F  F34  1  0.076686  0.777369  0.426427  1
  F  F35  1  0.738869  0.459983  0.310835  1
  F  F36  1  0.241718  0.548820  0.702014  1
  F  F37  1  0.910343  0.236840  0.551953  1
  F  F38  1  0.422723  0.424388  0.922526  1
  F  F39  1  0.256367  0.560541  0.206024  1
  F  F40  1  0.907093  0.238812  0.049696  1
  F  F41  1  0.434946  0.401918  0.418487  1
  F  F42  1  0.543680  0.255789  0.689085  1
  F  F43  1  0.111598  0.421187  0.879147  1
  F  F44  1  0.763077  0.085364  0.944600  1
  F  F45  1  0.558997  0.243822  0.191461  1
  F  F46  1  0.117074  0.419916  0.397070  1
  F  F47  1  0.761180  0.081600  0.439306  1
  F  F48  1  0.261630  0.230926  0.664334  1
  F  F49  1  0.250138  0.256686  0.169994  1
  F  F50  1  0.395656  0.127617  0.892543  1
  F  F51  1  0.431751  0.118114  0.383895  1
  F  F52  1  0.085491  0.067538  0.845244  1
  F  F53  1  0.076078  0.052855  0.342810  1
