# generated using pymatgen
data_Li8Mn7Fe(BO3)8
_symmetry_space_group_name_H-M   'P 1'
_cell_length_a   5.24491546
_cell_length_b   5.25063158
_cell_length_c   21.00507919
_cell_angle_alpha   91.04202581
_cell_angle_beta   90.95477927
_cell_angle_gamma   119.80226349
_symmetry_Int_Tables_number   1
_chemical_formula_structural   Li8Mn7Fe(BO3)8
_chemical_formula_sum   'Li8 Mn7 Fe1 B8 O24'
_cell_volume   501.65415952
_cell_formula_units_Z   1
loop_
 _symmetry_equiv_pos_site_id
 _symmetry_equiv_pos_as_xyz
  1  'x, y, z'
loop_
 _atom_site_type_symbol
 _atom_site_label
 _atom_site_symmetry_multiplicity
 _atom_site_fract_x
 _atom_site_fract_y
 _atom_site_fract_z
 _atom_site_occupancy
  Li  Li0  1  0.348353  0.321972  0.665911  1
  Li  Li1  1  0.320911  0.348693  0.915890  1
  Li  Li2  1  0.349106  0.321016  0.166076  1
  Li  Li3  1  0.321115  0.349125  0.416093  1
  Li  Li4  1  0.661763  0.653112  0.791543  1
  Li  Li5  1  0.650847  0.661966  0.541334  1
  Li  Li6  1  0.661809  0.651469  0.291162  1
  Li  Li7  1  0.651376  0.661804  0.041172  1
  Mn  Mn8  1  0.993292  0.326177  0.559138  1
  Mn  Mn9  1  0.996264  0.329426  0.058453  1
  Mn  Mn10  1  0.997489  0.676838  0.933366  1
  Mn  Mn11  1  0.997564  0.676663  0.433709  1
  Mn  Mn12  1  0.677035  0.997260  0.183475  1
  Mn  Mn13  1  0.330586  0.995821  0.807560  1
  Mn  Mn14  1  0.329030  0.996211  0.308477  1
  Fe  Fe15  1  0.681833  0.994468  0.683802  1
  B  B16  1  0.658397  0.002830  0.937007  1
  B  B17  1  0.658524  0.002907  0.437122  1
  B  B18  1  0.996274  0.334308  0.811436  1
  B  B19  1  0.995625  0.334421  0.312097  1
  B  B20  1  0.003649  0.661409  0.686852  1
  B  B21  1  0.002591  0.658521  0.187100  1
  B  B22  1  0.333749  0.994179  0.562906  1
  B  B23  1  0.334394  0.995428  0.062085  1
  O  O24  1  0.753518  0.070656  0.790287  1
  O  O25  1  0.752670  0.069980  0.290975  1
  O  O26  1  0.929963  0.253686  0.952094  1
  O  O27  1  0.420796  0.033133  0.916284  1
  O  O28  1  0.929895  0.253529  0.452267  1
  O  O29  1  0.420764  0.033283  0.416443  1
  O  O30  1  0.963136  0.577906  0.826795  1
  O  O31  1  0.357688  0.267971  0.569862  1
  O  O32  1  0.962174  0.577751  0.327361  1
  O  O33  1  0.358862  0.269061  0.069418  1
  O  O34  1  0.269554  0.358095  0.819064  1
  O  O35  1  0.269174  0.358829  0.319467  1
  O  O36  1  0.730301  0.640652  0.693732  1
  O  O37  1  0.727753  0.629148  0.194357  1
  O  O38  1  0.629291  0.727976  0.944223  1
  O  O39  1  0.021923  0.414819  0.667975  1
  O  O40  1  0.629202  0.728038  0.444467  1
  O  O41  1  0.033500  0.420972  0.166433  1
  O  O42  1  0.577217  0.961811  0.578379  1
  O  O43  1  0.577887  0.962336  0.077356  1
  O  O44  1  0.069882  0.751226  0.541452  1
  O  O45  1  0.069918  0.752597  0.040954  1
  O  O46  1  0.258666  0.929291  0.700658  1
  O  O47  1  0.253494  0.930025  0.202134  1
