# generated using pymatgen
data_LiV(OF)2
_symmetry_space_group_name_H-M   'P 1'
_cell_length_a   5.29834262
_cell_length_b   5.50543821
_cell_length_c   5.36666633
_cell_angle_alpha   90.00000000
_cell_angle_beta   118.06134834
_cell_angle_gamma   90.00000000
_symmetry_Int_Tables_number   1
_chemical_formula_structural   LiV(OF)2
_chemical_formula_sum   'Li2 V2 O4 F4'
_cell_volume   138.14140900
_cell_formula_units_Z   2
loop_
 _symmetry_equiv_pos_site_id
 _symmetry_equiv_pos_as_xyz
  1  'x, y, z'
loop_
 _atom_site_type_symbol
 _atom_site_label
 _atom_site_symmetry_multiplicity
 _atom_site_fract_x
 _atom_site_fract_y
 _atom_site_fract_z
 _atom_site_occupancy
  Li  Li0  1  0.250000  0.594578  0.000000  1
  Li  Li1  1  0.750000  0.405422  0.000000  1
  V  V2  1  0.250000  0.901375  0.500000  1
  V  V3  1  0.750000  0.098625  0.500000  1
  O  O4  1  0.026762  0.889686  0.700390  1
  O  O5  1  0.473238  0.889686  0.299610  1
  O  O6  1  0.526762  0.110314  0.700390  1
  O  O7  1  0.973238  0.110314  0.299610  1
  F  F8  1  0.054534  0.641498  0.236663  1
  F  F9  1  0.554534  0.358502  0.236663  1
  F  F10  1  0.445466  0.641498  0.763337  1
  F  F11  1  0.945466  0.358502  0.763337  1
