# generated using pymatgen
data_MgH12(I4O3)2
_symmetry_space_group_name_H-M   'P 1'
_cell_length_a   7.73119464
_cell_length_b   9.12699403
_cell_length_c   9.68412117
_cell_angle_alpha   63.85599870
_cell_angle_beta   67.62713849
_cell_angle_gamma   77.02842813
_symmetry_Int_Tables_number   1
_chemical_formula_structural   MgH12(I4O3)2
_chemical_formula_sum   'Mg1 H12 I8 O6'
_cell_volume   565.92220859
_cell_formula_units_Z   1
loop_
 _symmetry_equiv_pos_site_id
 _symmetry_equiv_pos_as_xyz
  1  'x, y, z'
loop_
 _atom_site_type_symbol
 _atom_site_label
 _atom_site_symmetry_multiplicity
 _atom_site_fract_x
 _atom_site_fract_y
 _atom_site_fract_z
 _atom_site_occupancy
  Mg  Mg0  1  0.000000  0.000000  0.000000  1
  H  H1  1  0.902720  0.691744  0.230520  1
  H  H2  1  0.097280  0.308256  0.769480  1
  H  H3  1  0.789125  0.812729  0.315770  1
  H  H4  1  0.210875  0.187271  0.684230  1
  H  H5  1  0.142695  0.766258  0.868814  1
  H  H6  1  0.857305  0.233742  0.131186  1
  H  H7  1  0.288619  0.766836  0.947466  1
  H  H8  1  0.711381  0.233164  0.052534  1
  H  H9  1  0.283778  0.100948  0.039754  1
  H  H10  1  0.716222  0.899052  0.960246  1
  H  H11  1  0.203531  0.949084  0.203360  1
  H  H12  1  0.796469  0.050916  0.796640  1
  I  I13  1  0.033930  0.356867  0.260401  1
  I  I14  1  0.966070  0.643133  0.739599  1
  I  I15  1  0.739290  0.364261  0.568675  1
  I  I16  1  0.260710  0.635739  0.431325  1
  I  I17  1  0.465012  0.378060  0.871316  1
  I  I18  1  0.534988  0.621940  0.128684  1
  I  I19  1  0.636957  0.894052  0.570183  1
  I  I20  1  0.363043  0.105948  0.429817  1
  O  O21  1  0.870241  0.807404  0.211256  1
  O  O22  1  0.129759  0.192596  0.788744  1
  O  O23  1  0.175517  0.823902  0.919359  1
  O  O24  1  0.824483  0.176098  0.080641  1
  O  O25  1  0.191729  0.017117  0.095955  1
  O  O26  1  0.808271  0.982883  0.904045  1
