# generated using pymatgen
data_Li3Mn4O8
_symmetry_space_group_name_H-M   'P 1'
_cell_length_a   6.02546187
_cell_length_b   6.02546187
_cell_length_c   5.93518283
_cell_angle_alpha   61.54934347
_cell_angle_beta   118.45065653
_cell_angle_gamma   122.85113779
_symmetry_Int_Tables_number   1
_chemical_formula_structural   Li3Mn4O8
_chemical_formula_sum   'Li3 Mn4 O8'
_cell_volume   152.07315561
_cell_formula_units_Z   1
loop_
 _symmetry_equiv_pos_site_id
 _symmetry_equiv_pos_as_xyz
  1  'x, y, z'
loop_
 _atom_site_type_symbol
 _atom_site_label
 _atom_site_symmetry_multiplicity
 _atom_site_fract_x
 _atom_site_fract_y
 _atom_site_fract_z
 _atom_site_occupancy
  Li  Li0  1  0.000000  0.000000  0.000000  1
  Li  Li1  1  0.500000  0.000000  0.500000  1
  Li  Li2  1  0.000000  0.500000  0.500000  1
  Mn  Mn3  1  0.000000  0.000000  0.500000  1
  Mn  Mn4  1  0.500000  0.000000  0.000000  1
  Mn  Mn5  1  0.500000  0.500000  0.500000  1
  Mn  Mn6  1  0.000000  0.500000  0.000000  1
  O  O7  1  0.778479  0.221521  0.258893  1
  O  O8  1  0.252048  0.239636  0.286387  1
  O  O9  1  0.239636  0.252048  0.713613  1
  O  O10  1  0.243773  0.756227  0.213277  1
  O  O11  1  0.756227  0.243773  0.786723  1
  O  O12  1  0.760364  0.747952  0.286387  1
  O  O13  1  0.747952  0.760364  0.713613  1
  O  O14  1  0.221521  0.778479  0.741107  1
