# generated using pymatgen
data_Li6MnFe5(BO3)6
_symmetry_space_group_name_H-M   'P 1'
_cell_length_a   8.25536008
_cell_length_b   12.54398251
_cell_length_c   8.25559531
_cell_angle_alpha   90.00000000
_cell_angle_beta   119.96257627
_cell_angle_gamma   90.00000000
_symmetry_Int_Tables_number   1
_chemical_formula_structural   Li6MnFe5(BO3)6
_chemical_formula_sum   'Li12 Mn2 Fe10 B12 O36'
_cell_volume   740.65189813
_cell_formula_units_Z   2
loop_
 _symmetry_equiv_pos_site_id
 _symmetry_equiv_pos_as_xyz
  1  'x, y, z'
loop_
 _atom_site_type_symbol
 _atom_site_label
 _atom_site_symmetry_multiplicity
 _atom_site_fract_x
 _atom_site_fract_y
 _atom_site_fract_z
 _atom_site_occupancy
  Li  Li0  1  0.983595  0.125966  0.698529  1
  Li  Li1  1  0.983595  0.874034  0.698529  1
  Li  Li2  1  0.983410  0.624863  0.697953  1
  Li  Li3  1  0.983410  0.375137  0.697953  1
  Li  Li4  1  0.301318  0.125432  0.284588  1
  Li  Li5  1  0.302162  0.375152  0.285689  1
  Li  Li6  1  0.302162  0.624848  0.285689  1
  Li  Li7  1  0.301318  0.874568  0.284588  1
  Li  Li8  1  0.714567  0.375006  0.016153  1
  Li  Li9  1  0.714567  0.624994  0.016153  1
  Li  Li10  1  0.714148  0.125576  0.015741  1
  Li  Li11  1  0.714148  0.874424  0.015741  1
  Mn  Mn12  1  0.359447  0.000000  0.987850  1
  Mn  Mn13  1  0.011972  0.000000  0.371145  1
  Fe  Fe14  1  0.360249  0.500000  0.992294  1
  Fe  Fe15  1  0.360798  0.251433  0.992406  1
  Fe  Fe16  1  0.360798  0.748567  0.992406  1
  Fe  Fe17  1  0.007710  0.500000  0.367500  1
  Fe  Fe18  1  0.007792  0.251363  0.368352  1
  Fe  Fe19  1  0.007792  0.748637  0.368352  1
  Fe  Fe20  1  0.632581  0.500000  0.640382  1
  Fe  Fe21  1  0.634486  0.000000  0.641830  1
  Fe  Fe22  1  0.632328  0.249758  0.640217  1
  Fe  Fe23  1  0.632328  0.750242  0.640217  1
  B  B24  1  0.997807  0.000000  0.999410  1
  B  B25  1  0.999930  0.250504  0.999874  1
  B  B26  1  0.000155  0.500000  0.000030  1
  B  B27  1  0.999930  0.749496  0.999874  1
  B  B28  1  0.666631  0.872255  0.334544  1
  B  B29  1  0.666631  0.127745  0.334544  1
  B  B30  1  0.666585  0.375829  0.333528  1
  B  B31  1  0.666585  0.624171  0.333528  1
  B  B32  1  0.334030  0.126771  0.666021  1
  B  B33  1  0.333467  0.375195  0.666799  1
  B  B34  1  0.333467  0.624805  0.666799  1
  B  B35  1  0.334030  0.873229  0.666021  1
  O  O36  1  0.914821  0.250598  0.805592  1
  O  O37  1  0.917669  0.000000  0.804707  1
  O  O38  1  0.915070  0.500000  0.805551  1
  O  O39  1  0.914821  0.749402  0.805592  1
  O  O40  1  0.580249  0.874860  0.442354  1
  O  O41  1  0.580249  0.125140  0.442354  1
  O  O42  1  0.580810  0.375086  0.442035  1
  O  O43  1  0.580810  0.624914  0.442035  1
  O  O44  1  0.191457  0.000000  0.113363  1
  O  O45  1  0.194349  0.500000  0.109191  1
  O  O46  1  0.194310  0.749118  0.109080  1
  O  O47  1  0.194310  0.250882  0.109080  1
  O  O48  1  0.860642  0.871683  0.420521  1
  O  O49  1  0.860820  0.623884  0.419230  1
  O  O50  1  0.860642  0.128317  0.420521  1
  O  O51  1  0.860820  0.376116  0.419230  1
  O  O52  1  0.558907  0.871919  0.140399  1
  O  O53  1  0.558907  0.128081  0.140399  1
  O  O54  1  0.558480  0.623975  0.139187  1
  O  O55  1  0.558480  0.376025  0.139187  1
  O  O56  1  0.253393  0.127215  0.779626  1
  O  O57  1  0.254606  0.624589  0.782048  1
  O  O58  1  0.254606  0.375411  0.782048  1
  O  O59  1  0.253393  0.872785  0.779626  1
  O  O60  1  0.882854  0.000000  0.077899  1
  O  O61  1  0.890674  0.250715  0.085084  1
  O  O62  1  0.890760  0.500000  0.084895  1
  O  O63  1  0.890674  0.749285  0.085084  1
  O  O64  1  0.527705  0.124931  0.745968  1
  O  O65  1  0.527203  0.374746  0.745318  1
  O  O66  1  0.527203  0.625254  0.745318  1
  O  O67  1  0.527705  0.875069  0.745968  1
  O  O68  1  0.218192  0.375521  0.472882  1
  O  O69  1  0.220145  0.127107  0.472259  1
  O  O70  1  0.218192  0.624479  0.472882  1
  O  O71  1  0.220145  0.872893  0.472259  1
