# generated using pymatgen
data_Li4Mn3Cr3(NiO8)2
_symmetry_space_group_name_H-M   'P 1'
_cell_length_a   5.81344651
_cell_length_b   5.81344651
_cell_length_c   9.61678703
_cell_angle_alpha   89.74629778
_cell_angle_beta   90.25370222
_cell_angle_gamma   120.04256299
_symmetry_Int_Tables_number   1
_chemical_formula_structural   Li4Mn3Cr3(NiO8)2
_chemical_formula_sum   'Li4 Mn3 Cr3 Ni2 O16'
_cell_volume   281.34285634
_cell_formula_units_Z   1
loop_
 _symmetry_equiv_pos_site_id
 _symmetry_equiv_pos_as_xyz
  1  'x, y, z'
loop_
 _atom_site_type_symbol
 _atom_site_label
 _atom_site_symmetry_multiplicity
 _atom_site_fract_x
 _atom_site_fract_y
 _atom_site_fract_z
 _atom_site_occupancy
  Li  Li0  1  0.331698  0.668302  0.108934  1
  Li  Li1  1  0.001149  0.998851  0.001440  1
  Li  Li2  1  0.000878  0.999122  0.502349  1
  Li  Li3  1  0.664846  0.335154  0.608288  1
  Mn  Mn4  1  0.171340  0.828660  0.783108  1
  Mn  Mn5  1  0.339556  0.167696  0.284656  1
  Mn  Mn6  1  0.832304  0.660444  0.284656  1
  Cr  Cr7  1  0.169997  0.334834  0.786575  1
  Cr  Cr8  1  0.665166  0.830003  0.786575  1
  Cr  Cr9  1  0.833521  0.166479  0.288801  1
  Ni  Ni10  1  0.332863  0.667137  0.509283  1
  Ni  Ni11  1  0.667357  0.332643  0.012799  1
  O  O12  1  0.155863  0.318250  0.390857  1
  O  O13  1  0.479650  0.520350  0.670530  1
  O  O14  1  0.330017  0.669983  0.895431  1
  O  O15  1  0.004188  0.995812  0.685989  1
  O  O16  1  0.003964  0.996036  0.186712  1
  O  O17  1  0.681750  0.844137  0.390857  1
  O  O18  1  0.035636  0.516721  0.670464  1
  O  O19  1  0.483279  0.964364  0.670464  1
  O  O20  1  0.839849  0.160151  0.888857  1
  O  O21  1  0.157468  0.842532  0.394594  1
  O  O22  1  0.519322  0.036607  0.171865  1
  O  O23  1  0.963393  0.480678  0.171865  1
  O  O24  1  0.663119  0.336881  0.393858  1
  O  O25  1  0.318723  0.162816  0.891097  1
  O  O26  1  0.517309  0.482691  0.170189  1
  O  O27  1  0.837184  0.681277  0.891097  1
