# generated using pymatgen
data_Dy2TeO6
_symmetry_space_group_name_H-M   'P 1'
_cell_length_a   4.99913560
_cell_length_b   4.99913560
_cell_length_c   10.10404781
_cell_angle_alpha   90.00000000
_cell_angle_beta   90.00000000
_cell_angle_gamma   90.00000000
_symmetry_Int_Tables_number   1
_chemical_formula_structural   Dy2TeO6
_chemical_formula_sum   'Dy4 Te2 O12'
_cell_volume   252.51386291
_cell_formula_units_Z   2
loop_
 _symmetry_equiv_pos_site_id
 _symmetry_equiv_pos_as_xyz
  1  'x, y, z'
loop_
 _atom_site_type_symbol
 _atom_site_label
 _atom_site_symmetry_multiplicity
 _atom_site_fract_x
 _atom_site_fract_y
 _atom_site_fract_z
 _atom_site_occupancy
  Dy  Dy0  1  0.500000  0.500000  0.334569  1
  Dy  Dy1  1  0.500000  0.500000  0.665431  1
  Dy  Dy2  1  0.000000  0.000000  0.165431  1
  Dy  Dy3  1  0.000000  0.000000  0.834569  1
  Te  Te4  1  0.500000  0.500000  0.000000  1
  Te  Te5  1  0.000000  0.000000  0.500000  1
  O  O6  1  0.683001  0.683001  0.145721  1
  O  O7  1  0.683001  0.683001  0.854279  1
  O  O8  1  0.722239  0.722239  0.500000  1
  O  O9  1  0.777761  0.222239  0.000000  1
  O  O10  1  0.816999  0.183001  0.354279  1
  O  O11  1  0.816999  0.183001  0.645721  1
  O  O12  1  0.183001  0.816999  0.354279  1
  O  O13  1  0.183001  0.816999  0.645721  1
  O  O14  1  0.222239  0.777761  0.000000  1
  O  O15  1  0.277761  0.277761  0.500000  1
  O  O16  1  0.316999  0.316999  0.145721  1
  O  O17  1  0.316999  0.316999  0.854279  1
