# generated using pymatgen
data_P5H5N6(Cl4O)2
_symmetry_space_group_name_H-M   'P 1'
_cell_length_a   7.99416871
_cell_length_b   11.30877515
_cell_length_c   11.77782245
_cell_angle_alpha   99.59469901
_cell_angle_beta   100.56222234
_cell_angle_gamma   100.69758455
_symmetry_Int_Tables_number   1
_chemical_formula_structural   P5H5N6(Cl4O)2
_chemical_formula_sum   'P10 H10 N12 Cl16 O4'
_cell_volume   1006.08723495
_cell_formula_units_Z   2
loop_
 _symmetry_equiv_pos_site_id
 _symmetry_equiv_pos_as_xyz
  1  'x, y, z'
loop_
 _atom_site_type_symbol
 _atom_site_label
 _atom_site_symmetry_multiplicity
 _atom_site_fract_x
 _atom_site_fract_y
 _atom_site_fract_z
 _atom_site_occupancy
  P  P0  1  0.954967  0.761035  0.658916  1
  P  P1  1  0.045033  0.238965  0.341084  1
  P  P2  1  0.247335  0.653498  0.772513  1
  P  P3  1  0.752665  0.346502  0.227487  1
  P  P4  1  0.070096  0.787235  0.909136  1
  P  P5  1  0.929904  0.212765  0.090864  1
  P  P6  1  0.315126  0.676712  0.364749  1
  P  P7  1  0.684874  0.323288  0.635251  1
  P  P8  1  0.611845  0.840653  0.312988  1
  P  P9  1  0.388155  0.159347  0.687012  1
  H  H10  1  0.159754  0.663144  0.578753  1
  H  H11  1  0.840246  0.336856  0.421247  1
  H  H12  1  0.051940  0.964691  0.644745  1
  H  H13  1  0.948060  0.035309  0.355255  1
  H  H14  1  0.940213  0.870018  0.510345  1
  H  H15  1  0.059787  0.129982  0.489655  1
  H  H16  1  0.772573  0.570064  0.560533  1
  H  H17  1  0.227427  0.429936  0.439467  1
  H  H18  1  0.699285  0.694723  0.515615  1
  H  H19  1  0.300715  0.305277  0.484385  1
  N  N20  1  0.125142  0.687227  0.659340  1
  N  N21  1  0.874858  0.312773  0.340660  1
  N  N22  1  0.200893  0.696858  0.894261  1
  N  N23  1  0.799107  0.303142  0.105739  1
  N  N24  1  0.945978  0.801746  0.794077  1
  N  N25  1  0.054022  0.198254  0.205923  1
  N  N26  1  0.976606  0.880018  0.600256  1
  N  N27  1  0.023394  0.119982  0.399744  1
  N  N28  1  0.792886  0.663447  0.566676  1
  N  N29  1  0.207114  0.336553  0.433324  1
  N  N30  1  0.511421  0.748233  0.379676  1
  N  N31  1  0.488579  0.251767  0.620324  1
  Cl  Cl32  1  0.232675  0.472060  0.739768  1
  Cl  Cl33  1  0.767325  0.527940  0.260232  1
  Cl  Cl34  1  0.498762  0.719828  0.773859  1
  Cl  Cl35  1  0.501238  0.280172  0.226141  1
  Cl  Cl36  1  0.926041  0.731837  0.020681  1
  Cl  Cl37  1  0.073959  0.268163  0.979319  1
  Cl  Cl38  1  0.212452  0.953144  0.001598  1
  Cl  Cl39  1  0.787548  0.046856  0.998402  1
  Cl  Cl40  1  0.149008  0.788917  0.334437  1
  Cl  Cl41  1  0.850992  0.211083  0.665563  1
  Cl  Cl42  1  0.243063  0.546661  0.211549  1
  Cl  Cl43  1  0.756937  0.453339  0.788451  1
  Cl  Cl44  1  0.534419  0.778580  0.135102  1
  Cl  Cl45  1  0.465581  0.221420  0.864898  1
  Cl  Cl46  1  0.530772  0.002153  0.334169  1
  Cl  Cl47  1  0.469228  0.997847  0.665831  1
  O  O48  1  0.276835  0.615103  0.463161  1
  O  O49  1  0.723165  0.384897  0.536839  1
  O  O50  1  0.805896  0.867713  0.348707  1
  O  O51  1  0.194104  0.132287  0.651293  1
