# generated using pymatgen
data_LiFeF3
_symmetry_space_group_name_H-M   'P 1'
_cell_length_a   5.74214300
_cell_length_b   9.24848728
_cell_length_c   10.06256706
_cell_angle_alpha   90.00000000
_cell_angle_beta   90.00000000
_cell_angle_gamma   90.00000000
_symmetry_Int_Tables_number   1
_chemical_formula_structural   LiFeF3
_chemical_formula_sum   'Li8 Fe8 F24'
_cell_volume   534.38405978
_cell_formula_units_Z   8
loop_
 _symmetry_equiv_pos_site_id
 _symmetry_equiv_pos_as_xyz
  1  'x, y, z'
loop_
 _atom_site_type_symbol
 _atom_site_label
 _atom_site_symmetry_multiplicity
 _atom_site_fract_x
 _atom_site_fract_y
 _atom_site_fract_z
 _atom_site_occupancy
  Li  Li0  1  0.940960  0.414670  0.203329  1
  Li  Li1  1  0.440960  0.585330  0.203329  1
  Li  Li2  1  0.440960  0.085330  0.296671  1
  Li  Li3  1  0.940960  0.914670  0.296671  1
  Li  Li4  1  0.559040  0.914670  0.703329  1
  Li  Li5  1  0.059040  0.085330  0.703329  1
  Li  Li6  1  0.059040  0.585330  0.796671  1
  Li  Li7  1  0.559040  0.414670  0.796671  1
  Fe  Fe8  1  0.750000  0.715922  0.000000  1
  Fe  Fe9  1  0.250000  0.911422  0.000000  1
  Fe  Fe10  1  0.750000  0.088578  0.000000  1
  Fe  Fe11  1  0.250000  0.284078  0.000000  1
  Fe  Fe12  1  0.250000  0.411422  0.500000  1
  Fe  Fe13  1  0.750000  0.215922  0.500000  1
  Fe  Fe14  1  0.250000  0.784078  0.500000  1
  Fe  Fe15  1  0.750000  0.588578  0.500000  1
  F  F16  1  0.907606  0.912180  0.102075  1
  F  F17  1  0.407606  0.087820  0.102075  1
  F  F18  1  0.431588  0.758401  0.100349  1
  F  F19  1  0.931588  0.241599  0.100349  1
  F  F20  1  0.256113  0.433817  0.147052  1
  F  F21  1  0.756113  0.566183  0.147052  1
  F  F22  1  0.756113  0.066183  0.352948  1
  F  F23  1  0.256113  0.933817  0.352948  1
  F  F24  1  0.931588  0.741599  0.399651  1
  F  F25  1  0.431588  0.258401  0.399651  1
  F  F26  1  0.907606  0.412180  0.397925  1
  F  F27  1  0.407606  0.587820  0.397925  1
  F  F28  1  0.092394  0.587820  0.602075  1
  F  F29  1  0.592394  0.412180  0.602075  1
  F  F30  1  0.568412  0.741599  0.600349  1
  F  F31  1  0.068412  0.258401  0.600349  1
  F  F32  1  0.743887  0.066183  0.647052  1
  F  F33  1  0.243887  0.933817  0.647052  1
  F  F34  1  0.743887  0.566183  0.852948  1
  F  F35  1  0.243887  0.433817  0.852948  1
  F  F36  1  0.068412  0.758401  0.899651  1
  F  F37  1  0.568412  0.241599  0.899651  1
  F  F38  1  0.592394  0.912180  0.897925  1
  F  F39  1  0.092394  0.087820  0.897925  1
