# generated using pymatgen
data_VO2
_symmetry_space_group_name_H-M   'P 1'
_cell_length_a   7.74858307
_cell_length_b   8.57163370
_cell_length_c   8.65068309
_cell_angle_alpha   90.00000000
_cell_angle_beta   90.00000000
_cell_angle_gamma   90.00000000
_symmetry_Int_Tables_number   1
_chemical_formula_structural   VO2
_chemical_formula_sum   'V16 O32'
_cell_volume   574.56120641
_cell_formula_units_Z   16
loop_
 _symmetry_equiv_pos_site_id
 _symmetry_equiv_pos_as_xyz
  1  'x, y, z'
loop_
 _atom_site_type_symbol
 _atom_site_label
 _atom_site_symmetry_multiplicity
 _atom_site_fract_x
 _atom_site_fract_y
 _atom_site_fract_z
 _atom_site_occupancy
  V  V0  1  0.750000  0.512571  0.049972  1
  V  V1  1  0.998430  0.298753  0.243197  1
  V  V2  1  0.498430  0.701247  0.243197  1
  V  V3  1  0.500000  0.000000  0.943033  1
  V  V4  1  0.001570  0.701247  0.243197  1
  V  V5  1  0.250000  0.487429  0.049972  1
  V  V6  1  0.000000  0.000000  0.943033  1
  V  V7  1  0.501570  0.298753  0.243197  1
  V  V8  1  0.750000  0.800830  0.740718  1
  V  V9  1  0.250000  0.786934  0.753085  1
  V  V10  1  0.750000  0.502704  0.442870  1
  V  V11  1  0.000000  0.000000  0.540617  1
  V  V12  1  0.250000  0.199170  0.740718  1
  V  V13  1  0.500000  0.000000  0.540617  1
  V  V14  1  0.750000  0.213066  0.753085  1
  V  V15  1  0.250000  0.497296  0.442870  1
  O  O16  1  0.500000  0.500000  0.400252  1
  O  O17  1  0.506177  0.151320  0.747740  1
  O  O18  1  0.750000  0.996209  0.596224  1
  O  O19  1  0.993823  0.151320  0.747740  1
  O  O20  1  0.250000  0.003791  0.596224  1
  O  O21  1  0.500000  0.500000  0.101915  1
  O  O22  1  0.250000  0.005639  0.893818  1
  O  O23  1  0.750000  0.652251  0.247387  1
  O  O24  1  0.006177  0.848680  0.747740  1
  O  O25  1  0.250000  0.347749  0.247387  1
  O  O26  1  0.750000  0.351041  0.250998  1
  O  O27  1  0.000000  0.500000  0.400252  1
  O  O28  1  0.000000  0.500000  0.101915  1
  O  O29  1  0.493823  0.848680  0.747740  1
  O  O30  1  0.250000  0.648959  0.250998  1
  O  O31  1  0.750000  0.994361  0.893818  1
  O  O32  1  0.750000  0.660360  0.598308  1
  O  O33  1  0.250000  0.344524  0.913618  1
  O  O34  1  0.750000  0.334445  0.910385  1
  O  O35  1  0.999384  0.155657  0.417932  1
  O  O36  1  0.250000  0.339640  0.598308  1
  O  O37  1  0.501140  0.161138  0.099831  1
  O  O38  1  0.001140  0.838862  0.099831  1
  O  O39  1  0.498860  0.838862  0.099831  1
  O  O40  1  0.250000  0.665555  0.910385  1
  O  O41  1  0.000616  0.844343  0.417932  1
  O  O42  1  0.750000  0.334167  0.599937  1
  O  O43  1  0.499384  0.844343  0.417932  1
  O  O44  1  0.500616  0.155657  0.417932  1
  O  O45  1  0.998860  0.161138  0.099831  1
  O  O46  1  0.750000  0.655476  0.913618  1
  O  O47  1  0.250000  0.665833  0.599937  1
