# generated using pymatgen
data_Sr5W3O14
_symmetry_space_group_name_H-M   'P 1'
_cell_length_a   7.68831996
_cell_length_b   7.68831996
_cell_length_c   11.07539212
_cell_angle_alpha   89.92166224
_cell_angle_beta   90.07833776
_cell_angle_gamma   90.41720785
_symmetry_Int_Tables_number   1
_chemical_formula_structural   Sr5W3O14
_chemical_formula_sum   'Sr10 W6 O28'
_cell_volume   654.65077963
_cell_formula_units_Z   2
loop_
 _symmetry_equiv_pos_site_id
 _symmetry_equiv_pos_as_xyz
  1  'x, y, z'
loop_
 _atom_site_type_symbol
 _atom_site_label
 _atom_site_symmetry_multiplicity
 _atom_site_fract_x
 _atom_site_fract_y
 _atom_site_fract_z
 _atom_site_occupancy
  Sr  Sr0  1  0.007259  0.499350  0.505476  1
  Sr  Sr1  1  0.500650  0.992741  0.005476  1
  Sr  Sr2  1  0.752452  0.251248  0.226012  1
  Sr  Sr3  1  0.748752  0.247548  0.726012  1
  Sr  Sr4  1  0.727699  0.746182  0.261148  1
  Sr  Sr5  1  0.253818  0.272301  0.761148  1
  Sr  Sr6  1  0.762494  0.763426  0.749906  1
  Sr  Sr7  1  0.236574  0.237506  0.249906  1
  Sr  Sr8  1  0.247350  0.745892  0.276189  1
  Sr  Sr9  1  0.254108  0.752650  0.776189  1
  W  W10  1  0.997025  0.503742  0.001256  1
  W  W11  1  0.496258  0.002975  0.501256  1
  W  W12  1  0.497427  0.499340  0.001415  1
  W  W13  1  0.500660  0.502573  0.501415  1
  W  W14  1  0.002723  0.003446  0.002584  1
  W  W15  1  0.996554  0.997277  0.502584  1
  O  O16  1  0.549747  0.039557  0.333752  1
  O  O17  1  0.960443  0.450253  0.833752  1
  O  O18  1  0.502994  0.750757  0.457031  1
  O  O19  1  0.249243  0.497006  0.957031  1
  O  O20  1  0.005167  0.251157  0.043928  1
  O  O21  1  0.748843  0.994833  0.543928  1
  O  O22  1  0.470859  0.670391  0.128307  1
  O  O23  1  0.329609  0.529141  0.628307  1
  O  O24  1  0.970548  0.165814  0.374661  1
  O  O25  1  0.834186  0.029452  0.874661  1
  O  O26  1  0.303248  0.470215  0.393143  1
  O  O27  1  0.529785  0.696752  0.893143  1
  O  O28  1  0.808010  0.970542  0.111875  1
  O  O29  1  0.029458  0.191990  0.611875  1
  O  O30  1  0.697089  0.524985  0.611125  1
  O  O31  1  0.475015  0.302911  0.111125  1
  O  O32  1  0.201173  0.025168  0.893465  1
  O  O33  1  0.974832  0.798827  0.393465  1
  O  O34  1  0.532070  0.329637  0.875531  1
  O  O35  1  0.670363  0.467930  0.375531  1
  O  O36  1  0.031662  0.823998  0.627519  1
  O  O37  1  0.176002  0.968338  0.127519  1
  O  O38  1  0.753277  0.504152  0.044119  1
  O  O39  1  0.495848  0.246723  0.544119  1
  O  O40  1  0.252417  0.002488  0.458416  1
  O  O41  1  0.997512  0.747583  0.958416  1
  O  O42  1  0.051417  0.536195  0.168252  1
  O  O43  1  0.463805  0.948583  0.668252  1
