# generated using pymatgen
data_Fe5O3F7
_symmetry_space_group_name_H-M   'P 1'
_cell_length_a   4.79750715
_cell_length_b   4.79750715
_cell_length_c   15.68223091
_cell_angle_alpha   89.69444144
_cell_angle_beta   90.30555856
_cell_angle_gamma   88.60828709
_symmetry_Int_Tables_number   1
_chemical_formula_structural   Fe5O3F7
_chemical_formula_sum   'Fe10 O6 F14'
_cell_volume   360.82640854
_cell_formula_units_Z   2
loop_
 _symmetry_equiv_pos_site_id
 _symmetry_equiv_pos_as_xyz
  1  'x, y, z'
loop_
 _atom_site_type_symbol
 _atom_site_label
 _atom_site_symmetry_multiplicity
 _atom_site_fract_x
 _atom_site_fract_y
 _atom_site_fract_z
 _atom_site_occupancy
  Fe  Fe0  1  0.020948  0.954002  0.193979  1
  Fe  Fe1  1  0.965741  0.034571  0.399207  1
  Fe  Fe2  1  0.034571  0.965741  0.600793  1
  Fe  Fe3  1  0.954002  0.020948  0.806021  1
  Fe  Fe4  1  0.971061  0.971061  0.000000  1
  Fe  Fe5  1  0.499406  0.493098  0.300793  1
  Fe  Fe6  1  0.493098  0.499406  0.699207  1
  Fe  Fe7  1  0.499019  0.499019  0.500000  1
  Fe  Fe8  1  0.526073  0.514144  0.895234  1
  Fe  Fe9  1  0.514144  0.526073  0.104766  1
  O  O10  1  0.810002  0.819837  0.900546  1
  O  O11  1  0.819837  0.810002  0.099454  1
  O  O12  1  0.667075  0.330374  0.400242  1
  O  O13  1  0.689662  0.310395  0.789640  1
  O  O14  1  0.310395  0.689662  0.210360  1
  O  O15  1  0.330374  0.667075  0.599758  1
  F  F16  1  0.801444  0.798441  0.296355  1
  F  F17  1  0.794443  0.794443  0.500000  1
  F  F18  1  0.798441  0.801444  0.703645  1
  F  F19  1  0.717106  0.283665  0.209209  1
  F  F20  1  0.711288  0.286532  0.598196  1
  F  F21  1  0.707057  0.302043  0.002603  1
  F  F22  1  0.286532  0.711288  0.401804  1
  F  F23  1  0.283665  0.717106  0.790791  1
  F  F24  1  0.302043  0.707057  0.997397  1
  F  F25  1  0.197101  0.195711  0.294980  1
  F  F26  1  0.195711  0.197101  0.705020  1
  F  F27  1  0.204723  0.204723  0.500000  1
  F  F28  1  0.204804  0.190233  0.098933  1
  F  F29  1  0.190233  0.204804  0.901067  1
