# generated using pymatgen
data_Na5Bi2As(CO4)4
_symmetry_space_group_name_H-M   'P 1'
_cell_length_a   10.52013927
_cell_length_b   10.49513747
_cell_length_c   10.40925526
_cell_angle_alpha   60.42886686
_cell_angle_beta   60.18976643
_cell_angle_gamma   59.38136672
_symmetry_Int_Tables_number   1
_chemical_formula_structural   Na5Bi2As(CO4)4
_chemical_formula_sum   'Na10 Bi4 As2 C8 O32'
_cell_volume   812.52165827
_cell_formula_units_Z   2
loop_
 _symmetry_equiv_pos_site_id
 _symmetry_equiv_pos_as_xyz
  1  'x, y, z'
loop_
 _atom_site_type_symbol
 _atom_site_label
 _atom_site_symmetry_multiplicity
 _atom_site_fract_x
 _atom_site_fract_y
 _atom_site_fract_z
 _atom_site_occupancy
  Na  Na0  1  0.553808  0.946192  0.553808  1
  Na  Na1  1  0.694943  0.305057  0.305057  1
  Na  Na2  1  0.305551  0.694449  0.305551  1
  Na  Na3  1  0.553621  0.553621  0.946379  1
  Na  Na4  1  0.946379  0.946379  0.553621  1
  Na  Na5  1  0.946458  0.553542  0.553542  1
  Na  Na6  1  0.305057  0.694943  0.694943  1
  Na  Na7  1  0.946192  0.553808  0.946192  1
  Na  Na8  1  0.553542  0.946458  0.946458  1
  Na  Na9  1  0.694449  0.305551  0.694449  1
  Bi  Bi10  1  0.130247  0.128977  0.116683  1
  Bi  Bi11  1  0.624093  0.116683  0.128977  1
  Bi  Bi12  1  0.116683  0.624093  0.130247  1
  Bi  Bi13  1  0.128977  0.130247  0.624093  1
  As  As14  1  0.750000  0.750000  0.750000  1
  As  As15  1  0.500000  0.500000  0.500000  1
  C  C16  1  0.342831  0.965074  0.344508  1
  C  C17  1  0.344508  0.347587  0.342831  1
  C  C18  1  0.347587  0.344508  0.965074  1
  C  C19  1  0.965074  0.342831  0.347587  1
  C  C20  1  0.906260  0.907403  0.291088  1
  C  C21  1  0.291088  0.895249  0.906260  1
  C  C22  1  0.895249  0.291088  0.907403  1
  C  C23  1  0.907403  0.906260  0.895249  1
  O  O24  1  0.920902  0.024291  0.289557  1
  O  O25  1  0.334896  0.961997  0.475325  1
  O  O26  1  0.475325  0.227782  0.334896  1
  O  O27  1  0.765250  0.289557  0.024291  1
  O  O28  1  0.222386  0.338855  0.466095  1
  O  O29  1  0.682715  0.682971  0.951759  1
  O  O30  1  0.951759  0.682556  0.682715  1
  O  O31  1  0.336419  0.477464  0.224808  1
  O  O32  1  0.224808  0.961309  0.336419  1
  O  O33  1  0.477464  0.336419  0.961309  1
  O  O34  1  0.961309  0.224808  0.477464  1
  O  O35  1  0.682556  0.951759  0.682971  1
  O  O36  1  0.682971  0.682715  0.682556  1
  O  O37  1  0.023813  0.774814  0.292724  1
  O  O38  1  0.292724  0.908648  0.023813  1
  O  O39  1  0.972664  0.466095  0.338855  1
  O  O40  1  0.289557  0.765250  0.920902  1
  O  O41  1  0.961997  0.334896  0.227782  1
  O  O42  1  0.227782  0.475325  0.961997  1
  O  O43  1  0.583964  0.297486  0.559172  1
  O  O44  1  0.559172  0.559378  0.583964  1
  O  O45  1  0.294295  0.009286  0.775444  1
  O  O46  1  0.775444  0.920975  0.294295  1
  O  O47  1  0.009286  0.294295  0.920975  1
  O  O48  1  0.920975  0.775444  0.009286  1
  O  O49  1  0.297486  0.583964  0.559378  1
  O  O50  1  0.559378  0.559172  0.297486  1
  O  O51  1  0.024291  0.920902  0.765250  1
  O  O52  1  0.466095  0.972664  0.222386  1
  O  O53  1  0.774814  0.023813  0.908648  1
  O  O54  1  0.908648  0.292724  0.774814  1
  O  O55  1  0.338855  0.222386  0.972664  1
