# generated using pymatgen
data_Gd2P4O13
_symmetry_space_group_name_H-M   'P 1'
_cell_length_a   6.93602014
_cell_length_b   6.93602014
_cell_length_c   13.13238955
_cell_angle_alpha   76.24407606
_cell_angle_beta   103.75592394
_cell_angle_gamma   120.77039590
_symmetry_Int_Tables_number   1
_chemical_formula_structural   Gd2P4O13
_chemical_formula_sum   'Gd4 P8 O26'
_cell_volume   522.13906440
_cell_formula_units_Z   2
loop_
 _symmetry_equiv_pos_site_id
 _symmetry_equiv_pos_as_xyz
  1  'x, y, z'
loop_
 _atom_site_type_symbol
 _atom_site_label
 _atom_site_symmetry_multiplicity
 _atom_site_fract_x
 _atom_site_fract_y
 _atom_site_fract_z
 _atom_site_occupancy
  Gd  Gd0  1  0.307237  0.688208  0.949283  1
  Gd  Gd1  1  0.688208  0.307237  0.550717  1
  Gd  Gd2  1  0.311792  0.692763  0.449283  1
  Gd  Gd3  1  0.692763  0.311792  0.050717  1
  P  P4  1  0.865112  0.843507  0.865047  1
  P  P5  1  0.156493  0.134888  0.365047  1
  P  P6  1  0.760933  0.226304  0.841030  1
  P  P7  1  0.226304  0.760933  0.658970  1
  P  P8  1  0.773696  0.239067  0.341030  1
  P  P9  1  0.239067  0.773696  0.158970  1
  P  P10  1  0.843507  0.865112  0.634953  1
  P  P11  1  0.134888  0.156493  0.134953  1
  O  O12  1  0.685930  0.679086  0.937264  1
  O  O13  1  0.101007  0.877942  0.895945  1
  O  O14  1  0.320914  0.314070  0.437264  1
  O  O15  1  0.093417  0.898601  0.653816  1
  O  O16  1  0.565085  0.074913  0.906440  1
  O  O17  1  0.924017  0.423510  0.904518  1
  O  O18  1  0.693609  0.293952  0.725978  1
  O  O19  1  0.122058  0.898993  0.395945  1
  O  O20  1  0.101399  0.906583  0.153816  1
  O  O21  1  0.293952  0.693609  0.774022  1
  O  O22  1  0.423510  0.924017  0.595482  1
  O  O23  1  0.074912  0.565085  0.593560  1
  O  O24  1  0.925087  0.434915  0.406440  1
  O  O25  1  0.576490  0.075983  0.404518  1
  O  O26  1  0.706048  0.306391  0.225978  1
  O  O27  1  0.898601  0.093417  0.846184  1
  O  O28  1  0.877942  0.101007  0.604055  1
  O  O29  1  0.306391  0.706048  0.274022  1
  O  O30  1  0.075983  0.576490  0.095482  1
  O  O31  1  0.434915  0.925088  0.093560  1
  O  O32  1  0.760463  0.760463  0.750000  1
  O  O33  1  0.906583  0.101399  0.346184  1
  O  O34  1  0.679086  0.685930  0.562736  1
  O  O35  1  0.898993  0.122058  0.104055  1
  O  O36  1  0.239537  0.239537  0.250000  1
  O  O37  1  0.314070  0.320914  0.062736  1
