# generated using pymatgen
data_Sr3LaBr9
_symmetry_space_group_name_H-M   'P 1'
_cell_length_a   7.81068802
_cell_length_b   7.26976644
_cell_length_c   30.66120734
_cell_angle_alpha   90.00000000
_cell_angle_beta   91.91437527
_cell_angle_gamma   90.00000000
_symmetry_Int_Tables_number   1
_chemical_formula_structural   Sr3LaBr9
_chemical_formula_sum   'Sr12 La4 Br36'
_cell_volume   1740.02921068
_cell_formula_units_Z   4
loop_
 _symmetry_equiv_pos_site_id
 _symmetry_equiv_pos_as_xyz
  1  'x, y, z'
loop_
 _atom_site_type_symbol
 _atom_site_label
 _atom_site_symmetry_multiplicity
 _atom_site_fract_x
 _atom_site_fract_y
 _atom_site_fract_z
 _atom_site_occupancy
  Sr  Sr0  1  0.672149  0.969830  0.067012  1
  Sr  Sr1  1  0.703624  0.003478  0.307827  1
  Sr  Sr2  1  0.672149  0.030170  0.567012  1
  Sr  Sr3  1  0.703624  0.996522  0.807827  1
  Sr  Sr4  1  0.316932  0.987909  0.431240  1
  Sr  Sr5  1  0.283062  0.984854  0.190768  1
  Sr  Sr6  1  0.316932  0.012091  0.931240  1
  Sr  Sr7  1  0.283062  0.015146  0.690768  1
  Sr  Sr8  1  0.214511  0.520738  0.307904  1
  Sr  Sr9  1  0.177362  0.514970  0.068285  1
  Sr  Sr10  1  0.214511  0.479262  0.807904  1
  Sr  Sr11  1  0.177362  0.485030  0.568285  1
  La  La12  1  0.795683  0.520735  0.192999  1
  La  La13  1  0.820137  0.544767  0.432563  1
  La  La14  1  0.795683  0.479265  0.692999  1
  La  La15  1  0.820137  0.455233  0.932563  1
  Br  Br16  1  0.984194  0.800386  0.130354  1
  Br  Br17  1  0.990093  0.821117  0.248649  1
  Br  Br18  1  0.998053  0.817811  0.371160  1
  Br  Br19  1  0.984194  0.199614  0.630354  1
  Br  Br20  1  0.990093  0.178883  0.748649  1
  Br  Br21  1  0.891671  0.709702  0.008515  1
  Br  Br22  1  0.998053  0.182189  0.871160  1
  Br  Br23  1  0.849542  0.326190  0.105454  1
  Br  Br24  1  0.891671  0.290298  0.508515  1
  Br  Br25  1  0.843752  0.393362  0.293818  1
  Br  Br26  1  0.849542  0.673810  0.605454  1
  Br  Br27  1  0.843752  0.606638  0.793818  1
  Br  Br28  1  0.642869  0.151743  0.204455  1
  Br  Br29  1  0.646004  0.200195  0.400076  1
  Br  Br30  1  0.642869  0.848257  0.704455  1
  Br  Br31  1  0.646004  0.799805  0.900076  1
  Br  Br32  1  0.584092  0.753452  0.489730  1
  Br  Br33  1  0.502340  0.683086  0.131961  1
  Br  Br34  1  0.506105  0.694996  0.249169  1
  Br  Br35  1  0.517339  0.701959  0.371228  1
  Br  Br36  1  0.584092  0.246548  0.989730  1
  Br  Br37  1  0.502340  0.316914  0.631961  1
  Br  Br38  1  0.506105  0.305004  0.749169  1
  Br  Br39  1  0.517339  0.298041  0.871228  1
  Br  Br40  1  0.395074  0.762033  0.010540  1
  Br  Br41  1  0.395074  0.237967  0.510540  1
  Br  Br42  1  0.344855  0.156766  0.099810  1
  Br  Br43  1  0.329028  0.119425  0.300830  1
  Br  Br44  1  0.344855  0.843234  0.599810  1
  Br  Br45  1  0.329028  0.880575  0.800830  1
  Br  Br46  1  0.154004  0.387001  0.202952  1
  Br  Br47  1  0.132587  0.350272  0.400693  1
  Br  Br48  1  0.154004  0.612999  0.702952  1
  Br  Br49  1  0.132587  0.649728  0.900693  1
  Br  Br50  1  0.074203  0.758290  0.490195  1
  Br  Br51  1  0.074203  0.241710  0.990195  1
