# generated using pymatgen
data_Li4FeSi2O7
_symmetry_space_group_name_H-M   'P 1'
_cell_length_a   7.21101627
_cell_length_b   7.21101627
_cell_length_c   8.11074942
_cell_angle_alpha   85.73880923
_cell_angle_beta   94.26119077
_cell_angle_gamma   135.51851469
_symmetry_Int_Tables_number   1
_chemical_formula_structural   Li4FeSi2O7
_chemical_formula_sum   'Li8 Fe2 Si4 O14'
_cell_volume   294.55677449
_cell_formula_units_Z   2
loop_
 _symmetry_equiv_pos_site_id
 _symmetry_equiv_pos_as_xyz
  1  'x, y, z'
loop_
 _atom_site_type_symbol
 _atom_site_label
 _atom_site_symmetry_multiplicity
 _atom_site_fract_x
 _atom_site_fract_y
 _atom_site_fract_z
 _atom_site_occupancy
  Li  Li0  1  0.417634  0.263133  0.874919  1
  Li  Li1  1  0.736867  0.582366  0.374919  1
  Li  Li2  1  0.529025  0.115149  0.593349  1
  Li  Li3  1  0.884851  0.470975  0.093349  1
  Li  Li4  1  0.423741  0.869995  0.946693  1
  Li  Li5  1  0.130005  0.576259  0.446693  1
  Li  Li6  1  0.813442  0.808428  0.020859  1
  Li  Li7  1  0.191572  0.186558  0.520859  1
  Fe  Fe8  1  0.013661  0.313284  0.797411  1
  Fe  Fe9  1  0.686716  0.986339  0.297411  1
  Si  Si10  1  0.965254  0.692855  0.738634  1
  Si  Si11  1  0.307145  0.034746  0.238634  1
  Si  Si12  1  0.595289  0.743193  0.670912  1
  Si  Si13  1  0.256807  0.404711  0.170912  1
  O  O14  1  0.844052  0.787751  0.604868  1
  O  O15  1  0.212249  0.155948  0.104868  1
  O  O16  1  0.792876  0.572303  0.904233  1
  O  O17  1  0.427697  0.207124  0.404233  1
  O  O18  1  0.279291  0.950548  0.772465  1
  O  O19  1  0.049452  0.720709  0.272465  1
  O  O20  1  0.909204  0.462231  0.640381  1
  O  O21  1  0.537769  0.090796  0.140381  1
  O  O22  1  0.525335  0.853304  0.522122  1
  O  O23  1  0.146696  0.474665  0.022122  1
  O  O24  1  0.698694  0.918050  0.836783  1
  O  O25  1  0.081950  0.301306  0.336783  1
  O  O26  1  0.337010  0.425281  0.706053  1
  O  O27  1  0.574719  0.662990  0.206053  1
