# generated using pymatgen
data_Li4Cr3NiO8
_symmetry_space_group_name_H-M   'P 1'
_cell_length_a   5.12237117
_cell_length_b   7.80230268
_cell_length_c   7.81112770
_cell_angle_alpha   94.13700047
_cell_angle_beta   108.98042954
_cell_angle_gamma   96.30708608
_symmetry_Int_Tables_number   1
_chemical_formula_structural   Li4Cr3NiO8
_chemical_formula_sum   'Li8 Cr6 Ni2 O16'
_cell_volume   291.48273208
_cell_formula_units_Z   2
loop_
 _symmetry_equiv_pos_site_id
 _symmetry_equiv_pos_as_xyz
  1  'x, y, z'
loop_
 _atom_site_type_symbol
 _atom_site_label
 _atom_site_symmetry_multiplicity
 _atom_site_fract_x
 _atom_site_fract_y
 _atom_site_fract_z
 _atom_site_occupancy
  Li  Li0  1  0.873843  0.627645  0.872461  1
  Li  Li1  1  0.622831  0.868651  0.623040  1
  Li  Li2  1  0.748375  0.247620  0.745866  1
  Li  Li3  1  0.251625  0.752380  0.254134  1
  Li  Li4  1  0.377169  0.131349  0.376960  1
  Li  Li5  1  0.500000  0.500000  0.500000  1
  Li  Li6  1  0.000000  0.000000  0.000000  1
  Li  Li7  1  0.126157  0.372355  0.127539  1
  Cr  Cr8  1  0.187438  0.062385  0.685893  1
  Cr  Cr9  1  0.310141  0.438136  0.807273  1
  Cr  Cr10  1  0.812562  0.937615  0.314107  1
  Cr  Cr11  1  0.437366  0.811473  0.935862  1
  Cr  Cr12  1  0.562634  0.188527  0.064138  1
  Cr  Cr13  1  0.689859  0.561864  0.192727  1
  Ni  Ni14  1  0.063159  0.689146  0.562965  1
  Ni  Ni15  1  0.936841  0.310854  0.437035  1
  O  O16  1  0.464333  0.653541  0.728679  1
  O  O17  1  0.053541  0.846220  0.781076  1
  O  O18  1  0.574077  0.029767  0.848992  1
  O  O19  1  0.660113  0.719465  0.394881  1
  O  O20  1  0.198848  0.907912  0.470616  1
  O  O21  1  0.339887  0.280535  0.605119  1
  O  O22  1  0.801152  0.092088  0.529384  1
  O  O23  1  0.824083  0.779353  0.100065  1
  O  O24  1  0.946459  0.153780  0.218924  1
  O  O25  1  0.933602  0.469356  0.655671  1
  O  O26  1  0.425923  0.970233  0.151008  1
  O  O27  1  0.066398  0.530644  0.344329  1
  O  O28  1  0.535667  0.346459  0.271321  1
  O  O29  1  0.695296  0.406357  0.975100  1
  O  O30  1  0.175917  0.220647  0.899935  1
  O  O31  1  0.304704  0.593643  0.024900  1
