# generated using pymatgen
data_Li2MnFe(BO3)2
_symmetry_space_group_name_H-M   'P 1'
_cell_length_a   5.24538790
_cell_length_b   5.95327902
_cell_length_c   8.23130152
_cell_angle_alpha   102.22740624
_cell_angle_beta   90.08359682
_cell_angle_gamma   90.35050789
_symmetry_Int_Tables_number   1
_chemical_formula_structural   Li2MnFe(BO3)2
_chemical_formula_sum   'Li4 Mn2 Fe2 B4 O12'
_cell_volume   251.20422409
_cell_formula_units_Z   2
loop_
 _symmetry_equiv_pos_site_id
 _symmetry_equiv_pos_as_xyz
  1  'x, y, z'
loop_
 _atom_site_type_symbol
 _atom_site_label
 _atom_site_symmetry_multiplicity
 _atom_site_fract_x
 _atom_site_fract_y
 _atom_site_fract_z
 _atom_site_occupancy
  Li  Li0  1  0.651209  0.954585  0.276432  1
  Li  Li1  1  0.846215  0.537502  0.224567  1
  Li  Li2  1  0.153785  0.462498  0.775433  1
  Li  Li3  1  0.348791  0.045415  0.723568  1
  Mn  Mn4  1  0.672572  0.685910  0.917277  1
  Mn  Mn5  1  0.327428  0.314090  0.082723  1
  Fe  Fe6  1  0.827400  0.819091  0.573398  1
  Fe  Fe7  1  0.172600  0.180909  0.426602  1
  B  B8  1  0.168368  0.830490  0.096335  1
  B  B9  1  0.327073  0.666453  0.411530  1
  B  B10  1  0.672927  0.333547  0.588470  1
  B  B11  1  0.831632  0.169510  0.903665  1
  O  O12  1  0.908547  0.819687  0.121888  1
  O  O13  1  0.685578  0.991225  0.806485  1
  O  O14  1  0.207833  0.839603  0.526541  1
  O  O15  1  0.588046  0.676186  0.385803  1
  O  O16  1  0.182658  0.487333  0.316586  1
  O  O17  1  0.711367  0.337200  0.021810  1
  O  O18  1  0.288633  0.662800  0.978190  1
  O  O19  1  0.817342  0.512667  0.683414  1
  O  O20  1  0.411954  0.323814  0.614197  1
  O  O21  1  0.792167  0.160397  0.473459  1
  O  O22  1  0.314422  0.008775  0.193515  1
  O  O23  1  0.091453  0.180313  0.878112  1
