# generated using pymatgen
data_V3Fe2Sb(PO4)6
_symmetry_space_group_name_H-M   'P 1'
_cell_length_a   8.64016874
_cell_length_b   8.64016874
_cell_length_c   8.64016874
_cell_angle_alpha   60.58748605
_cell_angle_beta   60.58748605
_cell_angle_gamma   60.58748605
_symmetry_Int_Tables_number   1
_chemical_formula_structural   V3Fe2Sb(PO4)6
_chemical_formula_sum   'V3 Fe2 Sb1 P6 O24'
_cell_volume   462.14328774
_cell_formula_units_Z   1
loop_
 _symmetry_equiv_pos_site_id
 _symmetry_equiv_pos_as_xyz
  1  'x, y, z'
loop_
 _atom_site_type_symbol
 _atom_site_label
 _atom_site_symmetry_multiplicity
 _atom_site_fract_x
 _atom_site_fract_y
 _atom_site_fract_z
 _atom_site_occupancy
  V  V0  1  0.642965  0.642965  0.642965  1
  V  V1  1  0.857082  0.857082  0.857082  1
  V  V2  1  0.358782  0.358782  0.358782  1
  Fe  Fe3  1  0.995003  0.995003  0.995003  1
  Fe  Fe4  1  0.500502  0.500502  0.500502  1
  Sb  Sb5  1  0.142663  0.142663  0.142663  1
  P  P6  1  0.956119  0.253187  0.545020  1
  P  P7  1  0.545020  0.956119  0.253187  1
  P  P8  1  0.253187  0.545020  0.956119  1
  P  P9  1  0.747983  0.460609  0.043463  1
  P  P10  1  0.460609  0.043463  0.747983  1
  P  P11  1  0.043463  0.747983  0.460609  1
  O  O12  1  0.500158  0.114341  0.313454  1
  O  O13  1  0.313454  0.500158  0.114341  1
  O  O14  1  0.114341  0.313454  0.500158  1
  O  O15  1  0.941336  0.090698  0.737055  1
  O  O16  1  0.990039  0.187770  0.385731  1
  O  O17  1  0.761375  0.409951  0.556908  1
  O  O18  1  0.737055  0.941336  0.090698  1
  O  O19  1  0.556908  0.761375  0.409951  1
  O  O20  1  0.816409  0.610973  0.005850  1
  O  O21  1  0.409951  0.556908  0.761375  1
  O  O22  1  0.915713  0.257978  0.058146  1
  O  O23  1  0.610973  0.005850  0.816409  1
  O  O24  1  0.385731  0.990040  0.187770  1
  O  O25  1  0.090698  0.737055  0.941336  1
  O  O26  1  0.594200  0.437370  0.240851  1
  O  O27  1  0.187770  0.385731  0.990039  1
  O  O28  1  0.437370  0.240851  0.594200  1
  O  O29  1  0.257978  0.058146  0.915713  1
  O  O30  1  0.240851  0.594200  0.437370  1
  O  O31  1  0.005850  0.816409  0.610973  1
  O  O32  1  0.058146  0.915713  0.257978  1
  O  O33  1  0.887813  0.691907  0.490590  1
  O  O34  1  0.691907  0.490590  0.887813  1
  O  O35  1  0.490590  0.887813  0.691907  1
