# generated using pymatgen
data_Li2Mn3(CoO4)3
_symmetry_space_group_name_H-M   'P 1'
_cell_length_a   5.69472148
_cell_length_b   5.99331487
_cell_length_c   6.75002625
_cell_angle_alpha   107.44258961
_cell_angle_beta   103.53065115
_cell_angle_gamma   87.84688311
_symmetry_Int_Tables_number   1
_chemical_formula_structural   Li2Mn3(CoO4)3
_chemical_formula_sum   'Li2 Mn3 Co3 O12'
_cell_volume   213.55484084
_cell_formula_units_Z   1
loop_
 _symmetry_equiv_pos_site_id
 _symmetry_equiv_pos_as_xyz
  1  'x, y, z'
loop_
 _atom_site_type_symbol
 _atom_site_label
 _atom_site_symmetry_multiplicity
 _atom_site_fract_x
 _atom_site_fract_y
 _atom_site_fract_z
 _atom_site_occupancy
  Li  Li0  1  0.196835  0.693786  0.689681  1
  Li  Li1  1  0.803165  0.306214  0.310319  1
  Mn  Mn2  1  0.000000  0.500000  0.000000  1
  Mn  Mn3  1  0.331054  0.840608  0.329096  1
  Mn  Mn4  1  0.668946  0.159392  0.670904  1
  Co  Co5  1  0.500000  0.500000  0.000000  1
  Co  Co6  1  0.832906  0.834352  0.333136  1
  Co  Co7  1  0.167094  0.165648  0.666864  1
  O  O8  1  0.248755  0.720427  0.015499  1
  O  O9  1  0.745047  0.717769  0.027326  1
  O  O10  1  0.084735  0.612389  0.310618  1
  O  O11  1  0.411907  0.936668  0.636241  1
  O  O12  1  0.583630  0.610510  0.303271  1
  O  O13  1  0.922288  0.939903  0.640534  1
  O  O14  1  0.077712  0.060097  0.359466  1
  O  O15  1  0.416370  0.389490  0.696729  1
  O  O16  1  0.588093  0.063332  0.363759  1
  O  O17  1  0.915265  0.387611  0.689382  1
  O  O18  1  0.254953  0.282231  0.972674  1
  O  O19  1  0.751245  0.279573  0.984501  1
