# generated using pymatgen
data_CrCo3O8
_symmetry_space_group_name_H-M   'P 1'
_cell_length_a   5.77396553
_cell_length_b   5.77396553
_cell_length_c   5.77396553
_cell_angle_alpha   58.97965002
_cell_angle_beta   58.97965002
_cell_angle_gamma   58.97965002
_symmetry_Int_Tables_number   1
_chemical_formula_structural   CrCo3O8
_chemical_formula_sum   'Cr1 Co3 O8'
_cell_volume   132.94707512
_cell_formula_units_Z   1
loop_
 _symmetry_equiv_pos_site_id
 _symmetry_equiv_pos_as_xyz
  1  'x, y, z'
loop_
 _atom_site_type_symbol
 _atom_site_label
 _atom_site_symmetry_multiplicity
 _atom_site_fract_x
 _atom_site_fract_y
 _atom_site_fract_z
 _atom_site_occupancy
  Cr  Cr0  1  0.500000  0.500000  0.500000  1
  Co  Co1  1  0.500000  0.500000  1.000000  1
  Co  Co2  1  0.000000  0.500000  0.500000  1
  Co  Co3  1  0.500000  0.000000  0.500000  1
  O  O4  1  0.734318  0.734318  0.734318  1
  O  O5  1  0.738724  0.297571  0.738724  1
  O  O6  1  0.297571  0.738724  0.738724  1
  O  O7  1  0.738724  0.738724  0.297571  1
  O  O8  1  0.261276  0.261276  0.702429  1
  O  O9  1  0.702429  0.261276  0.261276  1
  O  O10  1  0.261276  0.702429  0.261276  1
  O  O11  1  0.265682  0.265682  0.265682  1
