# generated using pymatgen
data_Y6TeO12
_symmetry_space_group_name_H-M   'P 1'
_cell_length_a   6.51615650
_cell_length_b   6.51615650
_cell_length_c   6.51615650
_cell_angle_alpha   98.67769750
_cell_angle_beta   98.67769750
_cell_angle_gamma   98.67769750
_symmetry_Int_Tables_number   1
_chemical_formula_structural   Y6TeO12
_chemical_formula_sum   'Y6 Te1 O12'
_cell_volume   266.07734270
_cell_formula_units_Z   1
loop_
 _symmetry_equiv_pos_site_id
 _symmetry_equiv_pos_as_xyz
  1  'x, y, z'
loop_
 _atom_site_type_symbol
 _atom_site_label
 _atom_site_symmetry_multiplicity
 _atom_site_fract_x
 _atom_site_fract_y
 _atom_site_fract_z
 _atom_site_occupancy
  Y  Y0  1  0.684522  0.855424  0.390378  1
  Y  Y1  1  0.144576  0.609622  0.315478  1
  Y  Y2  1  0.609622  0.315478  0.144576  1
  Y  Y3  1  0.390378  0.684522  0.855424  1
  Y  Y4  1  0.855424  0.390378  0.684522  1
  Y  Y5  1  0.315478  0.144576  0.609622  1
  Te  Te6  1  0.000000  0.000000  0.000000  1
  O  O7  1  0.703176  0.928452  0.034071  1
  O  O8  1  0.071548  0.965929  0.296824  1
  O  O9  1  0.432573  0.593464  0.177094  1
  O  O10  1  0.406536  0.822906  0.567427  1
  O  O11  1  0.965929  0.296824  0.071548  1
  O  O12  1  0.822906  0.567427  0.406536  1
  O  O13  1  0.177094  0.432573  0.593464  1
  O  O14  1  0.034071  0.703176  0.928452  1
  O  O15  1  0.593464  0.177094  0.432573  1
  O  O16  1  0.567427  0.406536  0.822906  1
  O  O17  1  0.928452  0.034071  0.703176  1
  O  O18  1  0.296824  0.071548  0.965929  1
