# generated using pymatgen
data_Li2CrO3
_symmetry_space_group_name_H-M   'P 1'
_cell_length_a   5.02372460
_cell_length_b   5.02372460
_cell_length_c   4.99943388
_cell_angle_alpha   79.25869869
_cell_angle_beta   100.74130131
_cell_angle_gamma   61.72641355
_symmetry_Int_Tables_number   1
_chemical_formula_structural   Li2CrO3
_chemical_formula_sum   'Li4 Cr2 O6'
_cell_volume   103.52841873
_cell_formula_units_Z   2
loop_
 _symmetry_equiv_pos_site_id
 _symmetry_equiv_pos_as_xyz
  1  'x, y, z'
loop_
 _atom_site_type_symbol
 _atom_site_label
 _atom_site_symmetry_multiplicity
 _atom_site_fract_x
 _atom_site_fract_y
 _atom_site_fract_z
 _atom_site_occupancy
  Li  Li0  1  0.753529  0.736930  0.508796  1
  Li  Li1  1  0.431977  0.403431  0.504307  1
  Li  Li2  1  0.596569  0.568023  0.004307  1
  Li  Li3  1  0.263070  0.246471  0.008796  1
  Cr  Cr4  1  0.091848  0.090159  0.496382  1
  Cr  Cr5  1  0.909841  0.908152  0.996382  1
  O  O6  1  0.710509  0.137921  0.247901  1
  O  O7  1  0.862079  0.289491  0.747901  1
  O  O8  1  0.011796  0.480496  0.269024  1
  O  O9  1  0.296233  0.844556  0.275790  1
  O  O10  1  0.519504  0.988204  0.769024  1
  O  O11  1  0.155444  0.703767  0.775790  1
