# generated using pymatgen
data_LiCo2(PO4)2
_symmetry_space_group_name_H-M   'P 1'
_cell_length_a   8.43344418
_cell_length_b   5.28068647
_cell_length_c   16.49517839
_cell_angle_alpha   90.00000000
_cell_angle_beta   104.29362090
_cell_angle_gamma   90.00000000
_symmetry_Int_Tables_number   1
_chemical_formula_structural   LiCo2(PO4)2
_chemical_formula_sum   'Li4 Co8 P8 O32'
_cell_volume   711.86153080
_cell_formula_units_Z   4
loop_
 _symmetry_equiv_pos_site_id
 _symmetry_equiv_pos_as_xyz
  1  'x, y, z'
loop_
 _atom_site_type_symbol
 _atom_site_label
 _atom_site_symmetry_multiplicity
 _atom_site_fract_x
 _atom_site_fract_y
 _atom_site_fract_z
 _atom_site_occupancy
  Li  Li0  1  0.595979  0.852441  0.515659  1
  Li  Li1  1  0.595979  0.147559  0.015659  1
  Li  Li2  1  0.030230  0.339298  0.749632  1
  Li  Li3  1  0.030230  0.660702  0.249632  1
  Co  Co4  1  0.267792  0.314572  0.062296  1
  Co  Co5  1  0.788090  0.335823  0.566493  1
  Co  Co6  1  0.689801  0.816081  0.312424  1
  Co  Co7  1  0.788090  0.664177  0.066493  1
  Co  Co8  1  0.198379  0.825524  0.819948  1
  Co  Co9  1  0.267792  0.685428  0.562296  1
  Co  Co10  1  0.198379  0.174476  0.319948  1
  Co  Co11  1  0.689801  0.183919  0.812424  1
  P  P12  1  0.381728  0.669570  0.379605  1
  P  P13  1  0.463707  0.816640  0.125609  1
  P  P14  1  0.884454  0.677509  0.878686  1
  P  P15  1  0.964094  0.830844  0.632156  1
  P  P16  1  0.884454  0.322491  0.378686  1
  P  P17  1  0.964094  0.169156  0.132156  1
  P  P18  1  0.381728  0.330430  0.879605  1
  P  P19  1  0.463707  0.183360  0.625609  1
  O  O20  1  0.065015  0.192006  0.064023  1
  O  O21  1  0.386840  0.391232  0.356056  1
  O  O22  1  0.308030  0.651668  0.094334  1
  O  O23  1  0.570583  0.189428  0.561419  1
  O  O24  1  0.553953  0.794591  0.389035  1
  O  O25  1  0.411864  0.093913  0.137564  1
  O  O26  1  0.871234  0.411144  0.832577  1
  O  O27  1  0.561714  0.707519  0.210272  1
  O  O28  1  0.795753  0.704703  0.593491  1
  O  O29  1  0.570583  0.810572  0.061419  1
  O  O30  1  0.061573  0.767734  0.895990  1
  O  O31  1  0.768917  0.140934  0.314357  1
  O  O32  1  0.938705  0.115495  0.650636  1
  O  O33  1  0.822394  0.335265  0.457362  1
  O  O34  1  0.056459  0.690342  0.711979  1
  O  O35  1  0.871234  0.588856  0.332577  1
  O  O36  1  0.795753  0.295297  0.093491  1
  O  O37  1  0.065015  0.807994  0.564023  1
  O  O38  1  0.243564  0.190923  0.815688  1
  O  O39  1  0.361707  0.288501  0.970913  1
  O  O40  1  0.061573  0.232266  0.395990  1
  O  O41  1  0.938705  0.884505  0.150636  1
  O  O42  1  0.386840  0.608768  0.856056  1
  O  O43  1  0.056459  0.309658  0.211979  1
  O  O44  1  0.308030  0.348332  0.594334  1
  O  O45  1  0.553953  0.205409  0.889035  1
  O  O46  1  0.243564  0.809077  0.315688  1
  O  O47  1  0.411864  0.906087  0.637564  1
  O  O48  1  0.361707  0.711499  0.470913  1
  O  O49  1  0.561714  0.292481  0.710272  1
  O  O50  1  0.768917  0.859066  0.814357  1
  O  O51  1  0.822394  0.664735  0.957362  1
