# generated using pymatgen
data_Li4Co3Ni3(PO4)6
_symmetry_space_group_name_H-M   'P 1'
_cell_length_a   8.29865130
_cell_length_b   8.41417023
_cell_length_c   8.41654350
_cell_angle_alpha   62.83377053
_cell_angle_beta   63.44748968
_cell_angle_gamma   63.42159322
_symmetry_Int_Tables_number   1
_chemical_formula_structural   Li4Co3Ni3(PO4)6
_chemical_formula_sum   'Li4 Co3 Ni3 P6 O24'
_cell_volume   445.31819983
_cell_formula_units_Z   1
loop_
 _symmetry_equiv_pos_site_id
 _symmetry_equiv_pos_as_xyz
  1  'x, y, z'
loop_
 _atom_site_type_symbol
 _atom_site_label
 _atom_site_symmetry_multiplicity
 _atom_site_fract_x
 _atom_site_fract_y
 _atom_site_fract_z
 _atom_site_occupancy
  Li  Li0  1  0.252282  0.642541  0.853420  1
  Li  Li1  1  0.739544  0.353023  0.147380  1
  Li  Li2  1  0.352749  0.144938  0.739411  1
  Li  Li3  1  0.144082  0.737844  0.353603  1
  Co  Co4  1  0.989261  0.004762  0.998342  1
  Co  Co5  1  0.143049  0.144029  0.145959  1
  Co  Co6  1  0.509248  0.498869  0.497209  1
  Ni  Ni7  1  0.642441  0.644185  0.643431  1
  Ni  Ni8  1  0.858621  0.854962  0.854919  1
  Ni  Ni9  1  0.354124  0.351515  0.353487  1
  P  P10  1  0.947044  0.548553  0.252671  1
  P  P11  1  0.551905  0.247616  0.952776  1
  P  P12  1  0.249620  0.951757  0.549408  1
  P  P13  1  0.753404  0.046263  0.454253  1
  P  P14  1  0.446833  0.751757  0.044156  1
  P  P15  1  0.054196  0.456123  0.753896  1
  O  O16  1  0.527421  0.314670  0.106100  1
  O  O17  1  0.318908  0.105009  0.524501  1
  O  O18  1  0.102695  0.521259  0.322721  1
  O  O19  1  0.945114  0.739416  0.089510  1
  O  O20  1  0.985379  0.386376  0.185981  1
  O  O21  1  0.750030  0.565766  0.402596  1
  O  O22  1  0.749731  0.097297  0.927874  1
  O  O23  1  0.546893  0.410801  0.762412  1
  O  O24  1  0.822432  0.010845  0.608226  1
  O  O25  1  0.396710  0.751020  0.569562  1
  O  O26  1  0.909401  0.072283  0.250854  1
  O  O27  1  0.611826  0.812958  0.995216  1
  O  O28  1  0.388825  0.175883  0.994763  1
  O  O29  1  0.101425  0.926761  0.750741  1
  O  O30  1  0.599570  0.246893  0.429925  1
  O  O31  1  0.181294  0.989509  0.388520  1
  O  O32  1  0.432222  0.595051  0.244562  1
  O  O33  1  0.245146  0.909629  0.075529  1
  O  O34  1  0.253065  0.427622  0.596622  1
  O  O35  1  0.041101  0.604528  0.818044  1
  O  O36  1  0.072418  0.253069  0.910798  1
  O  O37  1  0.890257  0.499458  0.693246  1
  O  O38  1  0.685658  0.893296  0.483149  1
  O  O39  1  0.454077  0.688865  0.897225  1
