# generated using pymatgen
data_LiVPO4F
_symmetry_space_group_name_H-M   'P 1'
_cell_length_a   6.35881058
_cell_length_b   10.74469957
_cell_length_c   11.00597589
_cell_angle_alpha   89.84148835
_cell_angle_beta   89.95273857
_cell_angle_gamma   89.75643867
_symmetry_Int_Tables_number   1
_chemical_formula_structural   LiVPO4F
_chemical_formula_sum   'Li8 V8 P8 O32 F8'
_cell_volume   751.95697559
_cell_formula_units_Z   8
loop_
 _symmetry_equiv_pos_site_id
 _symmetry_equiv_pos_as_xyz
  1  'x, y, z'
loop_
 _atom_site_type_symbol
 _atom_site_label
 _atom_site_symmetry_multiplicity
 _atom_site_fract_x
 _atom_site_fract_y
 _atom_site_fract_z
 _atom_site_occupancy
  Li  Li0  1  0.491408  0.240578  0.320253  1
  Li  Li1  1  0.004494  0.240958  0.324884  1
  Li  Li2  1  0.989714  0.275749  0.816448  1
  Li  Li3  1  0.505864  0.725831  0.188608  1
  Li  Li4  1  0.001074  0.724419  0.196885  1
  Li  Li5  1  0.521941  0.741791  0.664850  1
  Li  Li6  1  0.245775  0.772298  0.908230  1
  Li  Li7  1  0.753426  0.957368  0.729371  1
  V  V8  1  0.000735  0.004040  0.002567  1
  V  V9  1  0.499174  0.005266  0.002505  1
  V  V10  1  0.999227  0.996468  0.498354  1
  V  V11  1  0.493875  0.002238  0.495728  1
  V  V12  1  0.997860  0.501760  0.501348  1
  V  V13  1  0.497578  0.496964  0.500720  1
  V  V14  1  0.002995  0.500119  0.000835  1
  V  V15  1  0.504962  0.493070  0.995346  1
  P  P16  1  0.242872  0.038775  0.742888  1
  P  P17  1  0.249610  0.240584  0.078865  1
  P  P18  1  0.752964  0.260200  0.572635  1
  P  P19  1  0.748075  0.468163  0.241725  1
  P  P20  1  0.259382  0.535073  0.760937  1
  P  P21  1  0.250086  0.738899  0.424092  1
  P  P22  1  0.744762  0.761487  0.924991  1
  P  P23  1  0.750969  0.965984  0.256964  1
  O  O24  1  0.753367  0.016739  0.120654  1
  O  O25  1  0.947134  0.021700  0.320965  1
  O  O26  1  0.553132  0.024726  0.318954  1
  O  O27  1  0.748950  0.116260  0.529504  1
  O  O28  1  0.227552  0.175729  0.755472  1
  O  O29  1  0.451940  0.180473  0.026031  1
  O  O30  1  0.055056  0.182104  0.014377  1
  O  O31  1  0.242004  0.237303  0.215965  1
  O  O32  1  0.762368  0.266047  0.707073  1
  O  O33  1  0.946778  0.317679  0.504159  1
  O  O34  1  0.551859  0.315750  0.509158  1
  O  O35  1  0.750044  0.327009  0.248586  1
  O  O36  1  0.250994  0.381924  0.033359  1
  O  O37  1  0.455650  0.475489  0.821871  1
  O  O38  1  0.060665  0.479593  0.824439  1
  O  O39  1  0.250105  0.489802  0.623414  1
  O  O40  1  0.743370  0.519280  0.377040  1
  O  O41  1  0.944857  0.528089  0.178501  1
  O  O42  1  0.553935  0.525337  0.174433  1
  O  O43  1  0.750999  0.619342  0.962496  1
  O  O44  1  0.273504  0.676449  0.761512  1
  O  O45  1  0.445361  0.681561  0.489006  1
  O  O46  1  0.046304  0.680401  0.472912  1
  O  O47  1  0.260831  0.737451  0.286192  1
  O  O48  1  0.729431  0.782941  0.789976  1
  O  O49  1  0.950060  0.817029  0.982189  1
  O  O50  1  0.548010  0.816946  0.993026  1
  O  O51  1  0.750810  0.824808  0.249419  1
  O  O52  1  0.249564  0.881073  0.468402  1
  O  O53  1  0.444207  0.984766  0.677170  1
  O  O54  1  0.048215  0.978922  0.677585  1
  O  O55  1  0.250223  0.975193  0.876971  1
  F  F56  1  0.750624  0.035018  0.887495  1
  F  F57  1  0.242738  0.117529  0.479080  1
  F  F58  1  0.761784  0.382205  0.986789  1
  F  F59  1  0.247254  0.459997  0.392450  1
  F  F60  1  0.745880  0.537143  0.609076  1
  F  F61  1  0.254778  0.620789  0.014216  1
  F  F62  1  0.740708  0.883990  0.523411  1
  F  F63  1  0.250141  0.961132  0.108650  1
