# generated using pymatgen
data_GeAs
_symmetry_space_group_name_H-M   'P 1'
_cell_length_a   4.01788724
_cell_length_b   4.01788724
_cell_length_c   4.01788724
_cell_angle_alpha   124.63505286
_cell_angle_beta   124.63505286
_cell_angle_gamma   82.14338702
_symmetry_Int_Tables_number   1
_chemical_formula_structural   GeAs
_chemical_formula_sum   'Ge1 As1'
_cell_volume   42.21479063
_cell_formula_units_Z   1
loop_
 _symmetry_equiv_pos_site_id
 _symmetry_equiv_pos_as_xyz
  1  'x, y, z'
loop_
 _atom_site_type_symbol
 _atom_site_label
 _atom_site_symmetry_multiplicity
 _atom_site_fract_x
 _atom_site_fract_y
 _atom_site_fract_z
 _atom_site_occupancy
  Ge  Ge0  1  0.998054  0.998054  0.000000  1
  As  As1  1  0.415946  0.415946  0.000000  1
