# generated using pymatgen
data_LiLa2Ti2CrO9
_symmetry_space_group_name_H-M   'P 1'
_cell_length_a   5.47594472
_cell_length_b   5.55451618
_cell_length_c   24.04754668
_cell_angle_alpha   90.00000000
_cell_angle_beta   103.18134267
_cell_angle_gamma   90.00000000
_symmetry_Int_Tables_number   1
_chemical_formula_structural   LiLa2Ti2CrO9
_chemical_formula_sum   'Li4 La8 Ti8 Cr4 O36'
_cell_volume   712.16457576
_cell_formula_units_Z   4
loop_
 _symmetry_equiv_pos_site_id
 _symmetry_equiv_pos_as_xyz
  1  'x, y, z'
loop_
 _atom_site_type_symbol
 _atom_site_label
 _atom_site_symmetry_multiplicity
 _atom_site_fract_x
 _atom_site_fract_y
 _atom_site_fract_z
 _atom_site_occupancy
  Li  Li0  1  0.249564  0.918949  0.499715  1
  Li  Li1  1  0.908867  0.937656  0.167737  1
  Li  Li2  1  0.091133  0.437656  0.832263  1
  Li  Li3  1  0.750436  0.418949  0.500285  1
  La  La4  1  0.573949  0.032896  0.832487  1
  La  La5  1  0.426051  0.532896  0.167513  1
  La  La6  1  0.910841  0.470688  0.666561  1
  La  La7  1  0.241119  0.471651  0.997687  1
  La  La8  1  0.580183  0.473260  0.336047  1
  La  La9  1  0.419817  0.973260  0.663953  1
  La  La10  1  0.089159  0.970688  0.333439  1
  La  La11  1  0.758881  0.971651  0.002313  1
  Ti  Ti12  1  0.170103  0.484798  0.423676  1
  Ti  Ti13  1  0.322852  0.484134  0.576312  1
  Ti  Ti14  1  0.661094  0.508859  0.910912  1
  Ti  Ti15  1  0.996801  0.495942  0.247210  1
  Ti  Ti16  1  0.677148  0.984134  0.423688  1
  Ti  Ti17  1  0.338906  0.008859  0.089088  1
  Ti  Ti18  1  0.003199  0.995942  0.752790  1
  Ti  Ti19  1  0.829897  0.984798  0.576324  1
  Cr  Cr20  1  0.500899  0.505165  0.750025  1
  Cr  Cr21  1  0.834873  0.500121  0.084488  1
  Cr  Cr22  1  0.165127  0.000121  0.915512  1
  Cr  Cr23  1  0.499101  0.005165  0.249975  1
  O  O24  1  0.354232  0.509403  0.500015  1
  O  O25  1  0.675365  0.495184  0.833415  1
  O  O26  1  0.986037  0.491659  0.168435  1
  O  O27  1  0.969354  0.805812  0.430921  1
  O  O28  1  0.112400  0.806712  0.569967  1
  O  O29  1  0.296472  0.799439  0.757181  1
  O  O30  1  0.451954  0.793278  0.906654  1
  O  O31  1  0.630359  0.793205  0.098914  1
  O  O32  1  0.772372  0.787259  0.235777  1
  O  O33  1  0.887600  0.306712  0.430033  1
  O  O34  1  0.030646  0.305812  0.569079  1
  O  O35  1  0.227628  0.287259  0.764223  1
  O  O36  1  0.369641  0.293205  0.901086  1
  O  O37  1  0.548046  0.293278  0.093346  1
  O  O38  1  0.703528  0.299439  0.242819  1
  O  O39  1  0.645768  0.009403  0.499985  1
  O  O40  1  0.013963  0.991659  0.831565  1
  O  O41  1  0.324635  0.995184  0.166585  1
  O  O42  1  0.984278  0.025422  0.664483  1
  O  O43  1  0.656998  0.013809  0.335672  1
  O  O44  1  0.320102  0.014042  0.000196  1
  O  O45  1  0.630782  0.738369  0.598259  1
  O  O46  1  0.295812  0.718372  0.263160  1
  O  O47  1  0.952944  0.728060  0.932158  1
  O  O48  1  0.110014  0.721519  0.071294  1
  O  O49  1  0.761633  0.734598  0.733209  1
  O  O50  1  0.428646  0.739739  0.402366  1
  O  O51  1  0.571354  0.239739  0.597634  1
  O  O52  1  0.238367  0.234598  0.266791  1
  O  O53  1  0.889986  0.221519  0.928706  1
  O  O54  1  0.704188  0.218372  0.736840  1
  O  O55  1  0.047056  0.228060  0.067842  1
  O  O56  1  0.369218  0.238369  0.401741  1
  O  O57  1  0.343002  0.513809  0.664328  1
  O  O58  1  0.679898  0.514042  0.999804  1
  O  O59  1  0.015722  0.525422  0.335517  1
