# generated using pymatgen
data_Li10Mn3Cr3(NiO8)2
_symmetry_space_group_name_H-M   'P 1'
_cell_length_a   5.91735958
_cell_length_b   5.98685463
_cell_length_c   9.80622587
_cell_angle_alpha   90.87883960
_cell_angle_beta   90.90462108
_cell_angle_gamma   119.08517166
_symmetry_Int_Tables_number   1
_chemical_formula_structural   Li10Mn3Cr3(NiO8)2
_chemical_formula_sum   'Li10 Mn3 Cr3 Ni2 O16'
_cell_volume   303.44818016
_cell_formula_units_Z   1
loop_
 _symmetry_equiv_pos_site_id
 _symmetry_equiv_pos_as_xyz
  1  'x, y, z'
loop_
 _atom_site_type_symbol
 _atom_site_label
 _atom_site_symmetry_multiplicity
 _atom_site_fract_x
 _atom_site_fract_y
 _atom_site_fract_z
 _atom_site_occupancy
  Li  Li0  1  0.015776  0.994228  0.482471  1
  Li  Li1  1  0.196587  0.397743  0.062511  1
  Li  Li2  1  0.355207  0.677349  0.283282  1
  Li  Li3  1  0.687063  0.336002  0.783272  1
  Li  Li4  1  0.817087  0.186138  0.563139  1
  Li  Li5  1  0.400098  0.181575  0.564913  1
  Li  Li6  1  0.215541  0.813167  0.054058  1
  Li  Li7  1  0.617884  0.796564  0.057634  1
  Li  Li8  1  0.802623  0.598307  0.554630  1
  Li  Li9  1  0.017652  0.011346  0.983482  1
  Mn  Mn10  1  0.849201  0.176196  0.286193  1
  Mn  Mn11  1  0.678827  0.830568  0.784406  1
  Mn  Mn12  1  0.846475  0.665655  0.284610  1
  Cr  Cr13  1  0.185397  0.337338  0.786661  1
  Cr  Cr14  1  0.352408  0.171598  0.285869  1
  Cr  Cr15  1  0.183996  0.830858  0.785345  1
  Ni  Ni16  1  0.343214  0.654235  0.530376  1
  Ni  Ni17  1  0.678772  0.335993  0.029524  1
  O  O18  1  0.341241  0.160993  0.904004  1
  O  O19  1  0.168554  0.319015  0.403337  1
  O  O20  1  0.531792  0.025390  0.167210  1
  O  O21  1  0.030951  0.507634  0.666426  1
  O  O22  1  0.181082  0.841325  0.394828  1
  O  O23  1  0.852725  0.164195  0.896424  1
  O  O24  1  0.505878  0.504621  0.672293  1
  O  O25  1  0.521467  0.492996  0.171175  1
  O  O26  1  0.328704  0.656965  0.908792  1
  O  O27  1  0.673799  0.303900  0.408652  1
  O  O28  1  0.505285  0.970011  0.669880  1
  O  O29  1  0.999401  0.521669  0.161596  1
  O  O30  1  0.685192  0.800896  0.411414  1
  O  O31  1  0.852798  0.687710  0.899373  1
  O  O32  1  0.042809  0.014063  0.668703  1
  O  O33  1  0.021178  0.036124  0.170441  1
