# generated using pymatgen
data_RbSi2Mo3P6O25
_symmetry_space_group_name_H-M   'P 1'
_cell_length_a   9.21373276
_cell_length_b   9.21373276
_cell_length_c   13.12597424
_cell_angle_alpha   90.00000000
_cell_angle_beta   90.00000000
_cell_angle_gamma   120.00000000
_symmetry_Int_Tables_number   1
_chemical_formula_structural   RbSi2Mo3P6O25
_chemical_formula_sum   'Rb2 Si4 Mo6 P12 O50'
_cell_volume   965.01353004
_cell_formula_units_Z   2
loop_
 _symmetry_equiv_pos_site_id
 _symmetry_equiv_pos_as_xyz
  1  'x, y, z'
loop_
 _atom_site_type_symbol
 _atom_site_label
 _atom_site_symmetry_multiplicity
 _atom_site_fract_x
 _atom_site_fract_y
 _atom_site_fract_z
 _atom_site_occupancy
  Rb  Rb0  1  0.666667  0.333333  0.750000  1
  Rb  Rb1  1  0.333333  0.666667  0.250000  1
  Si  Si2  1  0.000000  0.000000  0.866368  1
  Si  Si3  1  0.000000  0.000000  0.633632  1
  Si  Si4  1  0.000000  0.000000  0.366368  1
  Si  Si5  1  0.000000  0.000000  0.133632  1
  Mo  Mo6  1  0.666667  0.333333  0.250000  1
  Mo  Mo7  1  0.666667  0.333333  0.492437  1
  Mo  Mo8  1  0.666667  0.333333  0.007563  1
  Mo  Mo9  1  0.333333  0.666667  0.992437  1
  Mo  Mo10  1  0.333333  0.666667  0.507563  1
  Mo  Mo11  1  0.333333  0.666667  0.750000  1
  P  P12  1  0.935361  0.559711  0.103402  1
  P  P13  1  0.440289  0.064639  0.396598  1
  P  P14  1  0.935361  0.375650  0.396598  1
  P  P15  1  0.440289  0.375650  0.103402  1
  P  P16  1  0.624350  0.064639  0.103402  1
  P  P17  1  0.375650  0.440289  0.603402  1
  P  P18  1  0.624350  0.559711  0.396598  1
  P  P19  1  0.375650  0.935361  0.896598  1
  P  P20  1  0.559711  0.624350  0.896598  1
  P  P21  1  0.064639  0.624350  0.603402  1
  P  P22  1  0.559711  0.935361  0.603402  1
  P  P23  1  0.064639  0.440289  0.896598  1
  O  O24  1  0.590418  0.111669  0.586023  1
  O  O25  1  0.478749  0.888331  0.086023  1
  O  O26  1  0.616959  0.770177  0.969958  1
  O  O27  1  0.846781  0.229823  0.469958  1
  O  O28  1  0.667237  0.565427  0.285741  1
  O  O29  1  0.101810  0.434573  0.785741  1
  O  O30  1  0.888331  0.409582  0.913977  1
  O  O31  1  0.478749  0.590418  0.413977  1
  O  O32  1  0.667237  0.101810  0.214259  1
  O  O33  1  0.565427  0.898190  0.714259  1
  O  O34  1  0.229823  0.383041  0.530042  1
  O  O35  1  0.846781  0.616959  0.030042  1
  O  O36  1  0.808529  0.888983  0.192453  1
  O  O37  1  0.919546  0.111017  0.692453  1
  O  O38  1  0.111669  0.521251  0.413977  1
  O  O39  1  0.590418  0.478749  0.913977  1
  O  O40  1  0.888983  0.080454  0.807547  1
  O  O41  1  0.808529  0.919546  0.307547  1
  O  O42  1  0.770177  0.153219  0.030042  1
  O  O43  1  0.616959  0.846781  0.530042  1
  O  O44  1  0.111017  0.191471  0.307547  1
  O  O45  1  0.919546  0.808529  0.807547  1
  O  O46  1  0.434573  0.332763  0.214259  1
  O  O47  1  0.101810  0.667237  0.714259  1
  O  O48  1  0.000000  0.000000  0.000000  1
  O  O49  1  0.000000  0.000000  0.500000  1
  O  O50  1  0.898190  0.332763  0.285741  1
  O  O51  1  0.565427  0.667237  0.785741  1
  O  O52  1  0.080454  0.191471  0.192453  1
  O  O53  1  0.888983  0.808529  0.692453  1
  O  O54  1  0.383041  0.153219  0.469958  1
  O  O55  1  0.229823  0.846781  0.969958  1
  O  O56  1  0.191471  0.080454  0.692453  1
  O  O57  1  0.111017  0.919546  0.192453  1
  O  O58  1  0.409582  0.521251  0.086023  1
  O  O59  1  0.888331  0.478749  0.586023  1
  O  O60  1  0.080454  0.888983  0.307547  1
  O  O61  1  0.191471  0.111017  0.807547  1
  O  O62  1  0.153219  0.383041  0.969958  1
  O  O63  1  0.770177  0.616959  0.469958  1
  O  O64  1  0.434573  0.101810  0.285741  1
  O  O65  1  0.332763  0.898190  0.785741  1
  O  O66  1  0.521251  0.409582  0.586023  1
  O  O67  1  0.111669  0.590418  0.086023  1
  O  O68  1  0.898190  0.565427  0.214259  1
  O  O69  1  0.332763  0.434573  0.714259  1
  O  O70  1  0.153219  0.770177  0.530042  1
  O  O71  1  0.383041  0.229823  0.030042  1
  O  O72  1  0.521251  0.111669  0.913977  1
  O  O73  1  0.409582  0.888331  0.413977  1
