# generated using pymatgen
data_P2WO8
_symmetry_space_group_name_H-M   'P 1'
_cell_length_a   4.99142219
_cell_length_b   12.98852076
_cell_length_c   11.48254819
_cell_angle_alpha   90.00000000
_cell_angle_beta   110.05442432
_cell_angle_gamma   90.00000000
_symmetry_Int_Tables_number   1
_chemical_formula_structural   P2WO8
_chemical_formula_sum   'P8 W4 O32'
_cell_volume   699.29064978
_cell_formula_units_Z   4
loop_
 _symmetry_equiv_pos_site_id
 _symmetry_equiv_pos_as_xyz
  1  'x, y, z'
loop_
 _atom_site_type_symbol
 _atom_site_label
 _atom_site_symmetry_multiplicity
 _atom_site_fract_x
 _atom_site_fract_y
 _atom_site_fract_z
 _atom_site_occupancy
  P  P0  1  0.307366  0.086960  0.116197  1
  P  P1  1  0.406211  0.750666  0.206481  1
  P  P2  1  0.593789  0.250666  0.293519  1
  P  P3  1  0.692634  0.586960  0.383803  1
  P  P4  1  0.307366  0.413040  0.616197  1
  P  P5  1  0.406211  0.749334  0.706481  1
  P  P6  1  0.593789  0.249334  0.793519  1
  P  P7  1  0.692634  0.913040  0.883803  1
  W  W8  1  0.905890  0.572968  0.712409  1
  W  W9  1  0.094110  0.072968  0.787591  1
  W  W10  1  0.905890  0.927032  0.212409  1
  W  W11  1  0.094110  0.427032  0.287591  1
  O  O12  1  0.239166  0.838214  0.247922  1
  O  O13  1  0.350740  0.308161  0.325172  1
  O  O14  1  0.237023  0.676523  0.114623  1
  O  O15  1  0.432734  0.516242  0.362537  1
  O  O16  1  0.924697  0.554182  0.862903  1
  O  O17  1  0.859760  0.950393  0.799918  1
  O  O18  1  0.417425  0.199881  0.158626  1
  O  O19  1  0.582575  0.699881  0.341374  1
  O  O20  1  0.126447  0.094596  0.981475  1
  O  O21  1  0.567266  0.016242  0.137463  1
  O  O22  1  0.762977  0.176523  0.385377  1
  O  O23  1  0.873553  0.594596  0.518525  1
  O  O24  1  0.649260  0.808161  0.174828  1
  O  O25  1  0.760834  0.338214  0.252078  1
  O  O26  1  0.140240  0.450393  0.700082  1
  O  O27  1  0.075303  0.054182  0.637097  1
  O  O28  1  0.924697  0.945818  0.362903  1
  O  O29  1  0.859760  0.549607  0.299918  1
  O  O30  1  0.239166  0.661786  0.747922  1
  O  O31  1  0.350740  0.191839  0.825172  1
  O  O32  1  0.126447  0.405404  0.481475  1
  O  O33  1  0.237023  0.823477  0.614623  1
  O  O34  1  0.432734  0.983758  0.862537  1
  O  O35  1  0.873553  0.905404  0.018525  1
  O  O36  1  0.417425  0.300119  0.658626  1
  O  O37  1  0.582575  0.800119  0.841374  1
  O  O38  1  0.140240  0.049607  0.200082  1
  O  O39  1  0.075303  0.445818  0.137097  1
  O  O40  1  0.567266  0.483758  0.637463  1
  O  O41  1  0.762977  0.323477  0.885377  1
  O  O42  1  0.649260  0.691839  0.674828  1
  O  O43  1  0.760834  0.161786  0.752078  1
