# generated using pymatgen
data_Li9Cr3(WO4)7
_symmetry_space_group_name_H-M   'P 1'
_cell_length_a   8.49995154
_cell_length_b   8.49995154
_cell_length_c   8.49995154
_cell_angle_alpha   89.62176602
_cell_angle_beta   89.62176602
_cell_angle_gamma   89.62176602
_symmetry_Int_Tables_number   1
_chemical_formula_structural   Li9Cr3(WO4)7
_chemical_formula_sum   'Li9 Cr3 W7 O28'
_cell_volume   614.07452897
_cell_formula_units_Z   1
loop_
 _symmetry_equiv_pos_site_id
 _symmetry_equiv_pos_as_xyz
  1  'x, y, z'
loop_
 _atom_site_type_symbol
 _atom_site_label
 _atom_site_symmetry_multiplicity
 _atom_site_fract_x
 _atom_site_fract_y
 _atom_site_fract_z
 _atom_site_occupancy
  Li  Li0  1  0.907488  0.348848  0.644548  1
  Li  Li1  1  0.907488  0.644548  0.348848  1
  Li  Li2  1  0.644548  0.348848  0.907488  1
  Li  Li3  1  0.644548  0.907488  0.348848  1
  Li  Li4  1  0.358536  0.093297  0.358536  1
  Li  Li5  1  0.358536  0.358536  0.093297  1
  Li  Li6  1  0.348848  0.644548  0.907488  1
  Li  Li7  1  0.348848  0.907488  0.644548  1
  Li  Li8  1  0.093297  0.358536  0.358536  1
  Cr  Cr9  1  0.625502  0.105856  0.625502  1
  Cr  Cr10  1  0.625502  0.625502  0.105856  1
  Cr  Cr11  1  0.105856  0.625502  0.625502  1
  W  W12  1  0.648166  0.361568  0.361568  1
  W  W13  1  0.642604  0.642604  0.642604  1
  W  W14  1  0.361568  0.361568  0.648166  1
  W  W15  1  0.361568  0.648166  0.361568  1
  W  W16  1  0.998260  0.998260  0.499060  1
  W  W17  1  0.998260  0.499060  0.998260  1
  W  W18  1  0.499060  0.998260  0.998260  1
  O  O19  1  0.859173  0.384296  0.384296  1
  O  O20  1  0.856905  0.619702  0.619702  1
  O  O21  1  0.866318  0.117526  0.622359  1
  O  O22  1  0.866318  0.622359  0.117526  1
  O  O23  1  0.879761  0.373479  0.879761  1
  O  O24  1  0.879761  0.879761  0.373479  1
  O  O25  1  0.622359  0.117526  0.866318  1
  O  O26  1  0.622359  0.866318  0.117526  1
  O  O27  1  0.618031  0.386077  0.618031  1
  O  O28  1  0.618031  0.618031  0.386077  1
  O  O29  1  0.619273  0.136038  0.392690  1
  O  O30  1  0.619273  0.392690  0.136038  1
  O  O31  1  0.619702  0.619702  0.856905  1
  O  O32  1  0.619702  0.856905  0.619702  1
  O  O33  1  0.392690  0.136038  0.619273  1
  O  O34  1  0.392690  0.619273  0.136038  1
  O  O35  1  0.384296  0.384296  0.859173  1
  O  O36  1  0.384296  0.859173  0.384296  1
  O  O37  1  0.399962  0.399962  0.399962  1
  O  O38  1  0.386077  0.618031  0.618031  1
  O  O39  1  0.385031  0.124452  0.124452  1
  O  O40  1  0.373479  0.879761  0.879761  1
  O  O41  1  0.124452  0.124452  0.385031  1
  O  O42  1  0.124452  0.385031  0.124452  1
  O  O43  1  0.117526  0.622359  0.866318  1
  O  O44  1  0.117526  0.866318  0.622359  1
  O  O45  1  0.136038  0.392690  0.619273  1
  O  O46  1  0.136038  0.619273  0.392690  1
