# generated using pymatgen
data_Na(NiO2)2
_symmetry_space_group_name_H-M   'P 1'
_cell_length_a   5.74514102
_cell_length_b   4.84896941
_cell_length_c   12.53664600
_cell_angle_alpha   90.00000000
_cell_angle_beta   116.99034386
_cell_angle_gamma   90.00000000
_symmetry_Int_Tables_number   1
_chemical_formula_structural   Na(NiO2)2
_chemical_formula_sum   'Na4 Ni8 O16'
_cell_volume   311.20722413
_cell_formula_units_Z   4
loop_
 _symmetry_equiv_pos_site_id
 _symmetry_equiv_pos_as_xyz
  1  'x, y, z'
loop_
 _atom_site_type_symbol
 _atom_site_label
 _atom_site_symmetry_multiplicity
 _atom_site_fract_x
 _atom_site_fract_y
 _atom_site_fract_z
 _atom_site_occupancy
  Na  Na0  1  0.500000  0.018015  0.250000  1
  Na  Na1  1  0.000000  0.356934  0.750000  1
  Na  Na2  1  0.000000  0.643066  0.250000  1
  Na  Na3  1  0.500000  0.981985  0.750000  1
  Ni  Ni4  1  0.248485  0.001943  0.496390  1
  Ni  Ni5  1  0.751515  0.998057  0.503610  1
  Ni  Ni6  1  0.751515  0.001943  0.003610  1
  Ni  Ni7  1  0.248485  0.998057  0.996390  1
  Ni  Ni8  1  0.000000  0.500000  0.500000  1
  Ni  Ni9  1  0.500000  0.500000  0.500000  1
  Ni  Ni10  1  0.000000  0.500000  0.000000  1
  Ni  Ni11  1  0.500000  0.500000  0.000000  1
  O  O12  1  0.906682  0.175836  0.908086  1
  O  O13  1  0.590667  0.177928  0.592476  1
  O  O14  1  0.409333  0.177928  0.907524  1
  O  O15  1  0.093318  0.175836  0.591914  1
  O  O16  1  0.170833  0.334384  0.412321  1
  O  O17  1  0.829167  0.334384  0.087679  1
  O  O18  1  0.652562  0.321754  0.414265  1
  O  O19  1  0.347438  0.321754  0.085735  1
  O  O20  1  0.652562  0.678246  0.914265  1
  O  O21  1  0.347438  0.678246  0.585735  1
  O  O22  1  0.170833  0.665616  0.912321  1
  O  O23  1  0.829167  0.665616  0.587679  1
  O  O24  1  0.093318  0.824164  0.091914  1
  O  O25  1  0.590667  0.822072  0.092476  1
  O  O26  1  0.409333  0.822072  0.407524  1
  O  O27  1  0.906682  0.824164  0.408086  1
