# generated using pymatgen
data_LiCuPO4
_symmetry_space_group_name_H-M   'P 1'
_cell_length_a   7.49445180
_cell_length_b   7.49445180
_cell_length_c   9.77944758
_cell_angle_alpha   90.00000000
_cell_angle_beta   90.00000000
_cell_angle_gamma   120.00000000
_symmetry_Int_Tables_number   1
_chemical_formula_structural   LiCuPO4
_chemical_formula_sum   'Li6 Cu6 P6 O24'
_cell_volume   475.69073832
_cell_formula_units_Z   6
loop_
 _symmetry_equiv_pos_site_id
 _symmetry_equiv_pos_as_xyz
  1  'x, y, z'
loop_
 _atom_site_type_symbol
 _atom_site_label
 _atom_site_symmetry_multiplicity
 _atom_site_fract_x
 _atom_site_fract_y
 _atom_site_fract_z
 _atom_site_occupancy
  Li  Li0  1  0.069658  0.587723  0.482137  1
  Li  Li1  1  0.518065  0.930342  0.482137  1
  Li  Li2  1  0.412277  0.481935  0.482137  1
  Li  Li3  1  0.481935  0.412277  0.982137  1
  Li  Li4  1  0.587723  0.069658  0.982137  1
  Li  Li5  1  0.930342  0.518065  0.982137  1
  Cu  Cu6  1  0.227132  0.956721  0.271124  1
  Cu  Cu7  1  0.043279  0.270411  0.271124  1
  Cu  Cu8  1  0.270411  0.043279  0.771124  1
  Cu  Cu9  1  0.729589  0.772868  0.271124  1
  Cu  Cu10  1  0.772868  0.729589  0.771124  1
  Cu  Cu11  1  0.956721  0.227132  0.771124  1
  P  P12  1  0.333333  0.666667  0.181558  1
  P  P13  1  0.000000  0.000000  0.006886  1
  P  P14  1  0.000000  0.000000  0.506886  1
  P  P15  1  0.333333  0.666667  0.770082  1
  P  P16  1  0.666667  0.333333  0.681558  1
  P  P17  1  0.666667  0.333333  0.270082  1
  O  O18  1  0.098312  0.873340  0.456194  1
  O  O19  1  0.241178  0.797293  0.123186  1
  O  O20  1  0.398876  0.885388  0.828629  1
  O  O21  1  0.114612  0.513488  0.828629  1
  O  O22  1  0.202707  0.443885  0.123186  1
  O  O23  1  0.333333  0.666667  0.339594  1
  O  O24  1  0.000000  0.000000  0.172745  1
  O  O25  1  0.000000  0.000000  0.672745  1
  O  O26  1  0.333333  0.666667  0.612475  1
  O  O27  1  0.126660  0.224971  0.456194  1
  O  O28  1  0.224971  0.126660  0.956194  1
  O  O29  1  0.556115  0.758822  0.123186  1
  O  O30  1  0.486512  0.601124  0.828629  1
  O  O31  1  0.775029  0.901688  0.456194  1
  O  O32  1  0.443885  0.202707  0.623186  1
  O  O33  1  0.513488  0.114612  0.328629  1
  O  O34  1  0.601124  0.486512  0.328629  1
  O  O35  1  0.758822  0.556115  0.623186  1
  O  O36  1  0.666667  0.333333  0.839594  1
  O  O37  1  0.666667  0.333333  0.112475  1
  O  O38  1  0.901688  0.775029  0.956194  1
  O  O39  1  0.797293  0.241178  0.623186  1
  O  O40  1  0.885388  0.398876  0.328629  1
  O  O41  1  0.873340  0.098312  0.956194  1
