# generated using pymatgen
data_Li5Fe8(BO3)8
_symmetry_space_group_name_H-M   'P 1'
_cell_length_a   5.22442306
_cell_length_b   9.07489628
_cell_length_c   11.42612806
_cell_angle_alpha   112.69386363
_cell_angle_beta   102.46913254
_cell_angle_gamma   89.72159572
_symmetry_Int_Tables_number   1
_chemical_formula_structural   Li5Fe8(BO3)8
_chemical_formula_sum   'Li5 Fe8 B8 O24'
_cell_volume   486.14221833
_cell_formula_units_Z   1
loop_
 _symmetry_equiv_pos_site_id
 _symmetry_equiv_pos_as_xyz
  1  'x, y, z'
loop_
 _atom_site_type_symbol
 _atom_site_label
 _atom_site_symmetry_multiplicity
 _atom_site_fract_x
 _atom_site_fract_y
 _atom_site_fract_z
 _atom_site_occupancy
  Li  Li0  1  0.027415  0.029547  0.395449  1
  Li  Li1  1  0.296622  0.279047  0.914507  1
  Li  Li2  1  0.267438  0.244837  0.163818  1
  Li  Li3  1  0.979673  0.002208  0.661376  1
  Li  Li4  1  0.759556  0.740807  0.151916  1
  Fe  Fe5  1  0.006421  0.358906  0.377236  1
  Fe  Fe6  1  0.257927  0.929929  0.882364  1
  Fe  Fe7  1  0.470751  0.162323  0.628654  1
  Fe  Fe8  1  0.250435  0.567640  0.135658  1
  Fe  Fe9  1  0.774774  0.443845  0.874137  1
  Fe  Fe10  1  0.525128  0.843940  0.387160  1
  Fe  Fe11  1  0.982163  0.647224  0.633806  1
  Fe  Fe12  1  0.742687  0.056077  0.119421  1
  B  B13  1  0.033427  0.688833  0.381047  1
  B  B14  1  0.275122  0.594336  0.874734  1
  B  B15  1  0.488982  0.819205  0.635293  1
  B  B16  1  0.241855  0.899187  0.133689  1
  B  B17  1  0.507590  0.182102  0.374677  1
  B  B18  1  0.764424  0.114259  0.876575  1
  B  B19  1  0.965017  0.309858  0.621360  1
  B  B20  1  0.731862  0.395829  0.125035  1
  O  O21  1  0.021835  0.104286  0.862051  1
  O  O22  1  0.125644  0.692237  0.824944  1
  O  O23  1  0.154273  0.488983  0.914697  1
  O  O24  1  0.082277  0.169542  0.605940  1
  O  O25  1  0.052062  0.417021  0.574117  1
  O  O26  1  0.234247  0.830847  0.661590  1
  O  O27  1  0.260470  0.660621  0.337003  1
  O  O28  1  0.540074  0.600487  0.889463  1
  O  O29  1  0.616054  0.232607  0.846734  1
  O  O30  1  0.423657  0.075461  0.421016  1
  O  O31  1  0.344054  0.291324  0.350871  1
  O  O32  1  0.646398  0.019215  0.921022  1
  O  O33  1  0.337553  0.009858  0.091495  1
  O  O34  1  0.635494  0.696666  0.640293  1
  O  O35  1  0.588329  0.936429  0.601890  1
  O  O36  1  0.404580  0.790232  0.162365  1
  O  O37  1  0.463493  0.376196  0.109046  1
  O  O38  1  0.756644  0.345931  0.681322  1
  O  O39  1  0.758295  0.174813  0.346842  1
  O  O40  1  0.941878  0.584567  0.430787  1
  O  O41  1  0.894494  0.815099  0.373101  1
  O  O42  1  0.842843  0.504181  0.085903  1
  O  O43  1  0.895856  0.303658  0.178429  1
  O  O44  1  0.986723  0.899987  0.147127  1
