# generated using pymatgen
data_Li3VF7
_symmetry_space_group_name_H-M   'P 1'
_cell_length_a   5.80731698
_cell_length_b   5.80731698
_cell_length_c   5.80731698
_cell_angle_alpha   63.76151317
_cell_angle_beta   63.76151317
_cell_angle_gamma   63.76151317
_symmetry_Int_Tables_number   1
_chemical_formula_structural   Li3VF7
_chemical_formula_sum   'Li3 V1 F7'
_cell_volume   149.98292553
_cell_formula_units_Z   1
loop_
 _symmetry_equiv_pos_site_id
 _symmetry_equiv_pos_as_xyz
  1  'x, y, z'
loop_
 _atom_site_type_symbol
 _atom_site_label
 _atom_site_symmetry_multiplicity
 _atom_site_fract_x
 _atom_site_fract_y
 _atom_site_fract_z
 _atom_site_occupancy
  Li  Li0  1  0.109728  0.623458  0.623458  1
  Li  Li1  1  0.623458  0.623458  0.109728  1
  Li  Li2  1  0.623458  0.109728  0.623458  1
  V  V3  1  0.998269  0.998269  0.998269  1
  F  F4  1  0.218900  0.779948  0.779948  1
  F  F5  1  0.779948  0.779948  0.218900  1
  F  F6  1  0.229908  0.777420  0.229908  1
  F  F7  1  0.752654  0.752654  0.752654  1
  F  F8  1  0.229908  0.229908  0.777420  1
  F  F9  1  0.777420  0.229908  0.229908  1
  F  F10  1  0.779948  0.218900  0.779948  1
