# generated using pymatgen
data_Na4GeH28(Se2O7)2
_symmetry_space_group_name_H-M   'P 1'
_cell_length_a   8.58518909
_cell_length_b   8.58518909
_cell_length_c   8.21802523
_cell_angle_alpha   76.09692795
_cell_angle_beta   103.90307205
_cell_angle_gamma   97.46020574
_symmetry_Int_Tables_number   1
_chemical_formula_structural   Na4GeH28(Se2O7)2
_chemical_formula_sum   'Na4 Ge1 H28 Se4 O14'
_cell_volume   569.06941891
_cell_formula_units_Z   1
loop_
 _symmetry_equiv_pos_site_id
 _symmetry_equiv_pos_as_xyz
  1  'x, y, z'
loop_
 _atom_site_type_symbol
 _atom_site_label
 _atom_site_symmetry_multiplicity
 _atom_site_fract_x
 _atom_site_fract_y
 _atom_site_fract_z
 _atom_site_occupancy
  Na  Na0  1  0.572068  0.864332  0.408203  1
  Na  Na1  1  0.864332  0.572068  0.591797  1
  Na  Na2  1  0.255268  0.586517  0.684539  1
  Na  Na3  1  0.586517  0.255268  0.315461  1
  Ge  Ge4  1  0.995958  0.995958  0.000000  1
  H  H5  1  0.547157  0.375945  0.910117  1
  H  H6  1  0.375945  0.547157  0.089883  1
  H  H7  1  0.386594  0.289966  0.817420  1
  H  H8  1  0.289966  0.386594  0.182580  1
  H  H9  1  0.503162  0.800146  0.915192  1
  H  H10  1  0.800146  0.503162  0.084808  1
  H  H11  1  0.320832  0.819061  0.889236  1
  H  H12  1  0.819061  0.320832  0.110764  1
  H  H13  1  0.056153  0.385959  0.941917  1
  H  H14  1  0.385959  0.056153  0.058083  1
  H  H15  1  0.044214  0.568005  0.933926  1
  H  H16  1  0.568005  0.044214  0.066074  1
  H  H17  1  0.057678  0.843804  0.430781  1
  H  H18  1  0.843804  0.057678  0.569219  1
  H  H19  1  0.089074  0.883951  0.614822  1
  H  H20  1  0.883951  0.089074  0.385178  1
  H  H21  1  0.605137  0.640137  0.743227  1
  H  H22  1  0.640137  0.605137  0.256773  1
  H  H23  1  0.717747  0.796446  0.758395  1
  H  H24  1  0.796446  0.717747  0.241605  1
  H  H25  1  0.699467  0.257926  0.657459  1
  H  H26  1  0.257926  0.699467  0.342541  1
  H  H27  1  0.575426  0.378632  0.637148  1
  H  H28  1  0.378632  0.575426  0.362852  1
  H  H29  1  0.072493  0.317577  0.558289  1
  H  H30  1  0.317577  0.072493  0.441711  1
  H  H31  1  0.057719  0.455984  0.389186  1
  H  H32  1  0.455984  0.057719  0.610814  1
  Se  Se33  1  0.719575  0.018849  0.864255  1
  Se  Se34  1  0.018849  0.719575  0.135745  1
  Se  Se35  1  0.163720  0.069535  0.793876  1
  Se  Se36  1  0.069535  0.163720  0.206124  1
  O  O37  1  0.460334  0.388784  0.804746  1
  O  O38  1  0.388784  0.460334  0.195254  1
  O  O39  1  0.397629  0.736519  0.907058  1
  O  O40  1  0.736519  0.397629  0.092942  1
  O  O41  1  0.058394  0.493380  0.863942  1
  O  O42  1  0.493380  0.058394  0.136058  1
  O  O43  1  0.072497  0.794040  0.553841  1
  O  O44  1  0.794040  0.072497  0.446159  1
  O  O45  1  0.689356  0.708233  0.693414  1
  O  O46  1  0.708233  0.689356  0.306586  1
  O  O47  1  0.657239  0.358623  0.579391  1
  O  O48  1  0.358623  0.657239  0.420609  1
  O  O49  1  0.054435  0.432123  0.511152  1
  O  O50  1  0.432123  0.054435  0.488848  1
