# generated using pymatgen
data_Ti3FeNi2(PO4)6
_symmetry_space_group_name_H-M   'P 1'
_cell_length_a   8.49322571
_cell_length_b   8.49322571
_cell_length_c   8.49322571
_cell_angle_alpha   61.11989319
_cell_angle_beta   61.11989319
_cell_angle_gamma   61.11989319
_symmetry_Int_Tables_number   1
_chemical_formula_structural   Ti3FeNi2(PO4)6
_chemical_formula_sum   'Ti3 Fe1 Ni2 P6 O24'
_cell_volume   444.13364619
_cell_formula_units_Z   1
loop_
 _symmetry_equiv_pos_site_id
 _symmetry_equiv_pos_as_xyz
  1  'x, y, z'
loop_
 _atom_site_type_symbol
 _atom_site_label
 _atom_site_symmetry_multiplicity
 _atom_site_fract_x
 _atom_site_fract_y
 _atom_site_fract_z
 _atom_site_occupancy
  Ti  Ti0  1  0.857062  0.857062  0.857062  1
  Ti  Ti1  1  0.644980  0.644980  0.644980  1
  Ti  Ti2  1  0.353967  0.353967  0.353967  1
  Fe  Fe3  1  0.143030  0.143030  0.143030  1
  Ni  Ni4  1  0.003240  0.003240  0.003240  1
  Ni  Ni5  1  0.500771  0.500771  0.500771  1
  P  P6  1  0.747674  0.455913  0.046115  1
  P  P7  1  0.455913  0.046115  0.747674  1
  P  P8  1  0.046115  0.747674  0.455913  1
  P  P9  1  0.952075  0.247311  0.546641  1
  P  P10  1  0.546641  0.952075  0.247311  1
  P  P11  1  0.247311  0.546641  0.952075  1
  O  O12  1  0.887067  0.669947  0.514987  1
  O  O13  1  0.669947  0.514987  0.887067  1
  O  O14  1  0.942312  0.089748  0.746890  1
  O  O15  1  0.514987  0.887067  0.669947  1
  O  O16  1  0.983344  0.181393  0.397355  1
  O  O17  1  0.755506  0.411962  0.568144  1
  O  O18  1  0.746890  0.942312  0.089748  1
  O  O19  1  0.568144  0.755506  0.411962  1
  O  O20  1  0.814992  0.619905  0.997700  1
  O  O21  1  0.411962  0.568144  0.755506  1
  O  O22  1  0.900874  0.262845  0.050434  1
  O  O23  1  0.619905  0.997700  0.814992  1
  O  O24  1  0.397355  0.983344  0.181393  1
  O  O25  1  0.089748  0.746890  0.942312  1
  O  O26  1  0.585713  0.447893  0.242568  1
  O  O27  1  0.181393  0.397355  0.983344  1
  O  O28  1  0.447893  0.242568  0.585713  1
  O  O29  1  0.262845  0.050434  0.900874  1
  O  O30  1  0.242568  0.585713  0.447893  1
  O  O31  1  0.997700  0.814992  0.619905  1
  O  O32  1  0.497043  0.118009  0.314589  1
  O  O33  1  0.050434  0.900874  0.262845  1
  O  O34  1  0.314589  0.497043  0.118009  1
  O  O35  1  0.118009  0.314589  0.497043  1
