# generated using pymatgen
data_Mn2P4O13
_symmetry_space_group_name_H-M   'P 1'
_cell_length_a   8.79443874
_cell_length_b   8.79443874
_cell_length_c   8.25885187
_cell_angle_alpha   90.00000000
_cell_angle_beta   90.00000000
_cell_angle_gamma   132.01134207
_symmetry_Int_Tables_number   1
_chemical_formula_structural   Mn2P4O13
_chemical_formula_sum   'Mn4 P8 O26'
_cell_volume   474.60462541
_cell_formula_units_Z   2
loop_
 _symmetry_equiv_pos_site_id
 _symmetry_equiv_pos_as_xyz
  1  'x, y, z'
loop_
 _atom_site_type_symbol
 _atom_site_label
 _atom_site_symmetry_multiplicity
 _atom_site_fract_x
 _atom_site_fract_y
 _atom_site_fract_z
 _atom_site_occupancy
  Mn  Mn0  1  0.584915  0.875708  0.137145  1
  Mn  Mn1  1  0.124292  0.415085  0.362855  1
  Mn  Mn2  1  0.875708  0.584915  0.862855  1
  Mn  Mn3  1  0.415085  0.124292  0.637145  1
  P  P4  1  0.721680  0.840595  0.779004  1
  P  P5  1  0.159405  0.278320  0.720996  1
  P  P6  1  0.058163  0.386108  0.007732  1
  P  P7  1  0.613892  0.941837  0.492268  1
  P  P8  1  0.386108  0.058163  0.992268  1
  P  P9  1  0.941837  0.613892  0.507732  1
  P  P10  1  0.278320  0.159405  0.279004  1
  P  P11  1  0.840595  0.721680  0.220996  1
  O  O12  1  0.253833  0.309300  0.313457  1
  O  O13  1  0.690700  0.746167  0.186543  1
  O  O14  1  0.938921  0.061079  0.750000  1
  O  O15  1  0.208948  0.380443  0.893805  1
  O  O16  1  0.619557  0.791052  0.606195  1
  O  O17  1  0.155290  0.402465  0.598534  1
  O  O18  1  0.597535  0.844710  0.901466  1
  O  O19  1  0.891884  0.179774  0.080724  1
  O  O20  1  0.820226  0.108116  0.419276  1
  O  O21  1  0.461312  0.792810  0.358075  1
  O  O22  1  0.207190  0.538688  0.141925  1
  O  O23  1  0.527556  0.001260  0.609686  1
  O  O24  1  0.998740  0.472444  0.890314  1
  O  O25  1  0.472444  0.998740  0.109686  1
  O  O26  1  0.001260  0.527556  0.390314  1
  O  O27  1  0.538688  0.207190  0.858075  1
  O  O28  1  0.792810  0.461312  0.641925  1
  O  O29  1  0.108116  0.820226  0.580724  1
  O  O30  1  0.179774  0.891884  0.919276  1
  O  O31  1  0.844710  0.597535  0.098534  1
  O  O32  1  0.402465  0.155290  0.401466  1
  O  O33  1  0.380443  0.208948  0.106195  1
  O  O34  1  0.791052  0.619557  0.393805  1
  O  O35  1  0.061079  0.938921  0.250000  1
  O  O36  1  0.309300  0.253833  0.686543  1
  O  O37  1  0.746167  0.690700  0.813457  1
