# generated using pymatgen
data_SrSn4
_symmetry_space_group_name_H-M   'P 1'
_cell_length_a   9.12722254
_cell_length_b   9.12722254
_cell_length_c   7.20838159
_cell_angle_alpha   90.00000000
_cell_angle_beta   90.00000000
_cell_angle_gamma   150.39823892
_symmetry_Int_Tables_number   1
_chemical_formula_structural   SrSn4
_chemical_formula_sum   'Sr2 Sn8'
_cell_volume   296.62953006
_cell_formula_units_Z   2
loop_
 _symmetry_equiv_pos_site_id
 _symmetry_equiv_pos_as_xyz
  1  'x, y, z'
loop_
 _atom_site_type_symbol
 _atom_site_label
 _atom_site_symmetry_multiplicity
 _atom_site_fract_x
 _atom_site_fract_y
 _atom_site_fract_z
 _atom_site_occupancy
  Sr  Sr0  1  0.387840  0.612160  0.750000  1
  Sr  Sr1  1  0.612160  0.387840  0.250000  1
  Sn  Sn2  1  0.194977  0.805023  0.954354  1
  Sn  Sn3  1  0.805023  0.194977  0.045646  1
  Sn  Sn4  1  0.805023  0.194977  0.454354  1
  Sn  Sn5  1  0.194977  0.805023  0.545646  1
  Sn  Sn6  1  0.590361  0.409639  0.750000  1
  Sn  Sn7  1  0.409639  0.590361  0.250000  1
  Sn  Sn8  1  0.000000  0.000000  0.000000  1
  Sn  Sn9  1  0.000000  0.000000  0.500000  1
