# generated using pymatgen
data_Na(FeO2)2
_symmetry_space_group_name_H-M   'P 1'
_cell_length_a   6.11263195
_cell_length_b   6.11263195
_cell_length_c   6.11263195
_cell_angle_alpha   120.65506041
_cell_angle_beta   119.17543228
_cell_angle_gamma   90.15162445
_symmetry_Int_Tables_number   1
_chemical_formula_structural   Na(FeO2)2
_chemical_formula_sum   'Na2 Fe4 O8'
_cell_volume   161.67164792
_cell_formula_units_Z   2
loop_
 _symmetry_equiv_pos_site_id
 _symmetry_equiv_pos_as_xyz
  1  'x, y, z'
loop_
 _atom_site_type_symbol
 _atom_site_label
 _atom_site_symmetry_multiplicity
 _atom_site_fract_x
 _atom_site_fract_y
 _atom_site_fract_z
 _atom_site_occupancy
  Na  Na0  1  0.625536  0.375536  0.750000  1
  Na  Na1  1  0.374464  0.624464  0.250000  1
  Fe  Fe2  1  0.000000  0.000000  0.500000  1
  Fe  Fe3  1  0.000000  1.000000  0.000000  1
  Fe  Fe4  1  0.500000  0.000000  0.000000  1
  Fe  Fe5  1  0.000000  0.500000  0.500000  1
  O  O6  1  0.777947  0.808147  0.030199  1
  O  O7  1  0.191710  0.237891  0.453819  1
  O  O8  1  0.777947  0.247748  0.469801  1
  O  O9  1  0.784072  0.237891  0.046181  1
  O  O10  1  0.215928  0.762109  0.953819  1
  O  O11  1  0.222053  0.752252  0.530199  1
  O  O12  1  0.222053  0.191853  0.969801  1
  O  O13  1  0.808290  0.762109  0.546181  1
