# generated using pymatgen
data_Fe4O7F
_symmetry_space_group_name_H-M   'P 1'
_cell_length_a   6.00470019
_cell_length_b   4.64243542
_cell_length_c   9.73590409
_cell_angle_alpha   90.00000000
_cell_angle_beta   107.85388992
_cell_angle_gamma   90.00000000
_symmetry_Int_Tables_number   1
_chemical_formula_structural   Fe4O7F
_chemical_formula_sum   'Fe8 O14 F2'
_cell_volume   258.33193577
_cell_formula_units_Z   2
loop_
 _symmetry_equiv_pos_site_id
 _symmetry_equiv_pos_as_xyz
  1  'x, y, z'
loop_
 _atom_site_type_symbol
 _atom_site_label
 _atom_site_symmetry_multiplicity
 _atom_site_fract_x
 _atom_site_fract_y
 _atom_site_fract_z
 _atom_site_occupancy
  Fe  Fe0  1  0.321199  0.518452  0.379566  1
  Fe  Fe1  1  0.068575  0.473696  0.882374  1
  Fe  Fe2  1  0.558989  0.498296  0.870449  1
  Fe  Fe3  1  0.808764  0.512154  0.381579  1
  Fe  Fe4  1  0.931425  0.973696  0.117626  1
  Fe  Fe5  1  0.678801  0.018452  0.620434  1
  Fe  Fe6  1  0.441011  0.998296  0.129551  1
  Fe  Fe7  1  0.191236  0.012154  0.618421  1
  O  O8  1  0.383809  0.213423  0.521806  1
  O  O9  1  0.891276  0.197606  0.530302  1
  O  O10  1  0.141275  0.175245  0.034432  1
  O  O11  1  0.639982  0.179380  0.029703  1
  O  O12  1  0.263833  0.305594  0.778938  1
  O  O13  1  0.515922  0.317528  0.282099  1
  O  O14  1  0.765995  0.303886  0.777400  1
  O  O15  1  0.360018  0.679380  0.970297  1
  O  O16  1  0.858725  0.675245  0.965568  1
  O  O17  1  0.616191  0.713423  0.478194  1
  O  O18  1  0.108724  0.697606  0.469698  1
  O  O19  1  0.736167  0.805594  0.221062  1
  O  O20  1  0.484078  0.817528  0.717901  1
  O  O21  1  0.234005  0.803886  0.222600  1
  F  F22  1  0.010669  0.304739  0.275835  1
  F  F23  1  0.989331  0.804739  0.724165  1
