# generated using pymatgen
data_Sn2N2O
_symmetry_space_group_name_H-M   'P 1'
_cell_length_a   8.84809382
_cell_length_b   8.85538937
_cell_length_c   8.85839222
_cell_angle_alpha   109.52458622
_cell_angle_beta   109.29541497
_cell_angle_gamma   109.48181403
_symmetry_Int_Tables_number   1
_chemical_formula_structural   Sn2N2O
_chemical_formula_sum   'Sn16 N16 O8'
_cell_volume   535.04086148
_cell_formula_units_Z   8
loop_
 _symmetry_equiv_pos_site_id
 _symmetry_equiv_pos_as_xyz
  1  'x, y, z'
loop_
 _atom_site_type_symbol
 _atom_site_label
 _atom_site_symmetry_multiplicity
 _atom_site_fract_x
 _atom_site_fract_y
 _atom_site_fract_z
 _atom_site_occupancy
  Sn  Sn0  1  0.505550  0.006128  0.002369  1
  Sn  Sn1  1  0.467064  0.709081  0.748251  1
  Sn  Sn2  1  0.261821  0.045507  0.704123  1
  Sn  Sn3  1  0.253008  0.536405  0.213992  1
  Sn  Sn4  1  0.033468  0.783312  0.258614  1
  Sn  Sn5  1  0.217443  0.750522  0.525835  1
  Sn  Sn6  1  0.488173  0.495361  0.507705  1
  Sn  Sn7  1  0.713675  0.744296  0.037052  1
  Sn  Sn8  1  0.007311  0.996218  0.491645  1
  Sn  Sn9  1  0.995133  0.491316  0.000047  1
  Sn  Sn10  1  0.282793  0.256895  0.968386  1
  Sn  Sn11  1  0.773598  0.247570  0.471981  1
  Sn  Sn12  1  0.959955  0.215010  0.762197  1
  Sn  Sn13  1  0.751686  0.971887  0.277136  1
  Sn  Sn14  1  0.749619  0.467341  0.784257  1
  Sn  Sn15  1  0.534364  0.286286  0.250374  1
  N  N16  1  0.735000  0.992505  0.040150  1
  N  N17  1  0.273122  0.766193  0.259587  1
  N  N18  1  0.227749  0.468566  0.009052  1
  N  N19  1  0.468603  0.745900  0.492937  1
  N  N20  1  0.270750  0.035055  0.460966  1
  N  N21  1  0.733747  0.228192  0.726297  1
  N  N22  1  0.540048  0.274318  0.503623  1
  N  N23  1  0.453857  0.502393  0.270557  1
  N  N24  1  0.777963  0.549004  0.997041  1
  N  N25  1  0.012611  0.468029  0.763354  1
  N  N26  1  0.215517  0.256981  0.744019  1
  N  N27  1  0.768932  0.225347  0.236483  1
  N  N28  1  0.034235  0.039679  0.223624  1
  N  N29  1  0.953157  0.725458  0.538191  1
  N  N30  1  0.541067  0.504723  0.728416  1
  N  N31  1  0.491766  0.227367  0.044987  1
  O  O32  1  0.266459  0.986204  0.956742  1
  O  O33  1  0.731749  0.959509  0.553847  1
  O  O34  1  0.516706  0.782768  0.937800  1
  O  O35  1  0.951785  0.954503  0.762760  1
  O  O36  1  0.984473  0.535452  0.246276  1
  O  O37  1  0.043497  0.269136  0.452153  1
  O  O38  1  0.236039  0.780266  0.779584  1
  O  O39  1  0.776509  0.719318  0.267591  1
