# generated using pymatgen
data_Li3Mn2Ni5O12
_symmetry_space_group_name_H-M   'P 1'
_cell_length_a   5.05438055
_cell_length_b   5.05438055
_cell_length_c   9.78186936
_cell_angle_alpha   84.71083412
_cell_angle_beta   95.28916588
_cell_angle_gamma   58.52560053
_symmetry_Int_Tables_number   1
_chemical_formula_structural   Li3Mn2Ni5O12
_chemical_formula_sum   'Li3 Mn2 Ni5 O12'
_cell_volume   209.30480586
_cell_formula_units_Z   1
loop_
 _symmetry_equiv_pos_site_id
 _symmetry_equiv_pos_as_xyz
  1  'x, y, z'
loop_
 _atom_site_type_symbol
 _atom_site_label
 _atom_site_symmetry_multiplicity
 _atom_site_fract_x
 _atom_site_fract_y
 _atom_site_fract_z
 _atom_site_occupancy
  Li  Li0  1  0.677382  0.173806  0.254946  1
  Li  Li1  1  0.173806  0.677382  0.745054  1
  Li  Li2  1  0.084059  0.084059  0.500000  1
  Mn  Mn3  1  0.252217  0.252217  0.000000  1
  Mn  Mn4  1  0.744706  0.744706  0.500000  1
  Ni  Ni5  1  0.420882  0.420882  0.500000  1
  Ni  Ni6  1  0.494919  0.999892  0.746470  1
  Ni  Ni7  1  0.921632  0.921632  0.000000  1
  Ni  Ni8  1  0.999892  0.494919  0.253530  1
  Ni  Ni9  1  0.586981  0.586981  0.000000  1
  O  O10  1  0.757661  0.036853  0.610958  1
  O  O11  1  0.513551  0.295032  0.885844  1
  O  O12  1  0.399901  0.142590  0.388606  1
  O  O13  1  0.295032  0.513551  0.114156  1
  O  O14  1  0.036853  0.757661  0.389042  1
  O  O15  1  0.142590  0.399901  0.611394  1
  O  O16  1  0.882299  0.622449  0.886442  1
  O  O17  1  0.947280  0.243037  0.110710  1
  O  O18  1  0.622449  0.882299  0.113558  1
  O  O19  1  0.707726  0.467013  0.391508  1
  O  O20  1  0.467013  0.707726  0.608492  1
  O  O21  1  0.243037  0.947280  0.889290  1
