# generated using pymatgen
data_LiV3OF11
_symmetry_space_group_name_H-M   'P 1'
_cell_length_a   5.47800680
_cell_length_b   6.01785736
_cell_length_c   7.04899611
_cell_angle_alpha   104.46095441
_cell_angle_beta   103.60238854
_cell_angle_gamma   93.25260234
_symmetry_Int_Tables_number   1
_chemical_formula_structural   LiV3OF11
_chemical_formula_sum   'Li1 V3 O1 F11'
_cell_volume   217.05052052
_cell_formula_units_Z   1
loop_
 _symmetry_equiv_pos_site_id
 _symmetry_equiv_pos_as_xyz
  1  'x, y, z'
loop_
 _atom_site_type_symbol
 _atom_site_label
 _atom_site_symmetry_multiplicity
 _atom_site_fract_x
 _atom_site_fract_y
 _atom_site_fract_z
 _atom_site_occupancy
  Li  Li0  1  0.186565  0.526563  0.622580  1
  V  V1  1  0.592983  0.159564  0.363135  1
  V  V2  1  0.316632  0.659594  0.161191  1
  V  V3  1  0.974733  0.976124  0.955476  1
  O  O4  1  0.305270  0.967651  0.155197  1
  F  F5  1  0.830592  0.074168  0.197236  1
  F  F6  1  0.965086  0.665740  0.009888  1
  F  F7  1  0.871444  0.311303  0.567763  1
  F  F8  1  0.658441  0.930371  0.809805  1
  F  F9  1  0.548792  0.403878  0.238866  1
  F  F10  1  0.612567  0.841620  0.387592  1
  F  F11  1  0.396424  0.254909  0.533805  1
  F  F12  1  0.415900  0.565033  0.930786  1
  F  F13  1  0.177703  0.615243  0.364418  1
  F  F14  1  0.095101  0.272333  0.988425  1
  F  F15  1  0.095683  0.849688  0.735378  1
