# generated using pymatgen
data_Mn3Cr2Cu(PO4)6
_symmetry_space_group_name_H-M   'P 1'
_cell_length_a   8.40978142
_cell_length_b   8.40978142
_cell_length_c   8.40978142
_cell_angle_alpha   61.64823742
_cell_angle_beta   61.64823742
_cell_angle_gamma   61.64823742
_symmetry_Int_Tables_number   1
_chemical_formula_structural   Mn3Cr2Cu(PO4)6
_chemical_formula_sum   'Mn3 Cr2 Cu1 P6 O24'
_cell_volume   436.11514506
_cell_formula_units_Z   1
loop_
 _symmetry_equiv_pos_site_id
 _symmetry_equiv_pos_as_xyz
  1  'x, y, z'
loop_
 _atom_site_type_symbol
 _atom_site_label
 _atom_site_symmetry_multiplicity
 _atom_site_fract_x
 _atom_site_fract_y
 _atom_site_fract_z
 _atom_site_occupancy
  Mn  Mn0  1  0.856586  0.856586  0.856586  1
  Mn  Mn1  1  0.644121  0.644121  0.644121  1
  Mn  Mn2  1  0.355479  0.355479  0.355479  1
  Cr  Cr3  1  0.001954  0.001954  0.001954  1
  Cr  Cr4  1  0.500061  0.500061  0.500061  1
  Cu  Cu5  1  0.146027  0.146027  0.146027  1
  P  P6  1  0.952570  0.248919  0.547401  1
  P  P7  1  0.547401  0.952570  0.248919  1
  P  P8  1  0.248919  0.547401  0.952570  1
  P  P9  1  0.750856  0.453753  0.044780  1
  P  P10  1  0.453753  0.044780  0.750856  1
  P  P11  1  0.044780  0.750856  0.453753  1
  O  O12  1  0.889554  0.678825  0.494108  1
  O  O13  1  0.678825  0.494108  0.889554  1
  O  O14  1  0.937329  0.095302  0.752676  1
  O  O15  1  0.494108  0.889554  0.678825  1
  O  O16  1  0.980966  0.182345  0.394927  1
  O  O17  1  0.748811  0.409116  0.563666  1
  O  O18  1  0.752676  0.937329  0.095302  1
  O  O19  1  0.563666  0.748811  0.409116  1
  O  O20  1  0.817058  0.609413  0.011149  1
  O  O21  1  0.409116  0.563666  0.748811  1
  O  O22  1  0.903462  0.250586  0.058819  1
  O  O23  1  0.609413  0.011149  0.817058  1
  O  O24  1  0.394927  0.980966  0.182345  1
  O  O25  1  0.095302  0.752676  0.937329  1
  O  O26  1  0.592549  0.440291  0.249074  1
  O  O27  1  0.182345  0.394927  0.980966  1
  O  O28  1  0.440291  0.249074  0.592549  1
  O  O29  1  0.250586  0.058819  0.903462  1
  O  O30  1  0.249074  0.592549  0.440291  1
  O  O31  1  0.011149  0.817058  0.609413  1
  O  O32  1  0.511221  0.108942  0.317303  1
  O  O33  1  0.058819  0.903462  0.250586  1
  O  O34  1  0.317303  0.511221  0.108942  1
  O  O35  1  0.108942  0.317303  0.511221  1
