# generated using pymatgen
data_Li4Ti5Co3O16
_symmetry_space_group_name_H-M   'P 1'
_cell_length_a   5.80453706
_cell_length_b   5.80453706
_cell_length_c   9.51549169
_cell_angle_alpha   89.68334405
_cell_angle_beta   90.31665595
_cell_angle_gamma   119.42222732
_symmetry_Int_Tables_number   1
_chemical_formula_structural   Li4Ti5Co3O16
_chemical_formula_sum   'Li4 Ti5 Co3 O16'
_cell_volume   279.24621217
_cell_formula_units_Z   1
loop_
 _symmetry_equiv_pos_site_id
 _symmetry_equiv_pos_as_xyz
  1  'x, y, z'
loop_
 _atom_site_type_symbol
 _atom_site_label
 _atom_site_symmetry_multiplicity
 _atom_site_fract_x
 _atom_site_fract_y
 _atom_site_fract_z
 _atom_site_occupancy
  Li  Li0  1  0.333571  0.666429  0.892229  1
  Li  Li1  1  0.011362  0.988638  0.991923  1
  Li  Li2  1  0.004255  0.995745  0.495434  1
  Li  Li3  1  0.665075  0.334925  0.401896  1
  Ti  Ti4  1  0.824707  0.175293  0.726548  1
  Ti  Ti5  1  0.651470  0.838582  0.221117  1
  Ti  Ti6  1  0.333420  0.666580  0.503502  1
  Ti  Ti7  1  0.161418  0.348530  0.221117  1
  Ti  Ti8  1  0.654148  0.345852  0.994183  1
  Co  Co9  1  0.172689  0.827311  0.209207  1
  Co  Co10  1  0.828970  0.656345  0.711946  1
  Co  Co11  1  0.343655  0.171030  0.711946  1
  O  O12  1  0.666318  0.825360  0.597421  1
  O  O13  1  0.483995  0.516005  0.335077  1
  O  O14  1  0.339156  0.660844  0.101520  1
  O  O15  1  0.003075  0.996925  0.304877  1
  O  O16  1  0.003787  0.996213  0.803495  1
  O  O17  1  0.174640  0.333682  0.597421  1
  O  O18  1  0.499348  0.964340  0.349195  1
  O  O19  1  0.035660  0.500652  0.349195  1
  O  O20  1  0.833116  0.166884  0.095839  1
  O  O21  1  0.168371  0.831629  0.600861  1
  O  O22  1  0.964896  0.482873  0.837165  1
  O  O23  1  0.517127  0.035104  0.837165  1
  O  O24  1  0.666347  0.333653  0.606844  1
  O  O25  1  0.819622  0.660070  0.091107  1
  O  O26  1  0.521521  0.478479  0.830113  1
  O  O27  1  0.339930  0.180378  0.091107  1
