# generated using pymatgen
data_Li2VFeP2(O4F)2
_symmetry_space_group_name_H-M   'P 1'
_cell_length_a   5.24306160
_cell_length_b   7.42833034
_cell_length_c   10.56637381
_cell_angle_alpha   104.15957298
_cell_angle_beta   97.63736450
_cell_angle_gamma   108.85012608
_symmetry_Int_Tables_number   1
_chemical_formula_structural   Li2VFeP2(O4F)2
_chemical_formula_sum   'Li4 V2 Fe2 P4 O16 F4'
_cell_volume   367.41604629
_cell_formula_units_Z   2
loop_
 _symmetry_equiv_pos_site_id
 _symmetry_equiv_pos_as_xyz
  1  'x, y, z'
loop_
 _atom_site_type_symbol
 _atom_site_label
 _atom_site_symmetry_multiplicity
 _atom_site_fract_x
 _atom_site_fract_y
 _atom_site_fract_z
 _atom_site_occupancy
  Li  Li0  1  0.536284  0.619874  0.808854  1
  Li  Li1  1  0.035593  0.116070  0.307793  1
  Li  Li2  1  0.964407  0.883930  0.692207  1
  Li  Li3  1  0.463716  0.380126  0.191146  1
  V  V4  1  0.500000  0.500000  0.500000  1
  V  V5  1  0.000000  0.500000  0.000000  1
  Fe  Fe6  1  0.000000  0.000000  0.000000  1
  Fe  Fe7  1  0.500000  0.000000  0.500000  1
  P  P8  1  0.497920  0.057418  0.820728  1
  P  P9  1  0.997844  0.559172  0.321077  1
  P  P10  1  0.002156  0.440828  0.678923  1
  P  P11  1  0.502080  0.942582  0.179272  1
  O  O12  1  0.703645  0.945011  0.834061  1
  O  O13  1  0.200598  0.445021  0.334906  1
  O  O14  1  0.644186  0.282476  0.893110  1
  O  O15  1  0.365323  0.011907  0.670701  1
  O  O16  1  0.145216  0.783473  0.393645  1
  O  O17  1  0.864767  0.514108  0.170962  1
  O  O18  1  0.244150  0.965673  0.877484  1
  O  O19  1  0.742226  0.464877  0.375419  1
  O  O20  1  0.257774  0.535123  0.624581  1
  O  O21  1  0.755850  0.034327  0.122516  1
  O  O22  1  0.135233  0.485892  0.829038  1
  O  O23  1  0.854784  0.216527  0.606355  1
  O  O24  1  0.634677  0.988093  0.329299  1
  O  O25  1  0.355814  0.717524  0.106890  1
  O  O26  1  0.799402  0.554979  0.665094  1
  O  O27  1  0.296355  0.054989  0.165939  1
  F  F28  1  0.836110  0.703487  0.963068  1
  F  F29  1  0.335699  0.197371  0.463030  1
  F  F30  1  0.664301  0.802629  0.536970  1
  F  F31  1  0.163890  0.296513  0.036932  1
