# generated using pymatgen
data_Fe5O7F3
_symmetry_space_group_name_H-M   'P 1'
_cell_length_a   4.68123885
_cell_length_b   15.20929412
_cell_length_c   4.68667153
_cell_angle_alpha   90.00000000
_cell_angle_beta   91.66518841
_cell_angle_gamma   90.00000000
_symmetry_Int_Tables_number   1
_chemical_formula_structural   Fe5O7F3
_chemical_formula_sum   'Fe10 O14 F6'
_cell_volume   333.54231165
_cell_formula_units_Z   2
loop_
 _symmetry_equiv_pos_site_id
 _symmetry_equiv_pos_as_xyz
  1  'x, y, z'
loop_
 _atom_site_type_symbol
 _atom_site_label
 _atom_site_symmetry_multiplicity
 _atom_site_fract_x
 _atom_site_fract_y
 _atom_site_fract_z
 _atom_site_occupancy
  Fe  Fe0  1  0.019505  0.206869  0.962172  1
  Fe  Fe1  1  0.973876  0.400925  0.021335  1
  Fe  Fe2  1  0.973876  0.599075  0.021335  1
  Fe  Fe3  1  0.019505  0.793131  0.962172  1
  Fe  Fe4  1  0.978694  0.000000  0.989694  1
  Fe  Fe5  1  0.495101  0.299471  0.494283  1
  Fe  Fe6  1  0.495101  0.700529  0.494283  1
  Fe  Fe7  1  0.510117  0.500000  0.485118  1
  Fe  Fe8  1  0.513162  0.905191  0.527319  1
  Fe  Fe9  1  0.513162  0.094809  0.527319  1
  O  O10  1  0.799275  0.304043  0.801728  1
  O  O11  1  0.794256  0.500000  0.815504  1
  O  O12  1  0.799275  0.695957  0.801728  1
  O  O13  1  0.820638  0.895887  0.811564  1
  O  O14  1  0.820638  0.104113  0.811564  1
  O  O15  1  0.321262  0.202163  0.678246  1
  O  O16  1  0.321262  0.797837  0.678246  1
  O  O17  1  0.306875  0.000000  0.709870  1
  O  O18  1  0.676113  0.397717  0.316253  1
  O  O19  1  0.676113  0.602283  0.316253  1
  O  O20  1  0.700741  0.000000  0.309537  1
  O  O21  1  0.191182  0.302240  0.189068  1
  O  O22  1  0.191182  0.697760  0.189068  1
  O  O23  1  0.180026  0.500000  0.200028  1
  F  F24  1  0.292117  0.401635  0.698017  1
  F  F25  1  0.292117  0.598365  0.698017  1
  F  F26  1  0.706025  0.199156  0.296634  1
  F  F27  1  0.706025  0.800844  0.296634  1
  F  F28  1  0.206390  0.103168  0.198504  1
  F  F29  1  0.206390  0.896832  0.198504  1
