# generated using pymatgen
data_Ca7Si6H4CO23
_symmetry_space_group_name_H-M   'P 1'
_cell_length_a   9.47227675
_cell_length_b   9.47227675
_cell_length_c   6.69318587
_cell_angle_alpha   75.43674493
_cell_angle_beta   104.56325507
_cell_angle_gamma   71.82373975
_symmetry_Int_Tables_number   1
_chemical_formula_structural   Ca7Si6H4CO23
_chemical_formula_sum   'Ca7 Si6 H4 C1 O23'
_cell_volume   515.48335069
_cell_formula_units_Z   1
loop_
 _symmetry_equiv_pos_site_id
 _symmetry_equiv_pos_as_xyz
  1  'x, y, z'
loop_
 _atom_site_type_symbol
 _atom_site_label
 _atom_site_symmetry_multiplicity
 _atom_site_fract_x
 _atom_site_fract_y
 _atom_site_fract_z
 _atom_site_occupancy
  Ca  Ca0  1  0.998035  0.001965  0.459948  1
  Ca  Ca1  1  0.327013  0.942893  0.000686  1
  Ca  Ca2  1  0.057107  0.672987  0.000686  1
  Ca  Ca3  1  0.239086  0.260724  0.485775  1
  Ca  Ca4  1  0.739276  0.760914  0.485775  1
  Ca  Ca5  1  0.917355  0.374965  0.974127  1
  Ca  Ca6  1  0.625035  0.082645  0.974127  1
  Si  Si7  1  0.820054  0.388049  0.421168  1
  Si  Si8  1  0.611951  0.179946  0.421168  1
  Si  Si9  1  0.663095  0.690102  0.983898  1
  Si  Si10  1  0.309898  0.336905  0.983898  1
  Si  Si11  1  0.370091  0.839742  0.556080  1
  Si  Si12  1  0.160258  0.629909  0.556080  1
  H  H13  1  0.335653  0.664347  0.293113  1
  H  H14  1  0.428896  0.571104  0.165125  1
  H  H15  1  0.661028  0.338972  0.703567  1
  H  H16  1  0.572414  0.427586  0.841802  1
  C  C17  1  0.000806  0.999194  0.998624  1
  O  O18  1  0.969053  0.272597  0.379726  1
  O  O19  1  0.727403  0.030947  0.379726  1
  O  O20  1  0.717376  0.282624  0.502480  1
  O  O21  1  0.699116  0.519890  0.172743  1
  O  O22  1  0.480110  0.300884  0.172743  1
  O  O23  1  0.850972  0.474951  0.595472  1
  O  O24  1  0.525049  0.149028  0.595472  1
  O  O25  1  0.808139  0.664064  0.889116  1
  O  O26  1  0.335936  0.191861  0.889116  1
  O  O27  1  0.620347  0.833917  0.077891  1
  O  O28  1  0.166083  0.379653  0.077891  1
  O  O29  1  0.503365  0.705008  0.794527  1
  O  O30  1  0.294992  0.496635  0.794527  1
  O  O31  1  0.453665  0.871556  0.378098  1
  O  O32  1  0.128444  0.546335  0.378098  1
  O  O33  1  0.263900  0.989223  0.605572  1
  O  O34  1  0.010777  0.736100  0.605572  1
  O  O35  1  0.246547  0.753453  0.467918  1
  O  O36  1  0.050643  0.096028  0.070987  1
  O  O37  1  0.903972  0.949357  0.070987  1
  O  O38  1  0.057991  0.942009  0.864333  1
  O  O39  1  0.336353  0.663647  0.145324  1
  O  O40  1  0.664114  0.335886  0.855836  1
