# generated using pymatgen
data_LiCoPO4
_symmetry_space_group_name_H-M   'P 1'
_cell_length_a   8.36078547
_cell_length_b   5.12916222
_cell_length_c   8.60994205
_cell_angle_alpha   90.00000000
_cell_angle_beta   108.41241477
_cell_angle_gamma   90.00000000
_symmetry_Int_Tables_number   1
_chemical_formula_structural   LiCoPO4
_chemical_formula_sum   'Li4 Co4 P4 O16'
_cell_volume   350.32561717
_cell_formula_units_Z   4
loop_
 _symmetry_equiv_pos_site_id
 _symmetry_equiv_pos_as_xyz
  1  'x, y, z'
loop_
 _atom_site_type_symbol
 _atom_site_label
 _atom_site_symmetry_multiplicity
 _atom_site_fract_x
 _atom_site_fract_y
 _atom_site_fract_z
 _atom_site_occupancy
  Li  Li0  1  0.103603  0.825904  0.983404  1
  Li  Li1  1  0.257530  0.316756  0.499488  1
  Li  Li2  1  0.603603  0.174096  0.983404  1
  Li  Li3  1  0.757530  0.683244  0.499488  1
  Co  Co4  1  0.993843  0.676540  0.252049  1
  Co  Co5  1  0.337143  0.820167  0.736704  1
  Co  Co6  1  0.493843  0.323460  0.252049  1
  Co  Co7  1  0.837143  0.179833  0.736704  1
  P  P8  1  0.225486  0.316151  0.864055  1
  P  P9  1  0.367089  0.816569  0.370247  1
  P  P10  1  0.725486  0.683849  0.864055  1
  P  P11  1  0.867089  0.183431  0.370247  1
  O  O12  1  0.069934  0.180477  0.889493  1
  O  O13  1  0.023709  0.321487  0.348038  1
  O  O14  1  0.189937  0.612032  0.831937  1
  O  O15  1  0.264967  0.192920  0.714759  1
  O  O16  1  0.212995  0.769450  0.215426  1
  O  O17  1  0.320294  0.695539  0.515779  1
  O  O18  1  0.569934  0.819523  0.889493  1
  O  O19  1  0.405704  0.112165  0.401256  1
  O  O20  1  0.381562  0.266901  0.016165  1
  O  O21  1  0.523709  0.678513  0.348038  1
  O  O22  1  0.689937  0.387968  0.831937  1
  O  O23  1  0.764967  0.807080  0.714759  1
  O  O24  1  0.712995  0.230550  0.215426  1
  O  O25  1  0.820294  0.304461  0.515779  1
  O  O26  1  0.905704  0.887835  0.401256  1
  O  O27  1  0.881562  0.733099  0.016165  1
