# generated using pymatgen
data_Li2FeO3
_symmetry_space_group_name_H-M   'P 1'
_cell_length_a   5.06656123
_cell_length_b   5.06656123
_cell_length_c   5.11706179
_cell_angle_alpha   80.29998603
_cell_angle_beta   99.70001397
_cell_angle_gamma   60.14401785
_symmetry_Int_Tables_number   1
_chemical_formula_structural   Li2FeO3
_chemical_formula_sum   'Li4 Fe2 O6'
_cell_volume   107.28841809
_cell_formula_units_Z   2
loop_
 _symmetry_equiv_pos_site_id
 _symmetry_equiv_pos_as_xyz
  1  'x, y, z'
loop_
 _atom_site_type_symbol
 _atom_site_label
 _atom_site_symmetry_multiplicity
 _atom_site_fract_x
 _atom_site_fract_y
 _atom_site_fract_z
 _atom_site_occupancy
  Li  Li0  1  0.982209  0.982209  0.000000  1
  Li  Li1  1  0.492321  0.492321  0.500000  1
  Li  Li2  1  0.658585  0.658585  0.000000  1
  Li  Li3  1  0.333622  0.333622  0.000000  1
  Fe  Fe4  1  0.825125  0.825125  0.500000  1
  Fe  Fe5  1  0.159023  0.159023  0.500000  1
  O  O6  1  0.764969  0.205558  0.268671  1
  O  O7  1  0.205558  0.764969  0.731329  1
  O  O8  1  0.430913  0.918927  0.270851  1
  O  O9  1  0.918927  0.430913  0.729149  1
  O  O10  1  0.584904  0.052035  0.723505  1
  O  O11  1  0.052035  0.584904  0.276495  1
