# generated using pymatgen
data_Li3Fe3OF7
_symmetry_space_group_name_H-M   'P 1'
_cell_length_a   6.13134112
_cell_length_b   6.13134112
_cell_length_c   6.25406971
_cell_angle_alpha   60.32066810
_cell_angle_beta   119.67933190
_cell_angle_gamma   122.48187365
_symmetry_Int_Tables_number   1
_chemical_formula_structural   Li3Fe3OF7
_chemical_formula_sum   'Li3 Fe3 O1 F7'
_cell_volume   163.66615766
_cell_formula_units_Z   1
loop_
 _symmetry_equiv_pos_site_id
 _symmetry_equiv_pos_as_xyz
  1  'x, y, z'
loop_
 _atom_site_type_symbol
 _atom_site_label
 _atom_site_symmetry_multiplicity
 _atom_site_fract_x
 _atom_site_fract_y
 _atom_site_fract_z
 _atom_site_occupancy
  Li  Li0  1  0.617840  0.382160  0.349002  1
  Li  Li1  1  0.996279  0.003721  0.993476  1
  Li  Li2  1  0.630057  0.369943  0.889521  1
  Fe  Fe3  1  0.250470  0.749530  0.786885  1
  Fe  Fe4  1  0.587663  0.848190  0.359548  1
  Fe  Fe5  1  0.151810  0.412337  0.359548  1
  O  O6  1  0.395073  0.604927  0.153330  1
  F  F7  1  0.842787  0.620779  0.613707  1
  F  F8  1  0.379221  0.157213  0.613707  1
  F  F9  1  0.863185  0.136815  0.120375  1
  F  F10  1  0.879974  0.605002  0.134532  1
  F  F11  1  0.869818  0.130182  0.585162  1
  F  F12  1  0.394998  0.120026  0.134532  1
  F  F13  1  0.390823  0.609177  0.656676  1
