# generated using pymatgen
data_La4Mn4O11
_symmetry_space_group_name_H-M   'P 1'
_cell_length_a   7.96438968
_cell_length_b   7.99234638
_cell_length_c   11.28587190
_cell_angle_alpha   90.00000000
_cell_angle_beta   133.31778630
_cell_angle_gamma   90.00000000
_symmetry_Int_Tables_number   1
_chemical_formula_structural   La4Mn4O11
_chemical_formula_sum   'La8 Mn8 O22'
_cell_volume   522.67367210
_cell_formula_units_Z   2
loop_
 _symmetry_equiv_pos_site_id
 _symmetry_equiv_pos_as_xyz
  1  'x, y, z'
loop_
 _atom_site_type_symbol
 _atom_site_label
 _atom_site_symmetry_multiplicity
 _atom_site_fract_x
 _atom_site_fract_y
 _atom_site_fract_z
 _atom_site_occupancy
  La  La0  1  0.044921  0.991693  0.010770  1
  La  La1  1  0.552034  0.989906  0.031391  1
  La  La2  1  0.552034  0.010094  0.531391  1
  La  La3  1  0.933952  0.483662  0.466875  1
  La  La4  1  0.044921  0.008307  0.510770  1
  La  La5  1  0.463341  0.513620  0.484966  1
  La  La6  1  0.463341  0.486380  0.984966  1
  La  La7  1  0.933952  0.516338  0.966875  1
  Mn  Mn8  1  0.501261  0.242222  0.250424  1
  Mn  Mn9  1  0.500606  0.748745  0.250260  1
  Mn  Mn10  1  0.000484  0.249167  0.250265  1
  Mn  Mn11  1  0.002049  0.750919  0.249805  1
  Mn  Mn12  1  0.002049  0.249081  0.749805  1
  Mn  Mn13  1  0.000484  0.750833  0.750265  1
  Mn  Mn14  1  0.500606  0.251255  0.750260  1
  Mn  Mn15  1  0.501261  0.757778  0.750424  1
  O  O16  1  0.302212  0.199163  0.016601  1
  O  O17  1  0.300590  0.792157  0.994089  1
  O  O18  1  0.453025  0.012132  0.278195  1
  O  O19  1  0.511544  0.482308  0.216043  1
  O  O20  1  0.667220  0.297053  0.478806  1
  O  O21  1  0.735311  0.689728  0.505687  1
  O  O22  1  0.807624  0.209622  0.307941  1
  O  O23  1  0.800117  0.797644  0.290671  1
  O  O24  1  0.800117  0.202356  0.790671  1
  O  O25  1  0.807624  0.790378  0.807941  1
  O  O26  1  0.973753  0.996196  0.186238  1
  O  O27  1  0.973753  0.003804  0.686238  1
  O  O28  1  0.036470  0.504475  0.308274  1
  O  O29  1  0.036470  0.495525  0.808274  1
  O  O30  1  0.195285  0.697284  0.202498  1
  O  O31  1  0.195285  0.302716  0.702498  1
  O  O32  1  0.300590  0.207843  0.494089  1
  O  O33  1  0.302212  0.800837  0.516601  1
  O  O34  1  0.453025  0.987868  0.778195  1
  O  O35  1  0.511544  0.517692  0.716043  1
  O  O36  1  0.667220  0.702947  0.978806  1
  O  O37  1  0.735311  0.310272  0.005687  1
