# generated using pymatgen
data_BaNb3NO7
_symmetry_space_group_name_H-M   'P 1'
_cell_length_a   10.77794904
_cell_length_b   10.77794904
_cell_length_c   9.13810481
_cell_angle_alpha   89.74522804
_cell_angle_beta   90.25477196
_cell_angle_gamma   159.18891022
_symmetry_Int_Tables_number   1
_chemical_formula_structural   BaNb3NO7
_chemical_formula_sum   'Ba2 Nb6 N2 O14'
_cell_volume   377.14152977
_cell_formula_units_Z   2
loop_
 _symmetry_equiv_pos_site_id
 _symmetry_equiv_pos_as_xyz
  1  'x, y, z'
loop_
 _atom_site_type_symbol
 _atom_site_label
 _atom_site_symmetry_multiplicity
 _atom_site_fract_x
 _atom_site_fract_y
 _atom_site_fract_z
 _atom_site_occupancy
  Ba  Ba0  1  0.007139  0.992861  0.755926  1
  Ba  Ba1  1  0.977545  0.022455  0.245909  1
  Nb  Nb2  1  0.364804  0.635196  0.948418  1
  Nb  Nb3  1  0.760305  0.239695  0.773003  1
  Nb  Nb4  1  0.361940  0.638060  0.560066  1
  Nb  Nb5  1  0.631586  0.368414  0.457573  1
  Nb  Nb6  1  0.234039  0.765961  0.252636  1
  Nb  Nb7  1  0.624395  0.375605  0.064614  1
  N  N8  1  0.835913  0.164087  0.902479  1
  N  N9  1  0.431772  0.568228  0.069038  1
  O  O10  1  0.560729  0.439271  0.930029  1
  O  O11  1  0.697402  0.302598  0.911822  1
  O  O12  1  0.276100  0.723900  0.729291  1
  O  O13  1  0.413322  0.586678  0.742613  1
  O  O14  1  0.697366  0.302634  0.592050  1
  O  O15  1  0.842082  0.157918  0.586569  1
  O  O16  1  0.560814  0.439186  0.573621  1
  O  O17  1  0.426847  0.573153  0.430689  1
  O  O18  1  0.145593  0.854407  0.404658  1
  O  O19  1  0.288763  0.711237  0.408653  1
  O  O20  1  0.705681  0.294319  0.253385  1
  O  O21  1  0.576395  0.423605  0.245628  1
  O  O22  1  0.289832  0.710168  0.102776  1
  O  O23  1  0.147508  0.852492  0.090806  1
