# generated using pymatgen
data_LiFePO4
_symmetry_space_group_name_H-M   'P 1'
_cell_length_a   5.21548936
_cell_length_b   7.74731971
_cell_length_c   8.34986156
_cell_angle_alpha   92.54521296
_cell_angle_beta   89.56086578
_cell_angle_gamma   102.23332050
_symmetry_Int_Tables_number   1
_chemical_formula_structural   LiFePO4
_chemical_formula_sum   'Li4 Fe4 P4 O16'
_cell_volume   329.39817540
_cell_formula_units_Z   4
loop_
 _symmetry_equiv_pos_site_id
 _symmetry_equiv_pos_as_xyz
  1  'x, y, z'
loop_
 _atom_site_type_symbol
 _atom_site_label
 _atom_site_symmetry_multiplicity
 _atom_site_fract_x
 _atom_site_fract_y
 _atom_site_fract_z
 _atom_site_occupancy
  Li  Li0  1  0.290075  0.816678  0.103313  1
  Li  Li1  1  0.318722  0.333205  0.425606  1
  Li  Li2  1  0.681278  0.666795  0.574394  1
  Li  Li3  1  0.709925  0.183322  0.896687  1
  Fe  Fe4  1  0.152189  0.054335  0.692393  1
  Fe  Fe5  1  0.192012  0.541794  0.784414  1
  Fe  Fe6  1  0.807988  0.458206  0.215586  1
  Fe  Fe7  1  0.847811  0.945665  0.307607  1
  P  P8  1  0.241619  0.719693  0.436050  1
  P  P9  1  0.221545  0.218556  0.082876  1
  P  P10  1  0.778455  0.781444  0.917124  1
  P  P11  1  0.758381  0.280307  0.563950  1
  O  O12  1  0.052606  0.830407  0.517095  1
  O  O13  1  0.038272  0.712135  0.930227  1
  O  O14  1  0.124050  0.653696  0.267639  1
  O  O15  1  0.266675  0.561784  0.539871  1
  O  O16  1  0.166740  0.041683  0.172137  1
  O  O17  1  0.421460  0.356698  0.184811  1
  O  O18  1  0.333728  0.189791  0.913429  1
  O  O19  1  0.521268  0.828360  0.419041  1
  O  O20  1  0.478732  0.171640  0.580959  1
  O  O21  1  0.666272  0.810209  0.086571  1
  O  O22  1  0.578540  0.643302  0.815189  1
  O  O23  1  0.833260  0.958317  0.827863  1
  O  O24  1  0.733325  0.438216  0.460129  1
  O  O25  1  0.875950  0.346304  0.732361  1
  O  O26  1  0.961728  0.287865  0.069773  1
  O  O27  1  0.947394  0.169593  0.482905  1
