# generated using pymatgen
data_Li3Nb7O19
_symmetry_space_group_name_H-M   'P 1'
_cell_length_a   6.34289836
_cell_length_b   6.34289836
_cell_length_c   20.33741134
_cell_angle_alpha   90.00000000
_cell_angle_beta   90.00000000
_cell_angle_gamma   120.00000000
_symmetry_Int_Tables_number   1
_chemical_formula_structural   Li3Nb7O19
_chemical_formula_sum   'Li6 Nb14 O38'
_cell_volume   708.60107756
_cell_formula_units_Z   2
loop_
 _symmetry_equiv_pos_site_id
 _symmetry_equiv_pos_as_xyz
  1  'x, y, z'
loop_
 _atom_site_type_symbol
 _atom_site_label
 _atom_site_symmetry_multiplicity
 _atom_site_fract_x
 _atom_site_fract_y
 _atom_site_fract_z
 _atom_site_occupancy
  Li  Li0  1  0.000000  0.500000  0.000000  1
  Li  Li1  1  0.000000  0.500000  0.500000  1
  Li  Li2  1  0.500000  0.500000  0.000000  1
  Li  Li3  1  0.500000  0.500000  0.500000  1
  Li  Li4  1  0.500000  0.000000  0.500000  1
  Li  Li5  1  0.500000  0.000000  0.000000  1
  Nb  Nb6  1  0.305143  0.970424  0.655327  1
  Nb  Nb7  1  0.305143  0.970424  0.844673  1
  Nb  Nb8  1  0.029576  0.334719  0.655327  1
  Nb  Nb9  1  0.029576  0.334719  0.844673  1
  Nb  Nb10  1  0.000000  0.000000  0.000000  1
  Nb  Nb11  1  0.000000  0.000000  0.500000  1
  Nb  Nb12  1  0.334719  0.305143  0.155327  1
  Nb  Nb13  1  0.334719  0.305143  0.344673  1
  Nb  Nb14  1  0.665281  0.694857  0.655327  1
  Nb  Nb15  1  0.665281  0.694857  0.844673  1
  Nb  Nb16  1  0.970424  0.665281  0.155327  1
  Nb  Nb17  1  0.970424  0.665281  0.344673  1
  Nb  Nb18  1  0.694857  0.029576  0.155327  1
  Nb  Nb19  1  0.694857  0.029576  0.344673  1
  O  O20  1  0.245417  0.963192  0.555099  1
  O  O21  1  0.245417  0.963192  0.944901  1
  O  O22  1  0.291145  0.927175  0.750000  1
  O  O23  1  0.085815  0.420395  0.151870  1
  O  O24  1  0.085815  0.420395  0.348130  1
  O  O25  1  0.072825  0.363970  0.750000  1
  O  O26  1  0.334580  0.914185  0.151870  1
  O  O27  1  0.334580  0.914185  0.348130  1
  O  O28  1  0.036808  0.282225  0.555099  1
  O  O29  1  0.036808  0.282225  0.944901  1
  O  O30  1  0.000000  0.000000  0.164325  1
  O  O31  1  0.000000  0.000000  0.335675  1
  O  O32  1  0.000000  0.000000  0.664325  1
  O  O33  1  0.000000  0.000000  0.835675  1
  O  O34  1  0.333333  0.666667  0.637045  1
  O  O35  1  0.333333  0.666667  0.862955  1
  O  O36  1  0.282225  0.245417  0.055099  1
  O  O37  1  0.282225  0.245417  0.444901  1
  O  O38  1  0.363970  0.291145  0.250000  1
  O  O39  1  0.420395  0.334580  0.651870  1
  O  O40  1  0.420395  0.334580  0.848130  1
  O  O41  1  0.579605  0.665420  0.348130  1
  O  O42  1  0.579605  0.665420  0.151870  1
  O  O43  1  0.636030  0.708855  0.750000  1
  O  O44  1  0.717775  0.754583  0.555099  1
  O  O45  1  0.717775  0.754583  0.944901  1
  O  O46  1  0.666667  0.333333  0.362955  1
  O  O47  1  0.666667  0.333333  0.137045  1
  O  O48  1  0.963192  0.717775  0.055099  1
  O  O49  1  0.963192  0.717775  0.444901  1
  O  O50  1  0.665420  0.085815  0.651870  1
  O  O51  1  0.665420  0.085815  0.848130  1
  O  O52  1  0.927175  0.636030  0.250000  1
  O  O53  1  0.914185  0.579605  0.651870  1
  O  O54  1  0.914185  0.579605  0.848130  1
  O  O55  1  0.708855  0.072825  0.250000  1
  O  O56  1  0.754583  0.036808  0.055099  1
  O  O57  1  0.754583  0.036808  0.444901  1
