# generated using pymatgen
data_VFe3Sb2(PO4)6
_symmetry_space_group_name_H-M   'P 1'
_cell_length_a   8.88420800
_cell_length_b   8.88420800
_cell_length_c   8.88420800
_cell_angle_alpha   58.54432472
_cell_angle_beta   58.54432472
_cell_angle_gamma   58.54432472
_symmetry_Int_Tables_number   1
_chemical_formula_structural   VFe3Sb2(PO4)6
_chemical_formula_sum   'V1 Fe3 Sb2 P6 O24'
_cell_volume   479.33228469
_cell_formula_units_Z   1
loop_
 _symmetry_equiv_pos_site_id
 _symmetry_equiv_pos_as_xyz
  1  'x, y, z'
loop_
 _atom_site_type_symbol
 _atom_site_label
 _atom_site_symmetry_multiplicity
 _atom_site_fract_x
 _atom_site_fract_y
 _atom_site_fract_z
 _atom_site_occupancy
  V  V0  1  0.144629  0.144629  0.144629  1
  Fe  Fe1  1  0.649822  0.649822  0.649822  1
  Fe  Fe2  1  0.847755  0.847755  0.847755  1
  Fe  Fe3  1  0.351407  0.351407  0.351407  1
  Sb  Sb4  1  0.990751  0.990751  0.990751  1
  Sb  Sb5  1  0.499006  0.499006  0.499006  1
  P  P6  1  0.250956  0.539570  0.961054  1
  P  P7  1  0.961054  0.250956  0.539570  1
  P  P8  1  0.539570  0.961054  0.250956  1
  P  P9  1  0.457955  0.043833  0.748703  1
  P  P10  1  0.043833  0.748703  0.457955  1
  P  P11  1  0.748703  0.457955  0.043833  1
  O  O12  1  0.115523  0.303228  0.510236  1
  O  O13  1  0.510236  0.115523  0.303228  1
  O  O14  1  0.303228  0.510236  0.115523  1
  O  O15  1  0.081185  0.735286  0.939493  1
  O  O16  1  0.192099  0.388054  0.997715  1
  O  O17  1  0.416670  0.561832  0.767977  1
  O  O18  1  0.939493  0.081185  0.735286  1
  O  O19  1  0.767977  0.416670  0.561832  1
  O  O20  1  0.618717  0.010102  0.796059  1
  O  O21  1  0.561832  0.767977  0.416670  1
  O  O22  1  0.267816  0.066791  0.913128  1
  O  O23  1  0.010102  0.796059  0.618717  1
  O  O24  1  0.997715  0.192099  0.388054  1
  O  O25  1  0.735286  0.939493  0.081185  1
  O  O26  1  0.439520  0.236707  0.580566  1
  O  O27  1  0.388054  0.997715  0.192099  1
  O  O28  1  0.236707  0.580566  0.439520  1
  O  O29  1  0.066791  0.913128  0.267816  1
  O  O30  1  0.580566  0.439520  0.236707  1
  O  O31  1  0.796059  0.618717  0.010102  1
  O  O32  1  0.913128  0.267816  0.066791  1
  O  O33  1  0.698233  0.492301  0.885347  1
  O  O34  1  0.492301  0.885347  0.698233  1
  O  O35  1  0.885347  0.698233  0.492301  1
