# generated using pymatgen
data_TiO2
_symmetry_space_group_name_H-M   'P 1'
_cell_length_a   9.90433790
_cell_length_b   11.71480744
_cell_length_c   11.73865256
_cell_angle_alpha   94.19409860
_cell_angle_beta   114.91301499
_cell_angle_gamma   114.98046159
_symmetry_Int_Tables_number   1
_chemical_formula_structural   TiO2
_chemical_formula_sum   'Ti18 O36'
_cell_volume   1066.23430936
_cell_formula_units_Z   18
loop_
 _symmetry_equiv_pos_site_id
 _symmetry_equiv_pos_as_xyz
  1  'x, y, z'
loop_
 _atom_site_type_symbol
 _atom_site_label
 _atom_site_symmetry_multiplicity
 _atom_site_fract_x
 _atom_site_fract_y
 _atom_site_fract_z
 _atom_site_occupancy
  Ti  Ti0  1  0.751676  0.084034  0.916880  1
  Ti  Ti1  1  0.567930  0.086205  0.588515  1
  Ti  Ti2  1  0.673905  0.502557  0.835850  1
  Ti  Ti3  1  0.158137  0.008153  0.319883  1
  Ti  Ti4  1  0.075250  0.243884  0.415584  1
  Ti  Ti5  1  0.257983  0.575708  0.417104  1
  Ti  Ti6  1  0.262193  0.243420  0.749509  1
  Ti  Ti7  1  0.574884  0.748993  0.918893  1
  Ti  Ti8  1  0.164279  0.671355  0.649780  1
  Ti  Ti9  1  0.165248  0.336994  0.982464  1
  Ti  Ti10  1  0.665622  0.166636  0.169691  1
  Ti  Ti11  1  0.756372  0.417392  0.584775  1
  Ti  Ti12  1  0.747069  0.751106  0.252193  1
  Ti  Ti13  1  0.073671  0.908784  0.750195  1
  Ti  Ti14  1  0.571949  0.415291  0.255041  1
  Ti  Ti15  1  0.663425  0.839152  0.501256  1
  Ti  Ti16  1  0.251697  0.906406  0.084512  1
  Ti  Ti17  1  0.075491  0.570825  0.083209  1
  O  O18  1  0.600857  0.073261  0.752088  1
  O  O19  1  0.349018  0.049430  0.475853  1
  O  O20  1  0.487849  0.343897  0.796073  1
  O  O21  1  0.628425  0.636429  0.856212  1
  O  O22  1  0.116860  0.145862  0.320767  1
  O  O23  1  0.216936  0.418937  0.449690  1
  O  O24  1  0.211077  0.082890  0.776531  1
  O  O25  1  0.711260  0.918786  0.929111  1
  O  O26  1  0.122602  0.539915  0.240939  1
  O  O27  1  0.129401  0.215453  0.574559  1
  O  O28  1  0.211887  0.328901  0.848014  1
  O  O29  1  0.203585  0.660790  0.511922  1
  O  O30  1  0.722617  0.159289  0.040716  1
  O  O31  1  0.352064  0.700397  0.802526  1
  O  O32  1  0.848160  0.195790  0.324813  1
  O  O33  1  0.849217  0.523049  0.991135  1
  O  O34  1  0.974138  0.516560  0.612914  1
  O  O35  1  0.969683  0.185923  0.945274  1
  O  O36  1  0.622467  0.301817  0.188953  1
  O  O37  1  0.127676  0.475273  0.996089  1
  O  O38  1  0.120792  0.806554  0.664955  1
  O  O39  1  0.970379  0.857856  0.295469  1
  O  O40  1  0.715977  0.253709  0.602018  1
  O  O41  1  0.707538  0.586615  0.267684  1
  O  O42  1  0.120436  0.881628  0.910053  1
  O  O43  1  0.607539  0.739457  0.083096  1
  O  O44  1  0.603895  0.403231  0.418630  1
  O  O45  1  0.736639  0.500898  0.709900  1
  O  O46  1  0.349430  0.367447  0.138941  1
  O  O47  1  0.707287  0.829872  0.365458  1
  O  O48  1  0.850223  0.868818  0.653705  1
  O  O49  1  0.478497  0.011101  0.136400  1
  O  O50  1  0.483993  0.679311  0.467942  1
  O  O51  1  0.606997  0.966883  0.518532  1
  O  O52  1  0.207005  0.746118  0.110633  1
  O  O53  1  0.196047  0.985427  0.183254  1
