# generated using pymatgen
data_NaSnAsCO7
_symmetry_space_group_name_H-M   'P 1'
_cell_length_a   5.43786739
_cell_length_b   6.83700029
_cell_length_c   9.53067804
_cell_angle_alpha   90.00000000
_cell_angle_beta   92.88622211
_cell_angle_gamma   90.00000000
_symmetry_Int_Tables_number   1
_chemical_formula_structural   NaSnAsCO7
_chemical_formula_sum   'Na2 Sn2 As2 C2 O14'
_cell_volume   353.88874831
_cell_formula_units_Z   2
loop_
 _symmetry_equiv_pos_site_id
 _symmetry_equiv_pos_as_xyz
  1  'x, y, z'
loop_
 _atom_site_type_symbol
 _atom_site_label
 _atom_site_symmetry_multiplicity
 _atom_site_fract_x
 _atom_site_fract_y
 _atom_site_fract_z
 _atom_site_occupancy
  Na  Na0  1  0.775293  0.501415  0.188274  1
  Na  Na1  1  0.224707  0.001415  0.811726  1
  Sn  Sn2  1  0.212230  0.240209  0.340205  1
  Sn  Sn3  1  0.787770  0.740209  0.659795  1
  As  As4  1  0.276335  0.746581  0.432560  1
  As  As5  1  0.723665  0.246581  0.567440  1
  C  C6  1  0.279383  0.259644  0.077828  1
  C  C7  1  0.720617  0.759644  0.922172  1
  O  O8  1  0.684534  0.751749  0.048428  1
  O  O9  1  0.056556  0.255932  0.132861  1
  O  O10  1  0.461933  0.269174  0.179742  1
  O  O11  1  0.201429  0.939433  0.325277  1
  O  O12  1  0.177626  0.549421  0.335135  1
  O  O13  1  0.853716  0.257922  0.406509  1
  O  O14  1  0.593308  0.730672  0.467725  1
  O  O15  1  0.406692  0.230672  0.532275  1
  O  O16  1  0.146284  0.757922  0.593491  1
  O  O17  1  0.822374  0.049421  0.664865  1
  O  O18  1  0.798571  0.439433  0.674723  1
  O  O19  1  0.538067  0.769174  0.820258  1
  O  O20  1  0.943444  0.755932  0.867139  1
  O  O21  1  0.315466  0.251749  0.951572  1
