# generated using pymatgen
data_Li2AlCoO4
_symmetry_space_group_name_H-M   'P 1'
_cell_length_a   5.13440226
_cell_length_b   10.83177253
_cell_length_c   8.09250873
_cell_angle_alpha   90.00000000
_cell_angle_beta   128.23162748
_cell_angle_gamma   90.00000000
_symmetry_Int_Tables_number   1
_chemical_formula_structural   Li2AlCoO4
_chemical_formula_sum   'Li8 Al4 Co4 O16'
_cell_volume   353.53084191
_cell_formula_units_Z   4
loop_
 _symmetry_equiv_pos_site_id
 _symmetry_equiv_pos_as_xyz
  1  'x, y, z'
loop_
 _atom_site_type_symbol
 _atom_site_label
 _atom_site_symmetry_multiplicity
 _atom_site_fract_x
 _atom_site_fract_y
 _atom_site_fract_z
 _atom_site_occupancy
  Li  Li0  1  0.304940  0.832760  0.993099  1
  Li  Li1  1  0.051316  0.080796  0.759929  1
  Li  Li2  1  0.948684  0.580796  0.740071  1
  Li  Li3  1  0.695060  0.332760  0.506901  1
  Li  Li4  1  0.304940  0.667240  0.493099  1
  Li  Li5  1  0.051316  0.419204  0.259929  1
  Li  Li6  1  0.948684  0.919204  0.240071  1
  Li  Li7  1  0.695060  0.167240  0.006901  1
  Al  Al8  1  0.820888  0.664444  0.000412  1
  Al  Al9  1  0.179112  0.164444  0.499588  1
  Al  Al10  1  0.820888  0.835556  0.500412  1
  Al  Al11  1  0.179112  0.335556  0.999588  1
  Co  Co12  1  0.438622  0.413656  0.753761  1
  Co  Co13  1  0.561378  0.913656  0.746239  1
  Co  Co14  1  0.438622  0.086344  0.253761  1
  Co  Co15  1  0.561378  0.586344  0.246239  1
  O  O16  1  0.817274  0.334183  0.984530  1
  O  O17  1  0.688658  0.819776  0.979073  1
  O  O18  1  0.459215  0.078426  0.736068  1
  O  O19  1  0.088034  0.407896  0.771752  1
  O  O20  1  0.911966  0.907896  0.728248  1
  O  O21  1  0.540785  0.578426  0.763932  1
  O  O22  1  0.311342  0.319776  0.520927  1
  O  O23  1  0.182726  0.834183  0.515470  1
  O  O24  1  0.817274  0.165817  0.484530  1
  O  O25  1  0.688658  0.680224  0.479073  1
  O  O26  1  0.459215  0.421574  0.236068  1
  O  O27  1  0.088034  0.092104  0.271752  1
  O  O28  1  0.911966  0.592104  0.228248  1
  O  O29  1  0.540785  0.921574  0.263932  1
  O  O30  1  0.311342  0.180224  0.020927  1
  O  O31  1  0.182726  0.665817  0.015470  1
