# generated using pymatgen
data_BaLa2O4
_symmetry_space_group_name_H-M   'P 1'
_cell_length_a   6.31597270
_cell_length_b   6.31597270
_cell_length_c   11.92853605
_cell_angle_alpha   90.00000000
_cell_angle_beta   90.00000000
_cell_angle_gamma   146.33138264
_symmetry_Int_Tables_number   1
_chemical_formula_structural   BaLa2O4
_chemical_formula_sum   'Ba2 La4 O8'
_cell_volume   263.80436198
_cell_formula_units_Z   2
loop_
 _symmetry_equiv_pos_site_id
 _symmetry_equiv_pos_as_xyz
  1  'x, y, z'
loop_
 _atom_site_type_symbol
 _atom_site_label
 _atom_site_symmetry_multiplicity
 _atom_site_fract_x
 _atom_site_fract_y
 _atom_site_fract_z
 _atom_site_occupancy
  Ba  Ba0  1  0.889915  0.110085  0.250000  1
  Ba  Ba1  1  0.110085  0.889915  0.750000  1
  La  La2  1  0.633797  0.366203  0.427471  1
  La  La3  1  0.633797  0.366203  0.072529  1
  La  La4  1  0.366203  0.633797  0.572529  1
  La  La5  1  0.366203  0.633797  0.927471  1
  O  O6  1  0.000000  0.000000  0.000000  1
  O  O7  1  0.000000  0.000000  0.500000  1
  O  O8  1  0.545935  0.454065  0.250000  1
  O  O9  1  0.737115  0.262885  0.604045  1
  O  O10  1  0.737115  0.262885  0.895955  1
  O  O11  1  0.454065  0.545935  0.750000  1
  O  O12  1  0.262885  0.737115  0.395955  1
  O  O13  1  0.262885  0.737115  0.104045  1
