# generated using pymatgen
data_CrSb3(PO4)6
_symmetry_space_group_name_H-M   'P 1'
_cell_length_a   8.88932519
_cell_length_b   8.88932519
_cell_length_c   8.88932519
_cell_angle_alpha   58.02285423
_cell_angle_beta   58.02285423
_cell_angle_gamma   58.02285423
_symmetry_Int_Tables_number   1
_chemical_formula_structural   CrSb3(PO4)6
_chemical_formula_sum   'Cr1 Sb3 P6 O24'
_cell_volume   474.17268080
_cell_formula_units_Z   1
loop_
 _symmetry_equiv_pos_site_id
 _symmetry_equiv_pos_as_xyz
  1  'x, y, z'
loop_
 _atom_site_type_symbol
 _atom_site_label
 _atom_site_symmetry_multiplicity
 _atom_site_fract_x
 _atom_site_fract_y
 _atom_site_fract_z
 _atom_site_occupancy
  Cr  Cr0  1  0.142843  0.142843  0.142843  1
  Sb  Sb1  1  0.856750  0.856750  0.856750  1
  Sb  Sb2  1  0.643537  0.643537  0.643537  1
  Sb  Sb3  1  0.356486  0.356486  0.356486  1
  P  P4  1  0.248943  0.533076  0.962950  1
  P  P5  1  0.962950  0.248943  0.533076  1
  P  P6  1  0.533076  0.962950  0.248943  1
  P  P7  1  0.457495  0.038731  0.754274  1
  P  P8  1  0.038731  0.754274  0.457495  1
  P  P9  1  0.754274  0.457495  0.038731  1
  O  O10  1  0.722731  0.487701  0.866806  1
  O  O11  1  0.487701  0.866806  0.722731  1
  O  O12  1  0.076297  0.720199  0.940207  1
  O  O13  1  0.866806  0.722731  0.487701  1
  O  O14  1  0.424279  0.560766  0.781087  1
  O  O15  1  0.223766  0.366471  0.988719  1
  O  O16  1  0.940207  0.076297  0.720199  1
  O  O17  1  0.781087  0.424279  0.560766  1
  O  O18  1  0.560766  0.781087  0.424279  1
  O  O19  1  0.635975  0.013861  0.771540  1
  O  O20  1  0.283026  0.059544  0.923513  1
  O  O21  1  0.013861  0.771540  0.635975  1
  O  O22  1  0.988719  0.223766  0.366471  1
  O  O23  1  0.720199  0.940207  0.076297  1
  O  O24  1  0.366471  0.988719  0.223766  1
  O  O25  1  0.443661  0.217615  0.573231  1
  O  O26  1  0.217615  0.573231  0.443661  1
  O  O27  1  0.059544  0.923513  0.283026  1
  O  O28  1  0.771540  0.635975  0.013861  1
  O  O29  1  0.573231  0.443661  0.217615  1
  O  O30  1  0.132413  0.275318  0.516187  1
  O  O31  1  0.923513  0.283026  0.059544  1
  O  O32  1  0.516187  0.132413  0.275318  1
  O  O33  1  0.275318  0.516187  0.132413  1
