# generated using pymatgen
data_LiMn2(SO4)3
_symmetry_space_group_name_H-M   'P 1'
_cell_length_a   8.83485100
_cell_length_b   8.83485100
_cell_length_c   8.83485100
_cell_angle_alpha   59.42299459
_cell_angle_beta   59.42299459
_cell_angle_gamma   59.42299459
_symmetry_Int_Tables_number   1
_chemical_formula_structural   LiMn2(SO4)3
_chemical_formula_sum   'Li2 Mn4 S6 O24'
_cell_volume   481.21945930
_cell_formula_units_Z   2
loop_
 _symmetry_equiv_pos_site_id
 _symmetry_equiv_pos_as_xyz
  1  'x, y, z'
loop_
 _atom_site_type_symbol
 _atom_site_label
 _atom_site_symmetry_multiplicity
 _atom_site_fract_x
 _atom_site_fract_y
 _atom_site_fract_z
 _atom_site_occupancy
  Li  Li0  1  0.000000  0.000000  0.000000  1
  Li  Li1  1  0.500000  0.500000  0.500000  1
  Mn  Mn2  1  0.644841  0.644841  0.644841  1
  Mn  Mn3  1  0.855159  0.855159  0.855159  1
  Mn  Mn4  1  0.355159  0.355159  0.355159  1
  Mn  Mn5  1  0.144841  0.144841  0.144841  1
  S  S6  1  0.250000  0.546458  0.953542  1
  S  S7  1  0.046458  0.750000  0.453542  1
  S  S8  1  0.453542  0.046458  0.750000  1
  S  S9  1  0.546458  0.953542  0.250000  1
  S  S10  1  0.953542  0.250000  0.546458  1
  S  S11  1  0.750000  0.453542  0.046458  1
  O  O12  1  0.093397  0.729001  0.940617  1
  O  O13  1  0.270999  0.059383  0.906603  1
  O  O14  1  0.102523  0.308000  0.508932  1
  O  O15  1  0.991068  0.192000  0.397477  1
  O  O16  1  0.406603  0.559383  0.770999  1
  O  O17  1  0.229001  0.593397  0.440617  1
  O  O18  1  0.059383  0.906603  0.270999  1
  O  O19  1  0.808000  0.602523  0.008932  1
  O  O20  1  0.491068  0.897477  0.692000  1
  O  O21  1  0.692000  0.491068  0.897477  1
  O  O22  1  0.602523  0.008932  0.808000  1
  O  O23  1  0.440617  0.229001  0.593397  1
  O  O24  1  0.559383  0.770999  0.406603  1
  O  O25  1  0.308000  0.508932  0.102523  1
  O  O26  1  0.397477  0.991068  0.192000  1
  O  O27  1  0.192000  0.397477  0.991068  1
  O  O28  1  0.508932  0.102523  0.308000  1
  O  O29  1  0.940617  0.093397  0.729001  1
  O  O30  1  0.770999  0.406603  0.559383  1
  O  O31  1  0.593397  0.440617  0.229001  1
  O  O32  1  0.897477  0.692000  0.491068  1
  O  O33  1  0.008932  0.808000  0.602523  1
  O  O34  1  0.729001  0.940617  0.093397  1
  O  O35  1  0.906603  0.270999  0.059383  1
