# generated using pymatgen
data_Ti12Fe5O32
_symmetry_space_group_name_H-M   'P 1'
_cell_length_a   8.44229239
_cell_length_b   8.44229239
_cell_length_c   8.44229239
_cell_angle_alpha   90.08969226
_cell_angle_beta   90.08969226
_cell_angle_gamma   90.08969226
_symmetry_Int_Tables_number   1
_chemical_formula_structural   Ti12Fe5O32
_chemical_formula_sum   'Ti12 Fe5 O32'
_cell_volume   601.69938877
_cell_formula_units_Z   1
loop_
 _symmetry_equiv_pos_site_id
 _symmetry_equiv_pos_as_xyz
  1  'x, y, z'
loop_
 _atom_site_type_symbol
 _atom_site_label
 _atom_site_symmetry_multiplicity
 _atom_site_fract_x
 _atom_site_fract_y
 _atom_site_fract_z
 _atom_site_occupancy
  Ti  Ti0  1  0.149777  0.618992  0.115620  1
  Ti  Ti1  1  0.877941  0.365477  0.136548  1
  Ti  Ti2  1  0.618992  0.115620  0.149777  1
  Ti  Ti3  1  0.136548  0.877941  0.365477  1
  Ti  Ti4  1  0.384690  0.644518  0.368250  1
  Ti  Ti5  1  0.644518  0.368250  0.384690  1
  Ti  Ti6  1  0.854652  0.870172  0.609745  1
  Ti  Ti7  1  0.115620  0.149777  0.618992  1
  Ti  Ti8  1  0.368250  0.384690  0.644518  1
  Ti  Ti9  1  0.870172  0.609745  0.854652  1
  Ti  Ti10  1  0.609745  0.854652  0.870172  1
  Ti  Ti11  1  0.365477  0.136548  0.877941  1
  Fe  Fe12  1  0.755285  0.739847  0.243569  1
  Fe  Fe13  1  0.259055  0.259055  0.259055  1
  Fe  Fe14  1  0.243569  0.755285  0.739847  1
  Fe  Fe15  1  0.739847  0.243569  0.755285  1
  Fe  Fe16  1  0.994990  0.994990  0.994990  1
  O  O17  1  0.387636  0.140929  0.113732  1
  O  O18  1  0.887658  0.606277  0.111646  1
  O  O19  1  0.648227  0.890364  0.112215  1
  O  O20  1  0.113732  0.387636  0.140929  1
  O  O21  1  0.865391  0.139773  0.107142  1
  O  O22  1  0.358563  0.618859  0.141994  1
  O  O23  1  0.648279  0.349539  0.145005  1
  O  O24  1  0.107142  0.865391  0.139773  1
  O  O25  1  0.618859  0.141994  0.358563  1
  O  O26  1  0.145005  0.648279  0.349539  1
  O  O27  1  0.858035  0.380684  0.356340  1
  O  O28  1  0.356340  0.858035  0.380684  1
  O  O29  1  0.611715  0.608808  0.356558  1
  O  O30  1  0.140929  0.113732  0.387636  1
  O  O31  1  0.389378  0.389378  0.389378  1
  O  O32  1  0.885391  0.858324  0.386798  1
  O  O33  1  0.608808  0.356558  0.611715  1
  O  O34  1  0.111646  0.887658  0.606277  1
  O  O35  1  0.356558  0.611715  0.608808  1
  O  O36  1  0.890364  0.112215  0.648227  1
  O  O37  1  0.141994  0.358563  0.618859  1
  O  O38  1  0.646218  0.880921  0.650221  1
  O  O39  1  0.349539  0.145005  0.648279  1
  O  O40  1  0.880921  0.650221  0.646218  1
  O  O41  1  0.380684  0.356340  0.858035  1
  O  O42  1  0.865590  0.865590  0.865590  1
  O  O43  1  0.139773  0.107142  0.865391  1
  O  O44  1  0.650221  0.646218  0.880921  1
  O  O45  1  0.386798  0.885391  0.858324  1
  O  O46  1  0.858324  0.386798  0.885391  1
  O  O47  1  0.606277  0.111646  0.887658  1
  O  O48  1  0.112215  0.648227  0.890364  1
