# generated using pymatgen
data_Bi25BO39
_symmetry_space_group_name_H-M   'P 1'
_cell_length_a   9.31736789
_cell_length_b   9.60600464
_cell_length_c   14.61983268
_cell_angle_alpha   93.06054639
_cell_angle_beta   90.43215664
_cell_angle_gamma   113.52584657
_symmetry_Int_Tables_number   1
_chemical_formula_structural   Bi25BO39
_chemical_formula_sum   'Bi25 B1 O39'
_cell_volume   1197.44429885
_cell_formula_units_Z   1
loop_
 _symmetry_equiv_pos_site_id
 _symmetry_equiv_pos_as_xyz
  1  'x, y, z'
loop_
 _atom_site_type_symbol
 _atom_site_label
 _atom_site_symmetry_multiplicity
 _atom_site_fract_x
 _atom_site_fract_y
 _atom_site_fract_z
 _atom_site_occupancy
  Bi  Bi0  1  0.237672  0.443599  0.915609  1
  Bi  Bi1  1  0.622114  0.808672  0.940413  1
  Bi  Bi2  1  0.458511  0.864526  0.641181  1
  Bi  Bi3  1  0.212430  0.459465  0.664456  1
  Bi  Bi4  1  0.336963  0.954790  0.867123  1
  Bi  Bi5  1  0.954068  0.656457  0.857324  1
  Bi  Bi6  1  0.270109  0.730201  0.428273  1
  Bi  Bi7  1  0.071123  0.938703  0.267614  1
  Bi  Bi8  1  0.527635  0.342518  0.776436  1
  Bi  Bi9  1  0.772104  0.230745  0.935586  1
  Bi  Bi10  1  0.285960  0.106898  0.571637  1
  Bi  Bi11  1  0.735887  0.937325  0.424991  1
  Bi  Bi12  1  0.935388  0.747030  0.544875  1
  Bi  Bi13  1  0.093679  0.298488  0.402618  1
  Bi  Bi14  1  0.267139  0.757801  0.083944  1
  Bi  Bi15  1  0.405212  0.526063  0.248581  1
  Bi  Bi16  1  0.762380  0.309304  0.556105  1
  Bi  Bi17  1  0.950355  0.095241  0.720795  1
  Bi  Bi18  1  0.999157  0.361307  0.149008  1
  Bi  Bi19  1  0.678128  0.968490  0.184812  1
  Bi  Bi20  1  0.844312  0.528255  0.331630  1
  Bi  Bi21  1  0.453762  0.223696  0.350479  1
  Bi  Bi22  1  0.668666  0.694097  0.709425  1
  Bi  Bi23  1  0.786545  0.616661  0.089853  1
  Bi  Bi24  1  0.456507  0.214349  0.096501  1
  B  B25  1  0.567202  0.561542  0.468207  1
  O  O26  1  0.997743  0.714501  0.003050  1
  O  O27  1  0.001354  0.363688  0.993956  1
  O  O28  1  0.052016  0.971593  0.647469  1
  O  O29  1  0.300542  0.682193  0.946767  1
  O  O30  1  0.542304  0.917151  0.833642  1
  O  O31  1  0.097463  0.445210  0.800463  1
  O  O32  1  0.460633  0.523722  0.825601  1
  O  O33  1  0.202776  0.824907  0.551637  1
  O  O34  1  0.815402  0.803699  0.839425  1
  O  O35  1  0.373475  0.976742  0.010727  1
  O  O36  1  0.726267  0.934811  0.654714  1
  O  O37  1  0.441630  0.199150  0.886581  1
  O  O38  1  0.751152  0.459154  0.873497  1
  O  O39  1  0.242113  0.050214  0.391644  1
  O  O40  1  0.288510  0.279812  0.692676  1
  O  O41  1  0.499364  0.882701  0.498918  1
  O  O42  1  0.754957  0.024990  0.007183  1
  O  O43  1  0.560411  0.579970  0.562092  1
  O  O44  1  0.201888  0.525720  0.500266  1
  O  O45  1  0.040502  0.441184  0.311466  1
  O  O46  1  0.860583  0.633399  0.674118  1
  O  O47  1  0.438157  0.070917  0.677457  1
  O  O48  1  0.575051  0.879104  0.313435  1
  O  O49  1  0.696480  0.659292  0.421369  1
  O  O50  1  0.524910  0.219685  0.499080  1
  O  O51  1  0.883321  0.510718  0.483617  1
  O  O52  1  0.257828  0.287193  0.271370  1
  O  O53  1  0.238395  0.503335  0.127349  1
  O  O54  1  0.508625  0.771822  0.111939  1
  O  O55  1  0.998187  0.267572  0.620634  1
  O  O56  1  0.017866  0.753326  0.362995  1
  O  O57  1  0.833808  0.810697  0.186229  1
  O  O58  1  0.567615  0.446526  0.189153  1
  O  O59  1  0.819432  0.199715  0.440362  1
  O  O60  1  0.448613  0.449695  0.413076  1
  O  O61  1  0.485138  0.079408  0.198019  1
  O  O62  1  0.942205  0.559783  0.175160  1
  O  O63  1  0.936301  0.052363  0.322446  1
  O  O64  1  0.698876  0.303016  0.060440  1
