# generated using pymatgen
data_BiO2
_symmetry_space_group_name_H-M   'P 1'
_cell_length_a   4.29478717
_cell_length_b   4.29478717
_cell_length_c   6.60244187
_cell_angle_alpha   71.76423607
_cell_angle_beta   108.23576393
_cell_angle_gamma   90.17418078
_symmetry_Int_Tables_number   1
_chemical_formula_structural   BiO2
_chemical_formula_sum   'Bi2 O4'
_cell_volume   109.24844572
_cell_formula_units_Z   2
loop_
 _symmetry_equiv_pos_site_id
 _symmetry_equiv_pos_as_xyz
  1  'x, y, z'
loop_
 _atom_site_type_symbol
 _atom_site_label
 _atom_site_symmetry_multiplicity
 _atom_site_fract_x
 _atom_site_fract_y
 _atom_site_fract_z
 _atom_site_occupancy
  Bi  Bi0  1  0.129358  0.129358  0.750000  1
  Bi  Bi1  1  0.870642  0.870642  0.250000  1
  O  O2  1  0.075752  0.684423  0.636988  1
  O  O3  1  0.315577  0.924248  0.136988  1
  O  O4  1  0.684423  0.075752  0.863012  1
  O  O5  1  0.924248  0.315577  0.363012  1
