# generated using pymatgen
data_LiCuF3
_symmetry_space_group_name_H-M   'P 1'
_cell_length_a   5.17456380
_cell_length_b   5.28325357
_cell_length_c   7.91884289
_cell_angle_alpha   88.59964027
_cell_angle_beta   87.06488830
_cell_angle_gamma   85.81429710
_symmetry_Int_Tables_number   1
_chemical_formula_structural   LiCuF3
_chemical_formula_sum   'Li4 Cu4 F12'
_cell_volume   215.58228990
_cell_formula_units_Z   4
loop_
 _symmetry_equiv_pos_site_id
 _symmetry_equiv_pos_as_xyz
  1  'x, y, z'
loop_
 _atom_site_type_symbol
 _atom_site_label
 _atom_site_symmetry_multiplicity
 _atom_site_fract_x
 _atom_site_fract_y
 _atom_site_fract_z
 _atom_site_occupancy
  Li  Li0  1  0.993030  0.047522  0.734595  1
  Li  Li1  1  0.488999  0.534103  0.765596  1
  Li  Li2  1  0.511001  0.465897  0.234404  1
  Li  Li3  1  0.006970  0.952478  0.265405  1
  Cu  Cu4  1  0.000000  0.500000  0.500000  1
  Cu  Cu5  1  0.000000  0.500000  0.000000  1
  Cu  Cu6  1  0.500000  0.000000  0.500000  1
  Cu  Cu7  1  0.500000  0.000000  0.000000  1
  F  F8  1  0.827880  0.822767  0.911348  1
  F  F9  1  0.835169  0.831428  0.557930  1
  F  F10  1  0.860338  0.591294  0.224180  1
  F  F11  1  0.697658  0.342204  0.591187  1
  F  F12  1  0.654644  0.307421  0.938170  1
  F  F13  1  0.639508  0.097599  0.277482  1
  F  F14  1  0.360492  0.902401  0.722518  1
  F  F15  1  0.345356  0.692579  0.061830  1
  F  F16  1  0.302342  0.657796  0.408813  1
  F  F17  1  0.139662  0.408706  0.775820  1
  F  F18  1  0.164831  0.168572  0.442070  1
  F  F19  1  0.172120  0.177233  0.088652  1
