# generated using pymatgen
data_K3LiTi7O16
_symmetry_space_group_name_H-M   'P 1'
_cell_length_a   7.10690689
_cell_length_b   7.14073123
_cell_length_c   8.20745269
_cell_angle_alpha   97.23879097
_cell_angle_beta   97.13814088
_cell_angle_gamma   114.98767874
_symmetry_Int_Tables_number   1
_chemical_formula_structural   K3LiTi7O16
_chemical_formula_sum   'K3 Li1 Ti7 O16'
_cell_volume   367.15170109
_cell_formula_units_Z   1
loop_
 _symmetry_equiv_pos_site_id
 _symmetry_equiv_pos_as_xyz
  1  'x, y, z'
loop_
 _atom_site_type_symbol
 _atom_site_label
 _atom_site_symmetry_multiplicity
 _atom_site_fract_x
 _atom_site_fract_y
 _atom_site_fract_z
 _atom_site_occupancy
  K  K0  1  0.730200  0.266870  0.036081  1
  K  K1  1  0.439527  0.564190  0.006907  1
  K  K2  1  0.161695  0.875948  0.031916  1
  Li  Li3  1  0.530765  0.156031  0.373786  1
  Ti  Ti4  1  0.768978  0.909985  0.357828  1
  Ti  Ti5  1  0.716753  0.589839  0.627222  1
  Ti  Ti6  1  0.963432  0.342921  0.628302  1
  Ti  Ti7  1  0.472514  0.849179  0.626268  1
  Ti  Ti8  1  0.033457  0.657707  0.381751  1
  Ti  Ti9  1  0.285536  0.393695  0.358172  1
  Ti  Ti10  1  0.224137  0.095928  0.626980  1
  O  O11  1  0.866336  0.733326  0.233753  1
  O  O12  1  0.958526  0.830504  0.579213  1
  O  O13  1  0.615127  0.960761  0.206226  1
  O  O14  1  0.807318  0.430244  0.446076  1
  O  O15  1  0.546043  0.671105  0.433885  1
  O  O16  1  0.290469  0.917442  0.445048  1
  O  O17  1  0.870205  0.495456  0.775383  1
  O  O18  1  0.627050  0.752491  0.767759  1
  O  O19  1  0.446061  0.337415  0.566371  1
  O  O20  1  0.125719  0.508195  0.233654  1
  O  O21  1  0.712987  0.070771  0.567199  1
  O  O22  1  0.362782  0.266534  0.206214  1
  O  O23  1  0.205483  0.584106  0.578659  1
  O  O24  1  0.391295  0.016881  0.773596  1
  O  O25  1  0.044650  0.169451  0.428349  1
  O  O26  1  0.131227  0.256300  0.766496  1
