# generated using pymatgen
data_Li2Si2NiO6
_symmetry_space_group_name_H-M   'P 1'
_cell_length_a   7.13199230
_cell_length_b   9.82224803
_cell_length_c   10.04092159
_cell_angle_alpha   90.00000000
_cell_angle_beta   90.00000000
_cell_angle_gamma   90.00000000
_symmetry_Int_Tables_number   1
_chemical_formula_structural   Li2Si2NiO6
_chemical_formula_sum   'Li12 Si12 Ni6 O36'
_cell_volume   703.38862048
_cell_formula_units_Z   6
loop_
 _symmetry_equiv_pos_site_id
 _symmetry_equiv_pos_as_xyz
  1  'x, y, z'
loop_
 _atom_site_type_symbol
 _atom_site_label
 _atom_site_symmetry_multiplicity
 _atom_site_fract_x
 _atom_site_fract_y
 _atom_site_fract_z
 _atom_site_occupancy
  Li  Li0  1  0.788218  0.243620  0.000000  1
  Li  Li1  1  0.770407  0.768491  0.000000  1
  Li  Li2  1  0.288848  0.456823  0.225350  1
  Li  Li3  1  0.220752  0.035567  0.229187  1
  Li  Li4  1  0.779248  0.535567  0.270813  1
  Li  Li5  1  0.711152  0.956823  0.274650  1
  Li  Li6  1  0.229593  0.268491  0.500000  1
  Li  Li7  1  0.211782  0.743620  0.500000  1
  Li  Li8  1  0.711152  0.956823  0.725350  1
  Li  Li9  1  0.779248  0.535567  0.729187  1
  Li  Li10  1  0.220752  0.035567  0.770813  1
  Li  Li11  1  0.288848  0.456823  0.774650  1
  Si  Si12  1  0.980395  0.525756  0.000000  1
  Si  Si13  1  0.517099  0.969639  0.000000  1
  Si  Si14  1  0.023201  0.753156  0.226333  1
  Si  Si15  1  0.475963  0.743081  0.226718  1
  Si  Si16  1  0.524037  0.243081  0.273282  1
  Si  Si17  1  0.976799  0.253156  0.273667  1
  Si  Si18  1  0.482901  0.469639  0.500000  1
  Si  Si19  1  0.019605  0.025756  0.500000  1
  Si  Si20  1  0.976799  0.253156  0.726333  1
  Si  Si21  1  0.524037  0.243081  0.726718  1
  Si  Si22  1  0.475963  0.743081  0.773282  1
  Si  Si23  1  0.023201  0.753156  0.773667  1
  Ni  Ni24  1  0.248997  0.246537  0.000000  1
  Ni  Ni25  1  0.980094  0.023332  0.000000  1
  Ni  Ni26  1  0.518037  0.465711  0.000000  1
  Ni  Ni27  1  0.019906  0.523332  0.500000  1
  Ni  Ni28  1  0.481963  0.965711  0.500000  1
  Ni  Ni29  1  0.751003  0.746537  0.500000  1
  O  O30  1  0.306153  0.031291  0.000000  1
  O  O31  1  0.697100  0.068494  0.000000  1
  O  O32  1  0.189508  0.462085  0.000000  1
  O  O33  1  0.798998  0.428834  0.000000  1
  O  O34  1  0.045481  0.193935  0.130975  1
  O  O35  1  0.556974  0.860504  0.123234  1
  O  O36  1  0.944845  0.633237  0.125054  1
  O  O37  1  0.444472  0.301744  0.133414  1
  O  O38  1  0.946591  0.898637  0.172659  1
  O  O39  1  0.536643  0.591876  0.178883  1
  O  O40  1  0.750481  0.257957  0.276476  1
  O  O41  1  0.249519  0.757957  0.223524  1
  O  O42  1  0.463357  0.091876  0.321117  1
  O  O43  1  0.053409  0.398637  0.327341  1
  O  O44  1  0.555528  0.801744  0.366586  1
  O  O45  1  0.055155  0.133237  0.374946  1
  O  O46  1  0.443026  0.360504  0.376766  1
  O  O47  1  0.954519  0.693935  0.369025  1
  O  O48  1  0.693847  0.531291  0.500000  1
  O  O49  1  0.302900  0.568494  0.500000  1
  O  O50  1  0.201002  0.928834  0.500000  1
  O  O51  1  0.810492  0.962085  0.500000  1
  O  O52  1  0.954519  0.693935  0.630975  1
  O  O53  1  0.443026  0.360504  0.623234  1
  O  O54  1  0.055155  0.133237  0.625054  1
  O  O55  1  0.555528  0.801744  0.633414  1
  O  O56  1  0.053409  0.398637  0.672659  1
  O  O57  1  0.463357  0.091876  0.678883  1
  O  O58  1  0.249519  0.757957  0.776476  1
  O  O59  1  0.750481  0.257957  0.723524  1
  O  O60  1  0.536643  0.591876  0.821117  1
  O  O61  1  0.946591  0.898637  0.827341  1
  O  O62  1  0.444472  0.301744  0.866586  1
  O  O63  1  0.944845  0.633237  0.874946  1
  O  O64  1  0.556974  0.860504  0.876766  1
  O  O65  1  0.045481  0.193935  0.869025  1
