# generated using pymatgen
data_LiMn(PO3)3
_symmetry_space_group_name_H-M   'P 1'
_cell_length_a   6.66417883
_cell_length_b   6.85388764
_cell_length_c   7.38929953
_cell_angle_alpha   84.61944450
_cell_angle_beta   82.16310251
_cell_angle_gamma   82.89965055
_symmetry_Int_Tables_number   1
_chemical_formula_structural   LiMn(PO3)3
_chemical_formula_sum   'Li2 Mn2 P6 O18'
_cell_volume   330.77666933
_cell_formula_units_Z   2
loop_
 _symmetry_equiv_pos_site_id
 _symmetry_equiv_pos_as_xyz
  1  'x, y, z'
loop_
 _atom_site_type_symbol
 _atom_site_label
 _atom_site_symmetry_multiplicity
 _atom_site_fract_x
 _atom_site_fract_y
 _atom_site_fract_z
 _atom_site_occupancy
  Li  Li0  1  0.460129  0.839115  0.822494  1
  Li  Li1  1  0.539871  0.160885  0.177506  1
  Mn  Mn2  1  0.958917  0.780500  0.870099  1
  Mn  Mn3  1  0.041083  0.219500  0.129901  1
  P  P4  1  0.791998  0.846300  0.452921  1
  P  P5  1  0.147389  0.701415  0.222492  1
  P  P6  1  0.605140  0.614730  0.210053  1
  P  P7  1  0.394860  0.385270  0.789947  1
  P  P8  1  0.852611  0.298585  0.777508  1
  P  P9  1  0.208002  0.153700  0.547079  1
  O  O10  1  0.243923  0.971156  0.671306  1
  O  O11  1  0.745567  0.850002  0.658538  1
  O  O12  1  0.141053  0.879721  0.083693  1
  O  O13  1  0.649936  0.765663  0.051359  1
  O  O14  1  0.030776  0.759954  0.419119  1
  O  O15  1  0.679564  0.670802  0.395857  1
  O  O16  1  0.365035  0.641687  0.283244  1
  O  O17  1  0.332514  0.599508  0.812570  1
  O  O18  1  0.942265  0.469821  0.835042  1
  O  O19  1  0.057735  0.530179  0.164958  1
  O  O20  1  0.667486  0.400492  0.187430  1
  O  O21  1  0.634965  0.358313  0.716756  1
  O  O22  1  0.320436  0.329198  0.604143  1
  O  O23  1  0.969224  0.240046  0.580881  1
  O  O24  1  0.350064  0.234337  0.948641  1
  O  O25  1  0.858947  0.120279  0.916307  1
  O  O26  1  0.254433  0.149998  0.341462  1
  O  O27  1  0.756077  0.028844  0.328694  1
