# generated using pymatgen
data_Li2FeCo3O8
_symmetry_space_group_name_H-M   'P 1'
_cell_length_a   5.73522421
_cell_length_b   5.73522421
_cell_length_c   5.73522421
_cell_angle_alpha   59.66879231
_cell_angle_beta   59.66879231
_cell_angle_gamma   59.66879231
_symmetry_Int_Tables_number   1
_chemical_formula_structural   Li2FeCo3O8
_chemical_formula_sum   'Li2 Fe1 Co3 O8'
_cell_volume   132.39020979
_cell_formula_units_Z   1
loop_
 _symmetry_equiv_pos_site_id
 _symmetry_equiv_pos_as_xyz
  1  'x, y, z'
loop_
 _atom_site_type_symbol
 _atom_site_label
 _atom_site_symmetry_multiplicity
 _atom_site_fract_x
 _atom_site_fract_y
 _atom_site_fract_z
 _atom_site_occupancy
  Li  Li0  1  0.876985  0.876985  0.876985  1
  Li  Li1  1  0.501117  0.501117  0.501117  1
  Fe  Fe2  1  0.118846  0.118846  0.118846  1
  Co  Co3  1  0.501605  0.501605  0.988851  1
  Co  Co4  1  0.501605  0.988851  0.501605  1
  Co  Co5  1  0.988851  0.501605  0.501605  1
  O  O6  1  0.735452  0.735452  0.735452  1
  O  O7  1  0.288109  0.754012  0.754012  1
  O  O8  1  0.754012  0.288109  0.754012  1
  O  O9  1  0.754012  0.754012  0.288109  1
  O  O10  1  0.253317  0.253317  0.714139  1
  O  O11  1  0.253317  0.714139  0.253317  1
  O  O12  1  0.714139  0.253317  0.253317  1
  O  O13  1  0.258633  0.258633  0.258633  1
