# generated using pymatgen
data_BaCa2I6
_symmetry_space_group_name_H-M   'P 1'
_cell_length_a   7.69470200
_cell_length_b   7.69470200
_cell_length_c   14.69542500
_cell_angle_alpha   90.00000000
_cell_angle_beta   90.00000000
_cell_angle_gamma   90.00000000
_symmetry_Int_Tables_number   1
_chemical_formula_structural   BaCa2I6
_chemical_formula_sum   'Ba2 Ca4 I12'
_cell_volume   870.09317276
_cell_formula_units_Z   2
loop_
 _symmetry_equiv_pos_site_id
 _symmetry_equiv_pos_as_xyz
  1  'x, y, z'
loop_
 _atom_site_type_symbol
 _atom_site_label
 _atom_site_symmetry_multiplicity
 _atom_site_fract_x
 _atom_site_fract_y
 _atom_site_fract_z
 _atom_site_occupancy
  Ba  Ba0  1  0.000000  0.000000  0.000000  1
  Ba  Ba1  1  0.500000  0.500000  0.500000  1
  Ca  Ca2  1  0.000000  0.000000  0.331799  1
  Ca  Ca3  1  0.000000  0.000000  0.668201  1
  Ca  Ca4  1  0.500000  0.500000  0.168201  1
  Ca  Ca5  1  0.500000  0.500000  0.831799  1
  I  I6  1  0.205176  0.794824  0.179748  1
  I  I7  1  0.205176  0.794824  0.820252  1
  I  I8  1  0.182359  0.817641  0.500000  1
  I  I9  1  0.317641  0.317641  0.000000  1
  I  I10  1  0.294824  0.294824  0.320252  1
  I  I11  1  0.294824  0.294824  0.679748  1
  I  I12  1  0.705176  0.705176  0.320252  1
  I  I13  1  0.705176  0.705176  0.679748  1
  I  I14  1  0.682359  0.682359  0.000000  1
  I  I15  1  0.817641  0.182359  0.500000  1
  I  I16  1  0.794824  0.205176  0.179748  1
  I  I17  1  0.794824  0.205176  0.820252  1
