# generated using pymatgen
data_Zr2N2O
_symmetry_space_group_name_H-M   'P 1'
_cell_length_a   6.74049712
_cell_length_b   6.74049712
_cell_length_c   12.15906688
_cell_angle_alpha   63.33207165
_cell_angle_beta   116.66792835
_cell_angle_gamma   149.84826626
_symmetry_Int_Tables_number   1
_chemical_formula_structural   Zr2N2O
_chemical_formula_sum   'Zr8 N8 O4'
_cell_volume   245.68746281
_cell_formula_units_Z   4
loop_
 _symmetry_equiv_pos_site_id
 _symmetry_equiv_pos_as_xyz
  1  'x, y, z'
loop_
 _atom_site_type_symbol
 _atom_site_label
 _atom_site_symmetry_multiplicity
 _atom_site_fract_x
 _atom_site_fract_y
 _atom_site_fract_z
 _atom_site_occupancy
  Zr  Zr0  1  0.368590  0.631410  0.349502  1
  Zr  Zr1  1  0.881019  0.118981  0.607158  1
  Zr  Zr2  1  0.631257  0.368743  0.149796  1
  Zr  Zr3  1  0.876601  0.123399  0.099684  1
  Zr  Zr4  1  0.124949  0.875051  0.403430  1
  Zr  Zr5  1  0.123299  0.876701  0.887910  1
  Zr  Zr6  1  0.377434  0.622566  0.862007  1
  Zr  Zr7  1  0.623326  0.376674  0.643911  1
  N  N8  1  0.684652  0.315348  0.508838  1
  N  N9  1  0.182630  0.817370  0.755461  1
  N  N10  1  0.317867  0.682133  0.996456  1
  N  N11  1  0.822092  0.177908  0.238976  1
  N  N12  1  0.994672  0.005328  0.499857  1
  N  N13  1  0.174929  0.825071  0.259504  1
  N  N14  1  0.497203  0.502797  0.746836  1
  N  N15  1  0.996764  0.003236  0.995654  1
  O  O16  1  0.824690  0.175310  0.745816  1
  O  O17  1  0.500101  0.499899  0.252241  1
  O  O18  1  0.674613  0.325387  0.000984  1
  O  O19  1  0.322547  0.677453  0.495978  1
