# generated using pymatgen
data_Li2H12C3SN6O7
_symmetry_space_group_name_H-M   'P 1'
_cell_length_a   9.86940393
_cell_length_b   9.86940393
_cell_length_c   8.11463272
_cell_angle_alpha   70.77174701
_cell_angle_beta   109.22825299
_cell_angle_gamma   123.01425366
_symmetry_Int_Tables_number   1
_chemical_formula_structural   Li2H12C3SN6O7
_chemical_formula_sum   'Li4 H24 C6 S2 N12 O14'
_cell_volume   614.49222876
_cell_formula_units_Z   2
loop_
 _symmetry_equiv_pos_site_id
 _symmetry_equiv_pos_as_xyz
  1  'x, y, z'
loop_
 _atom_site_type_symbol
 _atom_site_label
 _atom_site_symmetry_multiplicity
 _atom_site_fract_x
 _atom_site_fract_y
 _atom_site_fract_z
 _atom_site_occupancy
  Li  Li0  1  0.243283  0.380712  0.338318  1
  Li  Li1  1  0.380712  0.243283  0.161682  1
  Li  Li2  1  0.756717  0.619288  0.661682  1
  Li  Li3  1  0.619288  0.756717  0.838318  1
  H  H4  1  0.759763  0.355437  0.404121  1
  H  H5  1  0.355437  0.759763  0.095879  1
  H  H6  1  0.240237  0.644563  0.595879  1
  H  H7  1  0.644563  0.240237  0.904121  1
  H  H8  1  0.887173  0.263912  0.501286  1
  H  H9  1  0.263912  0.887173  0.998714  1
  H  H10  1  0.112827  0.736088  0.498714  1
  H  H11  1  0.736088  0.112827  0.001286  1
  H  H12  1  0.768427  0.505202  0.114531  1
  H  H13  1  0.505202  0.768427  0.385469  1
  H  H14  1  0.231573  0.494798  0.885469  1
  H  H15  1  0.494798  0.231573  0.614531  1
  H  H16  1  0.925363  0.556846  0.014154  1
  H  H17  1  0.556846  0.925363  0.485846  1
  H  H18  1  0.074637  0.443154  0.985846  1
  H  H19  1  0.443154  0.074637  0.514154  1
  H  H20  1  0.135118  0.923515  0.200809  1
  H  H21  1  0.923515  0.135118  0.299191  1
  H  H22  1  0.864882  0.076485  0.799191  1
  H  H23  1  0.076485  0.864882  0.700809  1
  H  H24  1  0.922255  0.812612  0.203041  1
  H  H25  1  0.812612  0.922255  0.296959  1
  H  H26  1  0.077745  0.187388  0.796959  1
  H  H27  1  0.187388  0.077745  0.703041  1
  C  C28  1  0.927882  0.414708  0.259409  1
  C  C29  1  0.414708  0.927882  0.240591  1
  C  C30  1  0.072118  0.585292  0.740591  1
  C  C31  1  0.585292  0.072118  0.759409  1
  C  C32  1  0.049232  0.049232  0.250000  1
  C  C33  1  0.950768  0.950768  0.750000  1
  S  S34  1  0.586091  0.586091  0.250000  1
  S  S35  1  0.413909  0.413909  0.750000  1
  N  N36  1  0.847982  0.334048  0.397823  1
  N  N37  1  0.334048  0.847982  0.102177  1
  N  N38  1  0.152018  0.665952  0.602177  1
  N  N39  1  0.665952  0.152018  0.897823  1
  N  N40  1  0.879352  0.514590  0.127173  1
  N  N41  1  0.514590  0.879352  0.372827  1
  N  N42  1  0.120648  0.485410  0.872827  1
  N  N43  1  0.485410  0.120648  0.627173  1
  N  N44  1  0.036633  0.910627  0.231937  1
  N  N45  1  0.910627  0.036633  0.268063  1
  N  N46  1  0.963367  0.089373  0.768063  1
  N  N47  1  0.089373  0.963367  0.731937  1
  O  O48  1  0.690089  0.668265  0.405683  1
  O  O49  1  0.668265  0.690089  0.094317  1
  O  O50  1  0.309911  0.331735  0.594317  1
  O  O51  1  0.331735  0.309911  0.905683  1
  O  O52  1  0.419328  0.569534  0.212569  1
  O  O53  1  0.569534  0.419328  0.287431  1
  O  O54  1  0.580672  0.430466  0.787431  1
  O  O55  1  0.430466  0.580672  0.712569  1
  O  O56  1  0.043814  0.397172  0.251585  1
  O  O57  1  0.397172  0.043814  0.248415  1
  O  O58  1  0.956186  0.602828  0.748415  1
  O  O59  1  0.602828  0.956186  0.751585  1
  O  O60  1  0.184091  0.184091  0.250000  1
  O  O61  1  0.815909  0.815909  0.750000  1
