# generated using pymatgen
data_V4(AgO4)3
_symmetry_space_group_name_H-M   'P 1'
_cell_length_a   7.21798250
_cell_length_b   8.91939168
_cell_length_c   9.06192267
_cell_angle_alpha   73.11798803
_cell_angle_beta   78.47875014
_cell_angle_gamma   66.37557427
_symmetry_Int_Tables_number   1
_chemical_formula_structural   V4(AgO4)3
_chemical_formula_sum   'V8 Ag6 O24'
_cell_volume   509.16052131
_cell_formula_units_Z   2
loop_
 _symmetry_equiv_pos_site_id
 _symmetry_equiv_pos_as_xyz
  1  'x, y, z'
loop_
 _atom_site_type_symbol
 _atom_site_label
 _atom_site_symmetry_multiplicity
 _atom_site_fract_x
 _atom_site_fract_y
 _atom_site_fract_z
 _atom_site_occupancy
  V  V0  1  0.342635  0.291456  0.039904  1
  V  V1  1  0.844611  0.292081  0.042614  1
  V  V2  1  0.942346  0.835767  0.564110  1
  V  V3  1  0.436168  0.842695  0.568571  1
  V  V4  1  0.834486  0.496151  0.664702  1
  V  V5  1  0.336156  0.497804  0.662524  1
  V  V6  1  0.953143  0.626085  0.937785  1
  V  V7  1  0.452054  0.629437  0.934702  1
  Ag  Ag8  1  0.720698  0.942727  0.222997  1
  Ag  Ag9  1  0.235089  0.932958  0.202310  1
  Ag  Ag10  1  0.637387  0.562380  0.303583  1
  Ag  Ag11  1  0.148920  0.561291  0.302059  1
  Ag  Ag12  1  0.054180  0.193924  0.393449  1
  Ag  Ag13  1  0.738816  0.103609  0.803722  1
  O  O14  1  0.457517  0.075472  0.067208  1
  O  O15  1  0.928243  0.077093  0.069580  1
  O  O16  1  0.266704  0.315498  0.228581  1
  O  O17  1  0.800212  0.317084  0.231185  1
  O  O18  1  0.891579  0.656706  0.119674  1
  O  O19  1  0.388286  0.667771  0.115440  1
  O  O20  1  0.865185  0.046302  0.545252  1
  O  O21  1  0.321208  0.050156  0.535704  1
  O  O22  1  0.996460  0.819755  0.366380  1
  O  O23  1  0.507232  0.814263  0.369494  1
  O  O24  1  0.395039  0.470851  0.480357  1
  O  O25  1  0.894130  0.469138  0.480336  1
  O  O26  1  0.216671  0.769575  0.598614  1
  O  O27  1  0.710166  0.782755  0.600807  1
  O  O28  1  0.549285  0.561353  0.686100  1
  O  O29  1  0.046012  0.563601  0.684957  1
  O  O30  1  0.894612  0.298983  0.779995  1
  O  O31  1  0.413593  0.300241  0.782684  1
  O  O32  1  0.387344  0.821229  0.811646  1
  O  O33  1  0.885019  0.823747  0.819625  1
  O  O34  1  0.240096  0.560367  0.918119  1
  O  O35  1  0.741511  0.559931  0.917288  1
  O  O36  1  0.570929  0.355187  0.006178  1
  O  O37  1  0.078276  0.346577  0.989761  1
