# generated using pymatgen
data_Li4MnF8
_symmetry_space_group_name_H-M   'P 1'
_cell_length_a   5.95077523
_cell_length_b   5.95077523
_cell_length_c   5.95077523
_cell_angle_alpha   122.61134637
_cell_angle_beta   122.61134637
_cell_angle_gamma   85.53355668
_symmetry_Int_Tables_number   1
_chemical_formula_structural   Li4MnF8
_chemical_formula_sum   'Li4 Mn1 F8'
_cell_volume   142.65256356
_cell_formula_units_Z   1
loop_
 _symmetry_equiv_pos_site_id
 _symmetry_equiv_pos_as_xyz
  1  'x, y, z'
loop_
 _atom_site_type_symbol
 _atom_site_label
 _atom_site_symmetry_multiplicity
 _atom_site_fract_x
 _atom_site_fract_y
 _atom_site_fract_z
 _atom_site_occupancy
  Li  Li0  1  0.500000  0.500000  0.500000  1
  Li  Li1  1  0.000000  0.500000  0.000000  1
  Li  Li2  1  0.500000  0.000000  1.000000  1
  Li  Li3  1  0.000000  0.000000  0.500000  1
  Mn  Mn4  1  0.000000  0.000000  0.000000  1
  F  F5  1  0.250000  0.750000  0.500000  1
  F  F6  1  0.216309  0.216309  0.000000  1
  F  F7  1  0.774322  0.774322  0.548645  1
  F  F8  1  0.774322  0.225678  0.000000  1
  F  F9  1  0.225678  0.774322  1.000000  1
  F  F10  1  0.225678  0.225678  0.451355  1
  F  F11  1  0.783691  0.783691  1.000000  1
  F  F12  1  0.750000  0.250000  0.500000  1
