# generated using pymatgen
data_LiNb8O14
_symmetry_space_group_name_H-M   'P 1'
_cell_length_a   5.98426294
_cell_length_b   9.41469147
_cell_length_c   10.39444706
_cell_angle_alpha   90.00000000
_cell_angle_beta   90.00000000
_cell_angle_gamma   90.00000000
_symmetry_Int_Tables_number   1
_chemical_formula_structural   LiNb8O14
_chemical_formula_sum   'Li2 Nb16 O28'
_cell_volume   585.62303568
_cell_formula_units_Z   2
loop_
 _symmetry_equiv_pos_site_id
 _symmetry_equiv_pos_as_xyz
  1  'x, y, z'
loop_
 _atom_site_type_symbol
 _atom_site_label
 _atom_site_symmetry_multiplicity
 _atom_site_fract_x
 _atom_site_fract_y
 _atom_site_fract_z
 _atom_site_occupancy
  Li  Li0  1  0.500000  0.000000  0.000000  1
  Li  Li1  1  0.500000  0.500000  0.500000  1
  Nb  Nb2  1  0.000000  0.114262  0.160492  1
  Nb  Nb3  1  0.500000  0.119583  0.666828  1
  Nb  Nb4  1  0.264885  0.127490  0.423174  1
  Nb  Nb5  1  0.735115  0.127490  0.423174  1
  Nb  Nb6  1  0.264885  0.372510  0.923174  1
  Nb  Nb7  1  0.735115  0.372510  0.923174  1
  Nb  Nb8  1  0.500000  0.380417  0.166828  1
  Nb  Nb9  1  0.000000  0.385738  0.660492  1
  Nb  Nb10  1  0.000000  0.614262  0.339508  1
  Nb  Nb11  1  0.500000  0.619583  0.833172  1
  Nb  Nb12  1  0.264885  0.627490  0.076826  1
  Nb  Nb13  1  0.735115  0.627490  0.076826  1
  Nb  Nb14  1  0.264885  0.872510  0.576826  1
  Nb  Nb15  1  0.735115  0.872510  0.576826  1
  Nb  Nb16  1  0.500000  0.880417  0.333172  1
  Nb  Nb17  1  0.000000  0.885738  0.839508  1
  O  O18  1  0.000000  0.000000  0.500000  1
  O  O19  1  0.000000  0.000000  0.000000  1
  O  O20  1  0.249857  0.004884  0.248256  1
  O  O21  1  0.750143  0.004884  0.248256  1
  O  O22  1  0.000000  0.234658  0.322112  1
  O  O23  1  0.500000  0.241690  0.845126  1
  O  O24  1  0.248880  0.245199  0.089081  1
  O  O25  1  0.751120  0.245199  0.089081  1
  O  O26  1  0.248880  0.254801  0.589081  1
  O  O27  1  0.751120  0.254801  0.589081  1
  O  O28  1  0.500000  0.258310  0.345126  1
  O  O29  1  0.000000  0.265342  0.822112  1
  O  O30  1  0.750143  0.495116  0.748256  1
  O  O31  1  0.249857  0.495116  0.748256  1
  O  O32  1  0.000000  0.500000  0.000000  1
  O  O33  1  0.000000  0.500000  0.500000  1
  O  O34  1  0.249857  0.504884  0.251744  1
  O  O35  1  0.750143  0.504884  0.251744  1
  O  O36  1  0.000000  0.734658  0.177888  1
  O  O37  1  0.500000  0.741690  0.654874  1
  O  O38  1  0.248880  0.745199  0.410919  1
  O  O39  1  0.751120  0.745199  0.410919  1
  O  O40  1  0.248880  0.754801  0.910919  1
  O  O41  1  0.751120  0.754801  0.910919  1
  O  O42  1  0.500000  0.758310  0.154874  1
  O  O43  1  0.000000  0.765342  0.677888  1
  O  O44  1  0.249857  0.995116  0.751744  1
  O  O45  1  0.750143  0.995116  0.751744  1
