# generated using pymatgen
data_Li2Cr(PO4)2
_symmetry_space_group_name_H-M   'P 1'
_cell_length_a   4.91109750
_cell_length_b   8.24105925
_cell_length_c   8.67842339
_cell_angle_alpha   114.77973131
_cell_angle_beta   103.73459355
_cell_angle_gamma   90.43148874
_symmetry_Int_Tables_number   1
_chemical_formula_structural   Li2Cr(PO4)2
_chemical_formula_sum   'Li4 Cr2 P4 O16'
_cell_volume   307.49007057
_cell_formula_units_Z   2
loop_
 _symmetry_equiv_pos_site_id
 _symmetry_equiv_pos_as_xyz
  1  'x, y, z'
loop_
 _atom_site_type_symbol
 _atom_site_label
 _atom_site_symmetry_multiplicity
 _atom_site_fract_x
 _atom_site_fract_y
 _atom_site_fract_z
 _atom_site_occupancy
  Li  Li0  1  0.136759  0.911314  0.694365  1
  Li  Li1  1  0.382575  0.610707  0.409693  1
  Li  Li2  1  0.617425  0.389293  0.590307  1
  Li  Li3  1  0.863241  0.088686  0.305635  1
  Cr  Cr4  1  0.276146  0.768097  0.052105  1
  Cr  Cr5  1  0.723854  0.231903  0.947895  1
  P  P6  1  0.148026  0.323439  0.755137  1
  P  P7  1  0.308410  0.199662  0.183931  1
  P  P8  1  0.691590  0.800338  0.816069  1
  P  P9  1  0.851974  0.676561  0.244863  1
  O  O10  1  0.019692  0.836024  0.876091  1
  O  O11  1  0.118639  0.515070  0.882953  1
  O  O12  1  0.021144  0.722997  0.434021  1
  O  O13  1  0.996911  0.815208  0.195133  1
  O  O14  1  0.460224  0.287239  0.762235  1
  O  O15  1  0.568742  0.969938  0.804308  1
  O  O16  1  0.579869  0.745628  0.942566  1
  O  O17  1  0.592369  0.642457  0.636745  1
  O  O18  1  0.407631  0.357543  0.363255  1
  O  O19  1  0.420131  0.254372  0.057434  1
  O  O20  1  0.431258  0.030062  0.195692  1
  O  O21  1  0.539776  0.712761  0.237765  1
  O  O22  1  0.003089  0.184792  0.804867  1
  O  O23  1  0.978856  0.277003  0.565979  1
  O  O24  1  0.881361  0.484930  0.117047  1
  O  O25  1  0.980308  0.163976  0.123909  1
