# generated using pymatgen
data_V2O3F
_symmetry_space_group_name_H-M   'P 1'
_cell_length_a   7.29885225
_cell_length_b   7.29885225
_cell_length_c   6.37948808
_cell_angle_alpha   90.00000000
_cell_angle_beta   90.00000000
_cell_angle_gamma   130.01348140
_symmetry_Int_Tables_number   1
_chemical_formula_structural   V2O3F
_chemical_formula_sum   'V8 O12 F4'
_cell_volume   260.29341142
_cell_formula_units_Z   4
loop_
 _symmetry_equiv_pos_site_id
 _symmetry_equiv_pos_as_xyz
  1  'x, y, z'
loop_
 _atom_site_type_symbol
 _atom_site_label
 _atom_site_symmetry_multiplicity
 _atom_site_fract_x
 _atom_site_fract_y
 _atom_site_fract_z
 _atom_site_occupancy
  V  V0  1  0.879860  0.627462  0.750000  1
  V  V1  1  0.372538  0.120140  0.750000  1
  V  V2  1  0.381611  0.618389  0.750000  1
  V  V3  1  0.873067  0.126933  0.750000  1
  V  V4  1  0.126933  0.873067  0.250000  1
  V  V5  1  0.618389  0.381611  0.250000  1
  V  V6  1  0.120140  0.372538  0.250000  1
  V  V7  1  0.627462  0.879860  0.250000  1
  O  O8  1  0.524911  0.475089  0.750000  1
  O  O9  1  0.375318  0.126361  0.449494  1
  O  O10  1  0.873639  0.624682  0.449494  1
  O  O11  1  0.624682  0.873639  0.550506  1
  O  O12  1  0.873639  0.624682  0.050506  1
  O  O13  1  0.375318  0.126361  0.050506  1
  O  O14  1  0.126361  0.375318  0.550506  1
  O  O15  1  0.475089  0.524911  0.250000  1
  O  O16  1  0.224094  0.775906  0.750000  1
  O  O17  1  0.775906  0.224094  0.250000  1
  O  O18  1  0.126361  0.375318  0.949494  1
  O  O19  1  0.624682  0.873639  0.949494  1
  F  F20  1  0.023735  0.976265  0.750000  1
  F  F21  1  0.724135  0.275865  0.750000  1
  F  F22  1  0.976265  0.023735  0.250000  1
  F  F23  1  0.275865  0.724135  0.250000  1
