# generated using pymatgen
data_KAgF4
_symmetry_space_group_name_H-M   'P 1'
_cell_length_a   7.26948592
_cell_length_b   7.26948592
_cell_length_c   7.26948592
_cell_angle_alpha   130.77750843
_cell_angle_beta   130.77750843
_cell_angle_gamma   72.16681063
_symmetry_Int_Tables_number   1
_chemical_formula_structural   KAgF4
_chemical_formula_sum   'K2 Ag2 F8'
_cell_volume   215.38414241
_cell_formula_units_Z   2
loop_
 _symmetry_equiv_pos_site_id
 _symmetry_equiv_pos_as_xyz
  1  'x, y, z'
loop_
 _atom_site_type_symbol
 _atom_site_label
 _atom_site_symmetry_multiplicity
 _atom_site_fract_x
 _atom_site_fract_y
 _atom_site_fract_z
 _atom_site_occupancy
  K  K0  1  0.250000  0.250000  0.000000  1
  K  K1  1  0.750000  0.750000  0.000000  1
  Ag  Ag2  1  0.500000  0.000000  0.500000  1
  Ag  Ag3  1  0.000000  0.500000  0.500000  1
  F  F4  1  0.451894  0.951894  0.171322  1
  F  F5  1  0.219427  0.719427  0.171322  1
  F  F6  1  0.548106  0.048106  0.828678  1
  F  F7  1  0.048106  0.219427  0.500000  1
  F  F8  1  0.780573  0.280573  0.828678  1
  F  F9  1  0.280573  0.451894  0.500000  1
  F  F10  1  0.951894  0.780573  0.500000  1
  F  F11  1  0.719427  0.548106  0.500000  1
