# generated using pymatgen
data_NaCuP2O7
_symmetry_space_group_name_H-M   'P 1'
_cell_length_a   8.08635797
_cell_length_b   8.08635797
_cell_length_c   8.12355095
_cell_angle_alpha   66.19218000
_cell_angle_beta   113.80782000
_cell_angle_gamma   139.65262703
_symmetry_Int_Tables_number   1
_chemical_formula_structural   NaCuP2O7
_chemical_formula_sum   'Na2 Cu2 P4 O14'
_cell_volume   310.47831898
_cell_formula_units_Z   2
loop_
 _symmetry_equiv_pos_site_id
 _symmetry_equiv_pos_as_xyz
  1  'x, y, z'
loop_
 _atom_site_type_symbol
 _atom_site_label
 _atom_site_symmetry_multiplicity
 _atom_site_fract_x
 _atom_site_fract_y
 _atom_site_fract_z
 _atom_site_occupancy
  Na  Na0  1  0.382305  0.914770  0.300448  1
  Na  Na1  1  0.085230  0.617695  0.800448  1
  Cu  Cu2  1  0.999561  0.000984  0.999042  1
  Cu  Cu3  1  0.999016  0.000439  0.499042  1
  P  P4  1  0.757778  0.555294  0.339358  1
  P  P5  1  0.444706  0.242222  0.839358  1
  P  P6  1  0.560765  0.763554  0.159521  1
  P  P7  1  0.236446  0.439235  0.659521  1
  O  O8  1  0.939626  0.740809  0.191776  1
  O  O9  1  0.889421  0.694936  0.504908  1
  O  O10  1  0.693398  0.319026  0.901122  1
  O  O11  1  0.504375  0.505471  0.248741  1
  O  O12  1  0.494529  0.495625  0.748741  1
  O  O13  1  0.680974  0.306602  0.401122  1
  O  O14  1  0.731068  0.932346  0.312909  1
  O  O15  1  0.697489  0.892175  0.994465  1
  O  O16  1  0.305064  0.110579  0.004908  1
  O  O17  1  0.259191  0.060374  0.691776  1
  O  O18  1  0.307901  0.686428  0.596647  1
  O  O19  1  0.313572  0.692099  0.096647  1
  O  O20  1  0.107825  0.302511  0.494465  1
  O  O21  1  0.067654  0.268932  0.812909  1
