# generated using pymatgen
data_Al2HgO4
_symmetry_space_group_name_H-M   'P 1'
_cell_length_a   6.05552765
_cell_length_b   6.05552765
_cell_length_c   6.05552765
_cell_angle_alpha   60.00000000
_cell_angle_beta   60.00000000
_cell_angle_gamma   60.00000000
_symmetry_Int_Tables_number   1
_chemical_formula_structural   Al2HgO4
_chemical_formula_sum   'Al4 Hg2 O8'
_cell_volume   157.01493985
_cell_formula_units_Z   2
loop_
 _symmetry_equiv_pos_site_id
 _symmetry_equiv_pos_as_xyz
  1  'x, y, z'
loop_
 _atom_site_type_symbol
 _atom_site_label
 _atom_site_symmetry_multiplicity
 _atom_site_fract_x
 _atom_site_fract_y
 _atom_site_fract_z
 _atom_site_occupancy
  Al  Al0  1  0.625000  0.625000  0.125000  1
  Al  Al1  1  0.125000  0.625000  0.625000  1
  Al  Al2  1  0.625000  0.625000  0.625000  1
  Al  Al3  1  0.625000  0.125000  0.625000  1
  Hg  Hg4  1  0.250000  0.250000  0.250000  1
  Hg  Hg5  1  0.000000  0.000000  0.000000  1
  O  O6  1  0.397490  0.807529  0.397490  1
  O  O7  1  0.397490  0.397490  0.397490  1
  O  O8  1  0.852510  0.442471  0.852510  1
  O  O9  1  0.852510  0.852510  0.852510  1
  O  O10  1  0.442471  0.852510  0.852510  1
  O  O11  1  0.852510  0.852510  0.442471  1
  O  O12  1  0.397490  0.397490  0.807529  1
  O  O13  1  0.807529  0.397490  0.397490  1
