# generated using pymatgen
data_Na3Sb5O14
_symmetry_space_group_name_H-M   'P 1'
_cell_length_a   7.21709789
_cell_length_b   7.41116690
_cell_length_c   24.41592792
_cell_angle_alpha   90.00000000
_cell_angle_beta   90.00000000
_cell_angle_gamma   90.00000000
_symmetry_Int_Tables_number   1
_chemical_formula_structural   Na3Sb5O14
_chemical_formula_sum   'Na12 Sb20 O56'
_cell_volume   1305.93759323
_cell_formula_units_Z   4
loop_
 _symmetry_equiv_pos_site_id
 _symmetry_equiv_pos_as_xyz
  1  'x, y, z'
loop_
 _atom_site_type_symbol
 _atom_site_label
 _atom_site_symmetry_multiplicity
 _atom_site_fract_x
 _atom_site_fract_y
 _atom_site_fract_z
 _atom_site_occupancy
  Na  Na0  1  0.194743  0.500000  0.029336  1
  Na  Na1  1  0.574672  0.500000  0.126382  1
  Na  Na2  1  0.692317  0.000000  0.193222  1
  Na  Na3  1  0.192317  0.000000  0.306778  1
  Na  Na4  1  0.074672  0.500000  0.373618  1
  Na  Na5  1  0.694743  0.500000  0.470664  1
  Na  Na6  1  0.305257  0.500000  0.529336  1
  Na  Na7  1  0.925328  0.500000  0.626382  1
  Na  Na8  1  0.807683  0.000000  0.693222  1
  Na  Na9  1  0.307683  0.000000  0.806778  1
  Na  Na10  1  0.425328  0.500000  0.873618  1
  Na  Na11  1  0.805257  0.500000  0.970664  1
  Sb  Sb12  1  0.421953  0.000000  0.058240  1
  Sb  Sb13  1  0.908611  0.000000  0.061462  1
  Sb  Sb14  1  0.106883  0.735983  0.146027  1
  Sb  Sb15  1  0.106883  0.264017  0.146027  1
  Sb  Sb16  1  0.808639  0.500000  0.241576  1
  Sb  Sb17  1  0.308639  0.500000  0.258424  1
  Sb  Sb18  1  0.606883  0.735983  0.353973  1
  Sb  Sb19  1  0.606883  0.264017  0.353973  1
  Sb  Sb20  1  0.408611  0.000000  0.438538  1
  Sb  Sb21  1  0.921953  0.000000  0.441760  1
  Sb  Sb22  1  0.078047  0.000000  0.558240  1
  Sb  Sb23  1  0.591389  0.000000  0.561462  1
  Sb  Sb24  1  0.393117  0.735983  0.646027  1
  Sb  Sb25  1  0.393117  0.264017  0.646027  1
  Sb  Sb26  1  0.691361  0.500000  0.741576  1
  Sb  Sb27  1  0.191361  0.500000  0.758424  1
  Sb  Sb28  1  0.893117  0.735983  0.853973  1
  Sb  Sb29  1  0.893117  0.264017  0.853973  1
  Sb  Sb30  1  0.091389  0.000000  0.938538  1
  Sb  Sb31  1  0.578047  0.000000  0.941760  1
  O  O32  1  0.500000  0.820488  0.000000  1
  O  O33  1  0.500000  0.179512  0.000000  1
  O  O34  1  0.163011  0.000000  0.018092  1
  O  O35  1  0.961540  0.741382  0.072059  1
  O  O36  1  0.961540  0.258618  0.072059  1
  O  O37  1  0.666208  0.000000  0.096047  1
  O  O38  1  0.343539  0.802831  0.106355  1
  O  O39  1  0.343539  0.197169  0.106355  1
  O  O40  1  0.192451  0.500000  0.121377  1
  O  O41  1  0.019769  0.000000  0.143410  1
  O  O42  1  0.863063  0.683252  0.181451  1
  O  O43  1  0.863063  0.316748  0.181451  1
  O  O44  1  0.241502  0.270374  0.215456  1
  O  O45  1  0.241502  0.729626  0.215456  1
  O  O46  1  0.544980  0.500000  0.216767  1
  O  O47  1  0.044980  0.500000  0.283233  1
  O  O48  1  0.741502  0.729626  0.284544  1
  O  O49  1  0.741502  0.270374  0.284544  1
  O  O50  1  0.363063  0.683252  0.318549  1
  O  O51  1  0.363063  0.316748  0.318549  1
  O  O52  1  0.519769  0.000000  0.356590  1
  O  O53  1  0.692451  0.500000  0.378623  1
  O  O54  1  0.843539  0.802831  0.393645  1
  O  O55  1  0.843539  0.197169  0.393645  1
  O  O56  1  0.166208  0.000000  0.403953  1
  O  O57  1  0.461540  0.741382  0.427941  1
  O  O58  1  0.461540  0.258618  0.427941  1
  O  O59  1  0.663011  0.000000  0.481908  1
  O  O60  1  0.000000  0.820488  0.500000  1
  O  O61  1  0.000000  0.179512  0.500000  1
  O  O62  1  0.336989  0.000000  0.518092  1
  O  O63  1  0.538460  0.741382  0.572059  1
  O  O64  1  0.538460  0.258618  0.572059  1
  O  O65  1  0.833792  0.000000  0.596047  1
  O  O66  1  0.156461  0.802831  0.606355  1
  O  O67  1  0.156461  0.197169  0.606355  1
  O  O68  1  0.307549  0.500000  0.621377  1
  O  O69  1  0.480231  0.000000  0.643410  1
  O  O70  1  0.636937  0.683252  0.681451  1
  O  O71  1  0.636937  0.316748  0.681451  1
  O  O72  1  0.258498  0.270374  0.715456  1
  O  O73  1  0.258498  0.729626  0.715456  1
  O  O74  1  0.955020  0.500000  0.716767  1
  O  O75  1  0.455020  0.500000  0.783233  1
  O  O76  1  0.758498  0.729626  0.784544  1
  O  O77  1  0.758498  0.270374  0.784544  1
  O  O78  1  0.136937  0.683252  0.818549  1
  O  O79  1  0.136937  0.316748  0.818549  1
  O  O80  1  0.980231  0.000000  0.856590  1
  O  O81  1  0.807549  0.500000  0.878623  1
  O  O82  1  0.656461  0.802831  0.893645  1
  O  O83  1  0.656461  0.197169  0.893645  1
  O  O84  1  0.333792  0.000000  0.903953  1
  O  O85  1  0.038460  0.741382  0.927941  1
  O  O86  1  0.038460  0.258618  0.927941  1
  O  O87  1  0.836989  0.000000  0.981908  1
