# generated using pymatgen
data_Mn6O7F5
_symmetry_space_group_name_H-M   'P 1'
_cell_length_a   4.72254579
_cell_length_b   4.72254579
_cell_length_c   9.11144258
_cell_angle_alpha   90.00000000
_cell_angle_beta   90.00000000
_cell_angle_gamma   96.82714458
_symmetry_Int_Tables_number   1
_chemical_formula_structural   Mn6O7F5
_chemical_formula_sum   'Mn6 O7 F5'
_cell_volume   201.76650763
_cell_formula_units_Z   1
loop_
 _symmetry_equiv_pos_site_id
 _symmetry_equiv_pos_as_xyz
  1  'x, y, z'
loop_
 _atom_site_type_symbol
 _atom_site_label
 _atom_site_symmetry_multiplicity
 _atom_site_fract_x
 _atom_site_fract_y
 _atom_site_fract_z
 _atom_site_occupancy
  Mn  Mn0  1  0.989634  0.010366  0.658483  1
  Mn  Mn1  1  0.989634  0.010366  0.341517  1
  Mn  Mn2  1  0.000580  0.999420  1.000000  1
  Mn  Mn3  1  0.497805  0.502195  0.832292  1
  Mn  Mn4  1  0.519659  0.480341  0.500000  1
  Mn  Mn5  1  0.497805  0.502195  0.167708  1
  O  O6  1  0.808805  0.191195  0.500000  1
  O  O7  1  0.309881  0.299860  0.664667  1
  O  O8  1  0.309881  0.299860  0.335333  1
  O  O9  1  0.298861  0.306816  1.000000  1
  O  O10  1  0.700140  0.690119  0.664667  1
  O  O11  1  0.700140  0.690119  0.335333  1
  O  O12  1  0.693184  0.701139  0.000000  1
  F  F13  1  0.806090  0.193910  0.165411  1
  F  F14  1  0.806090  0.193910  0.834589  1
  F  F15  1  0.209039  0.790961  0.500000  1
  F  F16  1  0.181388  0.818612  0.175359  1
  F  F17  1  0.181388  0.818612  0.824641  1
