# generated using pymatgen
data_SrLi4La15(CoO8)4
_symmetry_space_group_name_H-M   'P 1'
_cell_length_a   8.79953240
_cell_length_b   8.79953240
_cell_length_c   10.69213131
_cell_angle_alpha   72.31465977
_cell_angle_beta   107.68534023
_cell_angle_gamma   85.65289740
_symmetry_Int_Tables_number   1
_chemical_formula_structural   SrLi4La15(CoO8)4
_chemical_formula_sum   'Sr1 Li4 La15 Co4 O32'
_cell_volume   738.50750887
_cell_formula_units_Z   1
loop_
 _symmetry_equiv_pos_site_id
 _symmetry_equiv_pos_as_xyz
  1  'x, y, z'
loop_
 _atom_site_type_symbol
 _atom_site_label
 _atom_site_symmetry_multiplicity
 _atom_site_fract_x
 _atom_site_fract_y
 _atom_site_fract_z
 _atom_site_occupancy
  Sr  Sr0  1  0.389876  0.389876  0.000000  1
  Li  Li1  1  0.500622  0.001238  0.624366  1
  Li  Li2  1  0.500587  0.003118  0.124841  1
  Li  Li3  1  0.001238  0.500622  0.375634  1
  Li  Li4  1  0.003118  0.500587  0.875159  1
  La  La5  1  0.887451  0.888112  0.251946  1
  La  La6  1  0.611959  0.613165  0.747106  1
  La  La7  1  0.613165  0.611959  0.252894  1
  La  La8  1  0.888112  0.887451  0.748054  1
  La  La9  1  0.634250  0.141091  0.874826  1
  La  La10  1  0.139950  0.636213  0.627482  1
  La  La11  1  0.141091  0.634250  0.125174  1
  La  La12  1  0.636213  0.139950  0.372518  1
  La  La13  1  0.861479  0.360925  0.625329  1
  La  La14  1  0.358918  0.864563  0.873708  1
  La  La15  1  0.360925  0.861479  0.374671  1
  La  La16  1  0.864563  0.358918  0.126292  1
  La  La17  1  0.387605  0.387605  0.500000  1
  La  La18  1  0.112809  0.112809  0.500000  1
  La  La19  1  0.117165  0.117165  0.000000  1
  Co  Co20  1  0.750293  0.750293  0.000000  1
  Co  Co21  1  0.749803  0.749803  0.500000  1
  Co  Co22  1  0.249064  0.249951  0.750362  1
  Co  Co23  1  0.249951  0.249064  0.249638  1
  O  O24  1  0.871190  0.629194  0.938267  1
  O  O25  1  0.872055  0.627895  0.438438  1
  O  O26  1  0.872109  0.629424  0.182365  1
  O  O27  1  0.871177  0.627482  0.684008  1
  O  O28  1  0.929699  0.929699  0.500000  1
  O  O29  1  0.911330  0.911330  0.000000  1
  O  O30  1  0.595045  0.595045  0.000000  1
  O  O31  1  0.571482  0.571482  0.500000  1
  O  O32  1  0.629424  0.872109  0.817635  1
  O  O33  1  0.629194  0.871190  0.061733  1
  O  O34  1  0.627895  0.872055  0.561562  1
  O  O35  1  0.627482  0.871177  0.315992  1
  O  O36  1  0.320390  0.818038  0.626277  1
  O  O37  1  0.818038  0.320390  0.373723  1
  O  O38  1  0.316130  0.818997  0.123621  1
  O  O39  1  0.818997  0.316130  0.876379  1
  O  O40  1  0.180664  0.679914  0.375422  1
  O  O41  1  0.688954  0.174394  0.128963  1
  O  O42  1  0.174394  0.688954  0.871037  1
  O  O43  1  0.679914  0.180664  0.624578  1
  O  O44  1  0.371155  0.127383  0.688260  1
  O  O45  1  0.371391  0.127452  0.433740  1
  O  O46  1  0.369389  0.123802  0.189124  1
  O  O47  1  0.369073  0.123732  0.933510  1
  O  O48  1  0.429829  0.430344  0.745476  1
  O  O49  1  0.430344  0.429829  0.254524  1
  O  O50  1  0.071785  0.068899  0.249135  1
  O  O51  1  0.068899  0.071785  0.750865  1
  O  O52  1  0.123802  0.369389  0.810876  1
  O  O53  1  0.127452  0.371391  0.566260  1
  O  O54  1  0.127383  0.371155  0.311740  1
  O  O55  1  0.123732  0.369073  0.066490  1
