# generated using pymatgen
data_Bi14WO24
_symmetry_space_group_name_H-M   'P 1'
_cell_length_a   8.91916255
_cell_length_b   8.92070197
_cell_length_c   10.63629114
_cell_angle_alpha   114.72462829
_cell_angle_beta   114.54143119
_cell_angle_gamma   89.97603503
_symmetry_Int_Tables_number   1
_chemical_formula_structural   Bi14WO24
_chemical_formula_sum   'Bi14 W1 O24'
_cell_volume   683.70151244
_cell_formula_units_Z   1
loop_
 _symmetry_equiv_pos_site_id
 _symmetry_equiv_pos_as_xyz
  1  'x, y, z'
loop_
 _atom_site_type_symbol
 _atom_site_label
 _atom_site_symmetry_multiplicity
 _atom_site_fract_x
 _atom_site_fract_y
 _atom_site_fract_z
 _atom_site_occupancy
  Bi  Bi0  1  0.060372  0.867594  0.340251  1
  Bi  Bi1  1  0.530771  0.946169  0.666965  1
  Bi  Bi2  1  0.658431  0.655288  0.317081  1
  Bi  Bi3  1  0.132890  0.727639  0.668326  1
  Bi  Bi4  1  0.556584  0.782931  0.001814  1
  Bi  Bi5  1  0.283574  0.477018  0.345641  1
  Bi  Bi6  1  0.725807  0.533413  0.668248  1
  Bi  Bi7  1  0.214982  0.558278  0.001094  1
  Bi  Bi8  1  0.867422  0.282888  0.338868  1
  Bi  Bi9  1  0.341249  0.341515  0.679624  1
  Bi  Bi10  1  0.779625  0.439784  0.998720  1
  Bi  Bi11  1  0.477394  0.064287  0.345713  1
  Bi  Bi12  1  0.943949  0.134057  0.664775  1
  Bi  Bi13  1  0.436803  0.214383  0.996882  1
  W  W14  1  0.023164  0.025109  0.041796  1
  O  O15  1  0.974609  0.799288  0.974995  1
  O  O16  1  0.672690  0.003000  0.506833  1
  O  O17  1  0.457146  0.762562  0.158035  1
  O  O18  1  0.759215  0.700765  0.159066  1
  O  O19  1  0.998678  0.829926  0.501490  1
  O  O20  1  0.380293  0.889562  0.770060  1
  O  O21  1  0.119240  0.617613  0.235483  1
  O  O22  1  0.503154  0.674159  0.502897  1
  O  O23  1  0.397380  0.460450  0.159521  1
  O  O24  1  0.698164  0.404537  0.160402  1
  O  O25  1  0.174677  0.511797  0.509346  1
  O  O26  1  0.823711  0.503345  0.496419  1
  O  O27  1  0.300578  0.604742  0.843016  1
  O  O28  1  0.599326  0.540752  0.840572  1
  O  O29  1  0.832760  0.107660  0.987393  1
  O  O30  1  0.506580  0.333702  0.509457  1
  O  O31  1  0.884548  0.383460  0.768181  1
  O  O32  1  0.619971  0.118112  0.235218  1
  O  O33  1  0.132411  0.126364  0.253016  1
  O  O34  1  0.996513  0.173375  0.502452  1
  O  O35  1  0.239843  0.302453  0.839403  1
  O  O36  1  0.535902  0.241511  0.835343  1
  O  O37  1  0.330706  0.001052  0.504505  1
  O  O38  1  0.157389  0.074958  0.968100  1
