# generated using pymatgen
data_Li3V4O7F5
_symmetry_space_group_name_H-M   'P 1'
_cell_length_a   5.06156030
_cell_length_b   5.38341439
_cell_length_c   8.93655215
_cell_angle_alpha   106.74377753
_cell_angle_beta   89.06743729
_cell_angle_gamma   117.40142426
_symmetry_Int_Tables_number   1
_chemical_formula_structural   Li3V4O7F5
_chemical_formula_sum   'Li3 V4 O7 F5'
_cell_volume   205.07455597
_cell_formula_units_Z   1
loop_
 _symmetry_equiv_pos_site_id
 _symmetry_equiv_pos_as_xyz
  1  'x, y, z'
loop_
 _atom_site_type_symbol
 _atom_site_label
 _atom_site_symmetry_multiplicity
 _atom_site_fract_x
 _atom_site_fract_y
 _atom_site_fract_z
 _atom_site_occupancy
  Li  Li0  1  0.796256  0.010969  0.600739  1
  Li  Li1  1  0.555975  0.280514  0.854754  1
  Li  Li2  1  0.437308  0.729444  0.138087  1
  V  V3  1  0.801361  0.248979  0.260803  1
  V  V4  1  0.528055  0.502871  0.481238  1
  V  V5  1  0.198758  0.710913  0.761048  1
  V  V6  1  0.015475  0.024205  0.997923  1
  O  O7  1  0.817460  0.580193  0.680680  1
  O  O8  1  0.798248  0.140734  0.070180  1
  O  O9  1  0.724182  0.874295  0.376542  1
  O  O10  1  0.682791  0.307167  0.437501  1
  O  O11  1  0.246700  0.385527  0.878939  1
  O  O12  1  0.181181  0.834389  0.933024  1
  O  O13  1  0.188423  0.440645  0.308201  1
  F  F14  1  0.742767  0.605992  0.122917  1
  F  F15  1  0.677548  0.959388  0.807709  1
  F  F16  1  0.323723  0.063057  0.180976  1
  F  F17  1  0.343076  0.692040  0.580164  1
  F  F18  1  0.250090  0.138568  0.631316  1
