# generated using pymatgen
data_LiFePO4
_symmetry_space_group_name_H-M   'P 1'
_cell_length_a   5.11029293
_cell_length_b   10.18542334
_cell_length_c   13.73501574
_cell_angle_alpha   90.00000000
_cell_angle_beta   90.00000000
_cell_angle_gamma   90.00000000
_symmetry_Int_Tables_number   1
_chemical_formula_structural   LiFePO4
_chemical_formula_sum   'Li8 Fe8 P8 O32'
_cell_volume   714.91439397
_cell_formula_units_Z   8
loop_
 _symmetry_equiv_pos_site_id
 _symmetry_equiv_pos_as_xyz
  1  'x, y, z'
loop_
 _atom_site_type_symbol
 _atom_site_label
 _atom_site_symmetry_multiplicity
 _atom_site_fract_x
 _atom_site_fract_y
 _atom_site_fract_z
 _atom_site_occupancy
  Li  Li0  1  0.928662  0.030647  0.497704  1
  Li  Li1  1  0.549088  0.220447  0.249816  1
  Li  Li2  1  0.549088  0.279553  0.749816  1
  Li  Li3  1  0.928662  0.469353  0.997704  1
  Li  Li4  1  0.071338  0.530647  0.497704  1
  Li  Li5  1  0.450912  0.720447  0.249816  1
  Li  Li6  1  0.450912  0.779553  0.749816  1
  Li  Li7  1  0.071338  0.969353  0.997704  1
  Fe  Fe8  1  0.059353  0.034048  0.247385  1
  Fe  Fe9  1  0.555920  0.215031  0.999275  1
  Fe  Fe10  1  0.555920  0.284969  0.499275  1
  Fe  Fe11  1  0.059353  0.465952  0.747385  1
  Fe  Fe12  1  0.940647  0.534048  0.247385  1
  Fe  Fe13  1  0.444080  0.715031  0.999275  1
  Fe  Fe14  1  0.444080  0.784969  0.499275  1
  Fe  Fe15  1  0.940647  0.965952  0.747385  1
  P  P16  1  0.434092  0.032055  0.623678  1
  P  P17  1  0.049524  0.216150  0.872326  1
  P  P18  1  0.049524  0.283850  0.372326  1
  P  P19  1  0.434092  0.467945  0.123678  1
  P  P20  1  0.565908  0.532055  0.623678  1
  P  P21  1  0.950476  0.716150  0.872326  1
  P  P22  1  0.950476  0.783850  0.372326  1
  P  P23  1  0.565908  0.967945  0.123678  1
  O  O24  1  0.864686  0.000409  0.120424  1
  O  O25  1  0.563374  0.972382  0.530991  1
  O  O26  1  0.450875  0.032665  0.217024  1
  O  O27  1  0.989147  0.066419  0.873604  1
  O  O28  1  0.487370  0.182034  0.624962  1
  O  O29  1  0.924681  0.221805  0.465115  1
  O  O30  1  0.931422  0.278373  0.779067  1
  O  O31  1  0.350211  0.241969  0.873027  1
  O  O32  1  0.350211  0.258031  0.373027  1
  O  O33  1  0.931422  0.221627  0.279067  1
  O  O34  1  0.924681  0.278195  0.965115  1
  O  O35  1  0.487370  0.317966  0.124962  1
  O  O36  1  0.989147  0.433581  0.373604  1
  O  O37  1  0.450875  0.467335  0.717024  1
  O  O38  1  0.563374  0.527618  0.030991  1
  O  O39  1  0.864686  0.499591  0.620424  1
  O  O40  1  0.135314  0.500409  0.120424  1
  O  O41  1  0.436626  0.472382  0.530991  1
  O  O42  1  0.549125  0.532665  0.217024  1
  O  O43  1  0.010853  0.566419  0.873604  1
  O  O44  1  0.512630  0.682034  0.624962  1
  O  O45  1  0.075319  0.721805  0.465115  1
  O  O46  1  0.068578  0.778373  0.779067  1
  O  O47  1  0.649789  0.741969  0.873027  1
  O  O48  1  0.649789  0.758031  0.373027  1
  O  O49  1  0.068578  0.721627  0.279067  1
  O  O50  1  0.075319  0.778195  0.965115  1
  O  O51  1  0.512630  0.817966  0.124962  1
  O  O52  1  0.010853  0.933581  0.373604  1
  O  O53  1  0.549125  0.967335  0.717024  1
  O  O54  1  0.436626  0.027618  0.030991  1
  O  O55  1  0.135314  0.999591  0.620424  1
