# generated using pymatgen
data_Li2FeF4
_symmetry_space_group_name_H-M   'P 1'
_cell_length_a   5.36337742
_cell_length_b   5.36337742
_cell_length_c   5.36337742
_cell_angle_alpha   134.72504287
_cell_angle_beta   134.72504287
_cell_angle_gamma   65.95772227
_symmetry_Int_Tables_number   1
_chemical_formula_structural   Li2FeF4
_chemical_formula_sum   'Li2 Fe1 F4'
_cell_volume   76.69452341
_cell_formula_units_Z   1
loop_
 _symmetry_equiv_pos_site_id
 _symmetry_equiv_pos_as_xyz
  1  'x, y, z'
loop_
 _atom_site_type_symbol
 _atom_site_label
 _atom_site_symmetry_multiplicity
 _atom_site_fract_x
 _atom_site_fract_y
 _atom_site_fract_z
 _atom_site_occupancy
  Li  Li0  1  0.750000  0.250000  0.500000  1
  Li  Li1  1  0.250000  0.750000  0.500000  1
  Fe  Fe2  1  0.000000  0.000000  0.000000  1
  F  F3  1  0.764256  0.764256  0.000000  1
  F  F4  1  0.235744  0.235744  0.000000  1
  F  F5  1  0.500000  1.000000  0.500000  1
  F  F6  1  0.000000  0.500000  0.500000  1
