# generated using pymatgen
data_Ca2MgB2H16(CO9)2
_symmetry_space_group_name_H-M   'P 1'
_cell_length_a   10.69058118
_cell_length_b   6.80007098
_cell_length_c   11.49749376
_cell_angle_alpha   90.00000000
_cell_angle_beta   119.71765471
_cell_angle_gamma   90.00000000
_symmetry_Int_Tables_number   1
_chemical_formula_structural   Ca2MgB2H16(CO9)2
_chemical_formula_sum   'Ca4 Mg2 B4 H32 C4 O36'
_cell_volume   725.90062231
_cell_formula_units_Z   2
loop_
 _symmetry_equiv_pos_site_id
 _symmetry_equiv_pos_as_xyz
  1  'x, y, z'
loop_
 _atom_site_type_symbol
 _atom_site_label
 _atom_site_symmetry_multiplicity
 _atom_site_fract_x
 _atom_site_fract_y
 _atom_site_fract_z
 _atom_site_occupancy
  Ca  Ca0  1  0.941756  0.499205  0.204719  1
  Ca  Ca1  1  0.941756  0.000795  0.704719  1
  Ca  Ca2  1  0.058244  0.500795  0.795281  1
  Ca  Ca3  1  0.058244  0.999205  0.295281  1
  Mg  Mg4  1  0.500000  0.500000  0.000000  1
  Mg  Mg5  1  0.500000  0.000000  0.500000  1
  B  B6  1  0.743664  0.796494  0.995441  1
  B  B7  1  0.743664  0.703506  0.495441  1
  B  B8  1  0.256336  0.203506  0.004559  1
  B  B9  1  0.256336  0.296494  0.504559  1
  H  H10  1  0.522848  0.329466  0.376836  1
  H  H11  1  0.522848  0.170534  0.876836  1
  H  H12  1  0.477152  0.670534  0.623164  1
  H  H13  1  0.477152  0.829466  0.123164  1
  H  H14  1  0.238906  0.386532  0.328434  1
  H  H15  1  0.238906  0.113468  0.828434  1
  H  H16  1  0.761094  0.613468  0.671566  1
  H  H17  1  0.761094  0.886532  0.171566  1
  H  H18  1  0.294007  0.036310  0.166957  1
  H  H19  1  0.294007  0.463690  0.666957  1
  H  H20  1  0.705993  0.963690  0.833043  1
  H  H21  1  0.705993  0.536310  0.333043  1
  H  H22  1  0.479866  0.182572  0.102486  1
  H  H23  1  0.479866  0.317428  0.602486  1
  H  H24  1  0.520134  0.817428  0.897514  1
  H  H25  1  0.520134  0.682572  0.397514  1
  H  H26  1  0.228737  0.435321  0.108506  1
  H  H27  1  0.228737  0.064679  0.608506  1
  H  H28  1  0.771263  0.564679  0.891494  1
  H  H29  1  0.771263  0.935321  0.391494  1
  H  H30  1  0.028319  0.246770  0.046405  1
  H  H31  1  0.028319  0.253230  0.546405  1
  H  H32  1  0.971681  0.753230  0.953595  1
  H  H33  1  0.971681  0.746770  0.453595  1
  H  H34  1  0.568296  0.155568  0.319241  1
  H  H35  1  0.568296  0.344432  0.819241  1
  H  H36  1  0.431704  0.844432  0.680759  1
  H  H37  1  0.431704  0.655568  0.180759  1
  H  H38  1  0.881597  0.130387  0.016245  1
  H  H39  1  0.881597  0.369613  0.516245  1
  H  H40  1  0.118403  0.869613  0.983755  1
  H  H41  1  0.118403  0.630387  0.483755  1
  C  C42  1  0.746590  0.230599  0.222973  1
  C  C43  1  0.746590  0.269401  0.722973  1
  C  C44  1  0.253410  0.769401  0.777027  1
  C  C45  1  0.253410  0.730599  0.277027  1
  O  O46  1  0.884827  0.210805  0.293104  1
  O  O47  1  0.884827  0.289195  0.793104  1
  O  O48  1  0.115173  0.789195  0.706896  1
  O  O49  1  0.115173  0.710805  0.206896  1
  O  O50  1  0.697827  0.394354  0.155993  1
  O  O51  1  0.697827  0.105646  0.655993  1
  O  O52  1  0.302173  0.605646  0.844007  1
  O  O53  1  0.302173  0.894354  0.344007  1
  O  O54  1  0.968632  0.203291  0.086218  1
  O  O55  1  0.968632  0.296709  0.586218  1
  O  O56  1  0.031368  0.796709  0.913782  1
  O  O57  1  0.031368  0.703291  0.413782  1
  O  O58  1  0.661455  0.092457  0.220981  1
  O  O59  1  0.661455  0.407543  0.720981  1
  O  O60  1  0.338545  0.907543  0.779019  1
  O  O61  1  0.338545  0.592457  0.279019  1
  O  O62  1  0.597648  0.724894  0.955708  1
  O  O63  1  0.597648  0.775106  0.455708  1
  O  O64  1  0.402352  0.275106  0.044292  1
  O  O65  1  0.402352  0.224894  0.544292  1
  O  O66  1  0.738167  0.983995  0.928190  1
  O  O67  1  0.738167  0.516005  0.428190  1
  O  O68  1  0.261833  0.016005  0.071810  1
  O  O69  1  0.261833  0.483995  0.571810  1
  O  O70  1  0.828123  0.641352  0.974045  1
  O  O71  1  0.828123  0.858648  0.474045  1
  O  O72  1  0.171877  0.358648  0.025955  1
  O  O73  1  0.171877  0.141352  0.525955  1
  O  O74  1  0.506115  0.311105  0.857189  1
  O  O75  1  0.506115  0.188895  0.357189  1
  O  O76  1  0.493885  0.688895  0.142811  1
  O  O77  1  0.493885  0.811105  0.642811  1
  O  O78  1  0.826345  0.829766  0.143249  1
  O  O79  1  0.826345  0.670234  0.643249  1
  O  O80  1  0.173655  0.170234  0.856751  1
  O  O81  1  0.173655  0.329766  0.356751  1
