# generated using pymatgen
data_Gd2HgO4
_symmetry_space_group_name_H-M   'P 1'
_cell_length_a   7.14937587
_cell_length_b   7.14937587
_cell_length_c   10.23448184
_cell_angle_alpha   59.17209790
_cell_angle_beta   120.82790210
_cell_angle_gamma   149.93038708
_symmetry_Int_Tables_number   1
_chemical_formula_structural   Gd2HgO4
_chemical_formula_sum   'Gd4 Hg2 O8'
_cell_volume   222.16675528
_cell_formula_units_Z   2
loop_
 _symmetry_equiv_pos_site_id
 _symmetry_equiv_pos_as_xyz
  1  'x, y, z'
loop_
 _atom_site_type_symbol
 _atom_site_label
 _atom_site_symmetry_multiplicity
 _atom_site_fract_x
 _atom_site_fract_y
 _atom_site_fract_z
 _atom_site_occupancy
  Gd  Gd0  1  0.619695  0.380305  0.461416  1
  Gd  Gd1  1  0.159361  0.840639  0.799360  1
  Gd  Gd2  1  0.840639  0.159361  0.200640  1
  Gd  Gd3  1  0.380305  0.619695  0.538584  1
  Hg  Hg4  1  0.886178  0.113822  0.838515  1
  Hg  Hg5  1  0.113822  0.886178  0.161485  1
  O  O6  1  0.230690  0.769310  0.611362  1
  O  O7  1  0.796760  0.203240  0.944208  1
  O  O8  1  0.035154  0.964846  0.281233  1
  O  O9  1  0.581829  0.418171  0.652790  1
  O  O10  1  0.418171  0.581829  0.347210  1
  O  O11  1  0.964846  0.035154  0.718767  1
  O  O12  1  0.203240  0.796760  0.055792  1
  O  O13  1  0.769310  0.230690  0.388638  1
