# generated using pymatgen
data_MnCrO4
_symmetry_space_group_name_H-M   'P 1'
_cell_length_a   6.96698996
_cell_length_b   6.96698996
_cell_length_c   6.96073747
_cell_angle_alpha   79.76807602
_cell_angle_beta   100.23192398
_cell_angle_gamma   94.47169930
_symmetry_Int_Tables_number   1
_chemical_formula_structural   MnCrO4
_chemical_formula_sum   'Mn4 Cr4 O16'
_cell_volume   326.83000869
_cell_formula_units_Z   4
loop_
 _symmetry_equiv_pos_site_id
 _symmetry_equiv_pos_as_xyz
  1  'x, y, z'
loop_
 _atom_site_type_symbol
 _atom_site_label
 _atom_site_symmetry_multiplicity
 _atom_site_fract_x
 _atom_site_fract_y
 _atom_site_fract_z
 _atom_site_occupancy
  Mn  Mn0  1  0.792458  0.207542  0.132040  1
  Mn  Mn1  1  0.815032  0.815032  0.500000  1
  Mn  Mn2  1  0.184968  0.184968  0.500000  1
  Mn  Mn3  1  0.207542  0.792458  0.867960  1
  Cr  Cr4  1  0.726101  0.273899  0.589161  1
  Cr  Cr5  1  0.745118  0.745118  0.000000  1
  Cr  Cr6  1  0.254882  0.254882  0.000000  1
  Cr  Cr7  1  0.273899  0.726101  0.410839  1
  O  O8  1  0.856127  0.143873  0.463009  1
  O  O9  1  0.789460  0.210540  0.830242  1
  O  O10  1  0.780381  0.516734  0.103968  1
  O  O11  1  0.483266  0.219619  0.103968  1
  O  O12  1  0.492907  0.216162  0.524013  1
  O  O13  1  0.783838  0.507093  0.524013  1
  O  O14  1  0.112391  0.201460  0.181115  1
  O  O15  1  0.798540  0.887609  0.181115  1
  O  O16  1  0.887609  0.798540  0.818885  1
  O  O17  1  0.201460  0.112391  0.818885  1
  O  O18  1  0.507093  0.783838  0.475987  1
  O  O19  1  0.216162  0.492907  0.475987  1
  O  O20  1  0.516734  0.780381  0.896032  1
  O  O21  1  0.219619  0.483266  0.896032  1
  O  O22  1  0.210540  0.789460  0.169758  1
  O  O23  1  0.143873  0.856127  0.536991  1
