# generated using pymatgen
data_Na3Li3Mn2P2(CO7)2
_symmetry_space_group_name_H-M   'P 1'
_cell_length_a   5.05439179
_cell_length_b   6.79671307
_cell_length_c   8.76627423
_cell_angle_alpha   90.71472737
_cell_angle_beta   91.70963243
_cell_angle_gamma   89.98461931
_symmetry_Int_Tables_number   1
_chemical_formula_structural   Na3Li3Mn2P2(CO7)2
_chemical_formula_sum   'Na3 Li3 Mn2 P2 C2 O14'
_cell_volume   300.99254041
_cell_formula_units_Z   1
loop_
 _symmetry_equiv_pos_site_id
 _symmetry_equiv_pos_as_xyz
  1  'x, y, z'
loop_
 _atom_site_type_symbol
 _atom_site_label
 _atom_site_symmetry_multiplicity
 _atom_site_fract_x
 _atom_site_fract_y
 _atom_site_fract_z
 _atom_site_occupancy
  Na  Na0  1  0.250911  0.000190  0.745567  1
  Na  Na1  1  0.249619  0.500342  0.744832  1
  Na  Na2  1  0.747753  0.499720  0.252640  1
  Li  Li3  1  0.747454  0.240451  0.913950  1
  Li  Li4  1  0.769088  0.976136  0.270267  1
  Li  Li5  1  0.250914  0.762745  0.091213  1
  Mn  Mn6  1  0.773458  0.750035  0.641426  1
  Mn  Mn7  1  0.220161  0.244264  0.354223  1
  P  P8  1  0.703578  0.245314  0.592115  1
  P  P9  1  0.289321  0.753197  0.401045  1
  C  C10  1  0.732583  0.759975  0.955808  1
  C  C11  1  0.274976  0.248438  0.049393  1
  O  O12  1  0.343104  0.253728  0.907908  1
  O  O13  1  0.977588  0.753564  0.915741  1
  O  O14  1  0.542561  0.749891  0.851723  1
  O  O15  1  0.787216  0.068847  0.695166  1
  O  O16  1  0.792620  0.433879  0.682090  1
  O  O17  1  0.396048  0.246424  0.571910  1
  O  O18  1  0.174498  0.749504  0.563577  1
  O  O19  1  0.820022  0.232406  0.429685  1
  O  O20  1  0.597483  0.772608  0.420785  1
  O  O21  1  0.220499  0.564779  0.305781  1
  O  O22  1  0.179208  0.926938  0.303916  1
  O  O23  1  0.462258  0.240573  0.154751  1
  O  O24  1  0.027923  0.250282  0.086281  1
  O  O25  1  0.669154  0.775774  0.098206  1
