# generated using pymatgen
data_Li3CoPCO7
_symmetry_space_group_name_H-M   'P 1'
_cell_length_a   8.48786782
_cell_length_b   6.38859718
_cell_length_c   9.85127664
_cell_angle_alpha   90.00000000
_cell_angle_beta   94.98562488
_cell_angle_gamma   90.00000000
_symmetry_Int_Tables_number   1
_chemical_formula_structural   Li3CoPCO7
_chemical_formula_sum   'Li12 Co4 P4 C4 O28'
_cell_volume   532.16998150
_cell_formula_units_Z   4
loop_
 _symmetry_equiv_pos_site_id
 _symmetry_equiv_pos_as_xyz
  1  'x, y, z'
loop_
 _atom_site_type_symbol
 _atom_site_label
 _atom_site_symmetry_multiplicity
 _atom_site_fract_x
 _atom_site_fract_y
 _atom_site_fract_z
 _atom_site_occupancy
  Li  Li0  1  0.901983  0.748213  0.382178  1
  Li  Li1  1  0.901983  0.751787  0.882178  1
  Li  Li2  1  0.719902  0.986424  0.118754  1
  Li  Li3  1  0.719902  0.513576  0.618754  1
  Li  Li4  1  0.653613  0.253909  0.390075  1
  Li  Li5  1  0.653613  0.246091  0.890075  1
  Li  Li6  1  0.346387  0.753909  0.109925  1
  Li  Li7  1  0.346387  0.746091  0.609925  1
  Li  Li8  1  0.280098  0.486424  0.381246  1
  Li  Li9  1  0.280098  0.013576  0.881246  1
  Li  Li10  1  0.098017  0.248213  0.117822  1
  Li  Li11  1  0.098017  0.251787  0.617822  1
  Co  Co12  1  0.724905  0.506126  0.123531  1
  Co  Co13  1  0.724905  0.993874  0.623531  1
  Co  Co14  1  0.275095  0.006126  0.376469  1
  Co  Co15  1  0.275095  0.493874  0.876469  1
  P  P16  1  0.591161  0.747846  0.359868  1
  P  P17  1  0.591161  0.752154  0.859868  1
  P  P18  1  0.408839  0.247846  0.140132  1
  P  P19  1  0.408839  0.252154  0.640132  1
  C  C20  1  0.962111  0.250626  0.351935  1
  C  C21  1  0.962111  0.249374  0.851935  1
  C  C22  1  0.037889  0.750626  0.148065  1
  C  C23  1  0.037889  0.749374  0.648065  1
  O  O24  1  0.930621  0.245038  0.476593  1
  O  O25  1  0.889094  0.740337  0.179631  1
  O  O26  1  0.930621  0.254962  0.976593  1
  O  O27  1  0.852461  0.266039  0.252577  1
  O  O28  1  0.889094  0.759663  0.679631  1
  O  O29  1  0.852461  0.233961  0.752577  1
  O  O30  1  0.689898  0.941508  0.415257  1
  O  O31  1  0.686287  0.557117  0.414946  1
  O  O32  1  0.686287  0.942883  0.914946  1
  O  O33  1  0.689898  0.558492  0.915257  1
  O  O34  1  0.579583  0.254905  0.094090  1
  O  O35  1  0.578763  0.747406  0.200496  1
  O  O36  1  0.579583  0.245095  0.594090  1
  O  O37  1  0.578763  0.752594  0.700496  1
  O  O38  1  0.421237  0.247406  0.299504  1
  O  O39  1  0.420417  0.754905  0.405910  1
  O  O40  1  0.421237  0.252594  0.799504  1
  O  O41  1  0.420417  0.745095  0.905910  1
  O  O42  1  0.313713  0.057117  0.085054  1
  O  O43  1  0.310102  0.441508  0.084743  1
  O  O44  1  0.313713  0.442883  0.585054  1
  O  O45  1  0.310102  0.058492  0.584743  1
  O  O46  1  0.147539  0.766039  0.247423  1
  O  O47  1  0.110906  0.240337  0.320369  1
  O  O48  1  0.147539  0.733961  0.747423  1
  O  O49  1  0.069379  0.745038  0.023407  1
  O  O50  1  0.110906  0.259663  0.820369  1
  O  O51  1  0.069379  0.754962  0.523407  1
