# generated using pymatgen
data_NbVO5
_symmetry_space_group_name_H-M   'P 1'
_cell_length_a   13.97909127
_cell_length_b   5.57737094
_cell_length_c   14.07553847
_cell_angle_alpha   90.00000000
_cell_angle_beta   119.91017094
_cell_angle_gamma   90.00000000
_symmetry_Int_Tables_number   1
_chemical_formula_structural   NbVO5
_chemical_formula_sum   'Nb8 V8 O40'
_cell_volume   951.25405733
_cell_formula_units_Z   8
loop_
 _symmetry_equiv_pos_site_id
 _symmetry_equiv_pos_as_xyz
  1  'x, y, z'
loop_
 _atom_site_type_symbol
 _atom_site_label
 _atom_site_symmetry_multiplicity
 _atom_site_fract_x
 _atom_site_fract_y
 _atom_site_fract_z
 _atom_site_occupancy
  Nb  Nb0  1  0.940943  0.258120  0.798245  1
  Nb  Nb1  1  0.940943  0.241880  0.298245  1
  Nb  Nb2  1  0.559263  0.753186  0.358197  1
  Nb  Nb3  1  0.440737  0.253186  0.141803  1
  Nb  Nb4  1  0.559263  0.746814  0.858197  1
  Nb  Nb5  1  0.440737  0.246814  0.641803  1
  Nb  Nb6  1  0.059057  0.758120  0.701755  1
  Nb  Nb7  1  0.059057  0.741880  0.201755  1
  V  V8  1  0.846031  0.733539  0.408422  1
  V  V9  1  0.654161  0.240291  0.561604  1
  V  V10  1  0.846031  0.766461  0.908422  1
  V  V11  1  0.654161  0.259709  0.061604  1
  V  V12  1  0.345839  0.740291  0.938396  1
  V  V13  1  0.153969  0.233539  0.091578  1
  V  V14  1  0.345839  0.759709  0.438396  1
  V  V15  1  0.153969  0.266461  0.591578  1
  O  O16  1  0.991459  0.967391  0.758813  1
  O  O17  1  0.884392  0.544544  0.848958  1
  O  O18  1  0.925184  0.758396  0.550870  1
  O  O19  1  0.795260  0.254289  0.663011  1
  O  O20  1  0.991459  0.532609  0.258813  1
  O  O21  1  0.884392  0.955456  0.348958  1
  O  O22  1  0.867040  0.458133  0.368187  1
  O  O23  1  0.624390  0.962851  0.498783  1
  O  O24  1  0.625509  0.459671  0.466392  1
  O  O25  1  0.705088  0.769588  0.368073  1
  O  O26  1  0.925184  0.741604  0.050870  1
  O  O27  1  0.795260  0.245711  0.163011  1
  O  O28  1  0.426089  0.716255  0.376323  1
  O  O29  1  0.501445  0.025519  0.263692  1
  O  O30  1  0.498555  0.525519  0.236308  1
  O  O31  1  0.867040  0.041867  0.868187  1
  O  O32  1  0.573911  0.216255  0.123677  1
  O  O33  1  0.624390  0.537149  0.998783  1
  O  O34  1  0.625509  0.040329  0.966392  1
  O  O35  1  0.705088  0.730412  0.868073  1
  O  O36  1  0.294912  0.269588  0.131927  1
  O  O37  1  0.374491  0.959671  0.033608  1
  O  O38  1  0.375610  0.462851  0.001217  1
  O  O39  1  0.426089  0.783745  0.876323  1
  O  O40  1  0.132960  0.958133  0.131813  1
  O  O41  1  0.501445  0.474481  0.763692  1
  O  O42  1  0.498555  0.974481  0.736308  1
  O  O43  1  0.573911  0.283745  0.623677  1
  O  O44  1  0.204740  0.754289  0.836989  1
  O  O45  1  0.074816  0.258396  0.949130  1
  O  O46  1  0.294912  0.230412  0.631927  1
  O  O47  1  0.374491  0.540329  0.533608  1
  O  O48  1  0.375610  0.037149  0.501217  1
  O  O49  1  0.132960  0.541867  0.631813  1
  O  O50  1  0.115608  0.044544  0.651042  1
  O  O51  1  0.008541  0.467391  0.741187  1
  O  O52  1  0.204740  0.745711  0.336989  1
  O  O53  1  0.074816  0.241604  0.449130  1
  O  O54  1  0.115608  0.455456  0.151042  1
  O  O55  1  0.008541  0.032609  0.241187  1
