# generated using pymatgen
data_Tm4(B2O5)3
_symmetry_space_group_name_H-M   'P 1'
_cell_length_a   6.21190589
_cell_length_b   6.21190589
_cell_length_c   18.77793952
_cell_angle_alpha   84.07908759
_cell_angle_beta   95.92091241
_cell_angle_gamma   138.69259441
_symmetry_Int_Tables_number   1
_chemical_formula_structural   Tm4(B2O5)3
_chemical_formula_sum   'Tm8 B12 O30'
_cell_volume   475.39151391
_cell_formula_units_Z   2
loop_
 _symmetry_equiv_pos_site_id
 _symmetry_equiv_pos_as_xyz
  1  'x, y, z'
loop_
 _atom_site_type_symbol
 _atom_site_label
 _atom_site_symmetry_multiplicity
 _atom_site_fract_x
 _atom_site_fract_y
 _atom_site_fract_z
 _atom_site_occupancy
  Tm  Tm0  1  0.929748  0.655361  0.802284  1
  Tm  Tm1  1  0.935394  0.668158  0.599336  1
  Tm  Tm2  1  0.344639  0.070252  0.302284  1
  Tm  Tm3  1  0.331842  0.064606  0.099336  1
  Tm  Tm4  1  0.668158  0.935394  0.900664  1
  Tm  Tm5  1  0.655361  0.929748  0.697716  1
  Tm  Tm6  1  0.064606  0.331842  0.400664  1
  Tm  Tm7  1  0.070252  0.344639  0.197716  1
  B  B8  1  0.391318  0.197390  0.912845  1
  B  B9  1  0.340756  0.204333  0.694190  1
  B  B10  1  0.978895  0.641134  0.974456  1
  B  B11  1  0.802610  0.608682  0.412845  1
  B  B12  1  0.795667  0.659244  0.194190  1
  B  B13  1  0.358866  0.021105  0.474456  1
  B  B14  1  0.641134  0.978895  0.525544  1
  B  B15  1  0.204333  0.340756  0.805810  1
  B  B16  1  0.197390  0.391318  0.587155  1
  B  B17  1  0.021105  0.358866  0.025544  1
  B  B18  1  0.659244  0.795667  0.305810  1
  B  B19  1  0.608682  0.802610  0.087155  1
  O  O20  1  0.188235  0.159081  0.621276  1
  O  O21  1  0.712458  0.544166  0.929206  1
  O  O22  1  0.665473  0.534592  0.696685  1
  O  O23  1  0.249349  0.995238  0.980022  1
  O  O24  1  0.840919  0.811765  0.121276  1
  O  O25  1  0.455834  0.287542  0.429206  1
  O  O26  1  0.437696  0.074442  0.861395  1
  O  O27  1  0.465408  0.334527  0.196685  1
  O  O28  1  0.004762  0.750651  0.480022  1
  O  O29  1  0.315263  0.949669  0.703923  1
  O  O30  1  0.506313  0.089786  0.549681  1
  O  O31  1  0.089786  0.506313  0.950319  1
  O  O32  1  0.925558  0.562304  0.361395  1
  O  O33  1  0.050331  0.684737  0.203923  1
  O  O34  1  0.949669  0.315263  0.796077  1
  O  O35  1  0.074442  0.437696  0.638605  1
  O  O36  1  0.910214  0.493687  0.049681  1
  O  O37  1  0.493687  0.910214  0.450319  1
  O  O38  1  0.684737  0.050331  0.296077  1
  O  O39  1  0.995238  0.249349  0.519978  1
  O  O40  1  0.534592  0.665473  0.803315  1
  O  O41  1  0.562304  0.925558  0.138605  1
  O  O42  1  0.544166  0.712458  0.570794  1
  O  O43  1  0.159081  0.188235  0.878724  1
  O  O44  1  0.131089  0.131089  0.750000  1
  O  O45  1  0.750651  0.004762  0.019978  1
  O  O46  1  0.334527  0.465408  0.303315  1
  O  O47  1  0.287542  0.455834  0.070794  1
  O  O48  1  0.811765  0.840919  0.378724  1
  O  O49  1  0.868911  0.868911  0.250000  1
