# generated using pymatgen
data_Li3Co5OF11
_symmetry_space_group_name_H-M   'P 1'
_cell_length_a   5.18107837
_cell_length_b   5.55201500
_cell_length_c   9.13375153
_cell_angle_alpha   106.53637051
_cell_angle_beta   89.09426011
_cell_angle_gamma   116.90830387
_symmetry_Int_Tables_number   1
_chemical_formula_structural   Li3Co5OF11
_chemical_formula_sum   'Li3 Co5 O1 F11'
_cell_volume   222.62886239
_cell_formula_units_Z   1
loop_
 _symmetry_equiv_pos_site_id
 _symmetry_equiv_pos_as_xyz
  1  'x, y, z'
loop_
 _atom_site_type_symbol
 _atom_site_label
 _atom_site_symmetry_multiplicity
 _atom_site_fract_x
 _atom_site_fract_y
 _atom_site_fract_z
 _atom_site_occupancy
  Li  Li0  1  0.021872  0.035200  0.999390  1
  Li  Li1  1  0.796761  0.298901  0.266230  1
  Li  Li2  1  0.269367  0.764303  0.760959  1
  Co  Co3  1  0.476091  0.495422  0.498020  1
  Co  Co4  1  0.458846  0.771829  0.146084  1
  Co  Co5  1  0.950702  0.232603  0.647615  1
  Co  Co6  1  0.172013  0.004755  0.401102  1
  Co  Co7  1  0.715031  0.507415  0.906521  1
  O  O8  1  0.059883  0.253865  0.457060  1
  F  F9  1  0.431876  0.854774  0.352224  1
  F  F10  1  0.512275  0.423944  0.288688  1
  F  F11  1  0.010847  0.898643  0.802816  1
  F  F12  1  0.449099  0.159272  0.042144  1
  F  F13  1  0.919840  0.638198  0.542606  1
  F  F14  1  0.945149  0.346564  0.847067  1
  F  F15  1  0.015059  0.599672  0.103104  1
  F  F16  1  0.546712  0.749821  0.950672  1
  F  F17  1  0.904612  0.002332  0.195112  1
  F  F18  1  0.418110  0.506285  0.709090  1
  F  F19  1  0.500493  0.080602  0.608373  1
