# generated using pymatgen
data_Bi2B2O7
_symmetry_space_group_name_H-M   'P 1'
_cell_length_a   5.43170823
_cell_length_b   6.58602430
_cell_length_c   8.01112591
_cell_angle_alpha   108.52028144
_cell_angle_beta   86.78235813
_cell_angle_gamma   100.63787885
_symmetry_Int_Tables_number   1
_chemical_formula_structural   Bi2B2O7
_chemical_formula_sum   'Bi4 B4 O14'
_cell_volume   267.07177120
_cell_formula_units_Z   2
loop_
 _symmetry_equiv_pos_site_id
 _symmetry_equiv_pos_as_xyz
  1  'x, y, z'
loop_
 _atom_site_type_symbol
 _atom_site_label
 _atom_site_symmetry_multiplicity
 _atom_site_fract_x
 _atom_site_fract_y
 _atom_site_fract_z
 _atom_site_occupancy
  Bi  Bi0  1  0.813865  0.594296  0.858679  1
  Bi  Bi1  1  0.274658  0.191431  0.604820  1
  Bi  Bi2  1  0.725342  0.808569  0.395180  1
  Bi  Bi3  1  0.186135  0.405704  0.141321  1
  B  B4  1  0.648393  0.151739  0.836346  1
  B  B5  1  0.201773  0.673555  0.579095  1
  B  B6  1  0.798227  0.326445  0.420905  1
  B  B7  1  0.351607  0.848261  0.163654  1
  O  O8  1  0.475578  0.307572  0.879867  1
  O  O9  1  0.906670  0.276253  0.866156  1
  O  O10  1  0.381352  0.988832  0.035038  1
  O  O11  1  0.052918  0.831250  0.607047  1
  O  O12  1  0.192787  0.568081  0.704550  1
  O  O13  1  0.663061  0.398941  0.575316  1
  O  O14  1  0.579955  0.998715  0.664382  1
  O  O15  1  0.420045  0.001285  0.335618  1
  O  O16  1  0.336939  0.601059  0.424684  1
  O  O17  1  0.807213  0.431919  0.295450  1
  O  O18  1  0.947082  0.168750  0.392953  1
  O  O19  1  0.618648  0.011168  0.964962  1
  O  O20  1  0.093330  0.723747  0.133844  1
  O  O21  1  0.524422  0.692428  0.120133  1
