# generated using pymatgen
data_LiSnPHO5
_symmetry_space_group_name_H-M   'P 1'
_cell_length_a   5.17312747
_cell_length_b   5.92753591
_cell_length_c   8.08577451
_cell_angle_alpha   110.22356822
_cell_angle_beta   104.80370085
_cell_angle_gamma   96.18270852
_symmetry_Int_Tables_number   1
_chemical_formula_structural   LiSnPHO5
_chemical_formula_sum   'Li2 Sn2 P2 H2 O10'
_cell_volume   219.61976007
_cell_formula_units_Z   2
loop_
 _symmetry_equiv_pos_site_id
 _symmetry_equiv_pos_as_xyz
  1  'x, y, z'
loop_
 _atom_site_type_symbol
 _atom_site_label
 _atom_site_symmetry_multiplicity
 _atom_site_fract_x
 _atom_site_fract_y
 _atom_site_fract_z
 _atom_site_occupancy
  Li  Li0  1  0.250092  0.600884  0.824072  1
  Li  Li1  1  0.749908  0.399116  0.175928  1
  Sn  Sn2  1  0.000000  0.000000  0.500000  1
  Sn  Sn3  1  0.000000  0.000000  0.000000  1
  P  P4  1  0.350325  0.645371  0.220263  1
  P  P5  1  0.649675  0.354629  0.779737  1
  H  H6  1  0.627677  0.952089  0.300209  1
  H  H7  1  0.372323  0.047911  0.699791  1
  O  O8  1  0.180087  0.934852  0.760681  1
  O  O9  1  0.322730  0.783515  0.352911  1
  O  O10  1  0.643271  0.623663  0.691396  1
  O  O11  1  0.637267  0.759128  0.049644  1
  O  O12  1  0.110265  0.663893  0.135947  1
  O  O13  1  0.889735  0.336107  0.864053  1
  O  O14  1  0.362733  0.240872  0.950356  1
  O  O15  1  0.356729  0.376337  0.308604  1
  O  O16  1  0.677270  0.216485  0.647089  1
  O  O17  1  0.819913  0.065148  0.239319  1
