# generated using pymatgen
data_Li2Co2C2O7
_symmetry_space_group_name_H-M   'P 1'
_cell_length_a   8.91478813
_cell_length_b   6.24694436
_cell_length_c   10.60852580
_cell_angle_alpha   90.00000000
_cell_angle_beta   112.92826889
_cell_angle_gamma   90.00000000
_symmetry_Int_Tables_number   1
_chemical_formula_structural   Li2Co2C2O7
_chemical_formula_sum   'Li8 Co8 C8 O28'
_cell_volume   544.11434303
_cell_formula_units_Z   4
loop_
 _symmetry_equiv_pos_site_id
 _symmetry_equiv_pos_as_xyz
  1  'x, y, z'
loop_
 _atom_site_type_symbol
 _atom_site_label
 _atom_site_symmetry_multiplicity
 _atom_site_fract_x
 _atom_site_fract_y
 _atom_site_fract_z
 _atom_site_occupancy
  Li  Li0  1  0.935451  0.905580  0.875045  1
  Li  Li1  1  0.435451  0.594420  0.875045  1
  Li  Li2  1  0.708674  0.204380  0.972709  1
  Li  Li3  1  0.791326  0.704380  0.027291  1
  Li  Li4  1  0.208674  0.295620  0.972709  1
  Li  Li5  1  0.291326  0.795620  0.027291  1
  Li  Li6  1  0.564549  0.405580  0.124955  1
  Li  Li7  1  0.064549  0.094420  0.124955  1
  Co  Co8  1  0.832868  0.397139  0.511504  1
  Co  Co9  1  0.332868  0.102861  0.511504  1
  Co  Co10  1  0.551381  0.452003  0.645936  1
  Co  Co11  1  0.051381  0.047997  0.645936  1
  Co  Co12  1  0.948619  0.952003  0.354064  1
  Co  Co13  1  0.448619  0.547997  0.354064  1
  Co  Co14  1  0.667132  0.897139  0.488496  1
  Co  Co15  1  0.167132  0.602861  0.488496  1
  C  C16  1  0.869148  0.293042  0.827251  1
  C  C17  1  0.591405  0.871283  0.745160  1
  C  C18  1  0.369148  0.206958  0.827251  1
  C  C19  1  0.091405  0.628717  0.745160  1
  C  C20  1  0.908595  0.371283  0.254840  1
  C  C21  1  0.630852  0.793042  0.172749  1
  C  C22  1  0.408595  0.128717  0.254840  1
  C  C23  1  0.130852  0.706958  0.172749  1
  O  O24  1  0.655685  0.573806  0.524752  1
  O  O25  1  0.988339  0.779677  0.735019  1
  O  O26  1  0.888796  0.250519  0.716418  1
  O  O27  1  0.576200  0.981799  0.635571  1
  O  O28  1  0.155685  0.926194  0.524752  1
  O  O29  1  0.488339  0.720323  0.735019  1
  O  O30  1  0.742965  0.398109  0.827142  1
  O  O31  1  0.388796  0.249481  0.716418  1
  O  O32  1  0.076200  0.518201  0.635571  1
  O  O33  1  0.708191  0.912665  0.861548  1
  O  O34  1  0.974805  0.221527  0.943934  1
  O  O35  1  0.242965  0.101891  0.827142  1
  O  O36  1  0.208191  0.587335  0.861548  1
  O  O37  1  0.474805  0.278473  0.943934  1
  O  O38  1  0.525195  0.721527  0.056066  1
  O  O39  1  0.791809  0.412665  0.138452  1
  O  O40  1  0.757035  0.898109  0.172858  1
  O  O41  1  0.025195  0.778473  0.056066  1
  O  O42  1  0.291809  0.087335  0.138452  1
  O  O43  1  0.923800  0.481799  0.364429  1
  O  O44  1  0.611204  0.750519  0.283582  1
  O  O45  1  0.257035  0.601891  0.172858  1
  O  O46  1  0.511661  0.279677  0.264981  1
  O  O47  1  0.844315  0.073806  0.475248  1
  O  O48  1  0.423800  0.018201  0.364429  1
  O  O49  1  0.111204  0.749481  0.283582  1
  O  O50  1  0.011661  0.220323  0.264981  1
  O  O51  1  0.344315  0.426194  0.475248  1
