# generated using pymatgen
data_Li2NbS3
_symmetry_space_group_name_H-M   'P 1'
_cell_length_a   6.20382106
_cell_length_b   6.20382106
_cell_length_c   12.46371545
_cell_angle_alpha   84.41977981
_cell_angle_beta   95.58022019
_cell_angle_gamma   60.45069720
_symmetry_Int_Tables_number   1
_chemical_formula_structural   Li2NbS3
_chemical_formula_sum   'Li8 Nb4 S12'
_cell_volume   409.44338939
_cell_formula_units_Z   4
loop_
 _symmetry_equiv_pos_site_id
 _symmetry_equiv_pos_as_xyz
  1  'x, y, z'
loop_
 _atom_site_type_symbol
 _atom_site_label
 _atom_site_symmetry_multiplicity
 _atom_site_fract_x
 _atom_site_fract_y
 _atom_site_fract_z
 _atom_site_occupancy
  Li  Li0  1  0.322579  0.852361  0.499437  1
  Li  Li1  1  0.500000  0.000000  0.000000  1
  Li  Li2  1  0.912909  0.912909  0.250000  1
  Li  Li3  1  1.000000  0.500000  0.500000  1
  Li  Li4  1  0.852361  0.322579  0.000563  1
  Li  Li5  1  0.147639  0.677421  0.999437  1
  Li  Li6  1  0.087091  0.087091  0.750000  1
  Li  Li7  1  0.677421  0.147639  0.500563  1
  Nb  Nb8  1  0.727491  0.727491  0.750000  1
  Nb  Nb9  1  0.554056  0.554056  0.250000  1
  Nb  Nb10  1  0.445944  0.445944  0.750000  1
  Nb  Nb11  1  0.272509  0.272509  0.250000  1
  S  S12  1  0.225965  0.949455  0.135236  1
  S  S13  1  0.467647  0.704822  0.880091  1
  S  S14  1  0.600697  0.876916  0.364234  1
  S  S15  1  0.704822  0.467647  0.619909  1
  S  S16  1  0.050545  0.774035  0.635236  1
  S  S17  1  0.123084  0.399303  0.864234  1
  S  S18  1  0.876916  0.600697  0.135766  1
  S  S19  1  0.949455  0.225965  0.364764  1
  S  S20  1  0.295178  0.532353  0.380091  1
  S  S21  1  0.399303  0.123084  0.635766  1
  S  S22  1  0.532353  0.295178  0.119909  1
  S  S23  1  0.774035  0.050545  0.864764  1
