# generated using pymatgen
data_LiMnF4
_symmetry_space_group_name_H-M   'P 1'
_cell_length_a   6.91073804
_cell_length_b   8.42097802
_cell_length_c   9.72133723
_cell_angle_alpha   96.95617809
_cell_angle_beta   106.85968688
_cell_angle_gamma   100.80421310
_symmetry_Int_Tables_number   1
_chemical_formula_structural   LiMnF4
_chemical_formula_sum   'Li6 Mn6 F24'
_cell_volume   522.47324252
_cell_formula_units_Z   6
loop_
 _symmetry_equiv_pos_site_id
 _symmetry_equiv_pos_as_xyz
  1  'x, y, z'
loop_
 _atom_site_type_symbol
 _atom_site_label
 _atom_site_symmetry_multiplicity
 _atom_site_fract_x
 _atom_site_fract_y
 _atom_site_fract_z
 _atom_site_occupancy
  Li  Li0  1  0.003592  0.012643  0.266491  1
  Li  Li1  1  0.189814  0.599412  0.349137  1
  Li  Li2  1  0.477051  0.682130  0.865066  1
  Li  Li3  1  0.522949  0.317870  0.134934  1
  Li  Li4  1  0.810186  0.400588  0.650863  1
  Li  Li5  1  0.996408  0.987357  0.733509  1
  Mn  Mn6  1  0.036409  0.695784  0.990798  1
  Mn  Mn7  1  0.236714  0.309896  0.574700  1
  Mn  Mn8  1  0.469853  0.901231  0.230848  1
  Mn  Mn9  1  0.530147  0.098769  0.769152  1
  Mn  Mn10  1  0.763286  0.690104  0.425300  1
  Mn  Mn11  1  0.963591  0.304216  0.009202  1
  F  F12  1  0.044880  0.834868  0.860181  1
  F  F13  1  0.045358  0.723364  0.428757  1
  F  F14  1  0.046472  0.553092  0.135358  1
  F  F15  1  0.183987  0.895498  0.192612  1
  F  F16  1  0.262168  0.126202  0.744879  1
  F  F17  1  0.326420  0.490812  0.724826  1
  F  F18  1  0.469001  0.887193  0.796702  1
  F  F19  1  0.181843  0.111123  0.450637  1
  F  F20  1  0.272622  0.427820  0.424675  1
  F  F21  1  0.451186  0.735313  0.346114  1
  F  F22  1  0.334888  0.721334  0.027101  1
  F  F23  1  0.236715  0.303711  0.028518  1
  F  F24  1  0.763285  0.696289  0.971482  1
  F  F25  1  0.665112  0.278666  0.972899  1
  F  F26  1  0.548814  0.264687  0.653886  1
  F  F27  1  0.727378  0.572180  0.575325  1
  F  F28  1  0.818157  0.888877  0.549363  1
  F  F29  1  0.530999  0.112807  0.203298  1
  F  F30  1  0.673580  0.509188  0.275174  1
  F  F31  1  0.737832  0.873798  0.255121  1
  F  F32  1  0.816013  0.104502  0.807388  1
  F  F33  1  0.953528  0.446908  0.864642  1
  F  F34  1  0.954642  0.276636  0.571243  1
  F  F35  1  0.955120  0.165132  0.139819  1
