# generated using pymatgen
data_Na2GeH16Se3O8
_symmetry_space_group_name_H-M   'P 1'
_cell_length_a   9.93809098
_cell_length_b   11.88096989
_cell_length_c   12.31170624
_cell_angle_alpha   90.00000000
_cell_angle_beta   92.79915828
_cell_angle_gamma   90.00000000
_symmetry_Int_Tables_number   1
_chemical_formula_structural   Na2GeH16Se3O8
_chemical_formula_sum   'Na8 Ge4 H64 Se12 O32'
_cell_volume   1451.95990074
_cell_formula_units_Z   4
loop_
 _symmetry_equiv_pos_site_id
 _symmetry_equiv_pos_as_xyz
  1  'x, y, z'
loop_
 _atom_site_type_symbol
 _atom_site_label
 _atom_site_symmetry_multiplicity
 _atom_site_fract_x
 _atom_site_fract_y
 _atom_site_fract_z
 _atom_site_occupancy
  Na  Na0  1  0.433883  0.660829  0.147111  1
  Na  Na1  1  0.566117  0.160829  0.352889  1
  Na  Na2  1  0.566117  0.339171  0.852889  1
  Na  Na3  1  0.433883  0.839171  0.647111  1
  Na  Na4  1  0.356525  0.850708  0.320965  1
  Na  Na5  1  0.643475  0.350708  0.179035  1
  Na  Na6  1  0.643475  0.149292  0.679035  1
  Na  Na7  1  0.356525  0.649292  0.820965  1
  Ge  Ge8  1  0.882314  0.904658  0.014597  1
  Ge  Ge9  1  0.117686  0.404658  0.485403  1
  Ge  Ge10  1  0.117686  0.095342  0.985403  1
  Ge  Ge11  1  0.882314  0.595342  0.514597  1
  H  H12  1  0.273277  0.872689  0.093479  1
  H  H13  1  0.726723  0.372689  0.406521  1
  H  H14  1  0.726723  0.127311  0.906521  1
  H  H15  1  0.273277  0.627311  0.593479  1
  H  H16  1  0.166234  0.779060  0.115376  1
  H  H17  1  0.833766  0.279060  0.384624  1
  H  H18  1  0.833766  0.220940  0.884624  1
  H  H19  1  0.166234  0.720940  0.615376  1
  H  H20  1  0.659140  0.567550  0.279873  1
  H  H21  1  0.340860  0.067550  0.220127  1
  H  H22  1  0.340860  0.432450  0.720127  1
  H  H23  1  0.659140  0.932450  0.779873  1
  H  H24  1  0.718877  0.602958  0.168142  1
  H  H25  1  0.281123  0.102958  0.331858  1
  H  H26  1  0.281123  0.397042  0.831858  1
  H  H27  1  0.718877  0.897042  0.668142  1
  H  H28  1  0.593558  0.894180  0.461981  1
  H  H29  1  0.406442  0.394180  0.038019  1
  H  H30  1  0.406442  0.105820  0.538019  1
  H  H31  1  0.593558  0.605820  0.961981  1
  H  H32  1  0.573302  0.762500  0.471357  1
  H  H33  1  0.426698  0.262500  0.028643  1
  H  H34  1  0.426698  0.237500  0.528643  1
  H  H35  1  0.573302  0.737500  0.971357  1
  H  H36  1  0.378881  0.601067  0.387736  1
  H  H37  1  0.621119  0.101067  0.112264  1
  H  H38  1  0.621119  0.398933  0.612264  1
  H  H39  1  0.378881  0.898933  0.887736  1
  H  H40  1  0.242820  0.625925  0.329206  1
  H  H41  1  0.757180  0.125925  0.170794  1
  H  H42  1  0.757180  0.374075  0.670794  1
  H  H43  1  0.242820  0.874075  0.829206  1
  H  H44  1  0.568298  0.875182  0.148689  1
  H  H45  1  0.431702  0.375182  0.351311  1
  H  H46  1  0.431702  0.124818  0.851311  1
  H  H47  1  0.568298  0.624818  0.648689  1
  H  H48  1  0.641007  0.824179  0.252129  1
  H  H49  1  0.358993  0.324179  0.247871  1
  H  H50  1  0.358993  0.175821  0.747871  1
  H  H51  1  0.641007  0.675821  0.752129  1
  H  H52  1  0.082379  0.838759  0.424967  1
  H  H53  1  0.917621  0.338759  0.075033  1
  H  H54  1  0.917621  0.161241  0.575033  1
  H  H55  1  0.082379  0.661241  0.924967  1
  H  H56  1  0.089596  0.941820  0.345786  1
  H  H57  1  0.910404  0.441820  0.154214  1
  H  H58  1  0.910404  0.058180  0.654214  1
  H  H59  1  0.089596  0.558180  0.845786  1
  H  H60  1  0.238624  0.465979  0.126890  1
  H  H61  1  0.761376  0.965979  0.373110  1
  H  H62  1  0.761376  0.534021  0.873110  1
  H  H63  1  0.238624  0.034021  0.626890  1
  H  H64  1  0.226646  0.537692  0.018418  1
  H  H65  1  0.773354  0.037692  0.481582  1
  H  H66  1  0.773354  0.462308  0.981582  1
  H  H67  1  0.226646  0.962308  0.518418  1
  H  H68  1  0.847084  0.801864  0.386331  1
  H  H69  1  0.152916  0.301864  0.113669  1
  H  H70  1  0.152916  0.198136  0.613669  1
  H  H71  1  0.847084  0.698136  0.886331  1
  H  H72  1  0.870246  0.798936  0.258178  1
  H  H73  1  0.129754  0.298936  0.241822  1
  H  H74  1  0.129754  0.201064  0.741822  1
  H  H75  1  0.870246  0.701064  0.758178  1
  Se  Se76  1  0.018625  0.955959  0.859567  1
  Se  Se77  1  0.981375  0.455959  0.640433  1
  Se  Se78  1  0.981375  0.044041  0.140433  1
  Se  Se79  1  0.018625  0.544041  0.359567  1
  Se  Se80  1  0.933978  0.721167  0.072260  1
  Se  Se81  1  0.066022  0.221167  0.427740  1
  Se  Se82  1  0.066022  0.278833  0.927740  1
  Se  Se83  1  0.933978  0.778833  0.572260  1
  Se  Se84  1  0.653320  0.941606  0.971744  1
  Se  Se85  1  0.346680  0.441606  0.528256  1
  Se  Se86  1  0.346680  0.058394  0.028256  1
  Se  Se87  1  0.653320  0.558394  0.471744  1
  O  O88  1  0.261935  0.799324  0.129839  1
  O  O89  1  0.738065  0.299324  0.370161  1
  O  O90  1  0.738065  0.200676  0.870161  1
  O  O91  1  0.261935  0.700676  0.629839  1
  O  O92  1  0.644607  0.560832  0.199939  1
  O  O93  1  0.355393  0.060832  0.300061  1
  O  O94  1  0.355393  0.439168  0.800061  1
  O  O95  1  0.644607  0.939168  0.699939  1
  O  O96  1  0.524910  0.835012  0.471515  1
  O  O97  1  0.475090  0.335012  0.028485  1
  O  O98  1  0.475090  0.164988  0.528485  1
  O  O99  1  0.524910  0.664988  0.971515  1
  O  O100  1  0.339378  0.644521  0.326161  1
  O  O101  1  0.660622  0.144521  0.173839  1
  O  O102  1  0.660622  0.355479  0.673839  1
  O  O103  1  0.339378  0.855479  0.826161  1
  O  O104  1  0.550606  0.835879  0.216729  1
  O  O105  1  0.449394  0.335879  0.283271  1
  O  O106  1  0.449394  0.164121  0.783271  1
  O  O107  1  0.550606  0.664121  0.716729  1
  O  O108  1  0.145415  0.892717  0.393679  1
  O  O109  1  0.854585  0.392717  0.106321  1
  O  O110  1  0.854585  0.107283  0.606321  1
  O  O111  1  0.145415  0.607283  0.893679  1
  O  O112  1  0.290083  0.513937  0.078621  1
  O  O113  1  0.709917  0.013937  0.421379  1
  O  O114  1  0.709917  0.486063  0.921379  1
  O  O115  1  0.290083  0.986063  0.578621  1
  O  O116  1  0.814875  0.832358  0.314598  1
  O  O117  1  0.185125  0.332358  0.185402  1
  O  O118  1  0.185125  0.167642  0.685402  1
  O  O119  1  0.814875  0.667642  0.814598  1
