# generated using pymatgen
data_NaTi2O3
_symmetry_space_group_name_H-M   'P 1'
_cell_length_a   5.15585207
_cell_length_b   5.15585207
_cell_length_c   10.47920928
_cell_angle_alpha   90.00000000
_cell_angle_beta   90.00000000
_cell_angle_gamma   120.00000000
_symmetry_Int_Tables_number   1
_chemical_formula_structural   NaTi2O3
_chemical_formula_sum   'Na4 Ti8 O12'
_cell_volume   241.24595554
_cell_formula_units_Z   4
loop_
 _symmetry_equiv_pos_site_id
 _symmetry_equiv_pos_as_xyz
  1  'x, y, z'
loop_
 _atom_site_type_symbol
 _atom_site_label
 _atom_site_symmetry_multiplicity
 _atom_site_fract_x
 _atom_site_fract_y
 _atom_site_fract_z
 _atom_site_occupancy
  Na  Na0  1  0.666667  0.333333  0.000000  1
  Na  Na1  1  0.333333  0.666667  0.000000  1
  Na  Na2  1  0.333333  0.666667  0.500000  1
  Na  Na3  1  0.666667  0.333333  0.500000  1
  Ti  Ti4  1  0.666704  0.666704  0.250000  1
  Ti  Ti5  1  0.000000  0.666704  0.750000  1
  Ti  Ti6  1  0.333296  0.333296  0.750000  1
  Ti  Ti7  1  0.000000  0.000000  0.000000  1
  Ti  Ti8  1  0.000000  0.000000  0.500000  1
  Ti  Ti9  1  0.333296  0.000000  0.250000  1
  Ti  Ti10  1  0.000000  0.333296  0.250000  1
  Ti  Ti11  1  0.666704  0.000000  0.750000  1
  O  O12  1  0.685040  0.685040  0.627264  1
  O  O13  1  0.685040  0.685040  0.872736  1
  O  O14  1  0.314960  0.314960  0.127264  1
  O  O15  1  0.314960  0.314960  0.372736  1
  O  O16  1  0.000000  0.685040  0.127264  1
  O  O17  1  0.000000  0.685040  0.372736  1
  O  O18  1  0.000000  0.314960  0.627264  1
  O  O19  1  0.000000  0.314960  0.872736  1
  O  O20  1  0.314960  0.000000  0.627264  1
  O  O21  1  0.314960  0.000000  0.872736  1
  O  O22  1  0.685040  0.000000  0.127264  1
  O  O23  1  0.685040  0.000000  0.372736  1
