# generated using pymatgen
data_CoPbO3
_symmetry_space_group_name_H-M   'P 1'
_cell_length_a   5.32625467
_cell_length_b   5.43066253
_cell_length_c   7.56021826
_cell_angle_alpha   90.00000000
_cell_angle_beta   90.00000000
_cell_angle_gamma   90.00000000
_symmetry_Int_Tables_number   1
_chemical_formula_structural   CoPbO3
_chemical_formula_sum   'Co4 Pb4 O12'
_cell_volume   218.68000641
_cell_formula_units_Z   4
loop_
 _symmetry_equiv_pos_site_id
 _symmetry_equiv_pos_as_xyz
  1  'x, y, z'
loop_
 _atom_site_type_symbol
 _atom_site_label
 _atom_site_symmetry_multiplicity
 _atom_site_fract_x
 _atom_site_fract_y
 _atom_site_fract_z
 _atom_site_occupancy
  Co  Co0  1  0.500000  0.000000  0.500000  1
  Co  Co1  1  0.500000  0.000000  0.000000  1
  Co  Co2  1  0.000000  0.500000  0.500000  1
  Co  Co3  1  0.000000  0.500000  0.000000  1
  Pb  Pb4  1  0.511097  0.455306  0.250000  1
  Pb  Pb5  1  0.988903  0.955306  0.250000  1
  Pb  Pb6  1  0.011097  0.044694  0.750000  1
  Pb  Pb7  1  0.488903  0.544694  0.750000  1
  O  O8  1  0.584621  0.973652  0.750000  1
  O  O9  1  0.712605  0.714532  0.045141  1
  O  O10  1  0.712605  0.714532  0.454859  1
  O  O11  1  0.787395  0.214532  0.454859  1
  O  O12  1  0.787395  0.214532  0.045141  1
  O  O13  1  0.915379  0.473652  0.750000  1
  O  O14  1  0.084621  0.526348  0.250000  1
  O  O15  1  0.212605  0.785468  0.954859  1
  O  O16  1  0.212605  0.785468  0.545141  1
  O  O17  1  0.287395  0.285468  0.545141  1
  O  O18  1  0.287395  0.285468  0.954859  1
  O  O19  1  0.415379  0.026348  0.250000  1
