# generated using pymatgen
data_Ce3Th2O9
_symmetry_space_group_name_H-M   'P 1'
_cell_length_a   10.42535466
_cell_length_b   10.42535466
_cell_length_c   10.42535466
_cell_angle_alpha   158.32612422
_cell_angle_beta   148.72153960
_cell_angle_gamma   38.37585564
_symmetry_Int_Tables_number   1
_chemical_formula_structural   Ce3Th2O9
_chemical_formula_sum   'Ce3 Th2 O9'
_cell_volume   216.96383519
_cell_formula_units_Z   1
loop_
 _symmetry_equiv_pos_site_id
 _symmetry_equiv_pos_as_xyz
  1  'x, y, z'
loop_
 _atom_site_type_symbol
 _atom_site_label
 _atom_site_symmetry_multiplicity
 _atom_site_fract_x
 _atom_site_fract_y
 _atom_site_fract_z
 _atom_site_occupancy
  Ce  Ce0  1  0.115180  0.104877  0.010303  1
  Ce  Ce1  1  0.457866  0.500000  0.957866  1
  Ce  Ce2  1  0.905426  0.895123  0.010303  1
  Th  Th3  1  0.307095  0.302688  0.004407  1
  Th  Th4  1  0.701719  0.697312  0.004407  1
  O  O5  1  0.828980  0.587180  0.241800  1
  O  O6  1  0.954556  0.198355  0.756202  1
  O  O7  1  0.458930  0.201895  0.257035  1
  O  O8  1  0.654621  0.412820  0.241800  1
  O  O9  1  0.557847  0.801645  0.756202  1
  O  O10  1  0.347385  0.603603  0.743782  1
  O  O11  1  0.055141  0.798105  0.257035  1
  O  O12  1  0.140178  0.396397  0.743782  1
  O  O13  1  0.238347  0.000000  0.238347  1
