# generated using pymatgen
data_LiFe2(CO3)4
_symmetry_space_group_name_H-M   'P 1'
_cell_length_a   5.21298093
_cell_length_b   6.63650328
_cell_length_c   7.69644509
_cell_angle_alpha   90.84036003
_cell_angle_beta   90.37423888
_cell_angle_gamma   111.77422416
_symmetry_Int_Tables_number   1
_chemical_formula_structural   LiFe2(CO3)4
_chemical_formula_sum   'Li1 Fe2 C4 O12'
_cell_volume   247.22146864
_cell_formula_units_Z   1
loop_
 _symmetry_equiv_pos_site_id
 _symmetry_equiv_pos_as_xyz
  1  'x, y, z'
loop_
 _atom_site_type_symbol
 _atom_site_label
 _atom_site_symmetry_multiplicity
 _atom_site_fract_x
 _atom_site_fract_y
 _atom_site_fract_z
 _atom_site_occupancy
  Li  Li0  1  0.795886  0.185290  0.437925  1
  Fe  Fe1  1  0.001351  0.996094  0.001108  1
  Fe  Fe2  1  0.494446  0.515984  0.499326  1
  C  C3  1  0.740569  0.875102  0.734384  1
  C  C4  1  0.762358  0.623374  0.235797  1
  C  C5  1  0.230309  0.366178  0.758201  1
  C  C6  1  0.271659  0.129865  0.268758  1
  O  O7  1  0.626164  0.916919  0.871458  1
  O  O8  1  0.612406  0.824570  0.585059  1
  O  O9  1  0.507242  0.611824  0.256001  1
  O  O10  1  0.997092  0.893558  0.751112  1
  O  O11  1  0.895210  0.691956  0.097563  1
  O  O12  1  0.864658  0.560170  0.370018  1
  O  O13  1  0.107376  0.391922  0.615449  1
  O  O14  1  0.106906  0.300252  0.899510  1
  O  O15  1  0.011672  0.110354  0.258067  1
  O  O16  1  0.497597  0.419862  0.742908  1
  O  O17  1  0.417107  0.197846  0.409108  1
  O  O18  1  0.372181  0.077363  0.130345  1
