# generated using pymatgen
data_Li8TiS6
_symmetry_space_group_name_H-M   'P 1'
_cell_length_a   6.89498193
_cell_length_b   6.89498193
_cell_length_c   13.46207679
_cell_angle_alpha   90.00000000
_cell_angle_beta   90.00000000
_cell_angle_gamma   120.00000000
_symmetry_Int_Tables_number   1
_chemical_formula_structural   Li8TiS6
_chemical_formula_sum   'Li16 Ti2 S12'
_cell_volume   554.25415881
_cell_formula_units_Z   2
loop_
 _symmetry_equiv_pos_site_id
 _symmetry_equiv_pos_as_xyz
  1  'x, y, z'
loop_
 _atom_site_type_symbol
 _atom_site_label
 _atom_site_symmetry_multiplicity
 _atom_site_fract_x
 _atom_site_fract_y
 _atom_site_fract_z
 _atom_site_occupancy
  Li  Li0  1  0.000000  0.683081  0.766079  1
  Li  Li1  1  0.000000  0.619714  0.130684  1
  Li  Li2  1  0.000000  0.380286  0.630684  1
  Li  Li3  1  0.000000  0.316919  0.266079  1
  Li  Li4  1  0.333333  0.666667  0.401485  1
  Li  Li5  1  0.333333  0.666667  0.901485  1
  Li  Li6  1  0.316919  0.316919  0.766079  1
  Li  Li7  1  0.380286  0.380286  0.130684  1
  Li  Li8  1  0.619714  0.619714  0.630684  1
  Li  Li9  1  0.316919  0.000000  0.266079  1
  Li  Li10  1  0.683081  0.683081  0.266079  1
  Li  Li11  1  0.380286  0.000000  0.630684  1
  Li  Li12  1  0.666667  0.333333  0.901485  1
  Li  Li13  1  0.666667  0.333333  0.401485  1
  Li  Li14  1  0.619714  0.000000  0.130684  1
  Li  Li15  1  0.683081  0.000000  0.766079  1
  Ti  Ti16  1  0.000000  0.000000  0.997996  1
  Ti  Ti17  1  0.000000  0.000000  0.497996  1
  S  S18  1  0.000000  0.685585  0.950124  1
  S  S19  1  0.000000  0.314415  0.450124  1
  S  S20  1  0.333333  0.666667  0.217326  1
  S  S21  1  0.000000  0.000000  0.169378  1
  S  S22  1  0.000000  0.000000  0.669378  1
  S  S23  1  0.333333  0.666667  0.717326  1
  S  S24  1  0.314415  0.314415  0.950124  1
  S  S25  1  0.314415  0.000000  0.450124  1
  S  S26  1  0.685585  0.685585  0.450124  1
  S  S27  1  0.666667  0.333333  0.717326  1
  S  S28  1  0.666667  0.333333  0.217326  1
  S  S29  1  0.685585  0.000000  0.950124  1
