# generated using pymatgen
data_Li3Ni8(OF3)4
_symmetry_space_group_name_H-M   'P 1'
_cell_length_a   6.02637630
_cell_length_b   6.02637630
_cell_length_c   10.22651039
_cell_angle_alpha   71.00304260
_cell_angle_beta   108.99695740
_cell_angle_gamma   121.81746405
_symmetry_Int_Tables_number   1
_chemical_formula_structural   Li3Ni8(OF3)4
_chemical_formula_sum   'Li3 Ni8 O4 F12'
_cell_volume   292.87533623
_cell_formula_units_Z   1
loop_
 _symmetry_equiv_pos_site_id
 _symmetry_equiv_pos_as_xyz
  1  'x, y, z'
loop_
 _atom_site_type_symbol
 _atom_site_label
 _atom_site_symmetry_multiplicity
 _atom_site_fract_x
 _atom_site_fract_y
 _atom_site_fract_z
 _atom_site_occupancy
  Li  Li0  1  0.000000  0.000000  0.500000  1
  Li  Li1  1  0.192530  0.807470  0.075083  1
  Li  Li2  1  0.807470  0.192530  0.924917  1
  Ni  Ni3  1  0.000000  0.500000  0.500000  1
  Ni  Ni4  1  0.500000  1.000000  0.500000  1
  Ni  Ni5  1  0.753413  0.739901  0.253882  1
  Ni  Ni6  1  0.260099  0.246587  0.253882  1
  Ni  Ni7  1  0.744296  0.255704  0.237178  1
  Ni  Ni8  1  0.255704  0.744296  0.762822  1
  Ni  Ni9  1  0.246587  0.260099  0.746118  1
  Ni  Ni10  1  0.739901  0.753413  0.746118  1
  O  O11  1  0.122417  0.877583  0.387416  1
  O  O12  1  0.641599  0.358401  0.369965  1
  O  O13  1  0.358401  0.641599  0.630035  1
  O  O14  1  0.877583  0.122417  0.612584  1
  F  F15  1  0.643104  0.889207  0.366936  1
  F  F16  1  0.110793  0.356896  0.366936  1
  F  F17  1  0.386426  0.613574  0.140788  1
  F  F18  1  0.877334  0.122666  0.131522  1
  F  F19  1  0.867654  0.625644  0.134138  1
  F  F20  1  0.374356  0.132346  0.134138  1
  F  F21  1  0.132346  0.374356  0.865862  1
  F  F22  1  0.625644  0.867654  0.865862  1
  F  F23  1  0.122666  0.877334  0.868478  1
  F  F24  1  0.613574  0.386426  0.859212  1
  F  F25  1  0.356896  0.110793  0.633064  1
  F  F26  1  0.889207  0.643104  0.633064  1
