# generated using pymatgen
data_WN2
_symmetry_space_group_name_H-M   'P 1'
_cell_length_a   5.36493200
_cell_length_b   5.70539696
_cell_length_c   9.43438276
_cell_angle_alpha   90.00000000
_cell_angle_beta   90.00000000
_cell_angle_gamma   90.00000000
_symmetry_Int_Tables_number   1
_chemical_formula_structural   WN2
_chemical_formula_sum   'W8 N16'
_cell_volume   288.77765139
_cell_formula_units_Z   8
loop_
 _symmetry_equiv_pos_site_id
 _symmetry_equiv_pos_as_xyz
  1  'x, y, z'
loop_
 _atom_site_type_symbol
 _atom_site_label
 _atom_site_symmetry_multiplicity
 _atom_site_fract_x
 _atom_site_fract_y
 _atom_site_fract_z
 _atom_site_occupancy
  W  W0  1  0.666748  0.907909  0.126551  1
  W  W1  1  0.166748  0.592091  0.126551  1
  W  W2  1  0.666748  0.407909  0.373449  1
  W  W3  1  0.166748  0.092091  0.373449  1
  W  W4  1  0.833252  0.907909  0.626551  1
  W  W5  1  0.333252  0.592091  0.626551  1
  W  W6  1  0.833252  0.407909  0.873449  1
  W  W7  1  0.333252  0.092091  0.873449  1
  N  N8  1  0.294253  0.855928  0.007146  1
  N  N9  1  0.794253  0.644072  0.007146  1
  N  N10  1  0.963677  0.917351  0.229548  1
  N  N11  1  0.463677  0.582649  0.229548  1
  N  N12  1  0.963677  0.417351  0.270452  1
  N  N13  1  0.463677  0.082649  0.270452  1
  N  N14  1  0.794253  0.144072  0.492854  1
  N  N15  1  0.294253  0.355928  0.492854  1
  N  N16  1  0.205747  0.855928  0.507146  1
  N  N17  1  0.705747  0.644072  0.507146  1
  N  N18  1  0.536323  0.917351  0.729548  1
  N  N19  1  0.036323  0.582649  0.729548  1
  N  N20  1  0.536323  0.417351  0.770452  1
  N  N21  1  0.036323  0.082649  0.770452  1
  N  N22  1  0.205747  0.355928  0.992854  1
  N  N23  1  0.705747  0.144072  0.992854  1
