# generated using pymatgen
data_Fe5Sb(PO4)6
_symmetry_space_group_name_H-M   'P 1'
_cell_length_a   8.57281117
_cell_length_b   8.57281117
_cell_length_c   8.57281117
_cell_angle_alpha   60.90910709
_cell_angle_beta   60.90910709
_cell_angle_gamma   60.90910709
_symmetry_Int_Tables_number   1
_chemical_formula_structural   Fe5Sb(PO4)6
_chemical_formula_sum   'Fe5 Sb1 P6 O24'
_cell_volume   454.63572992
_cell_formula_units_Z   1
loop_
 _symmetry_equiv_pos_site_id
 _symmetry_equiv_pos_as_xyz
  1  'x, y, z'
loop_
 _atom_site_type_symbol
 _atom_site_label
 _atom_site_symmetry_multiplicity
 _atom_site_fract_x
 _atom_site_fract_y
 _atom_site_fract_z
 _atom_site_occupancy
  Fe  Fe0  1  0.994335  0.994335  0.994335  1
  Fe  Fe1  1  0.644066  0.644066  0.644066  1
  Fe  Fe2  1  0.500534  0.500534  0.500534  1
  Fe  Fe3  1  0.855668  0.855668  0.855668  1
  Fe  Fe4  1  0.357999  0.357999  0.357999  1
  Sb  Sb5  1  0.142461  0.142461  0.142461  1
  P  P6  1  0.954672  0.255067  0.544877  1
  P  P7  1  0.544877  0.954672  0.255067  1
  P  P8  1  0.255067  0.544877  0.954672  1
  P  P9  1  0.747806  0.460514  0.044584  1
  P  P10  1  0.460514  0.044584  0.747806  1
  P  P11  1  0.044584  0.747806  0.460514  1
  O  O12  1  0.496185  0.111969  0.321482  1
  O  O13  1  0.321482  0.496185  0.111969  1
  O  O14  1  0.111969  0.321482  0.496185  1
  O  O15  1  0.942316  0.090826  0.735939  1
  O  O16  1  0.989980  0.187066  0.385644  1
  O  O17  1  0.759201  0.410879  0.557316  1
  O  O18  1  0.735939  0.942316  0.090826  1
  O  O19  1  0.557316  0.759201  0.410879  1
  O  O20  1  0.822045  0.609302  0.004201  1
  O  O21  1  0.410879  0.557316  0.759201  1
  O  O22  1  0.913234  0.256166  0.060068  1
  O  O23  1  0.609302  0.004201  0.822045  1
  O  O24  1  0.385644  0.989980  0.187066  1
  O  O25  1  0.090826  0.735939  0.942316  1
  O  O26  1  0.594814  0.437057  0.242720  1
  O  O27  1  0.187066  0.385644  0.989980  1
  O  O28  1  0.437057  0.242720  0.594814  1
  O  O29  1  0.256166  0.060068  0.913234  1
  O  O30  1  0.242720  0.594814  0.437057  1
  O  O31  1  0.004201  0.822046  0.609302  1
  O  O32  1  0.060068  0.913234  0.256166  1
  O  O33  1  0.887896  0.689625  0.491498  1
  O  O34  1  0.689625  0.491498  0.887896  1
  O  O35  1  0.491498  0.887896  0.689625  1
