# generated using pymatgen
data_Li5MnO4
_symmetry_space_group_name_H-M   'P 1'
_cell_length_a   5.05732925
_cell_length_b   5.14302895
_cell_length_c   7.37379679
_cell_angle_alpha   90.00000000
_cell_angle_beta   90.00000000
_cell_angle_gamma   90.00000000
_symmetry_Int_Tables_number   1
_chemical_formula_structural   Li5MnO4
_chemical_formula_sum   'Li10 Mn2 O8'
_cell_volume   191.79238625
_cell_formula_units_Z   2
loop_
 _symmetry_equiv_pos_site_id
 _symmetry_equiv_pos_as_xyz
  1  'x, y, z'
loop_
 _atom_site_type_symbol
 _atom_site_label
 _atom_site_symmetry_multiplicity
 _atom_site_fract_x
 _atom_site_fract_y
 _atom_site_fract_z
 _atom_site_occupancy
  Li  Li0  1  0.938888  0.574973  0.328287  1
  Li  Li1  1  0.938888  0.574973  0.671713  1
  Li  Li2  1  0.769574  0.086201  0.690855  1
  Li  Li3  1  0.769574  0.086201  0.309145  1
  Li  Li4  1  0.721474  0.833812  0.000000  1
  Li  Li5  1  0.438888  0.425027  0.171713  1
  Li  Li6  1  0.438888  0.425027  0.828287  1
  Li  Li7  1  0.269574  0.913799  0.190855  1
  Li  Li8  1  0.269574  0.913799  0.809145  1
  Li  Li9  1  0.221474  0.166188  0.500000  1
  Mn  Mn10  1  0.984309  0.347926  0.000000  1
  Mn  Mn11  1  0.484309  0.652074  0.500000  1
  O  O12  1  0.636969  0.204708  0.000000  1
  O  O13  1  0.627606  0.310447  0.500000  1
  O  O14  1  0.602384  0.744101  0.258870  1
  O  O15  1  0.602384  0.744101  0.741130  1
  O  O16  1  0.136969  0.795292  0.500000  1
  O  O17  1  0.127606  0.689553  0.000000  1
  O  O18  1  0.102384  0.255899  0.758870  1
  O  O19  1  0.102384  0.255899  0.241130  1
