# generated using pymatgen
data_B9H11
_symmetry_space_group_name_H-M   'P 1'
_cell_length_a   9.30113638
_cell_length_b   13.40866359
_cell_length_c   12.74658868
_cell_angle_alpha   90.00000000
_cell_angle_beta   109.67547845
_cell_angle_gamma   90.00000000
_symmetry_Int_Tables_number   1
_chemical_formula_structural   B9H11
_chemical_formula_sum   'B72 H88'
_cell_volume   1496.88598476
_cell_formula_units_Z   8
loop_
 _symmetry_equiv_pos_site_id
 _symmetry_equiv_pos_as_xyz
  1  'x, y, z'
loop_
 _atom_site_type_symbol
 _atom_site_label
 _atom_site_symmetry_multiplicity
 _atom_site_fract_x
 _atom_site_fract_y
 _atom_site_fract_z
 _atom_site_occupancy
  B  B0  1  0.545134  0.727775  0.733345  1
  B  B1  1  0.454866  0.227775  0.766655  1
  B  B2  1  0.454866  0.272225  0.266655  1
  B  B3  1  0.545134  0.772225  0.233345  1
  B  B4  1  0.379655  0.778852  0.631697  1
  B  B5  1  0.620345  0.278852  0.868303  1
  B  B6  1  0.620345  0.221148  0.368303  1
  B  B7  1  0.379655  0.721148  0.131697  1
  B  B8  1  0.549450  0.850195  0.680357  1
  B  B9  1  0.450550  0.350195  0.819643  1
  B  B10  1  0.450550  0.149805  0.319643  1
  B  B11  1  0.549450  0.649805  0.180357  1
  B  B12  1  0.718450  0.780307  0.728629  1
  B  B13  1  0.281550  0.280307  0.771371  1
  B  B14  1  0.281550  0.219693  0.271371  1
  B  B15  1  0.718450  0.719693  0.228629  1
  B  B16  1  0.437311  0.653536  0.622711  1
  B  B17  1  0.562689  0.153536  0.877289  1
  B  B18  1  0.562689  0.346464  0.377289  1
  B  B19  1  0.437311  0.846464  0.122711  1
  B  B20  1  0.355589  0.728783  0.502758  1
  B  B21  1  0.644411  0.228783  0.997242  1
  B  B22  1  0.644411  0.271217  0.497242  1
  B  B23  1  0.355589  0.771217  0.002758  1
  B  B24  1  0.449908  0.846483  0.536632  1
  B  B25  1  0.550092  0.346483  0.963368  1
  B  B26  1  0.550092  0.153517  0.463368  1
  B  B27  1  0.449908  0.653517  0.036632  1
  B  B28  1  0.672304  0.850920  0.601989  1
  B  B29  1  0.327696  0.350920  0.898011  1
  B  B30  1  0.327696  0.149080  0.398011  1
  B  B31  1  0.672304  0.649080  0.101989  1
  B  B32  1  0.764752  0.731891  0.618349  1
  B  B33  1  0.235248  0.231891  0.881651  1
  B  B34  1  0.235248  0.268109  0.381651  1
  B  B35  1  0.764752  0.768109  0.118349  1
  B  B36  1  0.663897  0.650959  0.684425  1
  B  B37  1  0.336103  0.150959  0.815575  1
  B  B38  1  0.336103  0.349041  0.315575  1
  B  B39  1  0.663897  0.849041  0.184425  1
  B  B40  1  0.723992  0.526533  0.673827  1
  B  B41  1  0.276008  0.026533  0.826173  1
  B  B42  1  0.276008  0.473467  0.326173  1
  B  B43  1  0.723992  0.973467  0.173827  1
  B  B44  1  0.913503  0.495683  0.761476  1
  B  B45  1  0.086497  0.995683  0.738524  1
  B  B46  1  0.086497  0.504317  0.238524  1
  B  B47  1  0.913503  0.004317  0.261476  1
  B  B48  1  0.879502  0.532879  0.622079  1
  B  B49  1  0.120498  0.032879  0.877921  1
  B  B50  1  0.120498  0.467121  0.377921  1
  B  B51  1  0.879502  0.967121  0.122079  1
  B  B52  1  0.721262  0.612190  0.566418  1
  B  B53  1  0.278738  0.112190  0.933582  1
  B  B54  1  0.278738  0.387810  0.433582  1
  B  B55  1  0.721262  0.887810  0.066418  1
  B  B56  1  0.790659  0.569548  0.811036  1
  B  B57  1  0.209341  0.069548  0.688964  1
  B  B58  1  0.209341  0.430452  0.188964  1
  B  B59  1  0.790659  0.930452  0.311036  1
  B  B60  1  0.989692  0.591029  0.852589  1
  B  B61  1  0.010308  0.091029  0.647411  1
  B  B62  1  0.010308  0.408971  0.147411  1
  B  B63  1  0.989692  0.908971  0.352589  1
  B  B64  1  0.036217  0.584156  0.727573  1
  B  B65  1  0.963783  0.084156  0.772427  1
  B  B66  1  0.963783  0.415844  0.272427  1
  B  B67  1  0.036217  0.915844  0.227573  1
  B  B68  1  0.912542  0.657791  0.596078  1
  B  B69  1  0.087458  0.157791  0.903922  1
  B  B70  1  0.087458  0.342209  0.403922  1
  B  B71  1  0.912542  0.842209  0.096078  1
  H  H72  1  0.536644  0.707852  0.822487  1
  H  H73  1  0.463356  0.207852  0.677513  1
  H  H74  1  0.463356  0.292148  0.177513  1
  H  H75  1  0.536644  0.792148  0.322487  1
  H  H76  1  0.273850  0.801340  0.659788  1
  H  H77  1  0.726150  0.301340  0.840212  1
  H  H78  1  0.726150  0.198660  0.340212  1
  H  H79  1  0.273850  0.698660  0.159788  1
  H  H80  1  0.547351  0.927621  0.726121  1
  H  H81  1  0.452649  0.427621  0.773879  1
  H  H82  1  0.452649  0.072379  0.273879  1
  H  H83  1  0.547351  0.572379  0.226121  1
  H  H84  1  0.815277  0.804332  0.813200  1
  H  H85  1  0.184723  0.304332  0.686800  1
  H  H86  1  0.184723  0.195668  0.186800  1
  H  H87  1  0.815277  0.695668  0.313200  1
  H  H88  1  0.373752  0.580486  0.637915  1
  H  H89  1  0.626248  0.080486  0.862085  1
  H  H90  1  0.626248  0.419514  0.362085  1
  H  H91  1  0.373752  0.919514  0.137915  1
  H  H92  1  0.242634  0.712287  0.425799  1
  H  H93  1  0.757366  0.212287  0.074201  1
  H  H94  1  0.757366  0.287713  0.574201  1
  H  H95  1  0.242634  0.787713  0.925799  1
  H  H96  1  0.393883  0.918036  0.482938  1
  H  H97  1  0.606117  0.418036  0.017062  1
  H  H98  1  0.606117  0.081964  0.517062  1
  H  H99  1  0.393883  0.581964  0.982938  1
  H  H100  1  0.736315  0.925455  0.593503  1
  H  H101  1  0.263685  0.425455  0.906497  1
  H  H102  1  0.263685  0.074545  0.406497  1
  H  H103  1  0.736315  0.574545  0.093503  1
  H  H104  1  0.688008  0.788488  0.527219  1
  H  H105  1  0.311992  0.288488  0.972781  1
  H  H106  1  0.311992  0.211512  0.472781  1
  H  H107  1  0.688008  0.711512  0.027219  1
  H  H108  1  0.920560  0.739079  0.655240  1
  H  H109  1  0.079440  0.239079  0.844760  1
  H  H110  1  0.079440  0.260921  0.344760  1
  H  H111  1  0.920560  0.760921  0.155240  1
  H  H112  1  0.628759  0.462929  0.653134  1
  H  H113  1  0.371241  0.962929  0.846866  1
  H  H114  1  0.371241  0.537071  0.346866  1
  H  H115  1  0.628759  0.037071  0.153134  1
  H  H116  1  0.948737  0.411530  0.789660  1
  H  H117  1  0.051263  0.911530  0.710340  1
  H  H118  1  0.051263  0.588470  0.210340  1
  H  H119  1  0.948737  0.088470  0.289660  1
  H  H120  1  0.909494  0.476486  0.559779  1
  H  H121  1  0.090506  0.976486  0.940221  1
  H  H122  1  0.090506  0.523514  0.440221  1
  H  H123  1  0.909494  0.023514  0.059779  1
  H  H124  1  0.634673  0.600107  0.474203  1
  H  H125  1  0.365327  0.100107  0.025797  1
  H  H126  1  0.365327  0.399893  0.525797  1
  H  H127  1  0.634673  0.899893  0.974203  1
  H  H128  1  0.735256  0.544899  0.878864  1
  H  H129  1  0.264744  0.044899  0.621136  1
  H  H130  1  0.264744  0.455101  0.121136  1
  H  H131  1  0.735256  0.955101  0.378864  1
  H  H132  1  0.077287  0.588029  0.945395  1
  H  H133  1  0.922713  0.088029  0.554605  1
  H  H134  1  0.922713  0.411971  0.054605  1
  H  H135  1  0.077287  0.911971  0.445395  1
  H  H136  1  0.165495  0.568881  0.734601  1
  H  H137  1  0.834505  0.068881  0.765399  1
  H  H138  1  0.834505  0.431119  0.265399  1
  H  H139  1  0.165495  0.931119  0.234601  1
  H  H140  1  0.965503  0.678099  0.525981  1
  H  H141  1  0.034497  0.178099  0.974019  1
  H  H142  1  0.034497  0.321901  0.474019  1
  H  H143  1  0.965503  0.821901  0.025981  1
  H  H144  1  0.439283  0.645799  0.519291  1
  H  H145  1  0.560717  0.145799  0.980709  1
  H  H146  1  0.560717  0.354201  0.480709  1
  H  H147  1  0.439283  0.854201  0.019291  1
  H  H148  1  0.450141  0.777929  0.461361  1
  H  H149  1  0.549859  0.277929  0.038639  1
  H  H150  1  0.549859  0.222071  0.538639  1
  H  H151  1  0.450141  0.722071  0.961361  1
  H  H152  1  0.875496  0.649181  0.854658  1
  H  H153  1  0.124504  0.149181  0.645342  1
  H  H154  1  0.124504  0.350819  0.145342  1
  H  H155  1  0.875496  0.850819  0.354658  1
  H  H156  1  0.040841  0.659189  0.796963  1
  H  H157  1  0.959159  0.159189  0.703037  1
  H  H158  1  0.959159  0.340811  0.203037  1
  H  H159  1  0.040841  0.840811  0.296963  1
