# generated using pymatgen
data_Li3Ti4O8
_symmetry_space_group_name_H-M   'P 1'
_cell_length_a   5.87704342
_cell_length_b   5.87704342
_cell_length_c   5.79954578
_cell_angle_alpha   60.49953510
_cell_angle_beta   119.50046490
_cell_angle_gamma   120.78684787
_symmetry_Int_Tables_number   1
_chemical_formula_structural   Li3Ti4O8
_chemical_formula_sum   'Li3 Ti4 O8'
_cell_volume   141.82345122
_cell_formula_units_Z   1
loop_
 _symmetry_equiv_pos_site_id
 _symmetry_equiv_pos_as_xyz
  1  'x, y, z'
loop_
 _atom_site_type_symbol
 _atom_site_label
 _atom_site_symmetry_multiplicity
 _atom_site_fract_x
 _atom_site_fract_y
 _atom_site_fract_z
 _atom_site_occupancy
  Li  Li0  1  0.500000  0.000000  0.500000  1
  Li  Li1  1  0.000000  0.500000  0.500000  1
  Li  Li2  1  0.000000  0.000000  0.000000  1
  Ti  Ti3  1  0.500000  0.500000  0.000000  1
  Ti  Ti4  1  0.500000  0.000000  0.000000  1
  Ti  Ti5  1  0.000000  0.500000  0.000000  1
  Ti  Ti6  1  0.000000  1.000000  0.500000  1
  O  O7  1  0.241750  0.249696  0.241942  1
  O  O8  1  0.750304  0.758250  0.241942  1
  O  O9  1  0.249859  0.750141  0.744214  1
  O  O10  1  0.755850  0.244150  0.783968  1
  O  O11  1  0.244150  0.755850  0.216032  1
  O  O12  1  0.750141  0.249859  0.255786  1
  O  O13  1  0.249696  0.241750  0.758058  1
  O  O14  1  0.758250  0.750304  0.758058  1
