# generated using pymatgen
data_K2LiNb6(PO8)3
_symmetry_space_group_name_H-M   'P 1'
_cell_length_a   8.53040034
_cell_length_b   10.49637229
_cell_length_c   13.45962208
_cell_angle_alpha   90.04285927
_cell_angle_beta   90.01751296
_cell_angle_gamma   113.37710688
_symmetry_Int_Tables_number   1
_chemical_formula_structural   K2LiNb6(PO8)3
_chemical_formula_sum   'K4 Li2 Nb12 P6 O48'
_cell_volume   1106.22360946
_cell_formula_units_Z   2
loop_
 _symmetry_equiv_pos_site_id
 _symmetry_equiv_pos_as_xyz
  1  'x, y, z'
loop_
 _atom_site_type_symbol
 _atom_site_label
 _atom_site_symmetry_multiplicity
 _atom_site_fract_x
 _atom_site_fract_y
 _atom_site_fract_z
 _atom_site_occupancy
  K  K0  1  0.594190  0.107998  0.196814  1
  K  K1  1  0.695836  0.747217  0.658710  1
  K  K2  1  0.304773  0.252545  0.658605  1
  K  K3  1  0.089204  0.550401  0.144467  1
  Li  Li4  1  0.578897  0.577869  0.999598  1
  Li  Li5  1  0.420359  0.921369  0.499896  1
  Nb  Nb6  1  0.962348  0.241574  0.403985  1
  Nb  Nb7  1  0.838522  0.303353  0.659261  1
  Nb  Nb8  1  0.971559  0.750308  0.902814  1
  Nb  Nb9  1  0.648129  0.402737  0.438023  1
  Nb  Nb10  1  0.845841  0.811056  0.159509  1
  Nb  Nb11  1  0.354061  0.100160  0.938972  1
  Nb  Nb12  1  0.651098  0.908622  0.938202  1
  Nb  Nb13  1  0.158868  0.195479  0.158802  1
  Nb  Nb14  1  0.347691  0.590684  0.436885  1
  Nb  Nb15  1  0.035906  0.257382  0.902504  1
  Nb  Nb16  1  0.153535  0.687341  0.659369  1
  Nb  Nb17  1  0.030714  0.752358  0.403329  1
  P  P18  1  0.723650  0.387716  0.888030  1
  P  P19  1  0.500102  0.000230  0.723781  1
  P  P20  1  0.724053  0.888321  0.387866  1
  P  P21  1  0.500242  0.499663  0.223933  1
  P  P22  1  0.276259  0.112286  0.388328  1
  P  P23  1  0.276571  0.611444  0.887599  1
  O  O24  1  0.975603  0.264872  0.762894  1
  O  O25  1  0.935894  0.242384  0.553384  1
  O  O26  1  0.847015  0.077401  0.923795  1
  O  O27  1  0.762291  0.044704  0.402091  1
  O  O28  1  0.868611  0.355274  0.935596  1
  O  O29  1  0.792956  0.308761  0.375381  1
  O  O30  1  0.972436  0.761212  0.262983  1
  O  O31  1  0.640388  0.106521  0.657779  1
  O  O32  1  0.928822  0.736929  0.053583  1
  O  O33  1  0.846653  0.576145  0.423487  1
  O  O34  1  0.710563  0.358108  0.775166  1
  O  O35  1  0.685471  0.363295  0.570147  1
  O  O36  1  0.500363  0.001385  0.973482  1
  O  O37  1  0.754329  0.542000  0.908057  1
  O  O38  1  0.865345  0.852555  0.436765  1
  O  O39  1  0.551663  0.296926  0.938065  1
  O  O40  1  0.790292  0.806414  0.877354  1
  O  O41  1  0.416086  0.077930  0.787437  1
  O  O42  1  0.582948  0.421644  0.288285  1
  O  O43  1  0.447719  0.202047  0.439750  1
  O  O44  1  0.634243  0.602183  0.152342  1
  O  O45  1  0.708729  0.857116  0.275330  1
  O  O46  1  0.686645  0.861799  0.068716  1
  O  O47  1  0.501158  0.500327  0.474272  1
  O  O48  1  0.314605  0.136146  0.071158  1
  O  O49  1  0.291519  0.140879  0.275378  1
  O  O50  1  0.357460  0.395005  0.158068  1
  O  O51  1  0.551354  0.806284  0.441664  1
  O  O52  1  0.418559  0.579255  0.288747  1
  O  O53  1  0.580803  0.919405  0.787742  1
  O  O54  1  0.206504  0.190010  0.875578  1
  O  O55  1  0.450418  0.694054  0.939856  1
  O  O56  1  0.132523  0.145592  0.436067  1
  O  O57  1  0.235880  0.455561  0.903910  1
  O  O58  1  0.317365  0.641149  0.568514  1
  O  O59  1  0.999947  0.000579  0.153441  1
  O  O60  1  0.291773  0.644745  0.775270  1
  O  O61  1  0.152938  0.422624  0.423465  1
  O  O62  1  0.066193  0.260917  0.054068  1
  O  O63  1  0.367131  0.897636  0.651294  1
  O  O64  1  0.026554  0.236854  0.263309  1
  O  O65  1  0.207236  0.691645  0.378207  1
  O  O66  1  0.134061  0.646463  0.936857  1
  O  O67  1  0.245657  0.957756  0.407964  1
  O  O68  1  0.999323  0.499510  0.652920  1
  O  O69  1  0.153598  0.924144  0.923266  1
  O  O70  1  0.070063  0.760140  0.552967  1
  O  O71  1  0.023845  0.735389  0.762817  1
