# generated using pymatgen
data_Na2Cr4O13
_symmetry_space_group_name_H-M   'P 1'
_cell_length_a   8.82557416
_cell_length_b   7.28333652
_cell_length_c   9.00239906
_cell_angle_alpha   90.00000000
_cell_angle_beta   91.82905066
_cell_angle_gamma   90.00000000
_symmetry_Int_Tables_number   1
_chemical_formula_structural   Na2Cr4O13
_chemical_formula_sum   'Na4 Cr8 O26'
_cell_volume   578.37602018
_cell_formula_units_Z   2
loop_
 _symmetry_equiv_pos_site_id
 _symmetry_equiv_pos_as_xyz
  1  'x, y, z'
loop_
 _atom_site_type_symbol
 _atom_site_label
 _atom_site_symmetry_multiplicity
 _atom_site_fract_x
 _atom_site_fract_y
 _atom_site_fract_z
 _atom_site_occupancy
  Na  Na0  1  0.065652  0.891703  0.754101  1
  Na  Na1  1  0.065652  0.108297  0.254101  1
  Na  Na2  1  0.816448  0.409648  0.610052  1
  Na  Na3  1  0.816448  0.590352  0.110052  1
  Cr  Cr4  1  0.093938  0.419414  0.880908  1
  Cr  Cr5  1  0.093938  0.580586  0.380908  1
  Cr  Cr6  1  0.441700  0.440986  0.834760  1
  Cr  Cr7  1  0.431825  0.099800  0.593515  1
  Cr  Cr8  1  0.441700  0.559014  0.334760  1
  Cr  Cr9  1  0.431825  0.900200  0.093515  1
  Cr  Cr10  1  0.762531  0.081761  0.967803  1
  Cr  Cr11  1  0.762531  0.918239  0.467803  1
  O  O12  1  0.077021  0.244066  0.768858  1
  O  O13  1  0.077021  0.755934  0.268858  1
  O  O14  1  0.104209  0.648450  0.552465  1
  O  O15  1  0.104209  0.351550  0.052465  1
  O  O16  1  0.265303  0.549451  0.837089  1
  O  O17  1  0.278927  0.905244  0.991524  1
  O  O18  1  0.265303  0.450549  0.337089  1
  O  O19  1  0.278927  0.094756  0.491524  1
  O  O20  1  0.411568  0.959868  0.726798  1
  O  O21  1  0.447840  0.296286  0.967310  1
  O  O22  1  0.411568  0.040132  0.226798  1
  O  O23  1  0.457359  0.327781  0.662519  1
  O  O24  1  0.447840  0.703714  0.467310  1
  O  O25  1  0.457359  0.672219  0.162519  1
  O  O26  1  0.579253  0.583973  0.855022  1
  O  O27  1  0.579253  0.416027  0.355022  1
  O  O28  1  0.593448  0.055240  0.496331  1
  O  O29  1  0.593448  0.944760  0.996331  1
  O  O30  1  0.745695  0.176737  0.804381  1
  O  O31  1  0.745695  0.823263  0.304381  1
  O  O32  1  0.786498  0.761294  0.594835  1
  O  O33  1  0.786498  0.238706  0.094835  1
  O  O34  1  0.908576  0.942416  0.973324  1
  O  O35  1  0.908576  0.057584  0.473324  1
  O  O36  1  0.948208  0.557024  0.857403  1
  O  O37  1  0.948208  0.442976  0.357403  1
