# generated using pymatgen
data_V6O5F19
_symmetry_space_group_name_H-M   'P 1'
_cell_length_a   5.30504316
_cell_length_b   5.52583393
_cell_length_c   14.81711072
_cell_angle_alpha   100.18288706
_cell_angle_beta   89.99923636
_cell_angle_gamma   90.68126191
_symmetry_Int_Tables_number   1
_chemical_formula_structural   V6O5F19
_chemical_formula_sum   'V6 O5 F19'
_cell_volume   427.48742017
_cell_formula_units_Z   1
loop_
 _symmetry_equiv_pos_site_id
 _symmetry_equiv_pos_as_xyz
  1  'x, y, z'
loop_
 _atom_site_type_symbol
 _atom_site_label
 _atom_site_symmetry_multiplicity
 _atom_site_fract_x
 _atom_site_fract_y
 _atom_site_fract_z
 _atom_site_occupancy
  V  V0  1  0.043690  0.032695  0.005036  1
  V  V1  1  0.529109  0.119207  0.329960  1
  V  V2  1  0.980048  0.276533  0.664342  1
  V  V3  1  0.544811  0.464043  0.994718  1
  V  V4  1  0.009745  0.651921  0.334443  1
  V  V5  1  0.522243  0.774921  0.664001  1
  O  O6  1  0.794598  0.030007  0.642455  1
  O  O7  1  0.721303  0.214704  0.978116  1
  O  O8  1  0.704823  0.531024  0.642941  1
  O  O9  1  0.222344  0.285497  0.021520  1
  O  O10  1  0.703941  0.871368  0.309897  1
  F  F11  1  0.276243  0.148066  0.692169  1
  F  F12  1  0.899592  0.037787  0.113366  1
  F  F13  1  0.576640  0.227378  0.448032  1
  F  F14  1  0.913888  0.397544  0.780457  1
  F  F15  1  0.406483  0.141695  0.220925  1
  F  F16  1  0.080782  0.314342  0.553640  1
  F  F17  1  0.402531  0.465395  0.886607  1
  F  F18  1  0.798775  0.350077  0.308744  1
  F  F19  1  0.776607  0.695043  0.976417  1
  F  F20  1  0.292868  0.482466  0.358531  1
  F  F21  1  0.221921  0.645384  0.692001  1
  F  F22  1  0.556618  0.559339  0.115201  1
  F  F23  1  0.903246  0.716901  0.449241  1
  F  F24  1  0.583419  0.900758  0.780299  1
  F  F25  1  0.070699  0.633428  0.216159  1
  F  F26  1  0.417047  0.814248  0.554073  1
  F  F27  1  0.054915  0.942388  0.884572  1
  F  F28  1  0.273772  0.807971  0.024275  1
  F  F29  1  0.217296  0.967867  0.357863  1
