# generated using pymatgen
data_Mn9Al2Si8(HO4)8
_symmetry_space_group_name_H-M   'P 1'
_cell_length_a   7.73835651
_cell_length_b   8.44427532
_cell_length_c   10.50133233
_cell_angle_alpha   103.90283938
_cell_angle_beta   104.50871055
_cell_angle_gamma   94.04805264
_symmetry_Int_Tables_number   1
_chemical_formula_structural   Mn9Al2Si8(HO4)8
_chemical_formula_sum   'Mn9 Al2 Si8 H8 O32'
_cell_volume   638.58661680
_cell_formula_units_Z   1
loop_
 _symmetry_equiv_pos_site_id
 _symmetry_equiv_pos_as_xyz
  1  'x, y, z'
loop_
 _atom_site_type_symbol
 _atom_site_label
 _atom_site_symmetry_multiplicity
 _atom_site_fract_x
 _atom_site_fract_y
 _atom_site_fract_z
 _atom_site_occupancy
  Mn  Mn0  1  0.500000  0.000000  0.500000  1
  Mn  Mn1  1  0.639204  0.390543  0.569898  1
  Mn  Mn2  1  0.360796  0.609457  0.430102  1
  Mn  Mn3  1  0.920023  0.162806  0.701534  1
  Mn  Mn4  1  0.079977  0.837194  0.298466  1
  Mn  Mn5  1  0.948729  0.430966  0.227394  1
  Mn  Mn6  1  0.051271  0.569034  0.772606  1
  Mn  Mn7  1  0.622852  0.163893  0.057330  1
  Mn  Mn8  1  0.377148  0.836107  0.942670  1
  Al  Al9  1  0.767692  0.779769  0.631567  1
  Al  Al10  1  0.232308  0.220231  0.368433  1
  Si  Si11  1  0.185893  0.884847  0.642042  1
  Si  Si12  1  0.814107  0.115153  0.357958  1
  Si  Si13  1  0.706281  0.431277  0.896758  1
  Si  Si14  1  0.293719  0.568723  0.103242  1
  Si  Si15  1  0.321141  0.255489  0.700487  1
  Si  Si16  1  0.678859  0.744511  0.299513  1
  Si  Si17  1  0.800320  0.809771  0.951170  1
  Si  Si18  1  0.199680  0.190229  0.048830  1
  H  H19  1  0.637435  0.986260  0.769742  1
  H  H20  1  0.362565  0.013740  0.230258  1
  H  H21  1  0.481143  0.672304  0.693740  1
  H  H22  1  0.518857  0.327696  0.306260  1
  H  H23  1  0.999494  0.014657  0.124563  1
  H  H24  1  0.000506  0.985343  0.875437  1
  H  H25  1  0.889680  0.576414  0.490259  1
  H  H26  1  0.110320  0.423586  0.509741  1
  O  O27  1  0.252087  0.833754  0.501352  1
  O  O28  1  0.747913  0.166246  0.498648  1
  O  O29  1  0.971381  0.905182  0.615939  1
  O  O30  1  0.028619  0.094818  0.384061  1
  O  O31  1  0.379627  0.232626  0.556365  1
  O  O32  1  0.620373  0.767374  0.443635  1
  O  O33  1  0.136943  0.336790  0.695422  1
  O  O34  1  0.863057  0.663210  0.304578  1
  O  O35  1  0.243391  0.756795  0.735920  1
  O  O36  1  0.756609  0.243205  0.264080  1
  O  O37  1  0.813411  0.394552  0.778038  1
  O  O38  1  0.186589  0.605448  0.221962  1
  O  O39  1  0.774718  0.347180  0.020848  1
  O  O40  1  0.225282  0.652820  0.979152  1
  O  O41  1  0.490396  0.366967  0.824217  1
  O  O42  1  0.509604  0.633033  0.175783  1
  O  O43  1  0.300387  0.071433  0.728960  1
  O  O44  1  0.699613  0.928567  0.271040  1
  O  O45  1  0.638021  0.925138  0.940893  1
  O  O46  1  0.361979  0.074862  0.059107  1
  O  O47  1  0.723753  0.631148  0.962628  1
  O  O48  1  0.276247  0.368852  0.037372  1
  O  O49  1  0.885916  0.790024  0.820996  1
  O  O50  1  0.114084  0.209976  0.179004  1
  O  O51  1  0.677380  0.981717  0.687358  1
  O  O52  1  0.322620  0.018283  0.312642  1
  O  O53  1  0.555772  0.637065  0.632020  1
  O  O54  1  0.444228  0.362935  0.367980  1
  O  O55  1  0.962130  0.892084  0.095961  1
  O  O56  1  0.037870  0.107916  0.904039  1
  O  O57  1  0.855819  0.577120  0.574275  1
  O  O58  1  0.144181  0.422880  0.425725  1
