# generated using pymatgen
data_SrSm2O4
_symmetry_space_group_name_H-M   'P 1'
_cell_length_a   3.52187788
_cell_length_b   10.35166508
_cell_length_c   12.25952233
_cell_angle_alpha   90.00000000
_cell_angle_beta   90.00000000
_cell_angle_gamma   90.00000000
_symmetry_Int_Tables_number   1
_chemical_formula_structural   SrSm2O4
_chemical_formula_sum   'Sr4 Sm8 O16'
_cell_volume   446.94908671
_cell_formula_units_Z   4
loop_
 _symmetry_equiv_pos_site_id
 _symmetry_equiv_pos_as_xyz
  1  'x, y, z'
loop_
 _atom_site_type_symbol
 _atom_site_label
 _atom_site_symmetry_multiplicity
 _atom_site_fract_x
 _atom_site_fract_y
 _atom_site_fract_z
 _atom_site_occupancy
  Sr  Sr0  1  0.750000  0.246799  0.648629  1
  Sr  Sr1  1  0.250000  0.253201  0.148629  1
  Sr  Sr2  1  0.750000  0.746799  0.851371  1
  Sr  Sr3  1  0.250000  0.753201  0.351371  1
  Sm  Sm4  1  0.750000  0.077644  0.887588  1
  Sm  Sm5  1  0.750000  0.078195  0.388223  1
  Sm  Sm6  1  0.250000  0.421805  0.888223  1
  Sm  Sm7  1  0.250000  0.422357  0.387588  1
  Sm  Sm8  1  0.750000  0.577643  0.612412  1
  Sm  Sm9  1  0.750000  0.578195  0.111777  1
  Sm  Sm10  1  0.250000  0.921805  0.611777  1
  Sm  Sm11  1  0.250000  0.922357  0.112412  1
  O  O12  1  0.250000  0.018408  0.282981  1
  O  O13  1  0.750000  0.076415  0.078058  1
  O  O14  1  0.250000  0.127929  0.522238  1
  O  O15  1  0.250000  0.209995  0.819878  1
  O  O16  1  0.750000  0.290005  0.319878  1
  O  O17  1  0.750000  0.372071  0.022238  1
  O  O18  1  0.250000  0.423585  0.578058  1
  O  O19  1  0.750000  0.481592  0.782981  1
  O  O20  1  0.250000  0.518408  0.217019  1
  O  O21  1  0.750000  0.576415  0.421942  1
  O  O22  1  0.250000  0.627929  0.977762  1
  O  O23  1  0.250000  0.709995  0.680122  1
  O  O24  1  0.750000  0.790005  0.180122  1
  O  O25  1  0.750000  0.872071  0.477762  1
  O  O26  1  0.250000  0.923585  0.921942  1
  O  O27  1  0.750000  0.981592  0.717019  1
