# generated using pymatgen
data_Li2FeF5
_symmetry_space_group_name_H-M   'P 1'
_cell_length_a   5.12109342
_cell_length_b   8.12650200
_cell_length_c   9.81487636
_cell_angle_alpha   90.00000000
_cell_angle_beta   90.00000000
_cell_angle_gamma   90.00000000
_symmetry_Int_Tables_number   1
_chemical_formula_structural   Li2FeF5
_chemical_formula_sum   'Li8 Fe4 F20'
_cell_volume   408.46154718
_cell_formula_units_Z   4
loop_
 _symmetry_equiv_pos_site_id
 _symmetry_equiv_pos_as_xyz
  1  'x, y, z'
loop_
 _atom_site_type_symbol
 _atom_site_label
 _atom_site_symmetry_multiplicity
 _atom_site_fract_x
 _atom_site_fract_y
 _atom_site_fract_z
 _atom_site_occupancy
  Li  Li0  1  0.525729  0.362266  0.066550  1
  Li  Li1  1  0.445290  0.384622  0.735511  1
  Li  Li2  1  0.554710  0.884622  0.764489  1
  Li  Li3  1  0.474271  0.862266  0.433450  1
  Li  Li4  1  0.025729  0.137734  0.933450  1
  Li  Li5  1  0.945290  0.115378  0.264489  1
  Li  Li6  1  0.054710  0.615378  0.235511  1
  Li  Li7  1  0.974271  0.637734  0.566550  1
  Fe  Fe8  1  0.458061  0.965886  0.117898  1
  Fe  Fe9  1  0.541939  0.465886  0.382102  1
  Fe  Fe10  1  0.958061  0.534114  0.882102  1
  Fe  Fe11  1  0.041939  0.034114  0.617898  1
  F  F12  1  0.728536  0.922878  0.563911  1
  F  F13  1  0.742369  0.662363  0.380661  1
  F  F14  1  0.713060  0.670669  0.790694  1
  F  F15  1  0.638248  0.407525  0.562089  1
  F  F16  1  0.634363  0.977627  0.290318  1
  F  F17  1  0.365637  0.477627  0.209682  1
  F  F18  1  0.361752  0.907525  0.937911  1
  F  F19  1  0.286940  0.170669  0.709306  1
  F  F20  1  0.257631  0.162363  0.119339  1
  F  F21  1  0.271464  0.422878  0.936089  1
  F  F22  1  0.228536  0.577122  0.436089  1
  F  F23  1  0.242369  0.837637  0.619339  1
  F  F24  1  0.213060  0.829331  0.209306  1
  F  F25  1  0.138248  0.092475  0.437911  1
  F  F26  1  0.134363  0.522373  0.709682  1
  F  F27  1  0.865637  0.022373  0.790318  1
  F  F28  1  0.861752  0.592475  0.062089  1
  F  F29  1  0.786940  0.329331  0.290694  1
  F  F30  1  0.757631  0.337637  0.880661  1
  F  F31  1  0.771464  0.077122  0.063911  1
