# generated using pymatgen
data_Li2CoPO4F
_symmetry_space_group_name_H-M   'P 1'
_cell_length_a   6.42273788
_cell_length_b   10.58536813
_cell_length_c   10.96840142
_cell_angle_alpha   90.00000000
_cell_angle_beta   90.00000000
_cell_angle_gamma   90.00000000
_symmetry_Int_Tables_number   1
_chemical_formula_structural   Li2CoPO4F
_chemical_formula_sum   'Li16 Co8 P8 O32 F8'
_cell_volume   745.70919941
_cell_formula_units_Z   8
loop_
 _symmetry_equiv_pos_site_id
 _symmetry_equiv_pos_as_xyz
  1  'x, y, z'
loop_
 _atom_site_type_symbol
 _atom_site_label
 _atom_site_symmetry_multiplicity
 _atom_site_fract_x
 _atom_site_fract_y
 _atom_site_fract_z
 _atom_site_occupancy
  Li  Li0  1  0.250000  0.973444  0.273766  1
  Li  Li1  1  0.750000  0.771043  0.082271  1
  Li  Li2  1  0.489626  0.759841  0.334730  1
  Li  Li3  1  0.010374  0.759841  0.334730  1
  Li  Li4  1  0.989626  0.740159  0.834730  1
  Li  Li5  1  0.510374  0.740159  0.834730  1
  Li  Li6  1  0.250000  0.728957  0.582271  1
  Li  Li7  1  0.750000  0.526556  0.773766  1
  Li  Li8  1  0.250000  0.473444  0.226234  1
  Li  Li9  1  0.750000  0.271043  0.417729  1
  Li  Li10  1  0.489626  0.259841  0.165270  1
  Li  Li11  1  0.010374  0.259841  0.165270  1
  Li  Li12  1  0.989626  0.240159  0.665270  1
  Li  Li13  1  0.510374  0.240159  0.665270  1
  Li  Li14  1  0.250000  0.228957  0.917729  1
  Li  Li15  1  0.750000  0.026556  0.726234  1
  Co  Co16  1  0.000000  0.000000  0.000000  1
  Co  Co17  1  0.500000  0.000000  0.000000  1
  Co  Co18  1  0.000000  0.000000  0.500000  1
  Co  Co19  1  0.500000  0.000000  0.500000  1
  Co  Co20  1  0.000000  0.500000  0.500000  1
  Co  Co21  1  0.500000  0.500000  0.500000  1
  Co  Co22  1  0.000000  0.500000  0.000000  1
  Co  Co23  1  0.500000  0.500000  0.000000  1
  P  P24  1  0.250000  0.976580  0.744191  1
  P  P25  1  0.250000  0.756353  0.078148  1
  P  P26  1  0.750000  0.743647  0.578148  1
  P  P27  1  0.750000  0.523420  0.244191  1
  P  P28  1  0.250000  0.476580  0.755809  1
  P  P29  1  0.250000  0.256353  0.421852  1
  P  P30  1  0.750000  0.243647  0.921852  1
  P  P31  1  0.750000  0.023420  0.255809  1
  O  O32  1  0.750000  0.972684  0.121471  1
  O  O33  1  0.945875  0.966955  0.319487  1
  O  O34  1  0.554125  0.966955  0.319487  1
  O  O35  1  0.750000  0.889275  0.553955  1
  O  O36  1  0.250000  0.830305  0.744221  1
  O  O37  1  0.448763  0.810029  0.015313  1
  O  O38  1  0.051237  0.810029  0.015313  1
  O  O39  1  0.250000  0.782321  0.216559  1
  O  O40  1  0.750000  0.717679  0.716559  1
  O  O41  1  0.948763  0.689971  0.515313  1
  O  O42  1  0.551237  0.689971  0.515313  1
  O  O43  1  0.750000  0.669695  0.244221  1
  O  O44  1  0.250000  0.610725  0.053955  1
  O  O45  1  0.445875  0.533045  0.819487  1
  O  O46  1  0.054125  0.533045  0.819487  1
  O  O47  1  0.250000  0.527316  0.621471  1
  O  O48  1  0.750000  0.472684  0.378529  1
  O  O49  1  0.945875  0.466955  0.180513  1
  O  O50  1  0.554125  0.466955  0.180513  1
  O  O51  1  0.750000  0.389275  0.946045  1
  O  O52  1  0.250000  0.330305  0.755779  1
  O  O53  1  0.448763  0.310029  0.484687  1
  O  O54  1  0.051237  0.310029  0.484687  1
  O  O55  1  0.250000  0.282321  0.283441  1
  O  O56  1  0.750000  0.217679  0.783441  1
  O  O57  1  0.948763  0.189971  0.984687  1
  O  O58  1  0.551237  0.189971  0.984687  1
  O  O59  1  0.750000  0.169695  0.255779  1
  O  O60  1  0.250000  0.110725  0.446045  1
  O  O61  1  0.445875  0.033045  0.680513  1
  O  O62  1  0.054125  0.033045  0.680513  1
  O  O63  1  0.250000  0.027316  0.878529  1
  F  F64  1  0.750000  0.947898  0.880349  1
  F  F65  1  0.250000  0.867283  0.468602  1
  F  F66  1  0.750000  0.632717  0.968602  1
  F  F67  1  0.250000  0.552102  0.380349  1
  F  F68  1  0.750000  0.447898  0.619651  1
  F  F69  1  0.250000  0.367283  0.031398  1
  F  F70  1  0.750000  0.132717  0.531398  1
  F  F71  1  0.250000  0.052102  0.119651  1
