# generated using pymatgen
data_Cr4CuO12
_symmetry_space_group_name_H-M   'P 1'
_cell_length_a   6.73129100
_cell_length_b   6.73129100
_cell_length_c   5.75965513
_cell_angle_alpha   75.62267796
_cell_angle_beta   104.37732204
_cell_angle_gamma   95.61705506
_symmetry_Int_Tables_number   1
_chemical_formula_structural   Cr4CuO12
_chemical_formula_sum   'Cr4 Cu1 O12'
_cell_volume   244.69855462
_cell_formula_units_Z   1
loop_
 _symmetry_equiv_pos_site_id
 _symmetry_equiv_pos_as_xyz
  1  'x, y, z'
loop_
 _atom_site_type_symbol
 _atom_site_label
 _atom_site_symmetry_multiplicity
 _atom_site_fract_x
 _atom_site_fract_y
 _atom_site_fract_z
 _atom_site_occupancy
  Cr  Cr0  1  0.389251  0.795055  0.017288  1
  Cr  Cr1  1  0.198613  0.610628  0.521153  1
  Cr  Cr2  1  0.795055  0.389250  0.982712  1
  Cr  Cr3  1  0.610628  0.198613  0.478847  1
  Cu  Cu4  1  0.088558  0.088558  0.500000  1
  O  O5  1  0.220670  0.969646  0.890133  1
  O  O6  1  0.612991  0.903486  0.058194  1
  O  O7  1  0.038667  0.796049  0.438919  1
  O  O8  1  0.368635  0.641964  0.807375  1
  O  O9  1  0.903486  0.612991  0.941806  1
  O  O10  1  0.353902  0.646348  0.299805  1
  O  O11  1  0.641964  0.368635  0.192625  1
  O  O12  1  0.089275  0.378171  0.550157  1
  O  O13  1  0.646348  0.353902  0.700195  1
  O  O14  1  0.969646  0.220670  0.109867  1
  O  O15  1  0.378171  0.089275  0.449843  1
  O  O16  1  0.796049  0.038667  0.561081  1
