# generated using pymatgen
data_Li4V2Co3Cu3O16
_symmetry_space_group_name_H-M   'P 1'
_cell_length_a   5.79108208
_cell_length_b   5.79108208
_cell_length_c   9.30106183
_cell_angle_alpha   88.64906239
_cell_angle_beta   91.35093761
_cell_angle_gamma   120.35919351
_symmetry_Int_Tables_number   1
_chemical_formula_structural   Li4V2Co3Cu3O16
_chemical_formula_sum   'Li4 V2 Co3 Cu3 O16'
_cell_volume   269.05363880
_cell_formula_units_Z   1
loop_
 _symmetry_equiv_pos_site_id
 _symmetry_equiv_pos_as_xyz
  1  'x, y, z'
loop_
 _atom_site_type_symbol
 _atom_site_label
 _atom_site_symmetry_multiplicity
 _atom_site_fract_x
 _atom_site_fract_y
 _atom_site_fract_z
 _atom_site_occupancy
  Li  Li0  1  0.667038  0.332962  0.103480  1
  Li  Li1  1  0.996509  0.003491  0.005749  1
  Li  Li2  1  0.996909  0.003091  0.504406  1
  Li  Li3  1  0.337138  0.662862  0.600398  1
  V  V4  1  0.667496  0.332504  0.497417  1
  V  V5  1  0.334066  0.665934  0.002485  1
  Co  Co6  1  0.827084  0.172916  0.783703  1
  Co  Co7  1  0.656511  0.829847  0.284760  1
  Co  Co8  1  0.170153  0.343489  0.284760  1
  Cu  Cu9  1  0.830433  0.658409  0.783795  1
  Cu  Cu10  1  0.341591  0.169567  0.783795  1
  Cu  Cu11  1  0.169978  0.830022  0.282839  1
  O  O12  1  0.820111  0.656022  0.410526  1
  O  O13  1  0.525798  0.474202  0.647462  1
  O  O14  1  0.671764  0.328236  0.889111  1
  O  O15  1  0.993290  0.006710  0.696578  1
  O  O16  1  0.993943  0.006057  0.196844  1
  O  O17  1  0.343978  0.179889  0.410526  1
  O  O18  1  0.959306  0.465310  0.656304  1
  O  O19  1  0.534690  0.040694  0.656304  1
  O  O20  1  0.171668  0.828332  0.921583  1
  O  O21  1  0.826897  0.173103  0.400300  1
  O  O22  1  0.492023  0.955965  0.158127  1
  O  O23  1  0.044035  0.507977  0.158127  1
  O  O24  1  0.337477  0.662523  0.388569  1
  O  O25  1  0.650875  0.835848  0.908617  1
  O  O26  1  0.478510  0.521490  0.165946  1
  O  O27  1  0.164152  0.349125  0.908617  1
