# generated using pymatgen
data_Mn3F8
_symmetry_space_group_name_H-M   'P 1'
_cell_length_a   6.47675035
_cell_length_b   6.47675035
_cell_length_c   9.28370523
_cell_angle_alpha   89.65661439
_cell_angle_beta   90.34338561
_cell_angle_gamma   59.64532868
_symmetry_Int_Tables_number   1
_chemical_formula_structural   Mn3F8
_chemical_formula_sum   'Mn6 F16'
_cell_volume   336.02493322
_cell_formula_units_Z   2
loop_
 _symmetry_equiv_pos_site_id
 _symmetry_equiv_pos_as_xyz
  1  'x, y, z'
loop_
 _atom_site_type_symbol
 _atom_site_label
 _atom_site_symmetry_multiplicity
 _atom_site_fract_x
 _atom_site_fract_y
 _atom_site_fract_z
 _atom_site_occupancy
  Mn  Mn0  1  0.833240  0.833370  0.752009  1
  Mn  Mn1  1  0.333836  0.832941  0.751639  1
  Mn  Mn2  1  0.167059  0.666164  0.251639  1
  Mn  Mn3  1  0.833428  0.333897  0.752755  1
  Mn  Mn4  1  0.666103  0.166572  0.252755  1
  Mn  Mn5  1  0.166630  0.166760  0.252009  1
  F  F6  1  0.002620  0.985081  0.370735  1
  F  F7  1  0.014919  0.997380  0.870735  1
  F  F8  1  0.879308  0.826852  0.150411  1
  F  F9  1  0.534662  0.951927  0.851134  1
  F  F10  1  0.286400  0.867559  0.153679  1
  F  F11  1  0.960752  0.542209  0.851816  1
  F  F12  1  0.651540  0.669080  0.632339  1
  F  F13  1  0.493523  0.546682  0.854232  1
  F  F14  1  0.874839  0.294301  0.151818  1
  F  F15  1  0.132441  0.713600  0.653679  1
  F  F16  1  0.453318  0.506477  0.354232  1
  F  F17  1  0.330920  0.348460  0.132339  1
  F  F18  1  0.048073  0.465338  0.351134  1
  F  F19  1  0.705699  0.125161  0.651818  1
  F  F20  1  0.457791  0.039248  0.351816  1
  F  F21  1  0.173148  0.120692  0.650411  1
