# generated using pymatgen
data_La2HfO5
_symmetry_space_group_name_H-M   'P 1'
_cell_length_a   3.97080628
_cell_length_b   11.33048900
_cell_length_c   11.85587019
_cell_angle_alpha   90.00000000
_cell_angle_beta   90.00000000
_cell_angle_gamma   90.00000000
_symmetry_Int_Tables_number   1
_chemical_formula_structural   La2HfO5
_chemical_formula_sum   'La8 Hf4 O20'
_cell_volume   533.40955275
_cell_formula_units_Z   4
loop_
 _symmetry_equiv_pos_site_id
 _symmetry_equiv_pos_as_xyz
  1  'x, y, z'
loop_
 _atom_site_type_symbol
 _atom_site_label
 _atom_site_symmetry_multiplicity
 _atom_site_fract_x
 _atom_site_fract_y
 _atom_site_fract_z
 _atom_site_occupancy
  La  La0  1  0.250000  0.101847  0.282328  1
  La  La1  1  0.250000  0.131666  0.936535  1
  La  La2  1  0.750000  0.368334  0.436535  1
  La  La3  1  0.750000  0.398153  0.782328  1
  La  La4  1  0.250000  0.601847  0.217672  1
  La  La5  1  0.250000  0.631666  0.563465  1
  La  La6  1  0.750000  0.868334  0.063465  1
  La  La7  1  0.750000  0.898153  0.717672  1
  Hf  Hf8  1  0.250000  0.190557  0.624033  1
  Hf  Hf9  1  0.750000  0.309443  0.124033  1
  Hf  Hf10  1  0.250000  0.690557  0.875967  1
  Hf  Hf11  1  0.750000  0.809443  0.375967  1
  O  O12  1  0.750000  0.005956  0.898645  1
  O  O13  1  0.250000  0.026206  0.670827  1
  O  O14  1  0.750000  0.222959  0.273203  1
  O  O15  1  0.250000  0.231133  0.456925  1
  O  O16  1  0.750000  0.245718  0.620097  1
  O  O17  1  0.250000  0.254282  0.120097  1
  O  O18  1  0.750000  0.268867  0.956925  1
  O  O19  1  0.250000  0.277041  0.773203  1
  O  O20  1  0.750000  0.473794  0.170827  1
  O  O21  1  0.250000  0.494044  0.398645  1
  O  O22  1  0.750000  0.505956  0.601355  1
  O  O23  1  0.250000  0.526206  0.829173  1
  O  O24  1  0.750000  0.722959  0.226797  1
  O  O25  1  0.250000  0.731133  0.043075  1
  O  O26  1  0.750000  0.745718  0.879903  1
  O  O27  1  0.250000  0.754282  0.379903  1
  O  O28  1  0.750000  0.768867  0.543075  1
  O  O29  1  0.250000  0.777041  0.726797  1
  O  O30  1  0.750000  0.973794  0.329173  1
  O  O31  1  0.250000  0.994044  0.101355  1
