# generated using pymatgen
data_Mn3OF5
_symmetry_space_group_name_H-M   'P 1'
_cell_length_a   4.84930441
_cell_length_b   4.86634708
_cell_length_c   9.84773699
_cell_angle_alpha   90.00000000
_cell_angle_beta   90.00000000
_cell_angle_gamma   90.00000000
_symmetry_Int_Tables_number   1
_chemical_formula_structural   Mn3OF5
_chemical_formula_sum   'Mn6 O2 F10'
_cell_volume   232.39082010
_cell_formula_units_Z   2
loop_
 _symmetry_equiv_pos_site_id
 _symmetry_equiv_pos_as_xyz
  1  'x, y, z'
loop_
 _atom_site_type_symbol
 _atom_site_label
 _atom_site_symmetry_multiplicity
 _atom_site_fract_x
 _atom_site_fract_y
 _atom_site_fract_z
 _atom_site_occupancy
  Mn  Mn0  1  0.777043  0.021943  0.000000  1
  Mn  Mn1  1  0.754270  0.985005  0.341613  1
  Mn  Mn2  1  0.754270  0.985005  0.658387  1
  Mn  Mn3  1  0.245730  0.485005  0.841613  1
  Mn  Mn4  1  0.245730  0.485005  0.158387  1
  Mn  Mn5  1  0.222957  0.521943  0.500000  1
  O  O6  1  0.930383  0.805876  0.500000  1
  O  O7  1  0.069617  0.305876  0.000000  1
  F  F8  1  0.954862  0.804583  0.167633  1
  F  F9  1  0.954862  0.804583  0.832367  1
  F  F10  1  0.045138  0.304583  0.332367  1
  F  F11  1  0.045138  0.304583  0.667633  1
  F  F12  1  0.471682  0.711082  0.000000  1
  F  F13  1  0.435350  0.690810  0.323581  1
  F  F14  1  0.435350  0.690810  0.676419  1
  F  F15  1  0.564650  0.190810  0.176419  1
  F  F16  1  0.528318  0.211082  0.500000  1
  F  F17  1  0.564650  0.190810  0.823581  1
