# generated using pymatgen
data_Mn3Fe(PO4)6
_symmetry_space_group_name_H-M   'P 1'
_cell_length_a   8.78523785
_cell_length_b   8.78523785
_cell_length_c   8.78523785
_cell_angle_alpha   58.15646148
_cell_angle_beta   58.15646148
_cell_angle_gamma   58.15646148
_symmetry_Int_Tables_number   1
_chemical_formula_structural   Mn3Fe(PO4)6
_chemical_formula_sum   'Mn3 Fe1 P6 O24'
_cell_volume   459.19427677
_cell_formula_units_Z   1
loop_
 _symmetry_equiv_pos_site_id
 _symmetry_equiv_pos_as_xyz
  1  'x, y, z'
loop_
 _atom_site_type_symbol
 _atom_site_label
 _atom_site_symmetry_multiplicity
 _atom_site_fract_x
 _atom_site_fract_y
 _atom_site_fract_z
 _atom_site_occupancy
  Mn  Mn0  1  0.855086  0.855086  0.855086  1
  Mn  Mn1  1  0.644649  0.644649  0.644649  1
  Mn  Mn2  1  0.354199  0.354199  0.354199  1
  Fe  Fe3  1  0.142634  0.142634  0.142634  1
  P  P4  1  0.249576  0.536792  0.964464  1
  P  P5  1  0.964464  0.249576  0.536792  1
  P  P6  1  0.536792  0.964464  0.249576  1
  P  P7  1  0.468080  0.033913  0.745512  1
  P  P8  1  0.033913  0.745512  0.468080  1
  P  P9  1  0.745512  0.468080  0.033913  1
  O  O10  1  0.721944  0.491192  0.860222  1
  O  O11  1  0.491192  0.860222  0.721944  1
  O  O12  1  0.073859  0.721979  0.939625  1
  O  O13  1  0.860222  0.721944  0.491192  1
  O  O14  1  0.423689  0.566546  0.778974  1
  O  O15  1  0.227253  0.365736  0.986590  1
  O  O16  1  0.939625  0.073859  0.721979  1
  O  O17  1  0.778974  0.423689  0.566546  1
  O  O18  1  0.566546  0.778974  0.423689  1
  O  O19  1  0.640952  0.011554  0.771167  1
  O  O20  1  0.286667  0.059317  0.918296  1
  O  O21  1  0.011554  0.771167  0.640952  1
  O  O22  1  0.986590  0.227253  0.365736  1
  O  O23  1  0.721979  0.939625  0.073859  1
  O  O24  1  0.365736  0.986590  0.227253  1
  O  O25  1  0.444048  0.218467  0.569842  1
  O  O26  1  0.218467  0.569842  0.444048  1
  O  O27  1  0.059317  0.918296  0.286667  1
  O  O28  1  0.771167  0.640952  0.011554  1
  O  O29  1  0.569842  0.444048  0.218467  1
  O  O30  1  0.137748  0.274303  0.515128  1
  O  O31  1  0.918296  0.286667  0.059317  1
  O  O32  1  0.515128  0.137748  0.274303  1
  O  O33  1  0.274303  0.515128  0.137748  1
