# generated using pymatgen
data_Li4CrTe2WO12
_symmetry_space_group_name_H-M   'P 1'
_cell_length_a   5.18772107
_cell_length_b   5.46787667
_cell_length_c   7.52230490
_cell_angle_alpha   94.30859420
_cell_angle_beta   90.15699419
_cell_angle_gamma   90.08581712
_symmetry_Int_Tables_number   1
_chemical_formula_structural   Li4CrTe2WO12
_chemical_formula_sum   'Li4 Cr1 Te2 W1 O12'
_cell_volume   212.77220196
_cell_formula_units_Z   1
loop_
 _symmetry_equiv_pos_site_id
 _symmetry_equiv_pos_as_xyz
  1  'x, y, z'
loop_
 _atom_site_type_symbol
 _atom_site_label
 _atom_site_symmetry_multiplicity
 _atom_site_fract_x
 _atom_site_fract_y
 _atom_site_fract_z
 _atom_site_occupancy
  Li  Li0  1  0.995434  0.442213  0.304462  1
  Li  Li1  1  0.498360  0.914604  0.766514  1
  Li  Li2  1  0.009454  0.476589  0.749347  1
  Li  Li3  1  0.495223  0.904972  0.309225  1
  Cr  Cr4  1  0.500440  0.491520  0.499791  1
  Te  Te5  1  0.002984  0.000822  0.502919  1
  Te  Te6  1  0.499953  0.487832  0.000426  1
  W  W7  1  0.000586  0.999105  0.004896  1
  O  O8  1  0.292639  0.188434  0.426459  1
  O  O9  1  0.128776  0.017827  0.753024  1
  O  O10  1  0.312832  0.841134  0.060569  1
  O  O11  1  0.193107  0.708709  0.430452  1
  O  O12  1  0.826604  0.696201  0.930538  1
  O  O13  1  0.378966  0.533275  0.753559  1
  O  O14  1  0.625245  0.517489  0.246359  1
  O  O15  1  0.159132  0.323856  0.058369  1
  O  O16  1  0.827913  0.310716  0.550038  1
  O  O17  1  0.686571  0.174843  0.927348  1
  O  O18  1  0.869630  0.004788  0.244530  1
  O  O19  1  0.696151  0.822669  0.552374  1
