# generated using pymatgen
data_Fe2C2O7
_symmetry_space_group_name_H-M   'P 1'
_cell_length_a   8.53001475
_cell_length_b   8.53001475
_cell_length_c   8.38375108
_cell_angle_alpha   89.41450494
_cell_angle_beta   90.58549506
_cell_angle_gamma   119.76972576
_symmetry_Int_Tables_number   1
_chemical_formula_structural   Fe2C2O7
_chemical_formula_sum   'Fe6 C6 O21'
_cell_volume   529.46996767
_cell_formula_units_Z   3
loop_
 _symmetry_equiv_pos_site_id
 _symmetry_equiv_pos_as_xyz
  1  'x, y, z'
loop_
 _atom_site_type_symbol
 _atom_site_label
 _atom_site_symmetry_multiplicity
 _atom_site_fract_x
 _atom_site_fract_y
 _atom_site_fract_z
 _atom_site_occupancy
  Fe  Fe0  1  0.668208  0.333748  0.178048  1
  Fe  Fe1  1  0.333748  0.668208  0.821952  1
  Fe  Fe2  1  0.666274  0.333549  0.744020  1
  Fe  Fe3  1  0.333549  0.666274  0.255980  1
  Fe  Fe4  1  0.999556  0.997735  0.715065  1
  Fe  Fe5  1  0.997735  0.999556  0.284935  1
  C  C6  1  0.001755  0.660856  0.726137  1
  C  C7  1  0.660856  0.001755  0.273863  1
  C  C8  1  0.663535  0.999933  0.731986  1
  C  C9  1  0.999933  0.663535  0.268014  1
  C  C10  1  0.332915  0.335653  0.734264  1
  C  C11  1  0.335653  0.332915  0.265736  1
  O  O12  1  0.999697  0.999697  0.500000  1
  O  O13  1  0.932109  0.759365  0.212752  1
  O  O14  1  0.759365  0.932109  0.787248  1
  O  O15  1  0.837360  0.575039  0.671127  1
  O  O16  1  0.575039  0.837360  0.328873  1
  O  O17  1  0.905297  0.489509  0.267881  1
  O  O18  1  0.489509  0.905297  0.732119  1
  O  O19  1  0.669462  0.330263  0.961685  1
  O  O20  1  0.330263  0.669462  0.038315  1
  O  O21  1  0.163874  0.740719  0.323789  1
  O  O22  1  0.740719  0.163874  0.676211  1
  O  O23  1  0.509956  0.413711  0.263964  1
  O  O24  1  0.413711  0.509956  0.736036  1
  O  O25  1  0.821807  0.067780  0.216549  1
  O  O26  1  0.067780  0.821807  0.783451  1
  O  O27  1  0.583249  0.098677  0.276092  1
  O  O28  1  0.098677  0.583249  0.723908  1
  O  O29  1  0.419062  0.256746  0.681959  1
  O  O30  1  0.256746  0.419062  0.318041  1
  O  O31  1  0.241075  0.168994  0.215616  1
  O  O32  1  0.168994  0.241075  0.784384  1
