# generated using pymatgen
data_LiPWO5
_symmetry_space_group_name_H-M   'P 1'
_cell_length_a   7.09787708
_cell_length_b   7.46169266
_cell_length_c   8.13231535
_cell_angle_alpha   89.67082533
_cell_angle_beta   92.38234733
_cell_angle_gamma   115.90471199
_symmetry_Int_Tables_number   1
_chemical_formula_structural   LiPWO5
_chemical_formula_sum   'Li4 P4 W4 O20'
_cell_volume   387.05688044
_cell_formula_units_Z   4
loop_
 _symmetry_equiv_pos_site_id
 _symmetry_equiv_pos_as_xyz
  1  'x, y, z'
loop_
 _atom_site_type_symbol
 _atom_site_label
 _atom_site_symmetry_multiplicity
 _atom_site_fract_x
 _atom_site_fract_y
 _atom_site_fract_z
 _atom_site_occupancy
  Li  Li0  1  0.296989  0.817023  0.431158  1
  Li  Li1  1  0.217668  0.296385  0.069715  1
  Li  Li2  1  0.782332  0.703615  0.930285  1
  Li  Li3  1  0.703011  0.182977  0.568842  1
  P  P4  1  0.232138  0.745510  0.094457  1
  P  P5  1  0.264598  0.241326  0.406165  1
  P  P6  1  0.735402  0.758674  0.593835  1
  P  P7  1  0.767862  0.254490  0.905543  1
  W  W8  1  0.244649  0.498521  0.744016  1
  W  W9  1  0.245583  0.000515  0.757718  1
  W  W10  1  0.754417  0.999485  0.242282  1
  W  W11  1  0.755351  0.501479  0.255984  1
  O  O12  1  0.128191  0.845014  0.977263  1
  O  O13  1  0.086561  0.645160  0.238775  1
  O  O14  1  0.243327  0.751434  0.663431  1
  O  O15  1  0.274504  0.589600  0.996688  1
  O  O16  1  0.200805  0.376431  0.509652  1
  O  O17  1  0.433096  0.903415  0.181444  1
  O  O18  1  0.073060  0.094072  0.302239  1
  O  O19  1  0.265940  0.258978  0.841555  1
  O  O20  1  0.645306  0.876108  0.480841  1
  O  O21  1  0.423805  0.363141  0.276546  1
  O  O22  1  0.576195  0.636859  0.723454  1
  O  O23  1  0.354694  0.123892  0.519159  1
  O  O24  1  0.734060  0.741022  0.158445  1
  O  O25  1  0.926940  0.905928  0.697761  1
  O  O26  1  0.566904  0.096585  0.818556  1
  O  O27  1  0.799195  0.623569  0.490348  1
  O  O28  1  0.725496  0.410400  0.003312  1
  O  O29  1  0.756673  0.248566  0.336569  1
  O  O30  1  0.913439  0.354840  0.761225  1
  O  O31  1  0.871809  0.154986  0.022737  1
