# generated using pymatgen
data_MnFeO4
_symmetry_space_group_name_H-M   'P 1'
_cell_length_a   4.40513576
_cell_length_b   5.57960631
_cell_length_c   4.98157062
_cell_angle_alpha   90.00000000
_cell_angle_beta   90.78879111
_cell_angle_gamma   90.00000000
_symmetry_Int_Tables_number   1
_chemical_formula_structural   MnFeO4
_chemical_formula_sum   'Mn2 Fe2 O8'
_cell_volume   122.43003903
_cell_formula_units_Z   2
loop_
 _symmetry_equiv_pos_site_id
 _symmetry_equiv_pos_as_xyz
  1  'x, y, z'
loop_
 _atom_site_type_symbol
 _atom_site_label
 _atom_site_symmetry_multiplicity
 _atom_site_fract_x
 _atom_site_fract_y
 _atom_site_fract_z
 _atom_site_occupancy
  Mn  Mn0  1  0.000000  0.854419  0.250000  1
  Mn  Mn1  1  0.000000  0.145581  0.750000  1
  Fe  Fe2  1  0.500000  0.344632  0.250000  1
  Fe  Fe3  1  0.500000  0.655368  0.750000  1
  O  O4  1  0.228035  0.107983  0.428428  1
  O  O5  1  0.228035  0.892017  0.928428  1
  O  O6  1  0.253503  0.623060  0.406971  1
  O  O7  1  0.253503  0.376940  0.906971  1
  O  O8  1  0.746497  0.623060  0.093029  1
  O  O9  1  0.746497  0.376940  0.593029  1
  O  O10  1  0.771965  0.107983  0.071572  1
  O  O11  1  0.771965  0.892017  0.571572  1
