# generated using pymatgen
data_LiMnO2
_symmetry_space_group_name_H-M   'P 1'
_cell_length_a   5.94467922
_cell_length_b   5.99345983
_cell_length_c   14.60724669
_cell_angle_alpha   91.11519375
_cell_angle_beta   89.90918553
_cell_angle_gamma   119.56442788
_symmetry_Int_Tables_number   1
_chemical_formula_structural   LiMnO2
_chemical_formula_sum   'Li12 Mn12 O24'
_cell_volume   452.57835006
_cell_formula_units_Z   12
loop_
 _symmetry_equiv_pos_site_id
 _symmetry_equiv_pos_as_xyz
  1  'x, y, z'
loop_
 _atom_site_type_symbol
 _atom_site_label
 _atom_site_symmetry_multiplicity
 _atom_site_fract_x
 _atom_site_fract_y
 _atom_site_fract_z
 _atom_site_occupancy
  Li  Li0  1  0.690702  0.832372  0.172158  1
  Li  Li1  1  0.176309  0.339421  0.166123  1
  Li  Li2  1  0.492486  0.994175  0.500769  1
  Li  Li3  1  0.160594  0.332017  0.666336  1
  Li  Li4  1  0.199237  0.850998  0.158867  1
  Li  Li5  1  0.977194  0.484168  0.500877  1
  Li  Li6  1  0.831551  0.179586  0.830909  1
  Li  Li7  1  0.834605  0.665762  0.333761  1
  Li  Li8  1  0.507872  0.007824  0.998302  1
  Li  Li9  1  0.833294  0.671741  0.831684  1
  Li  Li10  1  0.475734  0.483419  0.508846  1
  Li  Li11  1  0.328203  0.180616  0.824615  1
  Mn  Mn12  1  0.333777  0.667542  0.333392  1
  Mn  Mn13  1  0.336884  0.677372  0.831753  1
  Mn  Mn14  1  0.004367  0.006015  0.998672  1
  Mn  Mn15  1  0.676072  0.338646  0.166445  1
  Mn  Mn16  1  0.990787  0.989943  0.500380  1
  Mn  Mn17  1  0.663453  0.331958  0.666479  1
  Mn  Mn18  1  0.663515  0.832486  0.666607  1
  Mn  Mn19  1  0.006119  0.506955  0.999628  1
  Mn  Mn20  1  0.162648  0.831700  0.665574  1
  Mn  Mn21  1  0.334163  0.167552  0.332615  1
  Mn  Mn22  1  0.505198  0.505933  0.999788  1
  Mn  Mn23  1  0.834474  0.166783  0.332758  1
  O  O24  1  0.986474  0.977968  0.738424  1
  O  O25  1  0.687370  0.864517  0.410343  1
  O  O26  1  0.646558  0.809203  0.919819  1
  O  O27  1  0.502079  0.519140  0.748147  1
  O  O28  1  0.325540  0.650109  0.071991  1
  O  O29  1  0.012813  0.024667  0.259962  1
  O  O30  1  0.138419  0.336900  0.413399  1
  O  O31  1  0.510231  0.027312  0.753793  1
  O  O32  1  0.140851  0.335633  0.918743  1
  O  O33  1  0.342409  0.686810  0.594041  1
  O  O34  1  0.853059  0.203020  0.077344  1
  O  O35  1  0.982402  0.469654  0.254645  1
  O  O36  1  0.172969  0.860584  0.411325  1
  O  O37  1  0.159466  0.810429  0.922298  1
  O  O38  1  0.821269  0.142254  0.585553  1
  O  O39  1  0.019548  0.527780  0.747843  1
  O  O40  1  0.872486  0.679563  0.081717  1
  O  O41  1  0.529927  0.995879  0.250543  1
  O  O42  1  0.655603  0.308013  0.403347  1
  O  O43  1  0.687405  0.364520  0.929389  1
  O  O44  1  0.811924  0.636859  0.578947  1
  O  O45  1  0.363097  0.198913  0.080878  1
  O  O46  1  0.498615  0.477898  0.252452  1
  O  O47  1  0.307034  0.140170  0.583523  1
