# generated using pymatgen
data_CoO2
_symmetry_space_group_name_H-M   'P 1'
_cell_length_a   5.61003850
_cell_length_b   5.61003850
_cell_length_c   8.55168467
_cell_angle_alpha   90.00000000
_cell_angle_beta   90.00000000
_cell_angle_gamma   120.00000000
_symmetry_Int_Tables_number   1
_chemical_formula_structural   CoO2
_chemical_formula_sum   'Co8 O16'
_cell_volume   233.08482179
_cell_formula_units_Z   8
loop_
 _symmetry_equiv_pos_site_id
 _symmetry_equiv_pos_as_xyz
  1  'x, y, z'
loop_
 _atom_site_type_symbol
 _atom_site_label
 _atom_site_symmetry_multiplicity
 _atom_site_fract_x
 _atom_site_fract_y
 _atom_site_fract_z
 _atom_site_occupancy
  Co  Co0  1  0.169405  0.830595  0.788905  1
  Co  Co1  1  0.333333  0.666667  0.514589  1
  Co  Co2  1  0.661190  0.830595  0.788905  1
  Co  Co3  1  0.169405  0.338810  0.788905  1
  Co  Co4  1  0.830595  0.661190  0.288905  1
  Co  Co5  1  0.666667  0.333333  0.014589  1
  Co  Co6  1  0.338810  0.169405  0.288905  1
  Co  Co7  1  0.830595  0.169405  0.288905  1
  O  O8  1  0.165675  0.834325  0.398027  1
  O  O9  1  0.479613  0.959225  0.659069  1
  O  O10  1  0.333333  0.666667  0.900965  1
  O  O11  1  0.000000  0.000000  0.681536  1
  O  O12  1  0.000000  0.000000  0.181536  1
  O  O13  1  0.668651  0.834325  0.398027  1
  O  O14  1  0.040775  0.520387  0.659069  1
  O  O15  1  0.479613  0.520387  0.659069  1
  O  O16  1  0.834325  0.668651  0.898027  1
  O  O17  1  0.165675  0.331349  0.398027  1
  O  O18  1  0.520387  0.479613  0.159069  1
  O  O19  1  0.959225  0.479613  0.159069  1
  O  O20  1  0.666667  0.333333  0.400965  1
  O  O21  1  0.331349  0.165675  0.898027  1
  O  O22  1  0.520387  0.040775  0.159069  1
  O  O23  1  0.834325  0.165675  0.898027  1
