# generated using pymatgen
data_Fe3O5F
_symmetry_space_group_name_H-M   'P 1'
_cell_length_a   10.55445236
_cell_length_b   10.55445236
_cell_length_c   3.01807260
_cell_angle_alpha   90.00000000
_cell_angle_beta   90.00000000
_cell_angle_gamma   144.54776587
_symmetry_Int_Tables_number   1
_chemical_formula_structural   Fe3O5F
_chemical_formula_sum   'Fe6 O10 F2'
_cell_volume   195.00560335
_cell_formula_units_Z   2
loop_
 _symmetry_equiv_pos_site_id
 _symmetry_equiv_pos_as_xyz
  1  'x, y, z'
loop_
 _atom_site_type_symbol
 _atom_site_label
 _atom_site_symmetry_multiplicity
 _atom_site_fract_x
 _atom_site_fract_y
 _atom_site_fract_z
 _atom_site_occupancy
  Fe  Fe0  1  0.677042  0.322958  0.500000  1
  Fe  Fe1  1  0.163811  0.836189  1.000000  1
  Fe  Fe2  1  0.322958  0.677042  0.500000  1
  Fe  Fe3  1  0.500000  0.500000  0.000000  1
  Fe  Fe4  1  0.836189  0.163811  1.000000  1
  Fe  Fe5  1  0.000000  0.000000  0.500000  1
  O  O6  1  0.359494  0.029251  0.500000  1
  O  O7  1  0.640506  0.970749  0.500000  1
  O  O8  1  0.970749  0.640506  0.500000  1
  O  O9  1  0.264534  0.735466  0.000000  1
  O  O10  1  0.735466  0.264534  0.000000  1
  O  O11  1  0.029251  0.359494  0.500000  1
  O  O12  1  0.312048  0.312048  0.500000  1
  O  O13  1  0.937807  0.062193  1.000000  1
  O  O14  1  0.062193  0.937807  1.000000  1
  O  O15  1  0.687952  0.687952  0.500000  1
  F  F16  1  0.395788  0.604212  0.000000  1
  F  F17  1  0.604212  0.395788  0.000000  1
