# generated using pymatgen
data_LiVSiO5
_symmetry_space_group_name_H-M   'P 1'
_cell_length_a   6.32951209
_cell_length_b   6.32951209
_cell_length_c   4.62912789
_cell_angle_alpha   90.00000000
_cell_angle_beta   90.00000000
_cell_angle_gamma   90.14060114
_symmetry_Int_Tables_number   1
_chemical_formula_structural   LiVSiO5
_chemical_formula_sum   'Li2 V2 Si2 O10'
_cell_volume   185.45491163
_cell_formula_units_Z   2
loop_
 _symmetry_equiv_pos_site_id
 _symmetry_equiv_pos_as_xyz
  1  'x, y, z'
loop_
 _atom_site_type_symbol
 _atom_site_label
 _atom_site_symmetry_multiplicity
 _atom_site_fract_x
 _atom_site_fract_y
 _atom_site_fract_z
 _atom_site_occupancy
  Li  Li0  1  0.500000  0.000000  0.500000  1
  Li  Li1  1  0.000000  0.500000  0.500000  1
  V  V2  1  0.750000  0.250000  0.104401  1
  V  V3  1  0.250000  0.750000  0.895599  1
  Si  Si4  1  0.250000  0.250000  0.000000  1
  Si  Si5  1  0.750000  0.750000  0.000000  1
  O  O6  1  0.255477  0.040358  0.789908  1
  O  O7  1  0.750000  0.250000  0.751686  1
  O  O8  1  0.459642  0.244523  0.210092  1
  O  O9  1  0.040358  0.255477  0.210092  1
  O  O10  1  0.244523  0.459642  0.789908  1
  O  O11  1  0.755477  0.540358  0.210092  1
  O  O12  1  0.959642  0.744523  0.789908  1
  O  O13  1  0.540358  0.755477  0.789908  1
  O  O14  1  0.250000  0.750000  0.248314  1
  O  O15  1  0.744523  0.959642  0.210092  1
