# generated using pymatgen
data_Li4Cr3NiO8
_symmetry_space_group_name_H-M   'P 1'
_cell_length_a   5.09262901
_cell_length_b   5.90023394
_cell_length_c   5.09707156
_cell_angle_alpha   90.00000000
_cell_angle_beta   109.78554884
_cell_angle_gamma   90.00000000
_symmetry_Int_Tables_number   1
_chemical_formula_structural   Li4Cr3NiO8
_chemical_formula_sum   'Li4 Cr3 Ni1 O8'
_cell_volume   144.11394743
_cell_formula_units_Z   1
loop_
 _symmetry_equiv_pos_site_id
 _symmetry_equiv_pos_as_xyz
  1  'x, y, z'
loop_
 _atom_site_type_symbol
 _atom_site_label
 _atom_site_symmetry_multiplicity
 _atom_site_fract_x
 _atom_site_fract_y
 _atom_site_fract_z
 _atom_site_occupancy
  Li  Li0  1  0.000000  0.000000  0.500000  1
  Li  Li1  1  0.000000  0.500000  0.500000  1
  Li  Li2  1  0.500000  0.757338  0.500000  1
  Li  Li3  1  0.500000  0.242662  0.500000  1
  Cr  Cr4  1  0.000000  0.750322  0.000000  1
  Cr  Cr5  1  0.000000  0.249678  0.000000  1
  Cr  Cr6  1  0.500000  0.500000  0.000000  1
  Ni  Ni7  1  0.500000  0.000000  0.000000  1
  O  O8  1  0.765480  0.000000  0.766975  1
  O  O9  1  0.752092  0.500000  0.774457  1
  O  O10  1  0.741899  0.733870  0.224894  1
  O  O11  1  0.258101  0.733870  0.775106  1
  O  O12  1  0.741899  0.266130  0.224894  1
  O  O13  1  0.234520  0.000000  0.233025  1
  O  O14  1  0.258101  0.266130  0.775106  1
  O  O15  1  0.247908  0.500000  0.225543  1
