# generated using pymatgen
data_Ni3OF5
_symmetry_space_group_name_H-M   'P 1'
_cell_length_a   5.62720743
_cell_length_b   5.63391094
_cell_length_c   7.33416936
_cell_angle_alpha   72.33622135
_cell_angle_beta   72.33036587
_cell_angle_gamma   72.39749881
_symmetry_Int_Tables_number   1
_chemical_formula_structural   Ni3OF5
_chemical_formula_sum   'Ni6 O2 F10'
_cell_volume   205.35985975
_cell_formula_units_Z   2
loop_
 _symmetry_equiv_pos_site_id
 _symmetry_equiv_pos_as_xyz
  1  'x, y, z'
loop_
 _atom_site_type_symbol
 _atom_site_label
 _atom_site_symmetry_multiplicity
 _atom_site_fract_x
 _atom_site_fract_y
 _atom_site_fract_z
 _atom_site_occupancy
  Ni  Ni0  1  0.333750  0.341489  0.162376  1
  Ni  Ni1  1  0.338111  0.339671  0.667565  1
  Ni  Ni2  1  0.663967  0.668088  0.340115  1
  Ni  Ni3  1  0.654797  0.663182  0.832294  1
  Ni  Ni4  1  0.999671  0.002590  0.500018  1
  Ni  Ni5  1  0.008679  0.988133  0.999560  1
  O  O6  1  0.562258  0.567661  0.630791  1
  O  O7  1  0.304484  0.692973  0.997711  1
  F  F8  1  0.361883  0.975208  0.329615  1
  F  F9  1  0.025784  0.639329  0.670350  1
  F  F10  1  0.105330  0.104936  0.699944  1
  F  F11  1  0.433933  0.435534  0.368273  1
  F  F12  1  0.763453  0.762203  0.038107  1
  F  F13  1  0.900153  0.898886  0.298402  1
  F  F14  1  0.232836  0.230364  0.964890  1
  F  F15  1  0.637794  0.030889  0.666975  1
  F  F16  1  0.969196  0.364587  0.333686  1
  F  F17  1  0.703924  0.294278  0.999327  1
