# generated using pymatgen
data_Li3V4(OF3)3
_symmetry_space_group_name_H-M   'P 1'
_cell_length_a   5.12435592
_cell_length_b   5.51201427
_cell_length_c   7.70100596
_cell_angle_alpha   94.73782647
_cell_angle_beta   90.96015557
_cell_angle_gamma   92.33340165
_symmetry_Int_Tables_number   1
_chemical_formula_structural   Li3V4(OF3)3
_chemical_formula_sum   'Li3 V4 O3 F9'
_cell_volume   216.55173139
_cell_formula_units_Z   1
loop_
 _symmetry_equiv_pos_site_id
 _symmetry_equiv_pos_as_xyz
  1  'x, y, z'
loop_
 _atom_site_type_symbol
 _atom_site_label
 _atom_site_symmetry_multiplicity
 _atom_site_fract_x
 _atom_site_fract_y
 _atom_site_fract_z
 _atom_site_occupancy
  Li  Li0  1  0.977898  0.604030  0.216385  1
  Li  Li1  1  0.510669  0.052975  0.189463  1
  Li  Li2  1  0.489930  0.938937  0.807111  1
  V  V3  1  0.988987  0.990031  0.501766  1
  V  V4  1  0.512373  0.512140  0.497364  1
  V  V5  1  0.502436  0.498006  0.994319  1
  V  V6  1  0.003063  0.005961  0.998047  1
  O  O7  1  0.805851  0.697165  0.440636  1
  O  O8  1  0.703604  0.801226  0.053873  1
  O  O9  1  0.325022  0.183993  0.962697  1
  F  F10  1  0.850648  0.020824  0.750953  1
  F  F11  1  0.818432  0.312348  0.087516  1
  F  F12  1  0.686404  0.188167  0.420814  1
  F  F13  1  0.615857  0.496862  0.745435  1
  F  F14  1  0.357554  0.509978  0.250875  1
  F  F15  1  0.315174  0.824648  0.579738  1
  F  F16  1  0.194882  0.305193  0.547219  1
  F  F17  1  0.196556  0.699423  0.924853  1
  F  F18  1  0.143141  0.968818  0.252112  1
