# generated using pymatgen
data_Ti10O13
_symmetry_space_group_name_H-M   'P 1'
_cell_length_a   5.10064858
_cell_length_b   5.10064858
_cell_length_c   12.13834595
_cell_angle_alpha   86.14805156
_cell_angle_beta   93.85194844
_cell_angle_gamma   131.69784141
_symmetry_Int_Tables_number   1
_chemical_formula_structural   Ti10O13
_chemical_formula_sum   'Ti10 O13'
_cell_volume   235.15536041
_cell_formula_units_Z   1
loop_
 _symmetry_equiv_pos_site_id
 _symmetry_equiv_pos_as_xyz
  1  'x, y, z'
loop_
 _atom_site_type_symbol
 _atom_site_label
 _atom_site_symmetry_multiplicity
 _atom_site_fract_x
 _atom_site_fract_y
 _atom_site_fract_z
 _atom_site_occupancy
  Ti  Ti0  1  0.832646  0.167354  0.459759  1
  Ti  Ti1  1  0.549172  0.450828  0.374530  1
  Ti  Ti2  1  0.450828  0.549172  0.625470  1
  Ti  Ti3  1  0.167354  0.832646  0.540241  1
  Ti  Ti4  1  0.384685  0.615315  0.845583  1
  Ti  Ti5  1  0.068872  0.931128  0.768081  1
  Ti  Ti6  1  0.306418  0.693582  0.072232  1
  Ti  Ti7  1  0.693582  0.306418  0.927768  1
  Ti  Ti8  1  0.931128  0.068872  0.231919  1
  Ti  Ti9  1  0.615315  0.384685  0.154417  1
  O  O10  1  0.037504  0.962496  0.389318  1
  O  O11  1  0.736378  0.263622  0.303847  1
  O  O12  1  0.357751  0.642249  0.460427  1
  O  O13  1  0.962496  0.037504  0.610682  1
  O  O14  1  0.642249  0.357751  0.539573  1
  O  O15  1  0.263622  0.736378  0.696153  1
  O  O16  1  0.882353  0.117647  0.847522  1
  O  O17  1  0.581866  0.418134  0.772849  1
  O  O18  1  0.812955  0.187045  0.079070  1
  O  O19  1  0.500000  0.500000  0.000000  1
  O  O20  1  0.187045  0.812955  0.920930  1
  O  O21  1  0.418134  0.581866  0.227151  1
  O  O22  1  0.117647  0.882353  0.152478  1
