# generated using pymatgen
data_LiV2P4(HO8)2
_symmetry_space_group_name_H-M   'P 1'
_cell_length_a   7.35544090
_cell_length_b   9.26217791
_cell_length_c   12.55235652
_cell_angle_alpha   97.05400090
_cell_angle_beta   101.07723912
_cell_angle_gamma   97.67112853
_symmetry_Int_Tables_number   1
_chemical_formula_structural   LiV2P4(HO8)2
_chemical_formula_sum   'Li3 V6 P12 H6 O48'
_cell_volume   821.97075722
_cell_formula_units_Z   3
loop_
 _symmetry_equiv_pos_site_id
 _symmetry_equiv_pos_as_xyz
  1  'x, y, z'
loop_
 _atom_site_type_symbol
 _atom_site_label
 _atom_site_symmetry_multiplicity
 _atom_site_fract_x
 _atom_site_fract_y
 _atom_site_fract_z
 _atom_site_occupancy
  Li  Li0  1  0.153058  0.955418  0.826211  1
  Li  Li1  1  0.647845  0.609742  0.241043  1
  Li  Li2  1  0.350732  0.051752  0.423150  1
  V  V3  1  0.997879  0.499525  0.999781  1
  V  V4  1  0.503331  0.666569  0.666509  1
  V  V5  1  0.511045  0.002926  0.004242  1
  V  V6  1  0.997675  0.833400  0.333427  1
  V  V7  1  0.990570  0.175132  0.666179  1
  V  V8  1  0.501521  0.332347  0.333289  1
  P  P9  1  0.765850  0.976497  0.825016  1
  P  P10  1  0.238391  0.688035  0.842767  1
  P  P11  1  0.265987  0.939564  0.597083  1
  P  P12  1  0.264972  0.274758  0.924086  1
  P  P13  1  0.724332  0.390081  0.743184  1
  P  P14  1  0.770474  0.637461  0.494295  1
  P  P15  1  0.231645  0.356729  0.509003  1
  P  P16  1  0.259879  0.606086  0.258002  1
  P  P17  1  0.731543  0.721850  0.071122  1
  P  P18  1  0.733253  0.057120  0.408891  1
  P  P19  1  0.776446  0.310496  0.161869  1
  P  P20  1  0.236140  0.025081  0.174643  1
  H  H21  1  0.489195  0.485615  0.991459  1
  H  H22  1  0.007662  0.670261  0.677209  1
  H  H23  1  0.492711  0.151919  0.661490  1
  H  H24  1  0.487232  0.817348  0.324805  1
  H  H25  1  0.010025  0.339185  0.345424  1
  H  H26  1  0.012547  0.007037  0.017463  1
  O  O27  1  0.343638  0.843513  0.898479  1
  O  O28  1  0.180708  0.597448  0.929622  1
  O  O29  1  0.946433  0.955665  0.898292  1
  O  O30  1  0.864628  0.661093  0.998370  1
  O  O31  1  0.060034  0.716740  0.766046  1
  O  O32  1  0.650084  0.824248  0.764122  1
  O  O33  1  0.446214  0.382502  0.935030  1
  O  O34  1  0.366483  0.610036  0.778156  1
  O  O35  1  0.323013  0.790652  0.624042  1
  O  O36  1  0.308752  0.123055  0.948357  1
  O  O37  1  0.159550  0.921186  0.476592  1
  O  O38  1  0.145459  0.249634  0.803581  1
  O  O39  1  0.847832  0.418475  0.860966  1
  O  O40  1  0.679071  0.540843  0.712134  1
  O  O41  1  0.634495  0.715331  0.556936  1
  O  O42  1  0.635445  0.056129  0.884585  1
  O  O43  1  0.550145  0.279257  0.728643  1
  O  O44  1  0.554582  0.948140  0.397572  1
  O  O45  1  0.350634  0.505851  0.568052  1
  O  O46  1  0.189408  0.946243  0.270523  1
  O  O47  1  0.173170  0.268857  0.599096  1
  O  O48  1  0.947871  0.623575  0.572836  1
  O  O49  1  0.864376  0.994215  0.337278  1
  O  O50  1  0.858487  0.332903  0.667449  1
  O  O51  1  0.137530  0.671813  0.332668  1
  O  O52  1  0.143981  0.997520  0.675191  1
  O  O53  1  0.053648  0.381920  0.433428  1
  O  O54  1  0.820914  0.064882  0.733126  1
  O  O55  1  0.808317  0.720464  0.398646  1
  O  O56  1  0.650620  0.486408  0.435997  1
  O  O57  1  0.444690  0.716000  0.268677  1
  O  O58  1  0.446109  0.050068  0.602449  1
  O  O59  1  0.355370  0.268278  0.447290  1
  O  O60  1  0.362970  0.944356  0.112648  1
  O  O61  1  0.315930  0.461996  0.288408  1
  O  O62  1  0.149148  0.584075  0.137320  1
  O  O63  1  0.852094  0.084976  0.529969  1
  O  O64  1  0.841380  0.743252  0.192770  1
  O  O65  1  0.687143  0.869413  0.038961  1
  O  O66  1  0.687063  0.204724  0.378250  1
  O  O67  1  0.644230  0.395798  0.220016  1
  O  O68  1  0.556704  0.610110  0.063721  1
  O  O69  1  0.350382  0.178547  0.231836  1
  O  O70  1  0.951432  0.289550  0.238125  1
  O  O71  1  0.136259  0.335744  0.997898  1
  O  O72  1  0.050625  0.044503  0.101099  1
  O  O73  1  0.827833  0.397524  0.068790  1
  O  O74  1  0.654013  0.160981  0.101233  1
