# generated using pymatgen
data_Li2AgF5
_symmetry_space_group_name_H-M   'P 1'
_cell_length_a   3.65803999
_cell_length_b   5.01333251
_cell_length_c   5.96144168
_cell_angle_alpha   87.28669763
_cell_angle_beta   84.36885298
_cell_angle_gamma   79.39754505
_symmetry_Int_Tables_number   1
_chemical_formula_structural   Li2AgF5
_chemical_formula_sum   'Li2 Ag1 F5'
_cell_volume   106.89370658
_cell_formula_units_Z   1
loop_
 _symmetry_equiv_pos_site_id
 _symmetry_equiv_pos_as_xyz
  1  'x, y, z'
loop_
 _atom_site_type_symbol
 _atom_site_label
 _atom_site_symmetry_multiplicity
 _atom_site_fract_x
 _atom_site_fract_y
 _atom_site_fract_z
 _atom_site_occupancy
  Li  Li0  1  0.364950  0.211564  0.433473  1
  Li  Li1  1  0.830167  0.633087  0.588969  1
  Ag  Ag2  1  0.925257  0.036735  0.006404  1
  F  F3  1  0.002979  0.166403  0.690550  1
  F  F4  1  0.204934  0.293562  0.120631  1
  F  F5  1  0.364629  0.556348  0.524806  1
  F  F6  1  0.648466  0.775334  0.894496  1
  F  F7  1  0.788618  0.941666  0.326019  1
