# generated using pymatgen
data_NaZrPCO7
_symmetry_space_group_name_H-M   'P 1'
_cell_length_a   5.79375506
_cell_length_b   6.68371084
_cell_length_c   9.35326101
_cell_angle_alpha   90.00000000
_cell_angle_beta   92.40802652
_cell_angle_gamma   90.00000000
_symmetry_Int_Tables_number   1
_chemical_formula_structural   NaZrPCO7
_chemical_formula_sum   'Na2 Zr2 P2 C2 O14'
_cell_volume   361.87382069
_cell_formula_units_Z   2
loop_
 _symmetry_equiv_pos_site_id
 _symmetry_equiv_pos_as_xyz
  1  'x, y, z'
loop_
 _atom_site_type_symbol
 _atom_site_label
 _atom_site_symmetry_multiplicity
 _atom_site_fract_x
 _atom_site_fract_y
 _atom_site_fract_z
 _atom_site_occupancy
  Na  Na0  1  0.770300  0.484149  0.187071  1
  Na  Na1  1  0.229700  0.984149  0.812929  1
  Zr  Zr2  1  0.209622  0.235041  0.347011  1
  Zr  Zr3  1  0.790378  0.735041  0.652989  1
  P  P4  1  0.270692  0.740782  0.450102  1
  P  P5  1  0.729308  0.240782  0.549898  1
  C  C6  1  0.278385  0.269828  0.074900  1
  C  C7  1  0.721615  0.769828  0.925100  1
  O  O8  1  0.686370  0.759191  0.053541  1
  O  O9  1  0.069423  0.262727  0.131962  1
  O  O10  1  0.444600  0.281965  0.179459  1
  O  O11  1  0.216661  0.925504  0.354977  1
  O  O12  1  0.192971  0.552188  0.367533  1
  O  O13  1  0.863111  0.258434  0.409638  1
  O  O14  1  0.533334  0.732341  0.489496  1
  O  O15  1  0.466666  0.232341  0.510504  1
  O  O16  1  0.136889  0.758434  0.590362  1
  O  O17  1  0.807029  0.052188  0.632467  1
  O  O18  1  0.783339  0.425504  0.645023  1
  O  O19  1  0.555400  0.781965  0.820541  1
  O  O20  1  0.930577  0.762727  0.868038  1
  O  O21  1  0.313630  0.259191  0.946459  1
