# generated using pymatgen
data_Rb3SbO3
_symmetry_space_group_name_H-M   'P 1'
_cell_length_a   6.91650466
_cell_length_b   6.91650466
_cell_length_c   7.82823487
_cell_angle_alpha   85.80007633
_cell_angle_beta   94.19992367
_cell_angle_gamma   72.07547850
_symmetry_Int_Tables_number   1
_chemical_formula_structural   Rb3SbO3
_chemical_formula_sum   'Rb6 Sb2 O6'
_cell_volume   353.53923287
_cell_formula_units_Z   2
loop_
 _symmetry_equiv_pos_site_id
 _symmetry_equiv_pos_as_xyz
  1  'x, y, z'
loop_
 _atom_site_type_symbol
 _atom_site_label
 _atom_site_symmetry_multiplicity
 _atom_site_fract_x
 _atom_site_fract_y
 _atom_site_fract_z
 _atom_site_occupancy
  Rb  Rb0  1  0.677342  0.322658  0.653356  1
  Rb  Rb1  1  0.806337  0.806337  0.500000  1
  Rb  Rb2  1  0.193663  0.193663  0.500000  1
  Rb  Rb3  1  0.221454  0.221454  0.000000  1
  Rb  Rb4  1  0.778546  0.778546  0.000000  1
  Rb  Rb5  1  0.322658  0.677342  0.346644  1
  Sb  Sb6  1  0.737861  0.262139  0.171633  1
  Sb  Sb7  1  0.262139  0.737861  0.828367  1
  O  O8  1  0.021566  0.978434  0.754873  1
  O  O9  1  0.524965  0.202033  0.300751  1
  O  O10  1  0.797967  0.475035  0.300751  1
  O  O11  1  0.202033  0.524965  0.699249  1
  O  O12  1  0.475035  0.797967  0.699249  1
  O  O13  1  0.978434  0.021566  0.245127  1
