# generated using pymatgen
data_Li3FeSiBO7
_symmetry_space_group_name_H-M   'P 1'
_cell_length_a   5.06565940
_cell_length_b   6.36767696
_cell_length_c   8.44345515
_cell_angle_alpha   90.00000000
_cell_angle_beta   94.51180979
_cell_angle_gamma   90.00000000
_symmetry_Int_Tables_number   1
_chemical_formula_structural   Li3FeSiBO7
_chemical_formula_sum   'Li6 Fe2 Si2 B2 O14'
_cell_volume   271.51217114
_cell_formula_units_Z   2
loop_
 _symmetry_equiv_pos_site_id
 _symmetry_equiv_pos_as_xyz
  1  'x, y, z'
loop_
 _atom_site_type_symbol
 _atom_site_label
 _atom_site_symmetry_multiplicity
 _atom_site_fract_x
 _atom_site_fract_y
 _atom_site_fract_z
 _atom_site_occupancy
  Li  Li0  1  0.247444  0.750000  0.107321  1
  Li  Li1  1  0.755801  0.004114  0.241266  1
  Li  Li2  1  0.755801  0.495886  0.241266  1
  Li  Li3  1  0.244199  0.504114  0.758734  1
  Li  Li4  1  0.244199  0.995886  0.758734  1
  Li  Li5  1  0.752556  0.250000  0.892679  1
  Fe  Fe6  1  0.202199  0.250000  0.330427  1
  Fe  Fe7  1  0.797801  0.750000  0.669573  1
  Si  Si8  1  0.274549  0.750000  0.424978  1
  Si  Si9  1  0.725451  0.250000  0.575022  1
  B  B10  1  0.265885  0.250000  0.039070  1
  B  B11  1  0.734115  0.750000  0.960930  1
  O  O12  1  0.648172  0.750000  0.108905  1
  O  O13  1  0.009409  0.250000  0.081318  1
  O  O14  1  0.459044  0.250000  0.169884  1
  O  O15  1  0.174179  0.943592  0.305488  1
  O  O16  1  0.174179  0.556408  0.305488  1
  O  O17  1  0.596814  0.750000  0.463978  1
  O  O18  1  0.851862  0.250000  0.402209  1
  O  O19  1  0.148138  0.750000  0.597791  1
  O  O20  1  0.403186  0.250000  0.536022  1
  O  O21  1  0.825821  0.443592  0.694512  1
  O  O22  1  0.825821  0.056408  0.694512  1
  O  O23  1  0.540956  0.750000  0.830116  1
  O  O24  1  0.990591  0.750000  0.918682  1
  O  O25  1  0.351828  0.250000  0.891095  1
