# generated using pymatgen
data_LiFePO4
_symmetry_space_group_name_H-M   'P 1'
_cell_length_a   5.77552055
_cell_length_b   10.93028051
_cell_length_c   9.94085887
_cell_angle_alpha   90.00000000
_cell_angle_beta   91.34375895
_cell_angle_gamma   90.00000000
_symmetry_Int_Tables_number   1
_chemical_formula_structural   LiFePO4
_chemical_formula_sum   'Li8 Fe8 P8 O32'
_cell_volume   627.37455074
_cell_formula_units_Z   8
loop_
 _symmetry_equiv_pos_site_id
 _symmetry_equiv_pos_as_xyz
  1  'x, y, z'
loop_
 _atom_site_type_symbol
 _atom_site_label
 _atom_site_symmetry_multiplicity
 _atom_site_fract_x
 _atom_site_fract_y
 _atom_site_fract_z
 _atom_site_occupancy
  Li  Li0  1  0.119847  0.854828  0.887074  1
  Li  Li1  1  0.119847  0.645172  0.387074  1
  Li  Li2  1  0.388827  0.341130  0.641190  1
  Li  Li3  1  0.388827  0.158870  0.141190  1
  Li  Li4  1  0.611173  0.841130  0.858810  1
  Li  Li5  1  0.611173  0.658870  0.358810  1
  Li  Li6  1  0.880153  0.354828  0.612926  1
  Li  Li7  1  0.880153  0.145172  0.112926  1
  Fe  Fe8  1  0.118832  0.096436  0.731052  1
  Fe  Fe9  1  0.118832  0.403564  0.231052  1
  Fe  Fe10  1  0.342440  0.625383  0.986451  1
  Fe  Fe11  1  0.342440  0.874617  0.486451  1
  Fe  Fe12  1  0.657560  0.125383  0.513549  1
  Fe  Fe13  1  0.657560  0.374617  0.013549  1
  Fe  Fe14  1  0.881168  0.596436  0.768948  1
  Fe  Fe15  1  0.881168  0.903564  0.268948  1
  P  P16  1  0.131261  0.355369  0.908951  1
  P  P17  1  0.131261  0.144631  0.408951  1
  P  P18  1  0.374524  0.606057  0.658599  1
  P  P19  1  0.374524  0.893943  0.158599  1
  P  P20  1  0.625476  0.106057  0.841401  1
  P  P21  1  0.625476  0.393943  0.341401  1
  P  P22  1  0.868739  0.855369  0.591049  1
  P  P23  1  0.868739  0.644631  0.091049  1
  O  O24  1  0.086722  0.212428  0.544118  1
  O  O25  1  0.094237  0.930543  0.623656  1
  O  O26  1  0.086722  0.287572  0.044118  1
  O  O27  1  0.094237  0.569457  0.123656  1
  O  O28  1  0.174992  0.271105  0.790034  1
  O  O29  1  0.155295  0.522858  0.649519  1
  O  O30  1  0.174992  0.228895  0.290034  1
  O  O31  1  0.155295  0.977142  0.149519  1
  O  O32  1  0.344311  0.439873  0.927797  1
  O  O33  1  0.362526  0.689948  0.787395  1
  O  O34  1  0.344311  0.060127  0.427797  1
  O  O35  1  0.383818  0.686390  0.529005  1
  O  O36  1  0.406579  0.022832  0.831492  1
  O  O37  1  0.362526  0.810052  0.287395  1
  O  O38  1  0.383818  0.813610  0.029005  1
  O  O39  1  0.406579  0.477168  0.331492  1
  O  O40  1  0.593421  0.522832  0.668508  1
  O  O41  1  0.616182  0.186390  0.970995  1
  O  O42  1  0.637474  0.189948  0.712605  1
  O  O43  1  0.593421  0.977168  0.168508  1
  O  O44  1  0.616182  0.313610  0.470995  1
  O  O45  1  0.655689  0.939873  0.572203  1
  O  O46  1  0.637474  0.310052  0.212605  1
  O  O47  1  0.655689  0.560127  0.072203  1
  O  O48  1  0.844705  0.022858  0.850481  1
  O  O49  1  0.825008  0.771105  0.709966  1
  O  O50  1  0.844705  0.477142  0.350481  1
  O  O51  1  0.825008  0.728895  0.209966  1
  O  O52  1  0.905763  0.430543  0.876344  1
  O  O53  1  0.913278  0.712428  0.955882  1
  O  O54  1  0.905763  0.069457  0.376344  1
  O  O55  1  0.913278  0.787572  0.455882  1
