# generated using pymatgen
data_Li3V4(OF3)3
_symmetry_space_group_name_H-M   'P 1'
_cell_length_a   5.20369634
_cell_length_b   5.53089142
_cell_length_c   17.24355965
_cell_angle_alpha   88.75451087
_cell_angle_beta   97.03651580
_cell_angle_gamma   117.46851160
_symmetry_Int_Tables_number   1
_chemical_formula_structural   Li3V4(OF3)3
_chemical_formula_sum   'Li6 V8 O6 F18'
_cell_volume   436.68163450
_cell_formula_units_Z   2
loop_
 _symmetry_equiv_pos_site_id
 _symmetry_equiv_pos_as_xyz
  1  'x, y, z'
loop_
 _atom_site_type_symbol
 _atom_site_label
 _atom_site_symmetry_multiplicity
 _atom_site_fract_x
 _atom_site_fract_y
 _atom_site_fract_z
 _atom_site_occupancy
  Li  Li0  1  0.825562  0.340461  0.298612  1
  Li  Li1  1  0.705740  0.419448  0.958497  1
  Li  Li2  1  0.816196  0.862434  0.797870  1
  Li  Li3  1  0.658496  0.912495  0.453592  1
  Li  Li4  1  0.430824  0.820237  0.064595  1
  Li  Li5  1  0.056439  0.448809  0.672989  1
  V  V6  1  0.005052  0.013705  0.002647  1
  V  V7  1  0.001795  0.505865  0.499154  1
  V  V8  1  0.762467  0.374699  0.127840  1
  V  V9  1  0.506800  0.244672  0.747655  1
  V  V10  1  0.510493  0.715962  0.248585  1
  V  V11  1  0.244439  0.084474  0.378515  1
  V  V12  1  0.744850  0.913351  0.622649  1
  V  V13  1  0.242247  0.642851  0.881292  1
  O  O14  1  0.801792  0.199221  0.033466  1
  O  O15  1  0.789626  0.200038  0.559697  1
  O  O16  1  0.701835  0.058742  0.719686  1
  O  O17  1  0.694084  0.526654  0.215929  1
  O  O18  1  0.240250  0.804670  0.438481  1
  O  O19  1  0.157995  0.778479  0.965855  1
  F  F20  1  0.754579  0.061541  0.196706  1
  F  F21  1  0.719869  0.668159  0.054771  1
  F  F22  1  0.695923  0.316715  0.401200  1
  F  F23  1  0.792903  0.416048  0.848295  1
  F  F24  1  0.783222  0.709487  0.530742  1
  F  F25  1  0.795823  0.889283  0.349972  1
  F  F26  1  0.321176  0.126472  0.094022  1
  F  F27  1  0.772022  0.592206  0.694233  1
  F  F28  1  0.232280  0.410050  0.308976  1
  F  F29  1  0.693138  0.860188  0.901074  1
  F  F30  1  0.189295  0.284667  0.462331  1
  F  F31  1  0.192487  0.133422  0.660231  1
  F  F32  1  0.203013  0.598126  0.148315  1
  F  F33  1  0.326077  0.495659  0.780993  1
  F  F34  1  0.332992  0.955805  0.282644  1
  F  F35  1  0.299110  0.672965  0.598651  1
  F  F36  1  0.277291  0.332655  0.936489  1
  F  F37  1  0.223820  0.934759  0.810698  1
