# generated using pymatgen
data_Na7Mn16O32
_symmetry_space_group_name_H-M   'P 1'
_cell_length_a   8.66340636
_cell_length_b   8.78762897
_cell_length_c   10.48333157
_cell_angle_alpha   114.38141980
_cell_angle_beta   114.19856234
_cell_angle_gamma   89.76087695
_symmetry_Int_Tables_number   1
_chemical_formula_structural   Na7Mn16O32
_chemical_formula_sum   'Na7 Mn16 O32'
_cell_volume   649.83812014
_cell_formula_units_Z   1
loop_
 _symmetry_equiv_pos_site_id
 _symmetry_equiv_pos_as_xyz
  1  'x, y, z'
loop_
 _atom_site_type_symbol
 _atom_site_label
 _atom_site_symmetry_multiplicity
 _atom_site_fract_x
 _atom_site_fract_y
 _atom_site_fract_z
 _atom_site_occupancy
  Na  Na0  1  0.440255  0.693400  0.131305  1
  Na  Na1  1  0.807409  0.061264  0.369009  1
  Na  Na2  1  0.311985  0.557916  0.373698  1
  Na  Na3  1  0.695678  0.435255  0.626192  1
  Na  Na4  1  0.190991  0.938609  0.625591  1
  Na  Na5  1  0.062065  0.815025  0.880084  1
  Na  Na6  1  0.559219  0.313632  0.872233  1
  Mn  Mn7  1  0.503816  0.001622  0.998435  1
  Mn  Mn8  1  0.753141  0.747595  0.999233  1
  Mn  Mn9  1  0.250277  0.258885  0.005445  1
  Mn  Mn10  1  0.002606  0.494481  0.009278  1
  Mn  Mn11  1  0.626426  0.372447  0.245877  1
  Mn  Mn12  1  0.370435  0.135452  0.250336  1
  Mn  Mn13  1  0.122327  0.882137  0.250036  1
  Mn  Mn14  1  0.871275  0.616887  0.247426  1
  Mn  Mn15  1  0.497843  0.008804  0.504726  1
  Mn  Mn16  1  0.994235  0.487646  0.490422  1
  Mn  Mn17  1  0.751993  0.746933  0.503933  1
  Mn  Mn18  1  0.244144  0.257854  0.488229  1
  Mn  Mn19  1  0.377622  0.620462  0.749311  1
  Mn  Mn20  1  0.872804  0.130650  0.756031  1
  Mn  Mn21  1  0.631844  0.871149  0.752563  1
  Mn  Mn22  1  0.123478  0.375568  0.749786  1
  O  O23  1  0.778564  0.527180  0.017306  1
  O  O24  1  0.277556  0.038743  0.017002  1
  O  O25  1  0.482637  0.265060  0.023583  1
  O  O26  1  0.995371  0.733250  0.025108  1
  O  O27  1  0.879164  0.834145  0.232128  1
  O  O28  1  0.390920  0.348536  0.235005  1
  O  O29  1  0.593753  0.139445  0.225952  1
  O  O30  1  0.083439  0.616398  0.232792  1
  O  O31  1  0.157892  0.144210  0.264939  1
  O  O32  1  0.364729  0.922332  0.265754  1
  O  O33  1  0.652927  0.606890  0.268636  1
  O  O34  1  0.858970  0.398387  0.255513  1
  O  O35  1  0.969926  0.710251  0.478170  1
  O  O36  1  0.459556  0.245695  0.474691  1
  O  O37  1  0.764117  0.476169  0.467053  1
  O  O38  1  0.252239  0.025488  0.476541  1
  O  O39  1  0.023479  0.270756  0.489525  1
  O  O40  1  0.733354  0.016323  0.528892  1
  O  O41  1  0.233748  0.493997  0.517199  1
  O  O42  1  0.539434  0.761235  0.525835  1
  O  O43  1  0.847400  0.891455  0.734720  1
  O  O44  1  0.340405  0.384406  0.721976  1
  O  O45  1  0.101765  0.579848  0.714931  1
  O  O46  1  0.606845  0.077459  0.730181  1
  O  O47  1  0.142038  0.171699  0.783299  1
  O  O48  1  0.649793  0.664160  0.778254  1
  O  O49  1  0.910258  0.370764  0.782520  1
  O  O50  1  0.411339  0.856331  0.769278  1
  O  O51  1  0.730033  0.964346  0.986755  1
  O  O52  1  0.012260  0.261301  0.987696  1
  O  O53  1  0.224871  0.481444  0.015510  1
  O  O54  1  0.522692  0.735465  0.977365  1
