# generated using pymatgen
data_Li6Ti15Co3O32
_symmetry_space_group_name_H-M   'P 1'
_cell_length_a   8.46950805
_cell_length_b   8.46950805
_cell_length_c   8.46950805
_cell_angle_alpha   89.87207341
_cell_angle_beta   89.87207341
_cell_angle_gamma   89.87207341
_symmetry_Int_Tables_number   1
_chemical_formula_structural   Li6Ti15Co3O32
_chemical_formula_sum   'Li6 Ti15 Co3 O32'
_cell_volume   607.53501470
_cell_formula_units_Z   1
loop_
 _symmetry_equiv_pos_site_id
 _symmetry_equiv_pos_as_xyz
  1  'x, y, z'
loop_
 _atom_site_type_symbol
 _atom_site_label
 _atom_site_symmetry_multiplicity
 _atom_site_fract_x
 _atom_site_fract_y
 _atom_site_fract_z
 _atom_site_occupancy
  Li  Li0  1  0.748603  0.748603  0.748603  1
  Li  Li1  1  0.250813  0.751522  0.250813  1
  Li  Li2  1  0.000998  0.000998  0.000998  1
  Li  Li3  1  0.250813  0.250813  0.751522  1
  Li  Li4  1  0.751522  0.250813  0.250813  1
  Li  Li5  1  0.375183  0.375183  0.375183  1
  Ti  Ti6  1  0.373947  0.617474  0.617474  1
  Ti  Ti7  1  0.617474  0.617474  0.373947  1
  Ti  Ti8  1  0.122429  0.625702  0.877669  1
  Ti  Ti9  1  0.877669  0.625702  0.122429  1
  Ti  Ti10  1  0.373297  0.877853  0.877853  1
  Ti  Ti11  1  0.625702  0.877669  0.122429  1
  Ti  Ti12  1  0.122429  0.877669  0.625702  1
  Ti  Ti13  1  0.877853  0.877853  0.373297  1
  Ti  Ti14  1  0.625702  0.122429  0.877669  1
  Ti  Ti15  1  0.374556  0.127988  0.127988  1
  Ti  Ti16  1  0.877669  0.122429  0.625702  1
  Ti  Ti17  1  0.127988  0.127988  0.374556  1
  Ti  Ti18  1  0.617474  0.373947  0.617474  1
  Ti  Ti19  1  0.877853  0.373297  0.877853  1
  Ti  Ti20  1  0.127988  0.374556  0.127988  1
  Co  Co21  1  0.999282  0.498783  0.498783  1
  Co  Co22  1  0.498783  0.999282  0.498783  1
  Co  Co23  1  0.498783  0.498783  0.999282  1
  O  O24  1  0.113382  0.613511  0.113382  1
  O  O25  1  0.612302  0.612302  0.612302  1
  O  O26  1  0.886390  0.613371  0.886390  1
  O  O27  1  0.633649  0.633649  0.134935  1
  O  O28  1  0.390674  0.626067  0.390674  1
  O  O29  1  0.134935  0.633649  0.633649  1
  O  O30  1  0.862192  0.638050  0.364286  1
  O  O31  1  0.364286  0.638050  0.862192  1
  O  O32  1  0.861839  0.861839  0.137357  1
  O  O33  1  0.364286  0.862192  0.638050  1
  O  O34  1  0.638050  0.862192  0.364286  1
  O  O35  1  0.886390  0.886390  0.613371  1
  O  O36  1  0.137357  0.861839  0.861839  1
  O  O37  1  0.386539  0.887768  0.111375  1
  O  O38  1  0.111375  0.887768  0.386539  1
  O  O39  1  0.613371  0.886390  0.886390  1
  O  O40  1  0.887768  0.111375  0.386539  1
  O  O41  1  0.386539  0.111375  0.887768  1
  O  O42  1  0.113382  0.113382  0.613511  1
  O  O43  1  0.360587  0.124071  0.360587  1
  O  O44  1  0.613511  0.113382  0.113382  1
  O  O45  1  0.861839  0.137357  0.861839  1
  O  O46  1  0.137532  0.137532  0.137532  1
  O  O47  1  0.633649  0.134935  0.633649  1
  O  O48  1  0.124071  0.360587  0.360587  1
  O  O49  1  0.638050  0.364286  0.862192  1
  O  O50  1  0.360587  0.360587  0.124071  1
  O  O51  1  0.111375  0.386539  0.887768  1
  O  O52  1  0.862192  0.364286  0.638050  1
  O  O53  1  0.626067  0.390674  0.390674  1
  O  O54  1  0.887768  0.386539  0.111375  1
  O  O55  1  0.390674  0.390674  0.626067  1
