# generated using pymatgen
data_Li4Nb3V5O16
_symmetry_space_group_name_H-M   'P 1'
_cell_length_a   6.06270721
_cell_length_b   6.06270721
_cell_length_c   9.85537934
_cell_angle_alpha   88.83459681
_cell_angle_beta   91.16540319
_cell_angle_gamma   120.08547931
_symmetry_Int_Tables_number   1
_chemical_formula_structural   Li4Nb3V5O16
_chemical_formula_sum   'Li4 Nb3 V5 O16'
_cell_volume   313.35941445
_cell_formula_units_Z   1
loop_
 _symmetry_equiv_pos_site_id
 _symmetry_equiv_pos_as_xyz
  1  'x, y, z'
loop_
 _atom_site_type_symbol
 _atom_site_label
 _atom_site_symmetry_multiplicity
 _atom_site_fract_x
 _atom_site_fract_y
 _atom_site_fract_z
 _atom_site_occupancy
  Li  Li0  1  0.666540  0.333460  0.101708  1
  Li  Li1  1  0.008468  0.991532  0.005391  1
  Li  Li2  1  0.009128  0.990872  0.505407  1
  Li  Li3  1  0.334611  0.665389  0.613265  1
  Nb  Nb4  1  0.830545  0.169455  0.785095  1
  Nb  Nb5  1  0.649009  0.826943  0.286190  1
  Nb  Nb6  1  0.173057  0.350991  0.286190  1
  V  V7  1  0.828460  0.658676  0.786629  1
  V  V8  1  0.660658  0.339342  0.514495  1
  V  V9  1  0.341324  0.171540  0.786629  1
  V  V10  1  0.172767  0.827233  0.289046  1
  V  V11  1  0.329214  0.670786  0.006335  1
  O  O12  1  0.823443  0.668227  0.400520  1
  O  O13  1  0.518436  0.481564  0.665915  1
  O  O14  1  0.673400  0.326600  0.899584  1
  O  O15  1  0.996865  0.003135  0.687454  1
  O  O16  1  0.997473  0.002527  0.189217  1
  O  O17  1  0.331773  0.176557  0.400520  1
  O  O18  1  0.958964  0.477655  0.658940  1
  O  O19  1  0.522345  0.041036  0.658940  1
  O  O20  1  0.163806  0.836194  0.897184  1
  O  O21  1  0.836371  0.163629  0.398665  1
  O  O22  1  0.489013  0.962775  0.155658  1
  O  O23  1  0.037225  0.510987  0.155658  1
  O  O24  1  0.335894  0.664106  0.413086  1
  O  O25  1  0.672078  0.841406  0.897079  1
  O  O26  1  0.481799  0.518201  0.150268  1
  O  O27  1  0.158594  0.327922  0.897079  1
