# generated using pymatgen
data_CuH16(IO8)2
_symmetry_space_group_name_H-M   'P 1'
_cell_length_a   10.63753707
_cell_length_b   5.60239959
_cell_length_c   11.73796425
_cell_angle_alpha   90.00000000
_cell_angle_beta   111.71972466
_cell_angle_gamma   90.00000000
_symmetry_Int_Tables_number   1
_chemical_formula_structural   CuH16(IO8)2
_chemical_formula_sum   'Cu2 H32 I4 O32'
_cell_volume   649.86943045
_cell_formula_units_Z   2
loop_
 _symmetry_equiv_pos_site_id
 _symmetry_equiv_pos_as_xyz
  1  'x, y, z'
loop_
 _atom_site_type_symbol
 _atom_site_label
 _atom_site_symmetry_multiplicity
 _atom_site_fract_x
 _atom_site_fract_y
 _atom_site_fract_z
 _atom_site_occupancy
  Cu  Cu0  1  0.000000  0.500000  0.500000  1
  Cu  Cu1  1  0.000000  0.000000  0.000000  1
  H  H2  1  0.486138  0.842619  0.176773  1
  H  H3  1  0.513862  0.342619  0.323227  1
  H  H4  1  0.513862  0.157381  0.823227  1
  H  H5  1  0.486138  0.657381  0.676773  1
  H  H6  1  0.632612  0.083429  0.102475  1
  H  H7  1  0.367388  0.583429  0.397525  1
  H  H8  1  0.367388  0.916571  0.897525  1
  H  H9  1  0.632612  0.416571  0.602475  1
  H  H10  1  0.752465  0.604938  0.392663  1
  H  H11  1  0.247535  0.104938  0.107337  1
  H  H12  1  0.247535  0.395062  0.607337  1
  H  H13  1  0.752465  0.895062  0.892663  1
  H  H14  1  0.807330  0.742759  0.524781  1
  H  H15  1  0.192670  0.242759  0.975219  1
  H  H16  1  0.192670  0.257241  0.475219  1
  H  H17  1  0.807330  0.757241  0.024781  1
  H  H18  1  0.793852  0.209115  0.338480  1
  H  H19  1  0.206148  0.709115  0.161520  1
  H  H20  1  0.206148  0.790885  0.661520  1
  H  H21  1  0.793852  0.290885  0.838480  1
  H  H22  1  0.897082  0.006968  0.400482  1
  H  H23  1  0.102918  0.506968  0.099518  1
  H  H24  1  0.102918  0.993032  0.599518  1
  H  H25  1  0.897082  0.493032  0.900482  1
  H  H26  1  0.948553  0.631467  0.274414  1
  H  H27  1  0.051447  0.131467  0.225586  1
  H  H28  1  0.051447  0.368533  0.725586  1
  H  H29  1  0.948553  0.868533  0.774414  1
  H  H30  1  0.109176  0.656205  0.343839  1
  H  H31  1  0.890824  0.156205  0.156161  1
  H  H32  1  0.890824  0.343795  0.656161  1
  H  H33  1  0.109176  0.843795  0.843839  1
  I  I34  1  0.625512  0.520657  0.123325  1
  I  I35  1  0.374488  0.020657  0.376675  1
  I  I36  1  0.374488  0.479343  0.876675  1
  I  I37  1  0.625512  0.979343  0.623325  1
  O  O38  1  0.562522  0.838445  0.145353  1
  O  O39  1  0.437478  0.338445  0.354647  1
  O  O40  1  0.437478  0.161555  0.854647  1
  O  O41  1  0.562522  0.661555  0.645353  1
  O  O42  1  0.688641  0.214802  0.086811  1
  O  O43  1  0.311359  0.714802  0.413189  1
  O  O44  1  0.311359  0.785198  0.913189  1
  O  O45  1  0.688641  0.285198  0.586811  1
  O  O46  1  0.644112  0.425800  0.279145  1
  O  O47  1  0.355888  0.925800  0.220855  1
  O  O48  1  0.355888  0.574200  0.720855  1
  O  O49  1  0.644112  0.074200  0.779145  1
  O  O50  1  0.789049  0.650364  0.144366  1
  O  O51  1  0.210951  0.150364  0.355634  1
  O  O52  1  0.210951  0.349636  0.855634  1
  O  O53  1  0.789049  0.849636  0.644366  1
  O  O54  1  0.436284  0.400393  0.057869  1
  O  O55  1  0.563716  0.900393  0.442131  1
  O  O56  1  0.563716  0.599607  0.942131  1
  O  O57  1  0.436284  0.099607  0.557869  1
  O  O58  1  0.831634  0.690439  0.452760  1
  O  O59  1  0.168366  0.190439  0.047240  1
  O  O60  1  0.168366  0.309561  0.547240  1
  O  O61  1  0.831634  0.809561  0.952760  1
  O  O62  1  0.890923  0.171921  0.370479  1
  O  O63  1  0.109077  0.671921  0.129521  1
  O  O64  1  0.109077  0.828079  0.629521  1
  O  O65  1  0.890923  0.328079  0.870479  1
  O  O66  1  0.021944  0.664247  0.354825  1
  O  O67  1  0.978056  0.164247  0.145175  1
  O  O68  1  0.978056  0.335753  0.645175  1
  O  O69  1  0.021944  0.835753  0.854825  1
