# generated using pymatgen
data_Na2TlPCO7
_symmetry_space_group_name_H-M   'P 1'
_cell_length_a   5.25850597
_cell_length_b   6.96491372
_cell_length_c   10.59229413
_cell_angle_alpha   90.00000000
_cell_angle_beta   119.78628957
_cell_angle_gamma   90.00000000
_symmetry_Int_Tables_number   1
_chemical_formula_structural   Na2TlPCO7
_chemical_formula_sum   'Na4 Tl2 P2 C2 O14'
_cell_volume   336.68983225
_cell_formula_units_Z   2
loop_
 _symmetry_equiv_pos_site_id
 _symmetry_equiv_pos_as_xyz
  1  'x, y, z'
loop_
 _atom_site_type_symbol
 _atom_site_label
 _atom_site_symmetry_multiplicity
 _atom_site_fract_x
 _atom_site_fract_y
 _atom_site_fract_z
 _atom_site_occupancy
  Na  Na0  1  0.010463  0.501562  0.783148  1
  Na  Na1  1  0.010463  0.998438  0.783148  1
  Na  Na2  1  0.989537  0.498438  0.216852  1
  Na  Na3  1  0.989537  0.001562  0.216852  1
  Tl  Tl4  1  0.398301  0.250000  0.631790  1
  Tl  Tl5  1  0.601699  0.750000  0.368210  1
  P  P6  1  0.299581  0.750000  0.583888  1
  P  P7  1  0.700419  0.250000  0.416112  1
  C  C8  1  0.659808  0.250000  0.929920  1
  C  C9  1  0.340192  0.750000  0.070080  1
  O  O10  1  0.229882  0.750000  0.933161  1
  O  O11  1  0.818331  0.250000  0.865880  1
  O  O12  1  0.370479  0.250000  0.841566  1
  O  O13  1  0.485895  0.928453  0.663799  1
  O  O14  1  0.485895  0.571547  0.663799  1
  O  O15  1  0.786291  0.250000  0.580024  1
  O  O16  1  0.002446  0.750000  0.588309  1
  O  O17  1  0.997554  0.250000  0.411691  1
  O  O18  1  0.213709  0.750000  0.419976  1
  O  O19  1  0.514105  0.428453  0.336201  1
  O  O20  1  0.514105  0.071547  0.336201  1
  O  O21  1  0.629521  0.750000  0.158434  1
  O  O22  1  0.181669  0.750000  0.134120  1
  O  O23  1  0.770118  0.250000  0.066839  1
