# generated using pymatgen
data_LiFe2(BO3)2
_symmetry_space_group_name_H-M   'P 1'
_cell_length_a   5.20981968
_cell_length_b   9.08865253
_cell_length_c   10.21663031
_cell_angle_alpha   88.87542459
_cell_angle_beta   89.06481286
_cell_angle_gamma   89.64216724
_symmetry_Int_Tables_number   1
_chemical_formula_structural   LiFe2(BO3)2
_chemical_formula_sum   'Li4 Fe8 B8 O24'
_cell_volume   483.59380704
_cell_formula_units_Z   4
loop_
 _symmetry_equiv_pos_site_id
 _symmetry_equiv_pos_as_xyz
  1  'x, y, z'
loop_
 _atom_site_type_symbol
 _atom_site_label
 _atom_site_symmetry_multiplicity
 _atom_site_fract_x
 _atom_site_fract_y
 _atom_site_fract_z
 _atom_site_occupancy
  Li  Li0  1  0.147021  0.172936  0.662481  1
  Li  Li1  1  0.185265  0.165445  0.166049  1
  Li  Li2  1  0.327001  0.333205  0.408235  1
  Li  Li3  1  0.334129  0.323576  0.916303  1
  Fe  Fe4  1  0.162662  0.829791  0.631784  1
  Fe  Fe5  1  0.183669  0.508637  0.131671  1
  Fe  Fe6  1  0.316425  0.988016  0.879714  1
  Fe  Fe7  1  0.335550  0.671181  0.374477  1
  Fe  Fe8  1  0.660079  0.349505  0.628269  1
  Fe  Fe9  1  0.670268  0.995840  0.126561  1
  Fe  Fe10  1  0.830070  0.150079  0.386286  1
  Fe  Fe11  1  0.834552  0.504254  0.880201  1
  B  B12  1  0.154722  0.499203  0.622598  1
  B  B13  1  0.161849  0.839246  0.134651  1
  B  B14  1  0.343049  0.998065  0.376511  1
  B  B15  1  0.338715  0.659056  0.871641  1
  B  B16  1  0.668457  0.002590  0.633012  1
  B  B17  1  0.678551  0.323451  0.119984  1
  B  B18  1  0.827879  0.496002  0.374954  1
  B  B19  1  0.821489  0.174691  0.881196  1
  O  O20  1  0.096109  0.496981  0.345360  1
  O  O21  1  0.085745  0.171053  0.863800  1
  O  O22  1  0.207563  0.782232  0.824269  1
  O  O23  1  0.235265  0.871082  0.431861  1
  O  O24  1  0.210396  0.130364  0.370109  1
  O  O25  1  0.199273  0.535388  0.917098  1
  O  O26  1  0.280792  0.366110  0.605631  1
  O  O27  1  0.302218  0.964704  0.092750  1
  O  O28  1  0.261206  0.629958  0.573981  1
  O  O29  1  0.291962  0.716151  0.182206  1
  O  O30  1  0.412192  0.324805  0.117369  1
  O  O31  1  0.400975  0.002337  0.662042  1
  O  O32  1  0.587835  0.991833  0.322942  1
  O  O33  1  0.596264  0.656422  0.877918  1
  O  O34  1  0.684123  0.303989  0.845738  1
  O  O35  1  0.713370  0.363865  0.415261  1
  O  O36  1  0.684466  0.620443  0.366841  1
  O  O37  1  0.682066  0.057452  0.931830  1
  O  O38  1  0.821085  0.442263  0.075356  1
  O  O39  1  0.811981  0.877861  0.637688  1
  O  O40  1  0.785628  0.136013  0.597225  1
  O  O41  1  0.810758  0.196435  0.163635  1
  O  O42  1  0.904984  0.841916  0.125638  1
  O  O43  1  0.918769  0.502001  0.685358  1
