# generated using pymatgen
data_Bi4O5F2
_symmetry_space_group_name_H-M   'P 1'
_cell_length_a   5.82591291
_cell_length_b   5.42117891
_cell_length_c   14.09038337
_cell_angle_alpha   90.00000000
_cell_angle_beta   91.90411368
_cell_angle_gamma   90.00000000
_symmetry_Int_Tables_number   1
_chemical_formula_structural   Bi4O5F2
_chemical_formula_sum   'Bi8 O10 F4'
_cell_volume   444.77530752
_cell_formula_units_Z   2
loop_
 _symmetry_equiv_pos_site_id
 _symmetry_equiv_pos_as_xyz
  1  'x, y, z'
loop_
 _atom_site_type_symbol
 _atom_site_label
 _atom_site_symmetry_multiplicity
 _atom_site_fract_x
 _atom_site_fract_y
 _atom_site_fract_z
 _atom_site_occupancy
  Bi  Bi0  1  0.233309  0.113622  0.786368  1
  Bi  Bi1  1  0.209493  0.714546  0.546406  1
  Bi  Bi2  1  0.233309  0.386378  0.286368  1
  Bi  Bi3  1  0.209493  0.785454  0.046406  1
  Bi  Bi4  1  0.790507  0.214546  0.953594  1
  Bi  Bi5  1  0.766691  0.613622  0.713632  1
  Bi  Bi6  1  0.790507  0.285454  0.453594  1
  Bi  Bi7  1  0.766691  0.886378  0.213632  1
  O  O8  1  0.078670  0.990388  0.914674  1
  O  O9  1  0.000000  0.000000  0.500000  1
  O  O10  1  0.118947  0.803917  0.707568  1
  O  O11  1  0.078670  0.509612  0.414674  1
  O  O12  1  0.000000  0.500000  0.000000  1
  O  O13  1  0.118947  0.696083  0.207568  1
  O  O14  1  0.881053  0.303917  0.792432  1
  O  O15  1  0.921330  0.490388  0.585326  1
  O  O16  1  0.881053  0.196083  0.292432  1
  O  O17  1  0.921330  0.009612  0.085326  1
  F  F18  1  0.519182  0.855302  0.858706  1
  F  F19  1  0.480818  0.355302  0.641294  1
  F  F20  1  0.519182  0.644698  0.358706  1
  F  F21  1  0.480818  0.144698  0.141294  1
