# generated using pymatgen
data_Li8Mn5Fe3(BO3)8
_symmetry_space_group_name_H-M   'P 1'
_cell_length_a   6.07072813
_cell_length_b   9.72061100
_cell_length_c   9.82842454
_cell_angle_alpha   64.90888373
_cell_angle_beta   79.48340221
_cell_angle_gamma   78.03171188
_symmetry_Int_Tables_number   1
_chemical_formula_structural   Li8Mn5Fe3(BO3)8
_chemical_formula_sum   'Li8 Mn5 Fe3 B8 O24'
_cell_volume   510.90188784
_cell_formula_units_Z   1
loop_
 _symmetry_equiv_pos_site_id
 _symmetry_equiv_pos_as_xyz
  1  'x, y, z'
loop_
 _atom_site_type_symbol
 _atom_site_label
 _atom_site_symmetry_multiplicity
 _atom_site_fract_x
 _atom_site_fract_y
 _atom_site_fract_z
 _atom_site_occupancy
  Li  Li0  1  0.046697  0.467690  0.815834  1
  Li  Li1  1  0.047253  0.966695  0.314706  1
  Li  Li2  1  0.452327  0.032109  0.185569  1
  Li  Li3  1  0.545103  0.466090  0.315078  1
  Li  Li4  1  0.454252  0.534098  0.686356  1
  Li  Li5  1  0.545820  0.966039  0.815742  1
  Li  Li6  1  0.954332  0.033182  0.684201  1
  Li  Li7  1  0.953708  0.533640  0.184391  1
  Mn  Mn8  1  0.313252  0.292213  0.624688  1
  Mn  Mn9  1  0.812857  0.292531  0.127086  1
  Mn  Mn10  1  0.686404  0.205877  0.873591  1
  Mn  Mn11  1  0.685825  0.707096  0.372694  1
  Mn  Mn12  1  0.814110  0.793517  0.627062  1
  Fe  Fe13  1  0.184967  0.209685  0.370509  1
  Fe  Fe14  1  0.312394  0.788637  0.127463  1
  Fe  Fe15  1  0.185953  0.711906  0.875735  1
  B  B16  1  0.334159  0.368349  0.038170  1
  B  B17  1  0.167980  0.131093  0.963124  1
  B  B18  1  0.165616  0.634494  0.461026  1
  B  B19  1  0.334028  0.867219  0.539390  1
  B  B20  1  0.665076  0.132922  0.462129  1
  B  B21  1  0.834539  0.366050  0.535739  1
  B  B22  1  0.835498  0.866726  0.036093  1
  B  B23  1  0.664547  0.633233  0.963737  1
  O  O24  1  0.177779  0.011616  0.104420  1
  O  O25  1  0.015260  0.244229  0.562516  1
  O  O26  1  0.016326  0.744135  0.063880  1
  O  O27  1  0.163239  0.363641  0.156359  1
  O  O28  1  0.178948  0.517784  0.602777  1
  O  O29  1  0.513362  0.246259  0.064251  1
  O  O30  1  0.163811  0.860655  0.657792  1
  O  O31  1  0.340707  0.135471  0.847531  1
  O  O32  1  0.335553  0.638664  0.342540  1
  O  O33  1  0.483670  0.253920  0.432488  1
  O  O34  1  0.320991  0.487179  0.897445  1
  O  O35  1  0.320046  0.986047  0.398728  1
  O  O36  1  0.674113  0.017477  0.605617  1
  O  O37  1  0.674386  0.516504  0.106224  1
  O  O38  1  0.514554  0.746156  0.564001  1
  O  O39  1  0.663047  0.364479  0.651263  1
  O  O40  1  0.662742  0.865153  0.151241  1
  O  O41  1  0.840062  0.134363  0.348390  1
  O  O42  1  0.483784  0.755549  0.935928  1
  O  O43  1  0.824641  0.483345  0.393403  1
  O  O44  1  0.836547  0.635430  0.848397  1
  O  O45  1  0.987669  0.252957  0.936354  1
  O  O46  1  0.984682  0.755178  0.434690  1
  O  O47  1  0.827387  0.982711  0.893653  1
