# generated using pymatgen
data_LiMn3P3(HO6)2
_symmetry_space_group_name_H-M   'P 1'
_cell_length_a   8.73116619
_cell_length_b   8.73116619
_cell_length_c   6.68574578
_cell_angle_alpha   72.98927960
_cell_angle_beta   107.01072040
_cell_angle_gamma   87.55565801
_symmetry_Int_Tables_number   1
_chemical_formula_structural   LiMn3P3(HO6)2
_chemical_formula_sum   'Li2 Mn6 P6 H4 O24'
_cell_volume   461.44955569
_cell_formula_units_Z   2
loop_
 _symmetry_equiv_pos_site_id
 _symmetry_equiv_pos_as_xyz
  1  'x, y, z'
loop_
 _atom_site_type_symbol
 _atom_site_label
 _atom_site_symmetry_multiplicity
 _atom_site_fract_x
 _atom_site_fract_y
 _atom_site_fract_z
 _atom_site_occupancy
  Li  Li0  1  0.995313  0.995313  0.250000  1
  Li  Li1  1  0.004687  0.004687  0.750000  1
  Mn  Mn2  1  0.954958  0.366681  0.379757  1
  Mn  Mn3  1  0.633319  0.045042  0.879757  1
  Mn  Mn4  1  0.289805  0.289805  0.250000  1
  Mn  Mn5  1  0.710195  0.710195  0.750000  1
  Mn  Mn6  1  0.366681  0.954958  0.120243  1
  Mn  Mn7  1  0.045042  0.633319  0.620243  1
  P  P8  1  0.684350  0.097761  0.396352  1
  P  P9  1  0.902239  0.315650  0.896352  1
  P  P10  1  0.676449  0.676449  0.250000  1
  P  P11  1  0.323551  0.323551  0.750000  1
  P  P12  1  0.097761  0.684350  0.103648  1
  P  P13  1  0.315650  0.902239  0.603648  1
  H  H14  1  0.626602  0.372487  0.312714  1
  H  H15  1  0.627513  0.373398  0.812714  1
  H  H16  1  0.372487  0.626602  0.187286  1
  H  H17  1  0.373398  0.627513  0.687286  1
  O  O18  1  0.861582  0.131158  0.425617  1
  O  O19  1  0.615971  0.034831  0.201477  1
  O  O20  1  0.868842  0.138418  0.925617  1
  O  O21  1  0.965169  0.384029  0.701477  1
  O  O22  1  0.321510  0.023141  0.385188  1
  O  O23  1  0.571420  0.261794  0.353134  1
  O  O24  1  0.711879  0.496631  0.263229  1
  O  O25  1  0.709159  0.783156  0.039563  1
  O  O26  1  0.976859  0.678490  0.885188  1
  O  O27  1  0.738206  0.428580  0.853134  1
  O  O28  1  0.503369  0.288121  0.763229  1
  O  O29  1  0.783156  0.709159  0.460437  1
  O  O30  1  0.216844  0.290841  0.539563  1
  O  O31  1  0.496631  0.711879  0.236771  1
  O  O32  1  0.261794  0.571420  0.146866  1
  O  O33  1  0.023141  0.321510  0.114812  1
  O  O34  1  0.290841  0.216844  0.960437  1
  O  O35  1  0.288121  0.503369  0.736771  1
  O  O36  1  0.428580  0.738206  0.646866  1
  O  O37  1  0.678490  0.976859  0.614812  1
  O  O38  1  0.034831  0.615971  0.298523  1
  O  O39  1  0.131158  0.861582  0.074383  1
  O  O40  1  0.384029  0.965169  0.798523  1
  O  O41  1  0.138418  0.868842  0.574383  1
