# generated using pymatgen
data_Na2SrLiVP2O9
_symmetry_space_group_name_H-M   'P 1'
_cell_length_a   6.98519649
_cell_length_b   10.69487888
_cell_length_c   10.76400151
_cell_angle_alpha   90.00000000
_cell_angle_beta   90.00000000
_cell_angle_gamma   90.00000000
_symmetry_Int_Tables_number   1
_chemical_formula_structural   Na2SrLiVP2O9
_chemical_formula_sum   'Na8 Sr4 Li4 V4 P8 O36'
_cell_volume   804.13367156
_cell_formula_units_Z   4
loop_
 _symmetry_equiv_pos_site_id
 _symmetry_equiv_pos_as_xyz
  1  'x, y, z'
loop_
 _atom_site_type_symbol
 _atom_site_label
 _atom_site_symmetry_multiplicity
 _atom_site_fract_x
 _atom_site_fract_y
 _atom_site_fract_z
 _atom_site_occupancy
  Na  Na0  1  0.485984  0.144947  0.732674  1
  Na  Na1  1  0.013157  0.154871  0.745941  1
  Na  Na2  1  0.513157  0.654871  0.754059  1
  Na  Na3  1  0.985984  0.644947  0.767326  1
  Na  Na4  1  0.013157  0.345129  0.245941  1
  Na  Na5  1  0.485984  0.355053  0.232674  1
  Na  Na6  1  0.513157  0.845129  0.254059  1
  Na  Na7  1  0.985984  0.855053  0.267326  1
  Sr  Sr8  1  0.750694  0.422799  0.564630  1
  Sr  Sr9  1  0.250694  0.922799  0.935370  1
  Sr  Sr10  1  0.750694  0.077201  0.064630  1
  Sr  Sr11  1  0.250694  0.577201  0.435370  1
  Li  Li12  1  0.962929  0.995500  0.536732  1
  Li  Li13  1  0.462929  0.495500  0.963268  1
  Li  Li14  1  0.962929  0.504500  0.036732  1
  Li  Li15  1  0.462929  0.004500  0.463268  1
  V  V16  1  0.740259  0.792553  0.525984  1
  V  V17  1  0.240259  0.292553  0.974016  1
  V  V18  1  0.740259  0.707447  0.025984  1
  V  V19  1  0.240259  0.207447  0.474016  1
  P  P20  1  0.247680  0.857003  0.587666  1
  P  P21  1  0.253083  0.415351  0.690624  1
  P  P22  1  0.753083  0.915351  0.809376  1
  P  P23  1  0.747680  0.357003  0.912334  1
  P  P24  1  0.247680  0.642997  0.087666  1
  P  P25  1  0.253083  0.084649  0.190624  1
  P  P26  1  0.753083  0.584649  0.309376  1
  P  P27  1  0.747680  0.142997  0.412334  1
  O  O28  1  0.428797  0.821386  0.506584  1
  O  O29  1  0.067517  0.816326  0.510365  1
  O  O30  1  0.242214  0.004094  0.597074  1
  O  O31  1  0.750823  0.649895  0.609784  1
  O  O32  1  0.428086  0.482741  0.636527  1
  O  O33  1  0.073171  0.481636  0.642238  1
  O  O34  1  0.249523  0.274580  0.651738  1
  O  O35  1  0.763063  0.924950  0.663616  1
  O  O36  1  0.253878  0.793547  0.715919  1
  O  O37  1  0.753878  0.293547  0.784081  1
  O  O38  1  0.263063  0.424950  0.836384  1
  O  O39  1  0.749523  0.774580  0.848262  1
  O  O40  1  0.573171  0.981636  0.857762  1
  O  O41  1  0.928086  0.982741  0.863473  1
  O  O42  1  0.250823  0.149895  0.890216  1
  O  O43  1  0.742214  0.504094  0.902926  1
  O  O44  1  0.928797  0.321386  0.993416  1
  O  O45  1  0.567517  0.316326  0.989635  1
  O  O46  1  0.428797  0.678614  0.006584  1
  O  O47  1  0.067517  0.683674  0.010365  1
  O  O48  1  0.242214  0.495906  0.097074  1
  O  O49  1  0.750823  0.850105  0.109784  1
  O  O50  1  0.428086  0.017259  0.136527  1
  O  O51  1  0.073171  0.018364  0.142238  1
  O  O52  1  0.249523  0.225420  0.151738  1
  O  O53  1  0.763063  0.575050  0.163616  1
  O  O54  1  0.253878  0.706453  0.215919  1
  O  O55  1  0.753878  0.206453  0.284081  1
  O  O56  1  0.263063  0.075050  0.336384  1
  O  O57  1  0.749523  0.725420  0.348262  1
  O  O58  1  0.928086  0.517259  0.363473  1
  O  O59  1  0.573171  0.518364  0.357762  1
  O  O60  1  0.250823  0.350105  0.390216  1
  O  O61  1  0.742214  0.995906  0.402926  1
  O  O62  1  0.928797  0.178614  0.493416  1
  O  O63  1  0.567517  0.183674  0.489635  1
