# generated using pymatgen
data_Rb2Ni2O3
_symmetry_space_group_name_H-M   'P 1'
_cell_length_a   6.15385500
_cell_length_b   7.96898725
_cell_length_c   11.71083648
_cell_angle_alpha   90.00000000
_cell_angle_beta   90.00000000
_cell_angle_gamma   90.00000000
_symmetry_Int_Tables_number   1
_chemical_formula_structural   Rb2Ni2O3
_chemical_formula_sum   'Rb8 Ni8 O12'
_cell_volume   574.29932756
_cell_formula_units_Z   4
loop_
 _symmetry_equiv_pos_site_id
 _symmetry_equiv_pos_as_xyz
  1  'x, y, z'
loop_
 _atom_site_type_symbol
 _atom_site_label
 _atom_site_symmetry_multiplicity
 _atom_site_fract_x
 _atom_site_fract_y
 _atom_site_fract_z
 _atom_site_occupancy
  Rb  Rb0  1  0.250000  0.371436  0.562690  1
  Rb  Rb1  1  0.750000  0.006049  0.624614  1
  Rb  Rb2  1  0.250000  0.506049  0.875386  1
  Rb  Rb3  1  0.750000  0.871436  0.937310  1
  Rb  Rb4  1  0.250000  0.128564  0.062690  1
  Rb  Rb5  1  0.750000  0.493951  0.124614  1
  Rb  Rb6  1  0.250000  0.993951  0.375386  1
  Rb  Rb7  1  0.750000  0.628564  0.437310  1
  Ni  Ni8  1  0.250000  0.784157  0.647523  1
  Ni  Ni9  1  0.750000  0.590038  0.725929  1
  Ni  Ni10  1  0.250000  0.090038  0.774071  1
  Ni  Ni11  1  0.750000  0.284157  0.852477  1
  Ni  Ni12  1  0.250000  0.715843  0.147523  1
  Ni  Ni13  1  0.750000  0.909962  0.225929  1
  Ni  Ni14  1  0.250000  0.409962  0.274071  1
  Ni  Ni15  1  0.750000  0.215843  0.352477  1
  O  O16  1  0.250000  0.015094  0.622881  1
  O  O17  1  0.999516  0.656481  0.648734  1
  O  O18  1  0.500484  0.656481  0.648734  1
  O  O19  1  0.000484  0.156481  0.851266  1
  O  O20  1  0.499516  0.156481  0.851266  1
  O  O21  1  0.750000  0.515094  0.877119  1
  O  O22  1  0.250000  0.484906  0.122881  1
  O  O23  1  0.999516  0.843519  0.148734  1
  O  O24  1  0.500484  0.843519  0.148734  1
  O  O25  1  0.499516  0.343519  0.351266  1
  O  O26  1  0.000484  0.343519  0.351266  1
  O  O27  1  0.750000  0.984906  0.377119  1
