# generated using pymatgen
data_LiNiCO4
_symmetry_space_group_name_H-M   'P 1'
_cell_length_a   3.10686547
_cell_length_b   9.35510391
_cell_length_c   9.41919024
_cell_angle_alpha   90.00000000
_cell_angle_beta   106.41130930
_cell_angle_gamma   90.00000000
_symmetry_Int_Tables_number   1
_chemical_formula_structural   LiNiCO4
_chemical_formula_sum   'Li4 Ni4 C4 O16'
_cell_volume   262.61538502
_cell_formula_units_Z   4
loop_
 _symmetry_equiv_pos_site_id
 _symmetry_equiv_pos_as_xyz
  1  'x, y, z'
loop_
 _atom_site_type_symbol
 _atom_site_label
 _atom_site_symmetry_multiplicity
 _atom_site_fract_x
 _atom_site_fract_y
 _atom_site_fract_z
 _atom_site_occupancy
  Li  Li0  1  0.400729  0.595329  0.177161  1
  Li  Li1  1  0.599271  0.095329  0.322839  1
  Li  Li2  1  0.400729  0.904671  0.677161  1
  Li  Li3  1  0.599271  0.404671  0.822839  1
  Ni  Ni4  1  0.784676  0.881452  0.057192  1
  Ni  Ni5  1  0.215324  0.381452  0.442808  1
  Ni  Ni6  1  0.784676  0.618548  0.557192  1
  Ni  Ni7  1  0.215324  0.118548  0.942808  1
  C  C8  1  0.937858  0.333246  0.138282  1
  C  C9  1  0.062142  0.833246  0.361718  1
  C  C10  1  0.937858  0.166754  0.638282  1
  C  C11  1  0.062142  0.666754  0.861718  1
  O  O12  1  0.846132  0.260598  0.012856  1
  O  O13  1  0.374927  0.003796  0.111383  1
  O  O14  1  0.853998  0.464345  0.132906  1
  O  O15  1  0.897800  0.764419  0.237741  1
  O  O16  1  0.102200  0.264419  0.262259  1
  O  O17  1  0.146002  0.964345  0.367094  1
  O  O18  1  0.625073  0.503796  0.388617  1
  O  O19  1  0.153868  0.760598  0.487144  1
  O  O20  1  0.846132  0.239402  0.512856  1
  O  O21  1  0.374927  0.496204  0.611383  1
  O  O22  1  0.853998  0.035655  0.632906  1
  O  O23  1  0.897800  0.735581  0.737741  1
  O  O24  1  0.102200  0.235581  0.762259  1
  O  O25  1  0.146002  0.535655  0.867094  1
  O  O26  1  0.625073  0.996204  0.888617  1
  O  O27  1  0.153868  0.739402  0.987144  1
