# generated using pymatgen
data_V3OF11
_symmetry_space_group_name_H-M   'P 1'
_cell_length_a   5.25740333
_cell_length_b   5.46109104
_cell_length_c   14.75177989
_cell_angle_alpha   100.28260512
_cell_angle_beta   90.02580266
_cell_angle_gamma   90.22874304
_symmetry_Int_Tables_number   1
_chemical_formula_structural   V3OF11
_chemical_formula_sum   'V6 O2 F22'
_cell_volume   416.73470417
_cell_formula_units_Z   2
loop_
 _symmetry_equiv_pos_site_id
 _symmetry_equiv_pos_as_xyz
  1  'x, y, z'
loop_
 _atom_site_type_symbol
 _atom_site_label
 _atom_site_symmetry_multiplicity
 _atom_site_fract_x
 _atom_site_fract_y
 _atom_site_fract_z
 _atom_site_occupancy
  V  V0  1  0.000410  0.999747  0.000088  1
  V  V1  1  0.524919  0.125670  0.330167  1
  V  V2  1  0.008028  0.322234  0.667442  1
  V  V3  1  0.500302  0.499660  0.999960  1
  V  V4  1  0.008162  0.655360  0.334147  1
  V  V5  1  0.524887  0.792490  0.663485  1
  O  O6  1  0.704777  0.541308  0.644053  1
  O  O7  1  0.705171  0.874689  0.310730  1
  F  F8  1  0.790846  0.023227  0.642047  1
  F  F9  1  0.696698  0.188793  0.975072  1
  F  F10  1  0.293006  0.140181  0.690631  1
  F  F11  1  0.911700  0.042028  0.117500  1
  F  F12  1  0.572127  0.227915  0.449725  1
  F  F13  1  0.911586  0.383412  0.784236  1
  F  F14  1  0.405609  0.135786  0.218569  1
  F  F15  1  0.075183  0.295646  0.548455  1
  F  F16  1  0.412685  0.462045  0.882657  1
  F  F17  1  0.790396  0.356440  0.308502  1
  F  F18  1  0.803964  0.688111  0.975476  1
  F  F19  1  0.196606  0.311493  0.024705  1
  F  F20  1  0.292886  0.472993  0.357445  1
  F  F21  1  0.212987  0.637170  0.690648  1
  F  F22  1  0.587097  0.541171  0.117617  1
  F  F23  1  0.911070  0.715865  0.450954  1
  F  F24  1  0.572473  0.894528  0.782944  1
  F  F25  1  0.077214  0.628675  0.215367  1
  F  F26  1  0.406948  0.804118  0.551731  1
  F  F27  1  0.085746  0.957629  0.882579  1
  F  F28  1  0.303288  0.811655  0.025434  1
  F  F29  1  0.213231  0.969963  0.357634  1
