# generated using pymatgen
data_Bi24Br10O31
_symmetry_space_group_name_H-M   'P 1'
_cell_length_a   8.06187435
_cell_length_b   10.57780450
_cell_length_c   15.50291891
_cell_angle_alpha   90.28126266
_cell_angle_beta   97.59866442
_cell_angle_gamma   90.27949266
_symmetry_Int_Tables_number   1
_chemical_formula_structural   Bi24Br10O31
_chemical_formula_sum   'Bi24 Br10 O31'
_cell_volume   1310.39583724
_cell_formula_units_Z   1
loop_
 _symmetry_equiv_pos_site_id
 _symmetry_equiv_pos_as_xyz
  1  'x, y, z'
loop_
 _atom_site_type_symbol
 _atom_site_label
 _atom_site_symmetry_multiplicity
 _atom_site_fract_x
 _atom_site_fract_y
 _atom_site_fract_z
 _atom_site_occupancy
  Bi  Bi0  1  0.678491  0.082691  0.695923  1
  Bi  Bi1  1  0.146931  0.058567  0.691419  1
  Bi  Bi2  1  0.463556  0.067540  0.095007  1
  Bi  Bi3  1  0.983691  0.074272  0.087934  1
  Bi  Bi4  1  0.724826  0.250265  0.931343  1
  Bi  Bi5  1  0.224437  0.207184  0.930128  1
  Bi  Bi6  1  0.610233  0.251477  0.352202  1
  Bi  Bi7  1  0.111672  0.254275  0.352773  1
  Bi  Bi8  1  0.801367  0.386844  0.171789  1
  Bi  Bi9  1  0.299725  0.390083  0.172738  1
  Bi  Bi10  1  0.150530  0.435307  0.591640  1
  Bi  Bi11  1  0.652192  0.448968  0.593919  1
  Bi  Bi12  1  0.856950  0.549367  0.407682  1
  Bi  Bi13  1  0.356881  0.549968  0.408798  1
  Bi  Bi14  1  0.710016  0.611610  0.824521  1
  Bi  Bi15  1  0.213365  0.602148  0.830390  1
  Bi  Bi16  1  0.945731  0.747760  0.652487  1
  Bi  Bi17  1  0.414457  0.750978  0.654123  1
  Bi  Bi18  1  0.764930  0.791091  0.064610  1
  Bi  Bi19  1  0.276884  0.752278  0.066603  1
  Bi  Bi20  1  0.999158  0.898254  0.898349  1
  Bi  Bi21  1  0.517164  0.943025  0.885244  1
  Bi  Bi22  1  0.812656  0.910859  0.312085  1
  Bi  Bi23  1  0.319713  0.910721  0.305987  1
  Br  Br24  1  0.881230  0.206135  0.530501  1
  Br  Br25  1  0.380361  0.199178  0.531018  1
  Br  Br26  1  0.438866  0.357153  0.756179  1
  Br  Br27  1  0.939868  0.343236  0.757897  1
  Br  Br28  1  0.003025  0.499645  0.002633  1
  Br  Br29  1  0.506112  0.509152  0.998336  1
  Br  Br30  1  0.068906  0.651992  0.245313  1
  Br  Br31  1  0.570249  0.657347  0.245841  1
  Br  Br32  1  0.598645  0.836735  0.467207  1
  Br  Br33  1  0.099993  0.844729  0.454698  1
  O  O34  1  0.766710  0.977184  0.007474  1
  O  O35  1  0.233400  0.028985  0.001202  1
  O  O36  1  0.689018  0.089265  0.833732  1
  O  O37  1  0.231257  0.052845  0.826199  1
  O  O38  1  0.964379  0.154205  0.952246  1
  O  O39  1  0.503386  0.140941  0.960222  1
  O  O40  1  0.806541  0.106466  0.319474  1
  O  O41  1  0.318220  0.106643  0.310619  1
  O  O42  1  0.778348  0.230407  0.081433  1
  O  O43  1  0.277859  0.235193  0.085726  1
  O  O44  1  0.560033  0.305657  0.213922  1
  O  O45  1  0.057863  0.302794  0.213452  1
  O  O46  1  0.836093  0.372777  0.329184  1
  O  O47  1  0.333182  0.374311  0.328808  1
  O  O48  1  0.615172  0.464471  0.443297  1
  O  O49  1  0.114249  0.458577  0.441384  1
  O  O50  1  0.389067  0.528074  0.553451  1
  O  O51  1  0.894898  0.533994  0.553333  1
  O  O52  1  0.680329  0.629584  0.676877  1
  O  O53  1  0.163861  0.611909  0.675340  1
  O  O54  1  0.961519  0.706103  0.791817  1
  O  O55  1  0.445609  0.688824  0.790904  1
  O  O56  1  0.222588  0.765668  0.917533  1
  O  O57  1  0.739906  0.782877  0.902745  1
  O  O58  1  0.538876  0.919511  0.717519  1
  O  O59  1  0.187798  0.861296  0.680647  1
  O  O60  1  0.031512  0.842053  0.039763  1
  O  O61  1  0.494089  0.861440  0.037338  1
  O  O62  1  0.832382  0.925400  0.179230  1
  O  O63  1  0.306298  0.915712  0.169741  1
  O  O64  1  0.905832  0.974498  0.706438  1
