# generated using pymatgen
data_Ga3NO3
_symmetry_space_group_name_H-M   'P 1'
_cell_length_a   6.14190665
_cell_length_b   8.38395883
_cell_length_c   8.39764588
_cell_angle_alpha   119.33922375
_cell_angle_beta   90.30137219
_cell_angle_gamma   90.29158315
_symmetry_Int_Tables_number   1
_chemical_formula_structural   Ga3NO3
_chemical_formula_sum   'Ga12 N4 O12'
_cell_volume   376.93903120
_cell_formula_units_Z   4
loop_
 _symmetry_equiv_pos_site_id
 _symmetry_equiv_pos_as_xyz
  1  'x, y, z'
loop_
 _atom_site_type_symbol
 _atom_site_label
 _atom_site_symmetry_multiplicity
 _atom_site_fract_x
 _atom_site_fract_y
 _atom_site_fract_z
 _atom_site_occupancy
  Ga  Ga0  1  0.549158  0.834757  0.744871  1
  Ga  Ga1  1  0.855166  0.930819  0.497235  1
  Ga  Ga2  1  0.534950  0.917457  0.173672  1
  Ga  Ga3  1  0.843755  0.504615  0.418471  1
  Ga  Ga4  1  0.841250  0.568251  0.078455  1
  Ga  Ga5  1  0.049211  0.750543  0.827185  1
  Ga  Ga6  1  0.346824  0.487522  0.918144  1
  Ga  Ga7  1  0.548919  0.258745  0.088102  1
  Ga  Ga8  1  0.030565  0.172088  0.912408  1
  Ga  Ga9  1  0.328702  0.417521  0.506855  1
  Ga  Ga10  1  0.330506  0.072200  0.565315  1
  Ga  Ga11  1  0.053759  0.090870  0.257918  1
  N  N12  1  0.794775  0.325231  0.009231  1
  N  N13  1  0.062777  0.346382  0.389373  1
  N  N14  1  0.081955  0.027020  0.664138  1
  N  N15  1  0.297580  0.998484  0.318538  1
  O  O16  1  0.575645  0.955640  0.610605  1
  O  O17  1  0.799430  0.684674  0.678047  1
  O  O18  1  0.801548  0.984635  0.303982  1
  O  O19  1  0.541847  0.999829  0.996499  1
  O  O20  1  0.039167  0.995825  0.998942  1
  O  O21  1  0.872511  0.676086  0.334658  1
  O  O22  1  0.560596  0.394695  0.350166  1
  O  O23  1  0.575161  0.658413  0.030588  1
  O  O24  1  0.074501  0.611957  0.951741  1
  O  O25  1  0.310829  0.676179  0.692883  1
  O  O26  1  0.294797  0.326207  0.009285  1
  O  O27  1  0.407466  0.333354  0.672689  1
