# generated using pymatgen
data_Cr4P2O9
_symmetry_space_group_name_H-M   'P 1'
_cell_length_a   6.53634978
_cell_length_b   12.06953723
_cell_length_c   9.59937704
_cell_angle_alpha   90.00000000
_cell_angle_beta   105.04808611
_cell_angle_gamma   90.00000000
_symmetry_Int_Tables_number   1
_chemical_formula_structural   Cr4P2O9
_chemical_formula_sum   'Cr16 P8 O36'
_cell_volume   731.33254985
_cell_formula_units_Z   4
loop_
 _symmetry_equiv_pos_site_id
 _symmetry_equiv_pos_as_xyz
  1  'x, y, z'
loop_
 _atom_site_type_symbol
 _atom_site_label
 _atom_site_symmetry_multiplicity
 _atom_site_fract_x
 _atom_site_fract_y
 _atom_site_fract_z
 _atom_site_occupancy
  Cr  Cr0  1  0.072181  0.389397  0.889016  1
  Cr  Cr1  1  0.072181  0.110603  0.389016  1
  Cr  Cr2  1  0.225729  0.616929  0.753526  1
  Cr  Cr3  1  0.181330  0.398972  0.536167  1
  Cr  Cr4  1  0.225729  0.883071  0.253526  1
  Cr  Cr5  1  0.181330  0.101028  0.036167  1
  Cr  Cr6  1  0.458305  0.868867  0.691085  1
  Cr  Cr7  1  0.541695  0.368867  0.808915  1
  Cr  Cr8  1  0.458305  0.631133  0.191085  1
  Cr  Cr9  1  0.541695  0.131133  0.308915  1
  Cr  Cr10  1  0.818670  0.898972  0.963833  1
  Cr  Cr11  1  0.774271  0.116929  0.746474  1
  Cr  Cr12  1  0.818670  0.601028  0.463833  1
  Cr  Cr13  1  0.774271  0.383071  0.246474  1
  Cr  Cr14  1  0.927819  0.889397  0.610984  1
  Cr  Cr15  1  0.927819  0.610603  0.110984  1
  P  P16  1  0.293472  0.824359  0.924092  1
  P  P17  1  0.238828  0.124894  0.684237  1
  P  P18  1  0.293472  0.675641  0.424092  1
  P  P19  1  0.238828  0.375106  0.184237  1
  P  P20  1  0.761172  0.624894  0.815763  1
  P  P21  1  0.706528  0.324359  0.575908  1
  P  P22  1  0.761172  0.875106  0.315763  1
  P  P23  1  0.706528  0.175641  0.075908  1
  O  O24  1  0.110747  0.111774  0.800644  1
  O  O25  1  0.180735  0.800478  0.756545  1
  O  O26  1  0.128064  0.212919  0.571661  1
  O  O27  1  0.245362  0.445435  0.756780  1
  O  O28  1  0.151359  0.603178  0.492157  1
  O  O29  1  0.349390  0.709639  0.991048  1
  O  O30  1  0.110747  0.388226  0.300644  1
  O  O31  1  0.222214  0.017038  0.588915  1
  O  O32  1  0.180735  0.699522  0.256545  1
  O  O33  1  0.128064  0.287081  0.071661  1
  O  O34  1  0.245362  0.054565  0.256780  1
  O  O35  1  0.151359  0.896822  0.992157  1
  O  O36  1  0.349390  0.790361  0.491048  1
  O  O37  1  0.489941  0.892648  0.911941  1
  O  O38  1  0.222214  0.482962  0.088915  1
  O  O39  1  0.468389  0.154326  0.758053  1
  O  O40  1  0.531611  0.654326  0.741947  1
  O  O41  1  0.510059  0.392648  0.588059  1
  O  O42  1  0.489941  0.607352  0.411941  1
  O  O43  1  0.468389  0.345674  0.258053  1
  O  O44  1  0.531611  0.845674  0.241947  1
  O  O45  1  0.777786  0.517038  0.911085  1
  O  O46  1  0.510059  0.107352  0.088059  1
  O  O47  1  0.650610  0.209639  0.508952  1
  O  O48  1  0.848641  0.103178  0.007843  1
  O  O49  1  0.754638  0.945435  0.743220  1
  O  O50  1  0.871936  0.712919  0.928339  1
  O  O51  1  0.819265  0.300478  0.743455  1
  O  O52  1  0.777786  0.982962  0.411085  1
  O  O53  1  0.889253  0.611774  0.699356  1
  O  O54  1  0.650610  0.290361  0.008952  1
  O  O55  1  0.848641  0.396822  0.507843  1
  O  O56  1  0.754638  0.554565  0.243220  1
  O  O57  1  0.871936  0.787081  0.428339  1
  O  O58  1  0.819265  0.199522  0.243455  1
  O  O59  1  0.889253  0.888226  0.199356  1
