# generated using pymatgen
data_Li3Ti(FeO3)2
_symmetry_space_group_name_H-M   'P 1'
_cell_length_a   6.70235464
_cell_length_b   6.70235464
_cell_length_c   6.02432538
_cell_angle_alpha   76.82642758
_cell_angle_beta   103.17357242
_cell_angle_gamma   154.25627844
_symmetry_Int_Tables_number   1
_chemical_formula_structural   Li3Ti(FeO3)2
_chemical_formula_sum   'Li3 Ti1 Fe2 O6'
_cell_volume   114.28667602
_cell_formula_units_Z   1
loop_
 _symmetry_equiv_pos_site_id
 _symmetry_equiv_pos_as_xyz
  1  'x, y, z'
loop_
 _atom_site_type_symbol
 _atom_site_label
 _atom_site_symmetry_multiplicity
 _atom_site_fract_x
 _atom_site_fract_y
 _atom_site_fract_z
 _atom_site_occupancy
  Li  Li0  1  0.000000  0.000000  0.000000  1
  Li  Li1  1  0.332083  0.667917  0.668855  1
  Li  Li2  1  0.667917  0.332083  0.331145  1
  Ti  Ti3  1  0.000000  1.000000  0.500000  1
  Fe  Fe4  1  0.328680  0.671320  0.157021  1
  Fe  Fe5  1  0.671320  0.328680  0.842979  1
  O  O6  1  0.844973  0.155027  0.413682  1
  O  O7  1  0.166410  0.833590  0.074082  1
  O  O8  1  0.155027  0.844973  0.586318  1
  O  O9  1  0.500039  0.499961  0.722781  1
  O  O10  1  0.499961  0.500039  0.277219  1
  O  O11  1  0.833590  0.166410  0.925918  1
