# generated using pymatgen
data_H12RuSN4(ClO)2
_symmetry_space_group_name_H-M   'P 1'
_cell_length_a   7.42255680
_cell_length_b   9.40371521
_cell_length_c   14.17945577
_cell_angle_alpha   90.00000000
_cell_angle_beta   90.00000000
_cell_angle_gamma   90.00000000
_symmetry_Int_Tables_number   1
_chemical_formula_structural   H12RuSN4(ClO)2
_chemical_formula_sum   'H48 Ru4 S4 N16 Cl8 O8'
_cell_volume   989.72048669
_cell_formula_units_Z   4
loop_
 _symmetry_equiv_pos_site_id
 _symmetry_equiv_pos_as_xyz
  1  'x, y, z'
loop_
 _atom_site_type_symbol
 _atom_site_label
 _atom_site_symmetry_multiplicity
 _atom_site_fract_x
 _atom_site_fract_y
 _atom_site_fract_z
 _atom_site_occupancy
  H  H0  1  0.057830  0.163527  0.023210  1
  H  H1  1  0.442170  0.163527  0.023210  1
  H  H2  1  0.999291  0.706305  0.049232  1
  H  H3  1  0.500709  0.706305  0.049232  1
  H  H4  1  0.099483  0.864242  0.058154  1
  H  H5  1  0.400517  0.864242  0.058154  1
  H  H6  1  0.034594  0.436694  0.135188  1
  H  H7  1  0.465406  0.436694  0.135188  1
  H  H8  1  0.461553  0.290709  0.199413  1
  H  H9  1  0.038447  0.290709  0.199413  1
  H  H10  1  0.599097  0.423759  0.229075  1
  H  H11  1  0.900903  0.423759  0.229075  1
  H  H12  1  0.099097  0.923759  0.270925  1
  H  H13  1  0.400903  0.923759  0.270925  1
  H  H14  1  0.538447  0.790709  0.300587  1
  H  H15  1  0.961553  0.790709  0.300587  1
  H  H16  1  0.965406  0.936694  0.364812  1
  H  H17  1  0.534594  0.936694  0.364812  1
  H  H18  1  0.900517  0.364242  0.441846  1
  H  H19  1  0.599483  0.364242  0.441846  1
  H  H20  1  0.000709  0.206305  0.450768  1
  H  H21  1  0.499291  0.206305  0.450768  1
  H  H22  1  0.557830  0.663527  0.476790  1
  H  H23  1  0.942170  0.663527  0.476790  1
  H  H24  1  0.057830  0.336473  0.523210  1
  H  H25  1  0.442170  0.336473  0.523210  1
  H  H26  1  0.999291  0.793695  0.549232  1
  H  H27  1  0.500709  0.793695  0.549232  1
  H  H28  1  0.099483  0.635758  0.558154  1
  H  H29  1  0.400517  0.635758  0.558154  1
  H  H30  1  0.034594  0.063306  0.635188  1
  H  H31  1  0.465406  0.063306  0.635188  1
  H  H32  1  0.038447  0.209291  0.699413  1
  H  H33  1  0.461553  0.209291  0.699413  1
  H  H34  1  0.599097  0.076241  0.729075  1
  H  H35  1  0.900903  0.076241  0.729075  1
  H  H36  1  0.099097  0.576241  0.770925  1
  H  H37  1  0.400903  0.576241  0.770925  1
  H  H38  1  0.538447  0.709291  0.800587  1
  H  H39  1  0.961553  0.709291  0.800587  1
  H  H40  1  0.534594  0.563306  0.864812  1
  H  H41  1  0.965406  0.563306  0.864812  1
  H  H42  1  0.599483  0.135758  0.941846  1
  H  H43  1  0.900517  0.135758  0.941846  1
  H  H44  1  0.499291  0.293695  0.950768  1
  H  H45  1  0.000709  0.293695  0.950768  1
  H  H46  1  0.557830  0.836473  0.976790  1
  H  H47  1  0.942170  0.836473  0.976790  1
  Ru  Ru48  1  0.750000  0.280113  0.085277  1
  Ru  Ru49  1  0.250000  0.780113  0.414723  1
  Ru  Ru50  1  0.750000  0.219887  0.585277  1
  Ru  Ru51  1  0.250000  0.719887  0.914723  1
  S  S52  1  0.750000  0.092303  0.166512  1
  S  S53  1  0.250000  0.592303  0.333488  1
  S  S54  1  0.750000  0.407697  0.666512  1
  S  S55  1  0.250000  0.907697  0.833488  1
  N  N56  1  0.049383  0.790534  0.011439  1
  N  N57  1  0.450617  0.790534  0.011439  1
  N  N58  1  0.545185  0.368145  0.173234  1
  N  N59  1  0.954815  0.368145  0.173234  1
  N  N60  1  0.045185  0.868145  0.326766  1
  N  N61  1  0.454815  0.868145  0.326766  1
  N  N62  1  0.950617  0.290534  0.488561  1
  N  N63  1  0.549383  0.290534  0.488561  1
  N  N64  1  0.049383  0.709466  0.511439  1
  N  N65  1  0.450617  0.709466  0.511439  1
  N  N66  1  0.545185  0.131855  0.673234  1
  N  N67  1  0.954815  0.131855  0.673234  1
  N  N68  1  0.045185  0.631855  0.826766  1
  N  N69  1  0.454815  0.631855  0.826766  1
  N  N70  1  0.549383  0.209466  0.988561  1
  N  N71  1  0.950617  0.209466  0.988561  1
  Cl  Cl72  1  0.750000  0.507585  0.003926  1
  Cl  Cl73  1  0.250000  0.065871  0.150877  1
  Cl  Cl74  1  0.750000  0.565871  0.349123  1
  Cl  Cl75  1  0.250000  0.007585  0.496074  1
  Cl  Cl76  1  0.750000  0.992415  0.503926  1
  Cl  Cl77  1  0.250000  0.434129  0.650877  1
  Cl  Cl78  1  0.750000  0.934129  0.849123  1
  Cl  Cl79  1  0.250000  0.492415  0.996074  1
  O  O80  1  0.750000  0.945797  0.130218  1
  O  O81  1  0.250000  0.601604  0.230071  1
  O  O82  1  0.750000  0.101604  0.269929  1
  O  O83  1  0.250000  0.445797  0.369782  1
  O  O84  1  0.750000  0.554203  0.630218  1
  O  O85  1  0.250000  0.898396  0.730071  1
  O  O86  1  0.750000  0.398396  0.769929  1
  O  O87  1  0.250000  0.054203  0.869782  1
