# generated using pymatgen
data_KLi(WO3)6
_symmetry_space_group_name_H-M   'P 1'
_cell_length_a   7.53365228
_cell_length_b   7.53365228
_cell_length_c   7.76985695
_cell_angle_alpha   89.98943104
_cell_angle_beta   90.01056896
_cell_angle_gamma   119.71058483
_symmetry_Int_Tables_number   1
_chemical_formula_structural   KLi(WO3)6
_chemical_formula_sum   'K1 Li1 W6 O18'
_cell_volume   383.01339641
_cell_formula_units_Z   1
loop_
 _symmetry_equiv_pos_site_id
 _symmetry_equiv_pos_as_xyz
  1  'x, y, z'
loop_
 _atom_site_type_symbol
 _atom_site_label
 _atom_site_symmetry_multiplicity
 _atom_site_fract_x
 _atom_site_fract_y
 _atom_site_fract_z
 _atom_site_occupancy
  K  K0  1  0.000053  0.999947  0.266685  1
  Li  Li1  1  0.296257  0.703743  0.750795  1
  W  W2  1  0.507741  0.003751  0.498017  1
  W  W3  1  0.497598  0.005057  0.002600  1
  W  W4  1  0.499347  0.500653  0.499555  1
  W  W5  1  0.499295  0.500705  0.000441  1
  W  W6  1  0.994943  0.502402  0.002600  1
  W  W7  1  0.996249  0.492259  0.498017  1
  O  O8  1  0.504573  0.007490  0.750022  1
  O  O9  1  0.788430  0.211570  0.010088  1
  O  O10  1  0.788723  0.211277  0.489895  1
  O  O11  1  0.425121  0.210934  0.491481  1
  O  O12  1  0.992510  0.495427  0.750022  1
  O  O13  1  0.424944  0.214957  0.008759  1
  O  O14  1  0.785043  0.575056  0.008759  1
  O  O15  1  0.789066  0.574879  0.491481  1
  O  O16  1  0.502858  0.497142  0.749797  1
  O  O17  1  0.494243  0.505757  0.250136  1
  O  O18  1  0.214849  0.427920  0.993611  1
  O  O19  1  0.210976  0.426702  0.506069  1
  O  O20  1  0.573298  0.789024  0.506069  1
  O  O21  1  0.010089  0.506248  0.249989  1
  O  O22  1  0.572080  0.785151  0.993611  1
  O  O23  1  0.215716  0.784284  0.988772  1
  O  O24  1  0.215564  0.784436  0.511072  1
  O  O25  1  0.493752  0.989911  0.249989  1
