# generated using pymatgen
data_Li6MnO4F
_symmetry_space_group_name_H-M   'P 1'
_cell_length_a   5.02295201
_cell_length_b   9.51179839
_cell_length_c   5.24376753
_cell_angle_alpha   90.00000000
_cell_angle_beta   116.07981019
_cell_angle_gamma   90.00000000
_symmetry_Int_Tables_number   1
_chemical_formula_structural   Li6MnO4F
_chemical_formula_sum   'Li12 Mn2 O8 F2'
_cell_volume   225.02444889
_cell_formula_units_Z   2
loop_
 _symmetry_equiv_pos_site_id
 _symmetry_equiv_pos_as_xyz
  1  'x, y, z'
loop_
 _atom_site_type_symbol
 _atom_site_label
 _atom_site_symmetry_multiplicity
 _atom_site_fract_x
 _atom_site_fract_y
 _atom_site_fract_z
 _atom_site_occupancy
  Li  Li0  1  0.446615  0.252439  0.595398  1
  Li  Li1  1  0.184484  0.757875  0.624173  1
  Li  Li2  1  0.732951  0.998977  0.522599  1
  Li  Li3  1  0.782406  0.495825  0.552756  1
  Li  Li4  1  0.217594  0.995825  0.447244  1
  Li  Li5  1  0.267049  0.498977  0.477401  1
  Li  Li6  1  0.553385  0.752439  0.404602  1
  Li  Li7  1  0.815516  0.257875  0.375827  1
  Li  Li8  1  0.265443  0.551333  0.982557  1
  Li  Li9  1  0.328770  0.938659  0.001997  1
  Li  Li10  1  0.734557  0.051333  0.017443  1
  Li  Li11  1  0.671230  0.438659  0.998003  1
  Mn  Mn12  1  0.206723  0.259680  0.007916  1
  Mn  Mn13  1  0.793277  0.759680  0.992084  1
  O  O14  1  0.596916  0.609689  0.729624  1
  O  O15  1  0.542380  0.899354  0.721960  1
  O  O16  1  0.140860  0.386073  0.701493  1
  O  O17  1  0.859140  0.886073  0.298507  1
  O  O18  1  0.457620  0.399354  0.278040  1
  O  O19  1  0.403084  0.109689  0.270376  1
  O  O20  1  0.211325  0.746784  0.019879  1
  O  O21  1  0.788675  0.246784  0.980121  1
  F  F22  1  0.091286  0.103313  0.674694  1
  F  F23  1  0.908714  0.603313  0.325306  1
