# generated using pymatgen
data_Li3V5O12
_symmetry_space_group_name_H-M   'P 1'
_cell_length_a   5.03536458
_cell_length_b   5.07010405
_cell_length_c   9.16571926
_cell_angle_alpha   94.18246171
_cell_angle_beta   92.17115044
_cell_angle_gamma   112.45423781
_symmetry_Int_Tables_number   1
_chemical_formula_structural   Li3V5O12
_chemical_formula_sum   'Li3 V5 O12'
_cell_volume   215.13327977
_cell_formula_units_Z   1
loop_
 _symmetry_equiv_pos_site_id
 _symmetry_equiv_pos_as_xyz
  1  'x, y, z'
loop_
 _atom_site_type_symbol
 _atom_site_label
 _atom_site_symmetry_multiplicity
 _atom_site_fract_x
 _atom_site_fract_y
 _atom_site_fract_z
 _atom_site_occupancy
  Li  Li0  1  0.673084  0.151255  0.687659  1
  Li  Li1  1  0.853129  0.622860  0.996013  1
  Li  Li2  1  0.077610  0.944667  0.752610  1
  V  V3  1  0.929137  0.064865  0.245623  1
  V  V4  1  0.512228  0.009208  0.981028  1
  V  V5  1  0.014786  0.537140  0.508507  1
  V  V6  1  0.565849  0.443747  0.269153  1
  V  V7  1  0.417134  0.556484  0.740707  1
  O  O8  1  0.720104  0.212824  0.389329  1
  O  O9  1  0.237384  0.085292  0.145259  1
  O  O10  1  0.785267  0.301020  0.120836  1
  O  O11  1  0.471774  0.273913  0.873306  1
  O  O12  1  0.717053  0.556110  0.639369  1
  O  O13  1  0.082906  0.281027  0.649066  1
  O  O14  1  0.261478  0.432687  0.366075  1
  O  O15  1  0.898337  0.749865  0.365704  1
  O  O16  1  0.208519  0.701224  0.898548  1
  O  O17  1  0.616638  0.762760  0.136883  1
  O  O18  1  0.742533  0.916716  0.865832  1
  O  O19  1  0.317573  0.813486  0.613975  1
