# generated using pymatgen
data_Mn3(OF2)2
_symmetry_space_group_name_H-M   'P 1'
_cell_length_a   5.69017881
_cell_length_b   5.79744850
_cell_length_c   7.42711785
_cell_angle_alpha   73.49017873
_cell_angle_beta   73.43655775
_cell_angle_gamma   72.56348440
_symmetry_Int_Tables_number   1
_chemical_formula_structural   Mn3(OF2)2
_chemical_formula_sum   'Mn6 O4 F8'
_cell_volume   218.69555729
_cell_formula_units_Z   2
loop_
 _symmetry_equiv_pos_site_id
 _symmetry_equiv_pos_as_xyz
  1  'x, y, z'
loop_
 _atom_site_type_symbol
 _atom_site_label
 _atom_site_symmetry_multiplicity
 _atom_site_fract_x
 _atom_site_fract_y
 _atom_site_fract_z
 _atom_site_occupancy
  Mn  Mn0  1  0.697985  0.680023  0.836758  1
  Mn  Mn1  1  0.307263  0.367888  0.681304  1
  Mn  Mn2  1  0.692737  0.632112  0.318696  1
  Mn  Mn3  1  0.302015  0.319977  0.163242  1
  Mn  Mn4  1  0.000000  0.000000  0.500000  1
  Mn  Mn5  1  0.000000  0.000000  0.000000  1
  O  O6  1  0.019662  0.671006  0.662308  1
  O  O7  1  0.203564  0.231849  0.970088  1
  O  O8  1  0.796436  0.768151  0.029912  1
  O  O9  1  0.980338  0.328994  0.337692  1
  F  F10  1  0.378541  0.937624  0.342255  1
  F  F11  1  0.911728  0.895819  0.293295  1
  F  F12  1  0.584138  0.575574  0.635294  1
  F  F13  1  0.088272  0.104181  0.706705  1
  F  F14  1  0.415862  0.424426  0.364706  1
  F  F15  1  0.621459  0.062376  0.657745  1
  F  F16  1  0.331192  0.703967  0.989168  1
  F  F17  1  0.668808  0.296033  0.010832  1
