# generated using pymatgen
data_BaSrI4
_symmetry_space_group_name_H-M   'P 1'
_cell_length_a   14.43269175
_cell_length_b   14.43269175
_cell_length_c   14.43269175
_cell_angle_alpha   114.46724354
_cell_angle_beta   114.46724354
_cell_angle_gamma   114.46724354
_symmetry_Int_Tables_number   1
_chemical_formula_structural   BaSrI4
_chemical_formula_sum   'Ba6 Sr6 I24'
_cell_volume   1761.45536052
_cell_formula_units_Z   6
loop_
 _symmetry_equiv_pos_site_id
 _symmetry_equiv_pos_as_xyz
  1  'x, y, z'
loop_
 _atom_site_type_symbol
 _atom_site_label
 _atom_site_symmetry_multiplicity
 _atom_site_fract_x
 _atom_site_fract_y
 _atom_site_fract_z
 _atom_site_occupancy
  Ba  Ba0  1  0.284161  0.108126  0.857162  1
  Ba  Ba1  1  0.357162  0.608126  0.784161  1
  Ba  Ba2  1  0.108126  0.857162  0.284161  1
  Ba  Ba3  1  0.784161  0.357162  0.608126  1
  Ba  Ba4  1  0.608126  0.784161  0.357162  1
  Ba  Ba5  1  0.857162  0.284161  0.108126  1
  Sr  Sr6  1  0.094502  0.329867  0.916465  1
  Sr  Sr7  1  0.416465  0.829867  0.594502  1
  Sr  Sr8  1  0.594502  0.416465  0.829867  1
  Sr  Sr9  1  0.329867  0.916465  0.094502  1
  Sr  Sr10  1  0.829867  0.594502  0.416465  1
  Sr  Sr11  1  0.916465  0.094502  0.329867  1
  I  I12  1  0.078422  0.101703  0.908825  1
  I  I13  1  0.154304  0.573259  0.884544  1
  I  I14  1  0.091499  0.773345  0.751664  1
  I  I15  1  0.392951  0.463787  0.995341  1
  I  I16  1  0.495341  0.963787  0.892951  1
  I  I17  1  0.251664  0.273345  0.591499  1
  I  I18  1  0.384544  0.073259  0.654304  1
  I  I19  1  0.073259  0.654304  0.384544  1
  I  I20  1  0.408825  0.601703  0.578422  1
  I  I21  1  0.892951  0.495341  0.963787  1
  I  I22  1  0.578422  0.408825  0.601703  1
  I  I23  1  0.751664  0.091499  0.773345  1
  I  I24  1  0.273345  0.591499  0.251664  1
  I  I25  1  0.101703  0.908825  0.078422  1
  I  I26  1  0.463787  0.995341  0.392951  1
  I  I27  1  0.601703  0.578422  0.408825  1
  I  I28  1  0.884544  0.154304  0.573259  1
  I  I29  1  0.591499  0.251664  0.273345  1
  I  I30  1  0.573259  0.884544  0.154304  1
  I  I31  1  0.963787  0.892951  0.495341  1
  I  I32  1  0.995341  0.392951  0.463787  1
  I  I33  1  0.654304  0.384544  0.073259  1
  I  I34  1  0.773345  0.751664  0.091499  1
  I  I35  1  0.908825  0.078422  0.101703  1
