# generated using pymatgen
data_Li2NiCSO7
_symmetry_space_group_name_H-M   'P 1'
_cell_length_a   4.99166831
_cell_length_b   6.37814291
_cell_length_c   8.56669079
_cell_angle_alpha   90.00000000
_cell_angle_beta   92.80256271
_cell_angle_gamma   90.00000000
_symmetry_Int_Tables_number   1
_chemical_formula_structural   Li2NiCSO7
_chemical_formula_sum   'Li4 Ni2 C2 S2 O14'
_cell_volume   272.41643723
_cell_formula_units_Z   2
loop_
 _symmetry_equiv_pos_site_id
 _symmetry_equiv_pos_as_xyz
  1  'x, y, z'
loop_
 _atom_site_type_symbol
 _atom_site_label
 _atom_site_symmetry_multiplicity
 _atom_site_fract_x
 _atom_site_fract_y
 _atom_site_fract_z
 _atom_site_occupancy
  Li  Li0  1  0.774220  0.481004  0.200003  1
  Li  Li1  1  0.774220  0.018996  0.200003  1
  Li  Li2  1  0.225780  0.518996  0.799997  1
  Li  Li3  1  0.225780  0.981004  0.799997  1
  Ni  Ni4  1  0.219008  0.250000  0.349145  1
  Ni  Ni5  1  0.780992  0.750000  0.650855  1
  C  C6  1  0.269807  0.250000  0.061788  1
  C  C7  1  0.730193  0.750000  0.938212  1
  S  S8  1  0.281260  0.750000  0.418806  1
  S  S9  1  0.718740  0.250000  0.581194  1
  O  O10  1  0.708810  0.750000  0.085393  1
  O  O11  1  0.036454  0.250000  0.125919  1
  O  O12  1  0.478070  0.250000  0.161743  1
  O  O13  1  0.182599  0.934629  0.328960  1
  O  O14  1  0.182599  0.565371  0.328960  1
  O  O15  1  0.822002  0.250000  0.420215  1
  O  O16  1  0.581020  0.750000  0.434718  1
  O  O17  1  0.418980  0.250000  0.565282  1
  O  O18  1  0.177998  0.750000  0.579785  1
  O  O19  1  0.817401  0.434629  0.671040  1
  O  O20  1  0.817401  0.065371  0.671040  1
  O  O21  1  0.521930  0.750000  0.838257  1
  O  O22  1  0.963546  0.750000  0.874081  1
  O  O23  1  0.291190  0.250000  0.914607  1
