# generated using pymatgen
data_LiNb13O33
_symmetry_space_group_name_H-M   'P 1'
_cell_length_a   11.59430774
_cell_length_b   11.59430774
_cell_length_c   15.70028707
_cell_angle_alpha   88.24650750
_cell_angle_beta   91.75349250
_cell_angle_gamma   160.82639277
_symmetry_Int_Tables_number   1
_chemical_formula_structural   LiNb13O33
_chemical_formula_sum   'Li1 Nb13 O33'
_cell_volume   692.83998870
_cell_formula_units_Z   1
loop_
 _symmetry_equiv_pos_site_id
 _symmetry_equiv_pos_as_xyz
  1  'x, y, z'
loop_
 _atom_site_type_symbol
 _atom_site_label
 _atom_site_symmetry_multiplicity
 _atom_site_fract_x
 _atom_site_fract_y
 _atom_site_fract_z
 _atom_site_occupancy
  Li  Li0  1  0.500000  0.500000  0.000000  1
  Nb  Nb1  1  0.070562  0.929438  0.730119  1
  Nb  Nb2  1  0.086554  0.913446  0.174697  1
  Nb  Nb3  1  0.136112  0.863888  0.969624  1
  Nb  Nb4  1  0.154888  0.845112  0.403891  1
  Nb  Nb5  1  0.224175  0.775825  0.636793  1
  Nb  Nb6  1  0.291534  0.708466  0.873958  1
  Nb  Nb7  1  0.000000  0.000000  0.500000  1
  Nb  Nb8  1  0.708466  0.291534  0.126042  1
  Nb  Nb9  1  0.775825  0.224175  0.363207  1
  Nb  Nb10  1  0.845112  0.154888  0.596109  1
  Nb  Nb11  1  0.863888  0.136112  0.030376  1
  Nb  Nb12  1  0.913446  0.086554  0.825303  1
  Nb  Nb13  1  0.929438  0.070562  0.269881  1
  O  O14  1  0.011908  0.988092  0.209300  1
  O  O15  1  0.035790  0.964210  0.620650  1
  O  O16  1  0.066515  0.933485  0.043541  1
  O  O17  1  0.081668  0.918332  0.451460  1
  O  O18  1  0.100221  0.899779  0.866474  1
  O  O19  1  0.127087  0.872913  0.287330  1
  O  O20  1  0.152996  0.847004  0.694674  1
  O  O21  1  0.181289  0.818711  0.111275  1
  O  O22  1  0.193777  0.806223  0.526988  1
  O  O23  1  0.221826  0.778174  0.929797  1
  O  O24  1  0.250223  0.749777  0.363058  1
  O  O25  1  0.266802  0.733198  0.763884  1
  O  O26  1  0.320325  0.679675  0.599192  1
  O  O27  1  0.347405  0.652595  0.002847  1
  O  O28  1  0.390605  0.609395  0.837273  1
  O  O29  1  0.430060  0.569940  0.250308  1
  O  O30  1  0.500000  0.500000  0.500000  1
  O  O31  1  0.569940  0.430060  0.749692  1
  O  O32  1  0.609395  0.390605  0.162727  1
  O  O33  1  0.652595  0.347405  0.997153  1
  O  O34  1  0.679675  0.320325  0.400808  1
  O  O35  1  0.733198  0.266802  0.236116  1
  O  O36  1  0.749777  0.250223  0.636942  1
  O  O37  1  0.778174  0.221826  0.070203  1
  O  O38  1  0.806223  0.193777  0.473012  1
  O  O39  1  0.818711  0.181289  0.888725  1
  O  O40  1  0.847004  0.152996  0.305326  1
  O  O41  1  0.872913  0.127087  0.712670  1
  O  O42  1  0.899779  0.100221  0.133526  1
  O  O43  1  0.918332  0.081668  0.548540  1
  O  O44  1  0.933485  0.066515  0.956459  1
  O  O45  1  0.964210  0.035790  0.379350  1
  O  O46  1  0.988092  0.011908  0.790700  1
