# generated using pymatgen
data_Co2O3F
_symmetry_space_group_name_H-M   'P 1'
_cell_length_a   4.40209299
_cell_length_b   5.91010851
_cell_length_c   9.25118840
_cell_angle_alpha   108.59999428
_cell_angle_beta   90.86853908
_cell_angle_gamma   90.11875842
_symmetry_Int_Tables_number   1
_chemical_formula_structural   Co2O3F
_chemical_formula_sum   'Co8 O12 F4'
_cell_volume   228.08304320
_cell_formula_units_Z   4
loop_
 _symmetry_equiv_pos_site_id
 _symmetry_equiv_pos_as_xyz
  1  'x, y, z'
loop_
 _atom_site_type_symbol
 _atom_site_label
 _atom_site_symmetry_multiplicity
 _atom_site_fract_x
 _atom_site_fract_y
 _atom_site_fract_z
 _atom_site_occupancy
  Co  Co0  1  0.467379  0.629287  0.761952  1
  Co  Co1  1  0.520216  0.119346  0.735600  1
  Co  Co2  1  0.511679  0.383912  0.254987  1
  Co  Co3  1  0.532783  0.864308  0.244986  1
  Co  Co4  1  0.987953  0.503215  0.005553  1
  Co  Co5  1  0.008972  0.747636  0.500285  1
  Co  Co6  1  0.965069  0.997437  0.995638  1
  Co  Co7  1  0.006165  0.252763  0.498881  1
  O  O8  1  0.802622  0.304009  0.103446  1
  O  O9  1  0.808968  0.047261  0.593497  1
  O  O10  1  0.801475  0.795994  0.099888  1
  O  O11  1  0.675497  0.923901  0.843934  1
  O  O12  1  0.703181  0.172902  0.346586  1
  O  O13  1  0.685088  0.422312  0.849033  1
  O  O14  1  0.704200  0.672809  0.347251  1
  O  O15  1  0.301800  0.827434  0.653855  1
  O  O16  1  0.303445  0.326981  0.653690  1
  O  O17  1  0.317261  0.577713  0.155817  1
  O  O18  1  0.202154  0.451900  0.402884  1
  O  O19  1  0.181609  0.701913  0.905506  1
  F  F20  1  0.782876  0.555030  0.610037  1
  F  F21  1  0.309997  0.075735  0.149368  1
  F  F22  1  0.221633  0.946381  0.391374  1
  F  F23  1  0.197975  0.199824  0.895952  1
