# generated using pymatgen
data_Cr(PO3)2
_symmetry_space_group_name_H-M   'P 1'
_cell_length_a   7.74694892
_cell_length_b   7.74694892
_cell_length_c   10.04893256
_cell_angle_alpha   65.78837595
_cell_angle_beta   114.21162405
_cell_angle_gamma   114.56986782
_symmetry_Int_Tables_number   1
_chemical_formula_structural   Cr(PO3)2
_chemical_formula_sum   'Cr4 P8 O24'
_cell_volume   478.91389360
_cell_formula_units_Z   4
loop_
 _symmetry_equiv_pos_site_id
 _symmetry_equiv_pos_as_xyz
  1  'x, y, z'
loop_
 _atom_site_type_symbol
 _atom_site_label
 _atom_site_symmetry_multiplicity
 _atom_site_fract_x
 _atom_site_fract_y
 _atom_site_fract_z
 _atom_site_occupancy
  Cr  Cr0  1  0.052370  0.052370  0.750000  1
  Cr  Cr1  1  0.500000  0.000000  0.000000  1
  Cr  Cr2  1  0.000000  0.500000  0.500000  1
  Cr  Cr3  1  0.947630  0.947630  0.250000  1
  P  P4  1  0.316975  0.687785  0.309670  1
  P  P5  1  0.273559  0.251551  0.478379  1
  P  P6  1  0.312215  0.683025  0.809670  1
  P  P7  1  0.251551  0.273559  0.021621  1
  P  P8  1  0.748449  0.726441  0.978379  1
  P  P9  1  0.687785  0.316975  0.190330  1
  P  P10  1  0.726441  0.748449  0.521621  1
  P  P11  1  0.683025  0.312215  0.690330  1
  O  O12  1  0.347386  0.796503  0.156395  1
  O  O13  1  0.199857  0.269512  0.588979  1
  O  O14  1  0.308049  0.460685  0.346937  1
  O  O15  1  0.306931  0.861640  0.832236  1
  O  O16  1  0.157459  0.088064  0.406717  1
  O  O17  1  0.730488  0.800143  0.088979  1
  O  O18  1  0.495019  0.232786  0.557871  1
  O  O19  1  0.088064  0.157459  0.093283  1
  O  O20  1  0.232786  0.495019  0.942129  1
  O  O21  1  0.203497  0.652614  0.656395  1
  O  O22  1  0.460685  0.308049  0.153063  1
  O  O23  1  0.861640  0.306931  0.667764  1
  O  O24  1  0.138360  0.693069  0.332236  1
  O  O25  1  0.539315  0.691951  0.846937  1
  O  O26  1  0.796503  0.347386  0.343605  1
  O  O27  1  0.767214  0.504981  0.057871  1
  O  O28  1  0.911936  0.842541  0.906717  1
  O  O29  1  0.504981  0.767214  0.442129  1
  O  O30  1  0.269512  0.199857  0.911021  1
  O  O31  1  0.842541  0.911936  0.593283  1
  O  O32  1  0.693069  0.138360  0.167764  1
  O  O33  1  0.691951  0.539315  0.653063  1
  O  O34  1  0.800143  0.730488  0.411021  1
  O  O35  1  0.652614  0.203497  0.843605  1
