# generated using pymatgen
data_Li2FeO3
_symmetry_space_group_name_H-M   'P 1'
_cell_length_a   4.97959161
_cell_length_b   5.02652295
_cell_length_c   8.55456940
_cell_angle_alpha   90.00000000
_cell_angle_beta   90.00000000
_cell_angle_gamma   90.00000000
_symmetry_Int_Tables_number   1
_chemical_formula_structural   Li2FeO3
_chemical_formula_sum   'Li8 Fe4 O12'
_cell_volume   214.12114197
_cell_formula_units_Z   4
loop_
 _symmetry_equiv_pos_site_id
 _symmetry_equiv_pos_as_xyz
  1  'x, y, z'
loop_
 _atom_site_type_symbol
 _atom_site_label
 _atom_site_symmetry_multiplicity
 _atom_site_fract_x
 _atom_site_fract_y
 _atom_site_fract_z
 _atom_site_occupancy
  Li  Li0  1  0.250000  0.000000  0.575169  1
  Li  Li1  1  0.250000  0.500000  0.238111  1
  Li  Li2  1  0.250000  0.000000  0.261889  1
  Li  Li3  1  0.250000  0.500000  0.924831  1
  Li  Li4  1  0.750000  0.500000  0.075169  1
  Li  Li5  1  0.750000  0.000000  0.424831  1
  Li  Li6  1  0.750000  0.500000  0.761889  1
  Li  Li7  1  0.750000  0.000000  0.738111  1
  Fe  Fe8  1  0.250000  0.000000  0.909097  1
  Fe  Fe9  1  0.250000  0.500000  0.590903  1
  Fe  Fe10  1  0.750000  0.500000  0.409097  1
  Fe  Fe11  1  0.750000  0.000000  0.090903  1
  O  O12  1  0.893700  0.250000  0.250000  1
  O  O13  1  0.926914  0.218403  0.923847  1
  O  O14  1  0.926914  0.281597  0.576153  1
  O  O15  1  0.073086  0.781597  0.076153  1
  O  O16  1  0.073086  0.718403  0.423847  1
  O  O17  1  0.106300  0.750000  0.750000  1
  O  O18  1  0.393700  0.250000  0.750000  1
  O  O19  1  0.426914  0.281597  0.423847  1
  O  O20  1  0.426914  0.218403  0.076153  1
  O  O21  1  0.573086  0.718403  0.576153  1
  O  O22  1  0.573086  0.781597  0.923847  1
  O  O23  1  0.606300  0.750000  0.250000  1
