# generated using pymatgen
data_MnCrO4
_symmetry_space_group_name_H-M   'P 1'
_cell_length_a   5.13405366
_cell_length_b   5.13405366
_cell_length_c   6.69347599
_cell_angle_alpha   90.00000000
_cell_angle_beta   90.00000000
_cell_angle_gamma   113.38352832
_symmetry_Int_Tables_number   1
_chemical_formula_structural   MnCrO4
_chemical_formula_sum   'Mn2 Cr2 O8'
_cell_volume   161.93961655
_cell_formula_units_Z   2
loop_
 _symmetry_equiv_pos_site_id
 _symmetry_equiv_pos_as_xyz
  1  'x, y, z'
loop_
 _atom_site_type_symbol
 _atom_site_label
 _atom_site_symmetry_multiplicity
 _atom_site_fract_x
 _atom_site_fract_y
 _atom_site_fract_z
 _atom_site_occupancy
  Mn  Mn0  1  0.000000  0.000000  0.500000  1
  Mn  Mn1  1  0.000000  0.000000  0.000000  1
  Cr  Cr2  1  0.356882  0.643118  0.250000  1
  Cr  Cr3  1  0.643118  0.356882  0.750000  1
  O  O4  1  0.244445  0.755555  0.448535  1
  O  O5  1  0.755555  0.244445  0.551465  1
  O  O6  1  0.244445  0.755555  0.051465  1
  O  O7  1  0.755555  0.244445  0.948535  1
  O  O8  1  0.719713  0.783820  0.250000  1
  O  O9  1  0.783820  0.719713  0.750000  1
  O  O10  1  0.280287  0.216180  0.750000  1
  O  O11  1  0.216180  0.280287  0.250000  1
