# generated using pymatgen
data_Li3(Fe2S3)2
_symmetry_space_group_name_H-M   'P 1'
_cell_length_a   6.45565253
_cell_length_b   6.45565253
_cell_length_c   6.21371540
_cell_angle_alpha   89.89810552
_cell_angle_beta   90.10189448
_cell_angle_gamma   59.76800076
_symmetry_Int_Tables_number   1
_chemical_formula_structural   Li3(Fe2S3)2
_chemical_formula_sum   'Li3 Fe4 S6'
_cell_volume   223.73785867
_cell_formula_units_Z   1
loop_
 _symmetry_equiv_pos_site_id
 _symmetry_equiv_pos_as_xyz
  1  'x, y, z'
loop_
 _atom_site_type_symbol
 _atom_site_label
 _atom_site_symmetry_multiplicity
 _atom_site_fract_x
 _atom_site_fract_y
 _atom_site_fract_z
 _atom_site_occupancy
  Li  Li0  1  0.000000  0.000000  0.000000  1
  Li  Li1  1  0.648241  0.648241  0.000000  1
  Li  Li2  1  0.351759  0.351759  0.000000  1
  Fe  Fe3  1  0.664033  0.006927  0.387492  1
  Fe  Fe4  1  0.993073  0.335967  0.387492  1
  Fe  Fe5  1  0.335967  0.993073  0.612508  1
  Fe  Fe6  1  0.006927  0.664033  0.612508  1
  S  S7  1  0.686368  0.313632  0.237905  1
  S  S8  1  0.331346  0.016979  0.256782  1
  S  S9  1  0.983021  0.668654  0.256782  1
  S  S10  1  0.668654  0.983021  0.743218  1
  S  S11  1  0.016979  0.331346  0.743218  1
  S  S12  1  0.313632  0.686368  0.762095  1
