# generated using pymatgen
data_Li3Sb17S27
_symmetry_space_group_name_H-M   'P 1'
_cell_length_a   8.84026596
_cell_length_b   8.84909548
_cell_length_c   15.49285901
_cell_angle_alpha   103.86284213
_cell_angle_beta   95.38246959
_cell_angle_gamma   96.31730557
_symmetry_Int_Tables_number   1
_chemical_formula_structural   Li3Sb17S27
_chemical_formula_sum   'Li3 Sb17 S27'
_cell_volume   1160.42963715
_cell_formula_units_Z   1
loop_
 _symmetry_equiv_pos_site_id
 _symmetry_equiv_pos_as_xyz
  1  'x, y, z'
loop_
 _atom_site_type_symbol
 _atom_site_label
 _atom_site_symmetry_multiplicity
 _atom_site_fract_x
 _atom_site_fract_y
 _atom_site_fract_z
 _atom_site_occupancy
  Li  Li0  1  0.167835  0.170341  0.506076  1
  Li  Li1  1  0.501677  0.498648  0.501629  1
  Li  Li2  1  0.835790  0.832506  0.501592  1
  Sb  Sb3  1  0.622378  0.332485  0.921039  1
  Sb  Sb4  1  0.126357  0.594063  0.617478  1
  Sb  Sb5  1  0.886657  0.005660  0.807832  1
  Sb  Sb6  1  0.536881  0.059031  0.386402  1
  Sb  Sb7  1  0.052358  0.331913  0.067158  1
  Sb  Sb8  1  0.814874  0.281527  0.617954  1
  Sb  Sb9  1  0.283317  0.993989  0.921119  1
  Sb  Sb10  1  0.534496  0.654070  0.807193  1
  Sb  Sb11  1  0.467897  0.319930  0.182976  1
  Sb  Sb12  1  0.710322  0.002357  0.069314  1
  Sb  Sb13  1  0.205917  0.723642  0.387309  1
  Sb  Sb14  1  0.958393  0.663261  0.929059  1
  Sb  Sb15  1  0.452566  0.952359  0.610934  1
  Sb  Sb16  1  0.134694  0.995685  0.187482  1
  Sb  Sb17  1  0.870290  0.388300  0.385685  1
  Sb  Sb18  1  0.379340  0.659941  0.067723  1
  Sb  Sb19  1  0.795424  0.657801  0.186419  1
  S  S20  1  0.156723  0.014933  0.774196  1
  S  S21  1  0.104406  0.329183  0.653936  1
  S  S22  1  0.220826  0.015029  0.350762  1
  S  S23  1  0.560785  0.022779  0.873255  1
  S  S24  1  0.168316  0.303549  0.222419  1
  S  S25  1  0.180284  0.467765  0.462777  1
  S  S26  1  0.477075  0.198638  0.535257  1
  S  S27  1  0.503648  0.362806  0.774548  1
  S  S28  1  0.235934  0.688936  0.880751  1
  S  S29  1  0.097002  0.649660  0.125020  1
  S  S30  1  0.841587  0.129857  0.462591  1
  S  S31  1  0.438686  0.648359  0.647829  1
  S  S32  1  0.559246  0.343672  0.353370  1
  S  S33  1  0.157170  0.879009  0.534819  1
  S  S34  1  0.898925  0.352851  0.879425  1
  S  S35  1  0.324826  0.347434  0.010238  1
  S  S36  1  0.756981  0.316896  0.130785  1
  S  S37  1  0.508320  0.641730  0.223176  1
  S  S38  1  0.512982  0.795669  0.466174  1
  S  S39  1  0.819585  0.538142  0.534502  1
  S  S40  1  0.829084  0.691633  0.776150  1
  S  S41  1  0.432478  0.992494  0.130123  1
  S  S42  1  0.782296  0.992463  0.647135  1
  S  S43  1  0.891690  0.678875  0.352560  1
  S  S44  1  0.664537  0.671869  0.003977  1
  S  S45  1  0.837732  0.971005  0.221277  1
  S  S46  1  0.994091  0.003570  0.001396  1
