# generated using pymatgen
data_Sb5O7F
_symmetry_space_group_name_H-M   'P 1'
_cell_length_a   6.79025105
_cell_length_b   12.92777741
_cell_length_c   13.58973703
_cell_angle_alpha   90.00000000
_cell_angle_beta   118.19845079
_cell_angle_gamma   90.00000000
_symmetry_Int_Tables_number   1
_chemical_formula_structural   Sb5O7F
_chemical_formula_sum   'Sb20 O28 F4'
_cell_volume   1051.36258569
_cell_formula_units_Z   4
loop_
 _symmetry_equiv_pos_site_id
 _symmetry_equiv_pos_as_xyz
  1  'x, y, z'
loop_
 _atom_site_type_symbol
 _atom_site_label
 _atom_site_symmetry_multiplicity
 _atom_site_fract_x
 _atom_site_fract_y
 _atom_site_fract_z
 _atom_site_occupancy
  Sb  Sb0  1  0.138136  0.256992  0.083471  1
  Sb  Sb1  1  0.825686  0.232900  0.739948  1
  Sb  Sb2  1  0.532891  0.265441  0.435008  1
  Sb  Sb3  1  0.829386  0.949354  0.577866  1
  Sb  Sb4  1  0.132675  0.048661  0.898723  1
  Sb  Sb5  1  0.867325  0.548661  0.601277  1
  Sb  Sb6  1  0.170614  0.449354  0.922134  1
  Sb  Sb7  1  0.467109  0.765441  0.064992  1
  Sb  Sb8  1  0.174314  0.732900  0.760052  1
  Sb  Sb9  1  0.861864  0.756992  0.416529  1
  Sb  Sb10  1  0.138136  0.243008  0.583471  1
  Sb  Sb11  1  0.825686  0.267100  0.239948  1
  Sb  Sb12  1  0.532891  0.234559  0.935008  1
  Sb  Sb13  1  0.829386  0.550646  0.077866  1
  Sb  Sb14  1  0.132675  0.451339  0.398723  1
  Sb  Sb15  1  0.867325  0.951339  0.101277  1
  Sb  Sb16  1  0.170614  0.050646  0.422134  1
  Sb  Sb17  1  0.467109  0.734559  0.564992  1
  Sb  Sb18  1  0.174314  0.767100  0.260052  1
  Sb  Sb19  1  0.861864  0.743008  0.916529  1
  O  O20  1  0.022479  0.393629  0.009604  1
  O  O21  1  0.548109  0.612943  0.507596  1
  O  O22  1  0.993752  0.173623  0.941670  1
  O  O23  1  0.610646  0.830122  0.500107  1
  O  O24  1  0.893743  0.649658  0.723558  1
  O  O25  1  0.981717  0.370782  0.784201  1
  O  O26  1  0.169929  0.754418  0.915610  1
  O  O27  1  0.830071  0.254418  0.584390  1
  O  O28  1  0.018283  0.870782  0.715799  1
  O  O29  1  0.106257  0.149658  0.776442  1
  O  O30  1  0.389354  0.330122  0.999893  1
  O  O31  1  0.006248  0.673623  0.558330  1
  O  O32  1  0.451891  0.112943  0.992404  1
  O  O33  1  0.977521  0.893629  0.490396  1
  O  O34  1  0.022479  0.106371  0.509604  1
  O  O35  1  0.548109  0.887057  0.007596  1
  O  O36  1  0.993752  0.326377  0.441670  1
  O  O37  1  0.610646  0.669878  0.000107  1
  O  O38  1  0.893743  0.850342  0.223558  1
  O  O39  1  0.981717  0.129218  0.284201  1
  O  O40  1  0.169929  0.745582  0.415610  1
  O  O41  1  0.830071  0.245582  0.084390  1
  O  O42  1  0.018283  0.629218  0.215799  1
  O  O43  1  0.106257  0.350342  0.276442  1
  O  O44  1  0.389354  0.169878  0.499893  1
  O  O45  1  0.006248  0.826377  0.058330  1
  O  O46  1  0.451891  0.387057  0.492404  1
  O  O47  1  0.977521  0.606371  0.990396  1
  F  F48  1  0.223952  0.964515  0.222079  1
  F  F49  1  0.776048  0.464515  0.277921  1
  F  F50  1  0.223952  0.535485  0.722079  1
  F  F51  1  0.776048  0.035485  0.777921  1
