# generated using pymatgen
data_K2SbPCO7
_symmetry_space_group_name_H-M   'P 1'
_cell_length_a   6.06035643
_cell_length_b   7.01048191
_cell_length_c   9.94011255
_cell_angle_alpha   90.00000000
_cell_angle_beta   97.03937593
_cell_angle_gamma   90.00000000
_symmetry_Int_Tables_number   1
_chemical_formula_structural   K2SbPCO7
_chemical_formula_sum   'K4 Sb2 P2 C2 O14'
_cell_volume   419.13246449
_cell_formula_units_Z   2
loop_
 _symmetry_equiv_pos_site_id
 _symmetry_equiv_pos_as_xyz
  1  'x, y, z'
loop_
 _atom_site_type_symbol
 _atom_site_label
 _atom_site_symmetry_multiplicity
 _atom_site_fract_x
 _atom_site_fract_y
 _atom_site_fract_z
 _atom_site_occupancy
  K  K0  1  0.248346  0.010894  0.223967  1
  K  K1  1  0.248346  0.489106  0.223967  1
  K  K2  1  0.751654  0.510894  0.776033  1
  K  K3  1  0.751654  0.989106  0.776033  1
  Sb  Sb4  1  0.809482  0.750000  0.379428  1
  Sb  Sb5  1  0.190518  0.250000  0.620572  1
  P  P6  1  0.743324  0.250000  0.409268  1
  P  P7  1  0.256676  0.750000  0.590732  1
  C  C8  1  0.718524  0.750000  0.105369  1
  C  C9  1  0.281476  0.250000  0.894631  1
  O  O10  1  0.282779  0.250000  0.020035  1
  O  O11  1  0.915028  0.750000  0.187620  1
  O  O12  1  0.546004  0.750000  0.171835  1
  O  O13  1  0.841384  0.070411  0.343617  1
  O  O14  1  0.841384  0.429589  0.343617  1
  O  O15  1  0.159447  0.750000  0.432681  1
  O  O16  1  0.490936  0.250000  0.398044  1
  O  O17  1  0.509064  0.750000  0.601956  1
  O  O18  1  0.840553  0.250000  0.567319  1
  O  O19  1  0.158616  0.570411  0.656383  1
  O  O20  1  0.158616  0.929589  0.656383  1
  O  O21  1  0.453996  0.250000  0.828165  1
  O  O22  1  0.084972  0.250000  0.812380  1
  O  O23  1  0.717221  0.750000  0.979965  1
