# generated using pymatgen
data_Na4(NiO2)9
_symmetry_space_group_name_H-M   'P 1'
_cell_length_a   7.08716771
_cell_length_b   7.10909403
_cell_length_c   7.51280763
_cell_angle_alpha   103.80079815
_cell_angle_beta   90.66574355
_cell_angle_gamma   105.81586331
_symmetry_Int_Tables_number   1
_chemical_formula_structural   Na4(NiO2)9
_chemical_formula_sum   'Na4 Ni9 O18'
_cell_volume   352.48513978
_cell_formula_units_Z   1
loop_
 _symmetry_equiv_pos_site_id
 _symmetry_equiv_pos_as_xyz
  1  'x, y, z'
loop_
 _atom_site_type_symbol
 _atom_site_label
 _atom_site_symmetry_multiplicity
 _atom_site_fract_x
 _atom_site_fract_y
 _atom_site_fract_z
 _atom_site_occupancy
  Na  Na0  1  0.102776  0.098404  0.697792  1
  Na  Na1  1  0.201600  0.199828  0.301705  1
  Na  Na2  1  0.581434  0.581208  0.365092  1
  Na  Na3  1  0.671386  0.675048  0.970035  1
  Ni  Ni4  1  0.057192  0.547604  0.834967  1
  Ni  Ni5  1  0.502656  0.002880  0.495376  1
  Ni  Ni6  1  0.169337  0.666003  0.502349  1
  Ni  Ni7  1  0.609943  0.115833  0.165038  1
  Ni  Ni8  1  0.716523  0.227567  0.832244  1
  Ni  Ni9  1  0.276307  0.774337  0.167282  1
  Ni  Ni10  1  0.835420  0.329728  0.498799  1
  Ni  Ni11  1  0.387593  0.887800  0.833645  1
  Ni  Ni12  1  0.943550  0.448793  0.170187  1
  O  O13  1  0.984336  0.318255  0.930436  1
  O  O14  1  0.096202  0.401766  0.599087  1
  O  O15  1  0.329943  0.002600  0.074352  1
  O  O16  1  0.456559  0.143018  0.725904  1
  O  O17  1  0.318498  0.629649  0.935959  1
  O  O18  1  0.565562  0.239133  0.404586  1
  O  O19  1  0.772590  0.087860  0.571005  1
  O  O20  1  0.119411  0.781454  0.744176  1
  O  O21  1  0.216268  0.540099  0.261610  1
  O  O22  1  0.792114  0.462147  0.735514  1
  O  O23  1  0.679952  0.384055  0.093296  1
  O  O24  1  0.442608  0.772481  0.589314  1
  O  O25  1  0.888962  0.216891  0.258863  1
  O  O26  1  0.237542  0.924183  0.403972  1
  O  O27  1  0.899320  0.568107  0.412498  1
  O  O28  1  0.653752  0.992553  0.927730  1
  O  O29  1  0.538795  0.855061  0.257063  1
  O  O30  1  0.007426  0.681213  0.073452  1
