# generated using pymatgen
data_Ag2SnO3
_symmetry_space_group_name_H-M   'P 1'
_cell_length_a   5.75484602
_cell_length_b   5.75484602
_cell_length_c   12.88540757
_cell_angle_alpha   90.00000000
_cell_angle_beta   90.00000000
_cell_angle_gamma   120.00000000
_symmetry_Int_Tables_number   1
_chemical_formula_structural   Ag2SnO3
_chemical_formula_sum   'Ag8 Sn4 O12'
_cell_volume   369.56957189
_cell_formula_units_Z   4
loop_
 _symmetry_equiv_pos_site_id
 _symmetry_equiv_pos_as_xyz
  1  'x, y, z'
loop_
 _atom_site_type_symbol
 _atom_site_label
 _atom_site_symmetry_multiplicity
 _atom_site_fract_x
 _atom_site_fract_y
 _atom_site_fract_z
 _atom_site_occupancy
  Ag  Ag0  1  0.000000  0.676948  0.500000  1
  Ag  Ag1  1  0.000000  0.323052  0.000000  1
  Ag  Ag2  1  0.333333  0.666667  0.750000  1
  Ag  Ag3  1  0.323052  0.323052  0.500000  1
  Ag  Ag4  1  0.323052  0.000000  0.000000  1
  Ag  Ag5  1  0.676948  0.676948  0.000000  1
  Ag  Ag6  1  0.666667  0.333333  0.250000  1
  Ag  Ag7  1  0.676948  0.000000  0.500000  1
  Sn  Sn8  1  0.333333  0.666667  0.250000  1
  Sn  Sn9  1  0.000000  0.000000  0.250000  1
  Sn  Sn10  1  0.000000  0.000000  0.750000  1
  Sn  Sn11  1  0.666667  0.333333  0.750000  1
  O  O12  1  0.052885  0.719133  0.337473  1
  O  O13  1  0.280867  0.947115  0.162527  1
  O  O14  1  0.052885  0.333752  0.162527  1
  O  O15  1  0.280867  0.333752  0.337473  1
  O  O16  1  0.666248  0.947115  0.337473  1
  O  O17  1  0.333752  0.280867  0.662527  1
  O  O18  1  0.666248  0.719133  0.162527  1
  O  O19  1  0.333752  0.052885  0.837473  1
  O  O20  1  0.719133  0.666248  0.837473  1
  O  O21  1  0.947115  0.666248  0.662527  1
  O  O22  1  0.719133  0.052885  0.662527  1
  O  O23  1  0.947115  0.280867  0.837473  1
