# generated using pymatgen
data_Li3Fe5O12
_symmetry_space_group_name_H-M   'P 1'
_cell_length_a   5.01147290
_cell_length_b   5.35412085
_cell_length_c   7.37008223
_cell_angle_alpha   94.90410641
_cell_angle_beta   90.03685046
_cell_angle_gamma   90.53171308
_symmetry_Int_Tables_number   1
_chemical_formula_structural   Li3Fe5O12
_chemical_formula_sum   'Li3 Fe5 O12'
_cell_volume   197.02164543
_cell_formula_units_Z   1
loop_
 _symmetry_equiv_pos_site_id
 _symmetry_equiv_pos_as_xyz
  1  'x, y, z'
loop_
 _atom_site_type_symbol
 _atom_site_label
 _atom_site_symmetry_multiplicity
 _atom_site_fract_x
 _atom_site_fract_y
 _atom_site_fract_z
 _atom_site_occupancy
  Li  Li0  1  0.500056  0.060194  0.720069  1
  Li  Li1  1  0.501400  0.063388  0.208447  1
  Li  Li2  1  0.999929  0.572743  0.215504  1
  Fe  Fe3  1  0.508259  0.479589  0.009414  1
  Fe  Fe4  1  0.498336  0.478413  0.496446  1
  Fe  Fe5  1  0.001920  0.600941  0.706716  1
  Fe  Fe6  1  0.000216  0.995596  0.015901  1
  Fe  Fe7  1  0.988899  0.007255  0.494279  1
  O  O8  1  0.323602  0.160333  0.958763  1
  O  O9  1  0.655948  0.153311  0.456204  1
  O  O10  1  0.182270  0.308078  0.594275  1
  O  O11  1  0.805578  0.278379  0.083769  1
  O  O12  1  0.656731  0.460349  0.759150  1
  O  O13  1  0.377114  0.471209  0.256348  1
  O  O14  1  0.177451  0.653365  0.941084  1
  O  O15  1  0.824351  0.654757  0.466161  1
  O  O16  1  0.291253  0.775970  0.584539  1
  O  O17  1  0.700921  0.775290  0.083905  1
  O  O18  1  0.880422  0.944121  0.763246  1
  O  O19  1  0.125343  0.965920  0.256178  1
