# generated using pymatgen
data_NaB2H5O6
_symmetry_space_group_name_H-M   'P 1'
_cell_length_a   9.67183222
_cell_length_b   9.67183222
_cell_length_c   9.67183222
_cell_angle_alpha   71.39745318
_cell_angle_beta   71.39745318
_cell_angle_gamma   71.39745318
_symmetry_Int_Tables_number   1
_chemical_formula_structural   NaB2H5O6
_chemical_formula_sum   'Na6 B12 H30 O36'
_cell_volume   788.55100013
_cell_formula_units_Z   6
loop_
 _symmetry_equiv_pos_site_id
 _symmetry_equiv_pos_as_xyz
  1  'x, y, z'
loop_
 _atom_site_type_symbol
 _atom_site_label
 _atom_site_symmetry_multiplicity
 _atom_site_fract_x
 _atom_site_fract_y
 _atom_site_fract_z
 _atom_site_occupancy
  Na  Na0  1  0.500000  0.825413  0.174587  1
  Na  Na1  1  0.174587  0.500000  0.825413  1
  Na  Na2  1  0.825413  0.174587  0.500000  1
  Na  Na3  1  0.500000  0.500000  0.500000  1
  Na  Na4  1  0.085280  0.085280  0.085280  1
  Na  Na5  1  0.914720  0.914720  0.914720  1
  B  B6  1  0.475649  0.116121  0.552702  1
  B  B7  1  0.552702  0.475649  0.116121  1
  B  B8  1  0.116121  0.552702  0.475649  1
  B  B9  1  0.447298  0.883880  0.524351  1
  B  B10  1  0.883880  0.524351  0.447298  1
  B  B11  1  0.524351  0.447298  0.883880  1
  B  B12  1  0.530377  0.230184  0.106562  1
  B  B13  1  0.106562  0.530377  0.230184  1
  B  B14  1  0.230184  0.106562  0.530377  1
  B  B15  1  0.893438  0.769816  0.469623  1
  B  B16  1  0.769816  0.469623  0.893438  1
  B  B17  1  0.469623  0.893438  0.769816  1
  H  H18  1  0.564056  0.264017  0.382587  1
  H  H19  1  0.382587  0.564056  0.264017  1
  H  H20  1  0.264017  0.382587  0.564056  1
  H  H21  1  0.617413  0.735983  0.435944  1
  H  H22  1  0.735983  0.435944  0.617413  1
  H  H23  1  0.435944  0.617413  0.735983  1
  H  H24  1  0.526092  0.057303  0.285469  1
  H  H25  1  0.285469  0.526092  0.057303  1
  H  H26  1  0.057303  0.285469  0.526092  1
  H  H27  1  0.714531  0.942697  0.473908  1
  H  H28  1  0.942697  0.473908  0.714531  1
  H  H29  1  0.473908  0.714531  0.942697  1
  H  H30  1  0.237864  0.941808  0.358116  1
  H  H31  1  0.358116  0.237864  0.941808  1
  H  H32  1  0.941808  0.358116  0.237864  1
  H  H33  1  0.641884  0.058192  0.762136  1
  H  H34  1  0.058192  0.762136  0.641884  1
  H  H35  1  0.762136  0.641884  0.058192  1
  H  H36  1  0.166693  0.834843  0.331518  1
  H  H37  1  0.331518  0.166693  0.834843  1
  H  H38  1  0.834843  0.331518  0.166693  1
  H  H39  1  0.668482  0.165157  0.833307  1
  H  H40  1  0.165157  0.833307  0.668482  1
  H  H41  1  0.833307  0.668482  0.165157  1
  H  H42  1  0.028245  0.153134  0.741178  1
  H  H43  1  0.741178  0.028245  0.153134  1
  H  H44  1  0.153134  0.741178  0.028245  1
  H  H45  1  0.258822  0.846866  0.971755  1
  H  H46  1  0.846866  0.971755  0.258822  1
  H  H47  1  0.971755  0.258822  0.846866  1
  O  O48  1  0.000000  0.464872  0.535128  1
  O  O49  1  0.535128  0.000000  0.464872  1
  O  O50  1  0.464872  0.535128  0.000000  1
  O  O51  1  0.286415  0.959964  0.515060  1
  O  O52  1  0.515060  0.286415  0.959964  1
  O  O53  1  0.959964  0.515060  0.286415  1
  O  O54  1  0.484940  0.040036  0.713585  1
  O  O55  1  0.040036  0.713585  0.484940  1
  O  O56  1  0.713585  0.484940  0.040036  1
  O  O57  1  0.551898  0.314159  0.184604  1
  O  O58  1  0.184604  0.551898  0.314159  1
  O  O59  1  0.314159  0.184604  0.551898  1
  O  O60  1  0.815396  0.685841  0.448102  1
  O  O61  1  0.685841  0.448102  0.815396  1
  O  O62  1  0.448102  0.815396  0.685841  1
  O  O63  1  0.560829  0.230718  0.491466  1
  O  O64  1  0.491466  0.560829  0.230718  1
  O  O65  1  0.230718  0.491466  0.560829  1
  O  O66  1  0.508534  0.769282  0.439171  1
  O  O67  1  0.769282  0.439171  0.508534  1
  O  O68  1  0.439171  0.508534  0.769282  1
  O  O69  1  0.527738  0.080603  0.175160  1
  O  O70  1  0.175160  0.527738  0.080603  1
  O  O71  1  0.080603  0.175160  0.527738  1
  O  O72  1  0.824840  0.919397  0.472262  1
  O  O73  1  0.919397  0.472262  0.824840  1
  O  O74  1  0.472262  0.824840  0.919397  1
  O  O75  1  0.221678  0.913781  0.275353  1
  O  O76  1  0.275353  0.221678  0.913781  1
  O  O77  1  0.913781  0.275353  0.221678  1
  O  O78  1  0.724647  0.086219  0.778322  1
  O  O79  1  0.086219  0.778322  0.724647  1
  O  O80  1  0.778322  0.724647  0.086219  1
  O  O81  1  0.000000  0.151459  0.848541  1
  O  O82  1  0.848541  0.000000  0.151459  1
  O  O83  1  0.151459  0.848541  0.000000  1
