# generated using pymatgen
data_Li2Cr3(CoO4)3
_symmetry_space_group_name_H-M   'P 1'
_cell_length_a   5.78639721
_cell_length_b   5.94050570
_cell_length_c   6.65628587
_cell_angle_alpha   105.22757319
_cell_angle_beta   102.78554116
_cell_angle_gamma   88.83353997
_symmetry_Int_Tables_number   1
_chemical_formula_structural   Li2Cr3(CoO4)3
_chemical_formula_sum   'Li2 Cr3 Co3 O12'
_cell_volume   215.12328593
_cell_formula_units_Z   1
loop_
 _symmetry_equiv_pos_site_id
 _symmetry_equiv_pos_as_xyz
  1  'x, y, z'
loop_
 _atom_site_type_symbol
 _atom_site_label
 _atom_site_symmetry_multiplicity
 _atom_site_fract_x
 _atom_site_fract_y
 _atom_site_fract_z
 _atom_site_occupancy
  Li  Li0  1  0.686889  0.680480  0.677900  1
  Li  Li1  1  0.313111  0.319520  0.322100  1
  Cr  Cr2  1  0.831959  0.839959  0.325811  1
  Cr  Cr3  1  0.500000  0.500000  0.000000  1
  Cr  Cr4  1  0.168041  0.160041  0.674189  1
  Co  Co5  1  0.333910  0.835332  0.332321  1
  Co  Co6  1  0.000000  0.500000  0.000000  1
  Co  Co7  1  0.666090  0.164668  0.667679  1
  O  O8  1  0.252248  0.719621  0.027229  1
  O  O9  1  0.751955  0.715756  0.007208  1
  O  O10  1  0.426905  0.933682  0.637225  1
  O  O11  1  0.087970  0.607810  0.301318  1
  O  O12  1  0.897978  0.942241  0.643347  1
  O  O13  1  0.572436  0.611541  0.314799  1
  O  O14  1  0.427564  0.388459  0.685201  1
  O  O15  1  0.102022  0.057759  0.356653  1
  O  O16  1  0.912030  0.392190  0.698682  1
  O  O17  1  0.573095  0.066318  0.362775  1
  O  O18  1  0.248045  0.284244  0.992792  1
  O  O19  1  0.747752  0.280379  0.972771  1
