# generated using pymatgen
data_Mn6OF11
_symmetry_space_group_name_H-M   'P 1'
_cell_length_a   4.96419673
_cell_length_b   16.21416429
_cell_length_c   5.88786593
_cell_angle_alpha   90.00000000
_cell_angle_beta   90.89403816
_cell_angle_gamma   90.00000000
_symmetry_Int_Tables_number   1
_chemical_formula_structural   Mn6OF11
_chemical_formula_sum   'Mn12 O2 F22'
_cell_volume   473.85840943
_cell_formula_units_Z   2
loop_
 _symmetry_equiv_pos_site_id
 _symmetry_equiv_pos_as_xyz
  1  'x, y, z'
loop_
 _atom_site_type_symbol
 _atom_site_label
 _atom_site_symmetry_multiplicity
 _atom_site_fract_x
 _atom_site_fract_y
 _atom_site_fract_z
 _atom_site_occupancy
  Mn  Mn0  1  0.254355  0.415292  0.076451  1
  Mn  Mn1  1  0.241512  0.249490  0.420695  1
  Mn  Mn2  1  0.230664  0.088123  0.065264  1
  Mn  Mn3  1  0.236377  0.744467  0.083996  1
  Mn  Mn4  1  0.240039  0.585350  0.395030  1
  Mn  Mn5  1  0.257941  0.919769  0.416292  1
  Mn  Mn6  1  0.769336  0.588123  0.934736  1
  Mn  Mn7  1  0.745645  0.915292  0.923549  1
  Mn  Mn8  1  0.742059  0.419769  0.583708  1
  Mn  Mn9  1  0.763623  0.244467  0.916004  1
  Mn  Mn10  1  0.759961  0.085350  0.604970  1
  Mn  Mn11  1  0.758488  0.749490  0.579305  1
  O  O12  1  0.039901  0.634783  0.162073  1
  O  O13  1  0.960099  0.134783  0.837927  1
  F  F14  1  0.016308  0.308247  0.145282  1
  F  F15  1  0.030806  0.974149  0.140243  1
  F  F16  1  0.008380  0.138298  0.355996  1
  F  F17  1  0.030270  0.475256  0.362740  1
  F  F18  1  0.020218  0.810275  0.357186  1
  F  F19  1  0.979782  0.310275  0.642814  1
  F  F20  1  0.969194  0.474149  0.859757  1
  F  F21  1  0.991620  0.638298  0.644004  1
  F  F22  1  0.983692  0.808247  0.854718  1
  F  F23  1  0.969730  0.975256  0.637260  1
  F  F24  1  0.513811  0.024573  0.857295  1
  F  F25  1  0.525318  0.356474  0.855943  1
  F  F26  1  0.499815  0.532472  0.626717  1
  F  F27  1  0.520390  0.188712  0.630730  1
  F  F28  1  0.522140  0.859315  0.641914  1
  F  F29  1  0.537555  0.694953  0.864464  1
  F  F30  1  0.477860  0.359315  0.358086  1
  F  F31  1  0.474682  0.856474  0.144057  1
  F  F32  1  0.462445  0.194953  0.135536  1
  F  F33  1  0.500185  0.032472  0.373283  1
  F  F34  1  0.486189  0.524573  0.142705  1
  F  F35  1  0.479610  0.688712  0.369270  1
