# generated using pymatgen
data_La2Nb2N2O5
_symmetry_space_group_name_H-M   'P 1'
_cell_length_a   5.71461481
_cell_length_b   8.05266305
_cell_length_c   13.74421779
_cell_angle_alpha   98.38065761
_cell_angle_beta   91.17967935
_cell_angle_gamma   89.98901213
_symmetry_Int_Tables_number   1
_chemical_formula_structural   La2Nb2N2O5
_chemical_formula_sum   'La8 Nb8 N8 O20'
_cell_volume   625.59057195
_cell_formula_units_Z   4
loop_
 _symmetry_equiv_pos_site_id
 _symmetry_equiv_pos_as_xyz
  1  'x, y, z'
loop_
 _atom_site_type_symbol
 _atom_site_label
 _atom_site_symmetry_multiplicity
 _atom_site_fract_x
 _atom_site_fract_y
 _atom_site_fract_z
 _atom_site_occupancy
  La  La0  1  0.339240  0.133640  0.567631  1
  La  La1  1  0.765226  0.214594  0.909648  1
  La  La2  1  0.253046  0.275300  0.122269  1
  La  La3  1  0.772844  0.338564  0.381437  1
  La  La4  1  0.286862  0.673862  0.616284  1
  La  La5  1  0.751809  0.729413  0.880555  1
  La  La6  1  0.265029  0.779626  0.093096  1
  La  La7  1  0.829869  0.862340  0.432334  1
  Nb  Nb8  1  0.263190  0.058354  0.312104  1
  Nb  Nb9  1  0.739576  0.017364  0.109071  1
  Nb  Nb10  1  0.793852  0.414876  0.673459  1
  Nb  Nb11  1  0.264673  0.470721  0.882442  1
  Nb  Nb12  1  0.766303  0.535166  0.118289  1
  Nb  Nb13  1  0.284238  0.587552  0.326453  1
  Nb  Nb14  1  0.264310  0.963401  0.875232  1
  Nb  Nb15  1  0.786401  0.928015  0.676354  1
  N  N16  1  0.456457  0.029930  0.190118  1
  N  N17  1  0.455070  0.872693  0.772695  1
  N  N18  1  0.539489  0.961109  0.986343  1
  N  N19  1  0.557549  0.873281  0.569237  1
  N  N20  1  0.820880  0.771270  0.108759  1
  N  N21  1  0.192781  0.822935  0.303787  1
  N  N22  1  0.940911  0.974566  0.821788  1
  N  N23  1  0.045922  0.916242  0.590061  1
  O  O24  1  0.540587  0.091874  0.409337  1
  O  O25  1  0.688025  0.182507  0.696092  1
  O  O26  1  0.321314  0.229235  0.889742  1
  O  O27  1  0.053158  0.136136  0.429995  1
  O  O28  1  0.039508  0.051110  0.025703  1
  O  O29  1  0.972772  0.126006  0.230379  1
  O  O30  1  0.078699  0.374576  0.614194  1
  O  O31  1  0.943578  0.431215  0.820768  1
  O  O32  1  0.673657  0.277618  0.086392  1
  O  O33  1  0.352497  0.337169  0.304486  1
  O  O34  1  0.586851  0.409180  0.560803  1
  O  O35  1  0.523858  0.535808  0.980722  1
  O  O36  1  0.453933  0.499159  0.774613  1
  O  O37  1  0.962987  0.497314  0.228054  1
  O  O38  1  0.029680  0.461380  0.019419  1
  O  O39  1  0.080569  0.587002  0.436632  1
  O  O40  1  0.847004  0.663278  0.695053  1
  O  O41  1  0.174135  0.721562  0.912371  1
  O  O42  1  0.444984  0.565017  0.178438  1
  O  O43  1  0.581658  0.618039  0.387360  1
