# generated using pymatgen
data_Li2FeSiO4
_symmetry_space_group_name_H-M   'P 1'
_cell_length_a   5.07693849
_cell_length_b   6.28760254
_cell_length_c   10.96777649
_cell_angle_alpha   90.00000000
_cell_angle_beta   90.00000000
_cell_angle_gamma   90.00000000
_symmetry_Int_Tables_number   1
_chemical_formula_structural   Li2FeSiO4
_chemical_formula_sum   'Li8 Fe4 Si4 O16'
_cell_volume   350.11085328
_cell_formula_units_Z   4
loop_
 _symmetry_equiv_pos_site_id
 _symmetry_equiv_pos_as_xyz
  1  'x, y, z'
loop_
 _atom_site_type_symbol
 _atom_site_label
 _atom_site_symmetry_multiplicity
 _atom_site_fract_x
 _atom_site_fract_y
 _atom_site_fract_z
 _atom_site_occupancy
  Li  Li0  1  0.758085  0.000781  0.172694  1
  Li  Li1  1  0.758230  0.254000  0.910694  1
  Li  Li2  1  0.758230  0.246000  0.410694  1
  Li  Li3  1  0.758085  0.499219  0.672694  1
  Li  Li4  1  0.258085  0.500781  0.327306  1
  Li  Li5  1  0.258230  0.754000  0.589306  1
  Li  Li6  1  0.258230  0.746000  0.089306  1
  Li  Li7  1  0.258085  0.999219  0.827306  1
  Fe  Fe8  1  0.257409  0.250065  0.583342  1
  Fe  Fe9  1  0.257409  0.249935  0.083342  1
  Fe  Fe10  1  0.757409  0.750065  0.916658  1
  Fe  Fe11  1  0.757409  0.749935  0.416658  1
  Si  Si12  1  0.264113  0.999636  0.334339  1
  Si  Si13  1  0.264113  0.500364  0.834339  1
  Si  Si14  1  0.764113  0.499636  0.165661  1
  Si  Si15  1  0.764113  0.000364  0.665661  1
  O  O16  1  0.087866  0.997500  0.666953  1
  O  O17  1  0.155899  0.001743  0.191272  1
  O  O18  1  0.157873  0.282561  0.905586  1
  O  O19  1  0.663650  0.219086  0.593221  1
  O  O20  1  0.663650  0.280914  0.093221  1
  O  O21  1  0.157873  0.217439  0.405586  1
  O  O22  1  0.155899  0.498257  0.691272  1
  O  O23  1  0.087866  0.502500  0.166953  1
  O  O24  1  0.587866  0.497500  0.833047  1
  O  O25  1  0.655899  0.501743  0.308728  1
  O  O26  1  0.657873  0.782561  0.594414  1
  O  O27  1  0.163650  0.719086  0.906779  1
  O  O28  1  0.163650  0.780914  0.406779  1
  O  O29  1  0.657873  0.717439  0.094414  1
  O  O30  1  0.655899  0.998257  0.808728  1
  O  O31  1  0.587866  0.002500  0.333047  1
