# generated using pymatgen
data_INO3
_symmetry_space_group_name_H-M   'P 1'
_cell_length_a   4.34246919
_cell_length_b   7.42284823
_cell_length_c   12.09624520
_cell_angle_alpha   90.00000000
_cell_angle_beta   90.00000000
_cell_angle_gamma   90.00000000
_symmetry_Int_Tables_number   1
_chemical_formula_structural   INO3
_chemical_formula_sum   'I4 N4 O12'
_cell_volume   389.90419556
_cell_formula_units_Z   4
loop_
 _symmetry_equiv_pos_site_id
 _symmetry_equiv_pos_as_xyz
  1  'x, y, z'
loop_
 _atom_site_type_symbol
 _atom_site_label
 _atom_site_symmetry_multiplicity
 _atom_site_fract_x
 _atom_site_fract_y
 _atom_site_fract_z
 _atom_site_occupancy
  I  I0  1  0.745356  0.971063  0.785545  1
  I  I1  1  0.754644  0.028937  0.285545  1
  I  I2  1  0.245356  0.528937  0.214455  1
  I  I3  1  0.254644  0.471063  0.714455  1
  N  N4  1  0.660732  0.985391  0.537825  1
  N  N5  1  0.839268  0.014609  0.037825  1
  N  N6  1  0.160732  0.514609  0.462175  1
  N  N7  1  0.339268  0.485391  0.962175  1
  O  O8  1  0.534393  0.935320  0.445196  1
  O  O9  1  0.541843  0.898897  0.622719  1
  O  O10  1  0.635912  0.902785  0.045751  1
  O  O11  1  0.864088  0.097215  0.545751  1
  O  O12  1  0.958157  0.101103  0.122719  1
  O  O13  1  0.965607  0.064680  0.945196  1
  O  O14  1  0.034393  0.564680  0.554804  1
  O  O15  1  0.041843  0.601103  0.377281  1
  O  O16  1  0.135912  0.597215  0.954249  1
  O  O17  1  0.364088  0.402785  0.454249  1
  O  O18  1  0.458157  0.398897  0.877281  1
  O  O19  1  0.465607  0.435320  0.054804  1
