# generated using pymatgen
data_Na3Mn2P2(CO7)2
_symmetry_space_group_name_H-M   'P 1'
_cell_length_a   8.42109091
_cell_length_b   8.42509278
_cell_length_c   9.01675165
_cell_angle_alpha   90.12708927
_cell_angle_beta   92.15232291
_cell_angle_gamma   103.45031897
_symmetry_Int_Tables_number   1
_chemical_formula_structural   Na3Mn2P2(CO7)2
_chemical_formula_sum   'Na6 Mn4 P4 C4 O28'
_cell_volume   621.69993882
_cell_formula_units_Z   2
loop_
 _symmetry_equiv_pos_site_id
 _symmetry_equiv_pos_as_xyz
  1  'x, y, z'
loop_
 _atom_site_type_symbol
 _atom_site_label
 _atom_site_symmetry_multiplicity
 _atom_site_fract_x
 _atom_site_fract_y
 _atom_site_fract_z
 _atom_site_occupancy
  Na  Na0  1  0.347773  0.385277  0.755110  1
  Na  Na1  1  0.628543  0.116468  0.758886  1
  Na  Na2  1  0.875009  0.871512  0.764433  1
  Na  Na3  1  0.652227  0.614723  0.244890  1
  Na  Na4  1  0.371457  0.883532  0.241114  1
  Na  Na5  1  0.124991  0.128488  0.235567  1
  Mn  Mn6  1  0.268522  0.010770  0.656142  1
  Mn  Mn7  1  0.770750  0.515544  0.648510  1
  Mn  Mn8  1  0.229250  0.484456  0.351490  1
  Mn  Mn9  1  0.731478  0.989230  0.343858  1
  P  P10  1  0.493614  0.728977  0.569996  1
  P  P11  1  0.978502  0.238361  0.574413  1
  P  P12  1  0.506386  0.271023  0.430004  1
  P  P13  1  0.021498  0.761639  0.425587  1
  C  C14  1  0.738360  0.489377  0.917522  1
  C  C15  1  0.242046  0.990870  0.924121  1
  C  C16  1  0.261640  0.510623  0.082478  1
  C  C17  1  0.757954  0.009130  0.075879  1
  O  O18  1  0.281781  0.524017  0.948495  1
  O  O19  1  0.771154  0.013551  0.938521  1
  O  O20  1  0.357288  0.097534  0.856875  1
  O  O21  1  0.852822  0.597558  0.853434  1
  O  O22  1  0.643430  0.393679  0.814222  1
  O  O23  1  0.145398  0.893249  0.828322  1
  O  O24  1  0.626554  0.667744  0.665077  1
  O  O25  1  0.102846  0.182886  0.678394  1
  O  O26  1  0.444264  0.858618  0.665084  1
  O  O27  1  0.904573  0.360084  0.663372  1
  O  O28  1  0.346898  0.579697  0.533852  1
  O  O29  1  0.437714  0.201271  0.580218  1
  O  O30  1  0.944575  0.688795  0.571352  1
  O  O31  1  0.835753  0.086410  0.532324  1
  O  O32  1  0.653102  0.420303  0.466148  1
  O  O33  1  0.562286  0.798729  0.419782  1
  O  O34  1  0.055425  0.311205  0.428648  1
  O  O35  1  0.164247  0.913590  0.467676  1
  O  O36  1  0.555736  0.141382  0.334916  1
  O  O37  1  0.373446  0.332256  0.334923  1
  O  O38  1  0.095427  0.639916  0.336628  1
  O  O39  1  0.897154  0.817114  0.321606  1
  O  O40  1  0.356570  0.606321  0.185778  1
  O  O41  1  0.854602  0.106751  0.171678  1
  O  O42  1  0.642712  0.902466  0.143125  1
  O  O43  1  0.147178  0.402442  0.146566  1
  O  O44  1  0.718219  0.475983  0.051505  1
  O  O45  1  0.228846  0.986449  0.061479  1
