# generated using pymatgen
data_Tb2(WO4)3
_symmetry_space_group_name_H-M   'P 1'
_cell_length_a   10.19760701
_cell_length_b   10.32268756
_cell_length_c   17.42915349
_cell_angle_alpha   90.00000000
_cell_angle_beta   125.39961324
_cell_angle_gamma   90.00000000
_symmetry_Int_Tables_number   1
_chemical_formula_structural   Tb2(WO4)3
_chemical_formula_sum   'Tb8 W12 O48'
_cell_volume   1495.53001830
_cell_formula_units_Z   4
loop_
 _symmetry_equiv_pos_site_id
 _symmetry_equiv_pos_as_xyz
  1  'x, y, z'
loop_
 _atom_site_type_symbol
 _atom_site_label
 _atom_site_symmetry_multiplicity
 _atom_site_fract_x
 _atom_site_fract_y
 _atom_site_fract_z
 _atom_site_occupancy
  Tb  Tb0  1  0.133402  0.970574  0.881704  1
  Tb  Tb1  1  0.637391  0.033657  0.381995  1
  Tb  Tb2  1  0.362609  0.533657  0.118005  1
  Tb  Tb3  1  0.866598  0.470574  0.618296  1
  Tb  Tb4  1  0.133402  0.529426  0.381704  1
  Tb  Tb5  1  0.637391  0.466343  0.881995  1
  Tb  Tb6  1  0.362609  0.966343  0.618005  1
  Tb  Tb7  1  0.866598  0.029426  0.118296  1
  W  W8  1  0.974202  0.748906  0.500075  1
  W  W9  1  0.252882  0.619010  0.856767  1
  W  W10  1  0.535083  0.880561  0.142616  1
  W  W11  1  0.464917  0.380561  0.357384  1
  W  W12  1  0.747118  0.119010  0.643233  1
  W  W13  1  0.025798  0.248906  0.999925  1
  W  W14  1  0.974202  0.751094  0.000075  1
  W  W15  1  0.252882  0.880990  0.356767  1
  W  W16  1  0.535083  0.619439  0.642616  1
  W  W17  1  0.464917  0.119439  0.857384  1
  W  W18  1  0.747118  0.380990  0.143233  1
  W  W19  1  0.025798  0.251094  0.499925  1
  O  O20  1  0.299134  0.096972  0.867175  1
  O  O21  1  0.003940  0.342798  0.580582  1
  O  O22  1  0.835429  0.174799  0.412174  1
  O  O23  1  0.566312  0.411381  0.137211  1
  O  O24  1  0.821857  0.872873  0.435710  1
  O  O25  1  0.201341  0.790040  0.835245  1
  O  O26  1  0.523822  0.711370  0.166540  1
  O  O27  1  0.916377  0.641883  0.557762  1
  O  O28  1  0.565853  0.980829  0.237212  1
  O  O29  1  0.087263  0.523260  0.763105  1
  O  O30  1  0.287426  0.575665  0.967845  1
  O  O31  1  0.349684  0.927077  0.033004  1
  O  O32  1  0.650316  0.427077  0.466996  1
  O  O33  1  0.712574  0.075665  0.532155  1
  O  O34  1  0.912737  0.023260  0.736895  1
  O  O35  1  0.434147  0.480829  0.262788  1
  O  O36  1  0.083623  0.141883  0.942238  1
  O  O37  1  0.476178  0.211370  0.333460  1
  O  O38  1  0.798659  0.290040  0.664755  1
  O  O39  1  0.178143  0.372873  0.064290  1
  O  O40  1  0.996060  0.842798  0.919418  1
  O  O41  1  0.433688  0.911381  0.362789  1
  O  O42  1  0.164571  0.674799  0.087826  1
  O  O43  1  0.700866  0.596972  0.632825  1
  O  O44  1  0.299134  0.403028  0.367175  1
  O  O45  1  0.835429  0.325201  0.912174  1
  O  O46  1  0.566312  0.088619  0.637211  1
  O  O47  1  0.003940  0.157202  0.080582  1
  O  O48  1  0.821857  0.627127  0.935710  1
  O  O49  1  0.201341  0.709960  0.335245  1
  O  O50  1  0.523822  0.788630  0.666540  1
  O  O51  1  0.916377  0.858117  0.057762  1
  O  O52  1  0.565853  0.519171  0.737212  1
  O  O53  1  0.087263  0.976740  0.263105  1
  O  O54  1  0.287426  0.924335  0.467845  1
  O  O55  1  0.349684  0.572923  0.533004  1
  O  O56  1  0.650316  0.072923  0.966996  1
  O  O57  1  0.712574  0.424335  0.032155  1
  O  O58  1  0.912737  0.476740  0.236895  1
  O  O59  1  0.434147  0.019171  0.762788  1
  O  O60  1  0.083623  0.358117  0.442238  1
  O  O61  1  0.476178  0.288630  0.833460  1
  O  O62  1  0.798659  0.209960  0.164755  1
  O  O63  1  0.178143  0.127127  0.564290  1
  O  O64  1  0.433688  0.588619  0.862789  1
  O  O65  1  0.164571  0.825201  0.587826  1
  O  O66  1  0.996060  0.657202  0.419418  1
  O  O67  1  0.700866  0.903028  0.132825  1
