# generated using pymatgen
data_TbFeGe2O7
_symmetry_space_group_name_H-M   'P 1'
_cell_length_a   6.94245888
_cell_length_b   6.94245888
_cell_length_c   6.77960995
_cell_angle_alpha   68.83396305
_cell_angle_beta   111.16603695
_cell_angle_gamma   103.04827183
_symmetry_Int_Tables_number   1
_chemical_formula_structural   TbFeGe2O7
_chemical_formula_sum   'Tb2 Fe2 Ge4 O14'
_cell_volume   282.44594412
_cell_formula_units_Z   2
loop_
 _symmetry_equiv_pos_site_id
 _symmetry_equiv_pos_as_xyz
  1  'x, y, z'
loop_
 _atom_site_type_symbol
 _atom_site_label
 _atom_site_symmetry_multiplicity
 _atom_site_fract_x
 _atom_site_fract_y
 _atom_site_fract_z
 _atom_site_occupancy
  Tb  Tb0  1  0.710955  0.710955  0.000000  1
  Tb  Tb1  1  0.289045  0.289045  0.000000  1
  Fe  Fe2  1  0.803094  0.803094  0.500000  1
  Fe  Fe3  1  0.196906  0.196906  0.500000  1
  Ge  Ge4  1  0.279146  0.720854  0.479722  1
  Ge  Ge5  1  0.720854  0.279146  0.520278  1
  Ge  Ge6  1  0.801654  0.198346  0.077421  1
  Ge  Ge7  1  0.198346  0.801654  0.922579  1
  O  O8  1  0.709152  0.933216  0.172433  1
  O  O9  1  0.933216  0.709152  0.827567  1
  O  O10  1  0.290848  0.066784  0.827567  1
  O  O11  1  0.066784  0.290848  0.172433  1
  O  O12  1  0.132264  0.867736  0.534119  1
  O  O13  1  0.867736  0.132264  0.465881  1
  O  O14  1  0.182137  0.817863  0.181251  1
  O  O15  1  0.817863  0.182137  0.818749  1
  O  O16  1  0.369431  0.630569  0.965912  1
  O  O17  1  0.630569  0.369431  0.034088  1
  O  O18  1  0.552076  0.776181  0.594564  1
  O  O19  1  0.776181  0.552076  0.405436  1
  O  O20  1  0.447924  0.223819  0.405436  1
  O  O21  1  0.223819  0.447924  0.594564  1
