# generated using pymatgen
data_Li2CoCSO7
_symmetry_space_group_name_H-M   'P 1'
_cell_length_a   5.04229518
_cell_length_b   6.42442290
_cell_length_c   8.62747571
_cell_angle_alpha   90.00000000
_cell_angle_beta   92.45627190
_cell_angle_gamma   90.00000000
_symmetry_Int_Tables_number   1
_chemical_formula_structural   Li2CoCSO7
_chemical_formula_sum   'Li4 Co2 C2 S2 O14'
_cell_volume   279.22026075
_cell_formula_units_Z   2
loop_
 _symmetry_equiv_pos_site_id
 _symmetry_equiv_pos_as_xyz
  1  'x, y, z'
loop_
 _atom_site_type_symbol
 _atom_site_label
 _atom_site_symmetry_multiplicity
 _atom_site_fract_x
 _atom_site_fract_y
 _atom_site_fract_z
 _atom_site_occupancy
  Li  Li0  1  0.770020  0.478908  0.196968  1
  Li  Li1  1  0.770020  0.021092  0.196968  1
  Li  Li2  1  0.229980  0.521092  0.803032  1
  Li  Li3  1  0.229980  0.978908  0.803032  1
  Co  Co4  1  0.220634  0.250000  0.351422  1
  Co  Co5  1  0.779366  0.750000  0.648578  1
  C  C6  1  0.273630  0.250000  0.059929  1
  C  C7  1  0.726370  0.750000  0.940071  1
  S  S8  1  0.286443  0.750000  0.419904  1
  S  S9  1  0.713557  0.250000  0.580096  1
  O  O10  1  0.717063  0.750000  0.087827  1
  O  O11  1  0.046030  0.250000  0.128833  1
  O  O12  1  0.486389  0.250000  0.152650  1
  O  O13  1  0.186707  0.934342  0.332010  1
  O  O14  1  0.186707  0.565658  0.332010  1
  O  O15  1  0.813056  0.250000  0.419269  1
  O  O16  1  0.583874  0.750000  0.431994  1
  O  O17  1  0.416126  0.250000  0.568006  1
  O  O18  1  0.186944  0.750000  0.580731  1
  O  O19  1  0.813293  0.434342  0.667990  1
  O  O20  1  0.813293  0.065658  0.667990  1
  O  O21  1  0.513611  0.750000  0.847350  1
  O  O22  1  0.953970  0.750000  0.871167  1
  O  O23  1  0.282937  0.250000  0.912173  1
