# generated using pymatgen
data_LiTiP2O7
_symmetry_space_group_name_H-M   'P 1'
_cell_length_a   5.27045301
_cell_length_b   8.20202958
_cell_length_c   14.39290117
_cell_angle_alpha   90.00000000
_cell_angle_beta   111.42988265
_cell_angle_gamma   90.00000000
_symmetry_Int_Tables_number   1
_chemical_formula_structural   LiTiP2O7
_chemical_formula_sum   'Li4 Ti4 P8 O28'
_cell_volume   579.16792497
_cell_formula_units_Z   4
loop_
 _symmetry_equiv_pos_site_id
 _symmetry_equiv_pos_as_xyz
  1  'x, y, z'
loop_
 _atom_site_type_symbol
 _atom_site_label
 _atom_site_symmetry_multiplicity
 _atom_site_fract_x
 _atom_site_fract_y
 _atom_site_fract_z
 _atom_site_occupancy
  Li  Li0  1  0.557247  0.763525  0.255912  1
  Li  Li1  1  0.442753  0.263525  0.244088  1
  Li  Li2  1  0.557247  0.736475  0.755912  1
  Li  Li3  1  0.442753  0.236475  0.744088  1
  Ti  Ti4  1  0.173735  0.650705  0.875768  1
  Ti  Ti5  1  0.826265  0.150705  0.624232  1
  Ti  Ti6  1  0.173735  0.849295  0.375768  1
  Ti  Ti7  1  0.826265  0.349295  0.124232  1
  P  P8  1  0.827986  0.796056  0.522099  1
  P  P9  1  0.957296  0.542174  0.677994  1
  P  P10  1  0.042704  0.042174  0.822006  1
  P  P11  1  0.172014  0.296056  0.977901  1
  P  P12  1  0.827986  0.703944  0.022099  1
  P  P13  1  0.957296  0.957826  0.177994  1
  P  P14  1  0.042704  0.457826  0.322006  1
  P  P15  1  0.172014  0.203944  0.477901  1
  O  O16  1  0.762682  0.936498  0.233110  1
  O  O17  1  0.220612  0.635727  0.737554  1
  O  O18  1  0.905471  0.180972  0.493623  1
  O  O19  1  0.208024  0.414217  0.900221  1
  O  O20  1  0.022344  0.363458  0.663404  1
  O  O21  1  0.425169  0.294975  0.075748  1
  O  O22  1  0.829740  0.613720  0.566402  1
  O  O23  1  0.170260  0.113720  0.933598  1
  O  O24  1  0.574831  0.794975  0.424252  1
  O  O25  1  0.977656  0.863458  0.836596  1
  O  O26  1  0.791976  0.914217  0.599779  1
  O  O27  1  0.094529  0.680972  0.006377  1
  O  O28  1  0.779388  0.135727  0.762446  1
  O  O29  1  0.237318  0.436498  0.266890  1
  O  O30  1  0.762682  0.563502  0.733110  1
  O  O31  1  0.220612  0.864273  0.237554  1
  O  O32  1  0.905471  0.319028  0.993623  1
  O  O33  1  0.208024  0.085783  0.400221  1
  O  O34  1  0.022344  0.136542  0.163404  1
  O  O35  1  0.425169  0.205025  0.575748  1
  O  O36  1  0.829740  0.886280  0.066402  1
  O  O37  1  0.170260  0.386280  0.433598  1
  O  O38  1  0.574831  0.705025  0.924252  1
  O  O39  1  0.977656  0.636542  0.336596  1
  O  O40  1  0.791976  0.585783  0.099779  1
  O  O41  1  0.094529  0.819028  0.506377  1
  O  O42  1  0.779388  0.364273  0.262446  1
  O  O43  1  0.237318  0.063502  0.766890  1
