# generated using pymatgen
data_LiMnOF2
_symmetry_space_group_name_H-M   'P 1'
_cell_length_a   8.90124221
_cell_length_b   5.25280202
_cell_length_c   12.54967227
_cell_angle_alpha   90.00000000
_cell_angle_beta   130.62053756
_cell_angle_gamma   90.00000000
_symmetry_Int_Tables_number   1
_chemical_formula_structural   LiMnOF2
_chemical_formula_sum   'Li8 Mn8 O8 F16'
_cell_volume   445.38701198
_cell_formula_units_Z   8
loop_
 _symmetry_equiv_pos_site_id
 _symmetry_equiv_pos_as_xyz
  1  'x, y, z'
loop_
 _atom_site_type_symbol
 _atom_site_label
 _atom_site_symmetry_multiplicity
 _atom_site_fract_x
 _atom_site_fract_y
 _atom_site_fract_z
 _atom_site_occupancy
  Li  Li0  1  0.824265  0.080448  0.997407  1
  Li  Li1  1  0.948800  0.092556  0.787365  1
  Li  Li2  1  0.948800  0.907444  0.287365  1
  Li  Li3  1  0.824265  0.919552  0.497407  1
  Li  Li4  1  0.641240  0.583938  0.994968  1
  Li  Li5  1  0.142259  0.592056  0.800275  1
  Li  Li6  1  0.142259  0.407944  0.300275  1
  Li  Li7  1  0.641240  0.416062  0.494968  1
  Mn  Mn8  1  0.326052  0.081325  0.809855  1
  Mn  Mn9  1  0.431187  0.039127  0.577669  1
  Mn  Mn10  1  0.431187  0.960873  0.077669  1
  Mn  Mn11  1  0.326052  0.918675  0.309855  1
  Mn  Mn12  1  0.786073  0.600320  0.802644  1
  Mn  Mn13  1  0.235737  0.602265  0.567949  1
  Mn  Mn14  1  0.235737  0.397735  0.067949  1
  Mn  Mn15  1  0.786073  0.399680  0.302644  1
  O  O16  1  0.423654  0.186388  0.434353  1
  O  O17  1  0.255890  0.231544  0.939997  1
  O  O18  1  0.349082  0.096673  0.175609  1
  O  O19  1  0.706396  0.108547  0.202879  1
  O  O20  1  0.706396  0.891453  0.702879  1
  O  O21  1  0.349082  0.903327  0.675609  1
  O  O22  1  0.255890  0.768456  0.439997  1
  O  O23  1  0.423654  0.813612  0.934353  1
  F  F24  1  0.584504  0.249662  0.923910  1
  F  F25  1  0.048782  0.070684  0.198852  1
  F  F26  1  0.048782  0.929316  0.698852  1
  F  F27  1  0.584504  0.750338  0.423910  1
  F  F28  1  0.773525  0.737796  0.939987  1
  F  F29  1  0.920345  0.710960  0.427429  1
  F  F30  1  0.111262  0.699515  0.939812  1
  F  F31  1  0.511054  0.613736  0.172665  1
  F  F32  1  0.855963  0.567840  0.196161  1
  F  F33  1  0.212714  0.589670  0.198995  1
  F  F34  1  0.212714  0.410330  0.698995  1
  F  F35  1  0.855963  0.432160  0.696161  1
  F  F36  1  0.511054  0.386264  0.672665  1
  F  F37  1  0.111262  0.300485  0.439812  1
  F  F38  1  0.920345  0.289040  0.927429  1
  F  F39  1  0.773525  0.262204  0.439987  1
