# generated using pymatgen
data_Li4Mn2Co3Te3O16
_symmetry_space_group_name_H-M   'P 1'
_cell_length_a   6.13420299
_cell_length_b   6.20318138
_cell_length_c   9.96986705
_cell_angle_alpha   92.14455344
_cell_angle_beta   89.76938717
_cell_angle_gamma   118.70553393
_symmetry_Int_Tables_number   1
_chemical_formula_structural   Li4Mn2Co3Te3O16
_chemical_formula_sum   'Li4 Mn2 Co3 Te3 O16'
_cell_volume   332.46941630
_cell_formula_units_Z   1
loop_
 _symmetry_equiv_pos_site_id
 _symmetry_equiv_pos_as_xyz
  1  'x, y, z'
loop_
 _atom_site_type_symbol
 _atom_site_label
 _atom_site_symmetry_multiplicity
 _atom_site_fract_x
 _atom_site_fract_y
 _atom_site_fract_z
 _atom_site_occupancy
  Li  Li0  1  0.329482  0.640227  0.126264  1
  Li  Li1  1  0.026939  0.020234  0.006697  1
  Li  Li2  1  0.000569  0.992584  0.492870  1
  Li  Li3  1  0.690685  0.335265  0.600440  1
  Mn  Mn4  1  0.326522  0.689361  0.488320  1
  Mn  Mn5  1  0.628979  0.297406  0.026867  1
  Co  Co6  1  0.182775  0.859646  0.786572  1
  Co  Co7  1  0.822879  0.655512  0.281725  1
  Co  Co8  1  0.324765  0.153368  0.284161  1
  Te  Te9  1  0.676519  0.852038  0.788204  1
  Te  Te10  1  0.182972  0.369247  0.780308  1
  Te  Te11  1  0.820509  0.155892  0.284975  1
  O  O12  1  0.687381  0.861244  0.393806  1
  O  O13  1  0.505889  0.532009  0.672349  1
  O  O14  1  0.366281  0.691745  0.897290  1
  O  O15  1  0.970806  0.983192  0.676027  1
  O  O16  1  0.983642  0.998671  0.185597  1
  O  O17  1  0.133467  0.313099  0.392226  1
  O  O18  1  0.509571  0.975113  0.675617  1
  O  O19  1  0.052008  0.533053  0.662552  1
  O  O20  1  0.804600  0.142375  0.911172  1
  O  O21  1  0.169755  0.864999  0.384491  1
  O  O22  1  0.939190  0.436879  0.159506  1
  O  O23  1  0.517489  0.004641  0.172929  1
  O  O24  1  0.668971  0.317864  0.393684  1
  O  O25  1  0.845956  0.719863  0.891546  1
  O  O26  1  0.492011  0.431995  0.165591  1
  O  O27  1  0.339690  0.172781  0.910376  1
