# generated using pymatgen
data_CrF4
_symmetry_space_group_name_H-M   'P 1'
_cell_length_a   9.10630569
_cell_length_b   9.10630569
_cell_length_c   7.36946216
_cell_angle_alpha   79.48571645
_cell_angle_beta   100.51428355
_cell_angle_gamma   112.56738823
_symmetry_Int_Tables_number   1
_chemical_formula_structural   CrF4
_chemical_formula_sum   'Cr8 F32'
_cell_volume   550.57043477
_cell_formula_units_Z   8
loop_
 _symmetry_equiv_pos_site_id
 _symmetry_equiv_pos_as_xyz
  1  'x, y, z'
loop_
 _atom_site_type_symbol
 _atom_site_label
 _atom_site_symmetry_multiplicity
 _atom_site_fract_x
 _atom_site_fract_y
 _atom_site_fract_z
 _atom_site_occupancy
  Cr  Cr0  1  0.252618  0.257092  0.002083  1
  Cr  Cr1  1  0.185737  0.817735  0.605443  1
  Cr  Cr2  1  0.817735  0.185737  0.894557  1
  Cr  Cr3  1  0.182265  0.814263  0.105443  1
  Cr  Cr4  1  0.814263  0.182265  0.394557  1
  Cr  Cr5  1  0.742908  0.747382  0.502083  1
  Cr  Cr6  1  0.747382  0.742908  0.997917  1
  Cr  Cr7  1  0.257092  0.252618  0.497917  1
  F  F8  1  0.040430  0.243499  0.500567  1
  F  F9  1  0.161906  0.024912  0.596341  1
  F  F10  1  0.024912  0.161906  0.903659  1
  F  F11  1  0.117466  0.761145  0.851843  1
  F  F12  1  0.761145  0.117466  0.648157  1
  F  F13  1  0.175194  0.623092  0.603011  1
  F  F14  1  0.681824  0.544999  0.591322  1
  F  F15  1  0.882534  0.238855  0.148157  1
  F  F16  1  0.318176  0.455001  0.408678  1
  F  F17  1  0.756501  0.959570  0.000567  1
  F  F18  1  0.613585  0.095013  0.306819  1
  F  F19  1  0.811565  0.811565  0.750000  1
  F  F20  1  0.438931  0.226364  0.512367  1
  F  F21  1  0.561069  0.773636  0.487633  1
  F  F22  1  0.386415  0.904987  0.693181  1
  F  F23  1  0.691788  0.691788  0.250000  1
  F  F24  1  0.188435  0.188435  0.250000  1
  F  F25  1  0.623092  0.175194  0.896989  1
  F  F26  1  0.243499  0.040430  0.999433  1
  F  F27  1  0.838094  0.975088  0.403659  1
  F  F28  1  0.975088  0.838094  0.096341  1
  F  F29  1  0.226364  0.438931  0.987633  1
  F  F30  1  0.376908  0.824806  0.103011  1
  F  F31  1  0.904987  0.386415  0.806819  1
  F  F32  1  0.824806  0.376908  0.396989  1
  F  F33  1  0.308212  0.308212  0.750000  1
  F  F34  1  0.238855  0.882534  0.351843  1
  F  F35  1  0.959570  0.756501  0.499433  1
  F  F36  1  0.773636  0.561069  0.012367  1
  F  F37  1  0.455001  0.318176  0.091322  1
  F  F38  1  0.095013  0.613585  0.193181  1
  F  F39  1  0.544999  0.681824  0.908678  1
