# generated using pymatgen
data_Li2Cr4O13
_symmetry_space_group_name_H-M   'P 1'
_cell_length_a   8.51344255
_cell_length_b   9.60754192
_cell_length_c   14.87174343
_cell_angle_alpha   90.00000000
_cell_angle_beta   102.69042633
_cell_angle_gamma   90.00000000
_symmetry_Int_Tables_number   1
_chemical_formula_structural   Li2Cr4O13
_chemical_formula_sum   'Li8 Cr16 O52'
_cell_volume   1186.69300346
_cell_formula_units_Z   4
loop_
 _symmetry_equiv_pos_site_id
 _symmetry_equiv_pos_as_xyz
  1  'x, y, z'
loop_
 _atom_site_type_symbol
 _atom_site_label
 _atom_site_symmetry_multiplicity
 _atom_site_fract_x
 _atom_site_fract_y
 _atom_site_fract_z
 _atom_site_occupancy
  Li  Li0  1  0.689450  0.000731  0.017155  1
  Li  Li1  1  0.809203  0.001266  0.493174  1
  Li  Li2  1  0.689450  0.499269  0.517155  1
  Li  Li3  1  0.809203  0.498734  0.993174  1
  Li  Li4  1  0.190797  0.501266  0.006826  1
  Li  Li5  1  0.310550  0.500731  0.482845  1
  Li  Li6  1  0.190797  0.998734  0.506826  1
  Li  Li7  1  0.310550  0.999269  0.982845  1
  Cr  Cr8  1  0.958879  0.710891  0.408529  1
  Cr  Cr9  1  0.862311  0.758636  0.181085  1
  Cr  Cr10  1  0.749680  0.276825  0.324238  1
  Cr  Cr11  1  0.958879  0.789109  0.908529  1
  Cr  Cr12  1  0.862311  0.741364  0.681085  1
  Cr  Cr13  1  0.529949  0.285070  0.095464  1
  Cr  Cr14  1  0.749680  0.223175  0.824238  1
  Cr  Cr15  1  0.470051  0.785070  0.404536  1
  Cr  Cr16  1  0.529949  0.214930  0.595464  1
  Cr  Cr17  1  0.250320  0.776825  0.175762  1
  Cr  Cr18  1  0.470051  0.714930  0.904536  1
  Cr  Cr19  1  0.137689  0.258636  0.318915  1
  Cr  Cr20  1  0.041121  0.210891  0.091471  1
  Cr  Cr21  1  0.250320  0.723175  0.675762  1
  Cr  Cr22  1  0.137689  0.241364  0.818915  1
  Cr  Cr23  1  0.041121  0.289109  0.591471  1
  O  O24  1  0.944706  0.331774  0.313211  1
  O  O25  1  0.869320  0.139010  0.092678  1
  O  O26  1  0.991481  0.870195  0.449079  1
  O  O27  1  0.841115  0.623044  0.116542  1
  O  O28  1  0.840958  0.711980  0.289632  1
  O  O29  1  0.867496  0.620046  0.473311  1
  O  O30  1  0.726059  0.871445  0.139489  1
  O  O31  1  0.944706  0.168226  0.813211  1
  O  O32  1  0.869320  0.360990  0.592678  1
  O  O33  1  0.991481  0.629805  0.949079  1
  O  O34  1  0.645176  0.377252  0.045740  1
  O  O35  1  0.765722  0.123133  0.367659  1
  O  O36  1  0.841115  0.876956  0.616542  1
  O  O37  1  0.840958  0.788020  0.789632  1
  O  O38  1  0.688640  0.381981  0.393049  1
  O  O39  1  0.618035  0.277822  0.219281  1
  O  O40  1  0.867496  0.879954  0.973311  1
  O  O41  1  0.645085  0.858594  0.419541  1
  O  O42  1  0.507972  0.126876  0.052185  1
  O  O43  1  0.726059  0.628555  0.639489  1
  O  O44  1  0.645176  0.122748  0.545740  1
  O  O45  1  0.765722  0.376867  0.867659  1
  O  O46  1  0.688640  0.118019  0.893049  1
  O  O47  1  0.618035  0.222178  0.719281  1
  O  O48  1  0.492028  0.626876  0.447815  1
  O  O49  1  0.354915  0.358594  0.080459  1
  O  O50  1  0.645085  0.641406  0.919541  1
  O  O51  1  0.507972  0.373124  0.552185  1
  O  O52  1  0.381965  0.777822  0.280719  1
  O  O53  1  0.311360  0.881981  0.106951  1
  O  O54  1  0.234278  0.623133  0.132341  1
  O  O55  1  0.354824  0.877252  0.454260  1
  O  O56  1  0.273941  0.371445  0.360511  1
  O  O57  1  0.492028  0.873124  0.947815  1
  O  O58  1  0.354915  0.141406  0.580459  1
  O  O59  1  0.132504  0.120046  0.026689  1
  O  O60  1  0.381965  0.722178  0.780719  1
  O  O61  1  0.311360  0.618019  0.606951  1
  O  O62  1  0.159042  0.211980  0.210368  1
  O  O63  1  0.158885  0.123044  0.383458  1
  O  O64  1  0.234278  0.876867  0.632341  1
  O  O65  1  0.354824  0.622748  0.954260  1
  O  O66  1  0.008519  0.370195  0.050921  1
  O  O67  1  0.130680  0.639010  0.407322  1
  O  O68  1  0.055294  0.831774  0.186789  1
  O  O69  1  0.273941  0.128555  0.860511  1
  O  O70  1  0.132504  0.379954  0.526689  1
  O  O71  1  0.159042  0.288020  0.710368  1
  O  O72  1  0.158885  0.376956  0.883458  1
  O  O73  1  0.008519  0.129805  0.550921  1
  O  O74  1  0.130680  0.860990  0.907322  1
  O  O75  1  0.055294  0.668226  0.686789  1
