# generated using pymatgen
data_Na4Sn2H26Se6O13
_symmetry_space_group_name_H-M   'P 1'
_cell_length_a   7.27960216
_cell_length_b   10.48225313
_cell_length_c   18.99876388
_cell_angle_alpha   78.68198150
_cell_angle_beta   86.42117177
_cell_angle_gamma   72.70909751
_symmetry_Int_Tables_number   1
_chemical_formula_structural   Na4Sn2H26Se6O13
_chemical_formula_sum   'Na8 Sn4 H52 Se12 O26'
_cell_volume   1357.28361883
_cell_formula_units_Z   2
loop_
 _symmetry_equiv_pos_site_id
 _symmetry_equiv_pos_as_xyz
  1  'x, y, z'
loop_
 _atom_site_type_symbol
 _atom_site_label
 _atom_site_symmetry_multiplicity
 _atom_site_fract_x
 _atom_site_fract_y
 _atom_site_fract_z
 _atom_site_occupancy
  Na  Na0  1  0.511682  0.493231  0.905593  1
  Na  Na1  1  0.488318  0.506769  0.094407  1
  Na  Na2  1  0.205444  0.817218  0.793637  1
  Na  Na3  1  0.794556  0.182782  0.206363  1
  Na  Na4  1  0.831912  0.088796  0.705057  1
  Na  Na5  1  0.168088  0.911204  0.294943  1
  Na  Na6  1  0.384002  0.994985  0.591173  1
  Na  Na7  1  0.615998  0.005015  0.408827  1
  Sn  Sn8  1  0.886046  0.866904  0.011982  1
  Sn  Sn9  1  0.113954  0.133096  0.988018  1
  Sn  Sn10  1  0.315258  0.564920  0.560549  1
  Sn  Sn11  1  0.684742  0.435080  0.439451  1
  H  H12  1  0.220648  0.432984  0.021195  1
  H  H13  1  0.779352  0.567016  0.978805  1
  H  H14  1  0.156660  0.580887  0.975725  1
  H  H15  1  0.843340  0.419113  0.024275  1
  H  H16  1  0.761498  0.386348  0.796440  1
  H  H17  1  0.238502  0.613652  0.203560  1
  H  H18  1  0.917728  0.383411  0.851153  1
  H  H19  1  0.082272  0.616589  0.148847  1
  H  H20  1  0.315608  0.527737  0.757771  1
  H  H21  1  0.684392  0.472263  0.242229  1
  H  H22  1  0.188682  0.528453  0.824722  1
  H  H23  1  0.811318  0.471547  0.175278  1
  H  H24  1  0.570884  0.755223  0.889606  1
  H  H25  1  0.429116  0.244777  0.110394  1
  H  H26  1  0.375562  0.784349  0.930418  1
  H  H27  1  0.624438  0.215651  0.069582  1
  H  H28  1  0.911542  0.782182  0.711499  1
  H  H29  1  0.088458  0.217818  0.288501  1
  H  H30  1  0.040394  0.841851  0.653501  1
  H  H31  1  0.959606  0.158149  0.346499  1
  H  H32  1  0.559915  0.788429  0.709195  1
  H  H33  1  0.440085  0.211571  0.290805  1
  H  H34  1  0.501923  0.925954  0.737468  1
  H  H35  1  0.498077  0.074046  0.262532  1
  H  H36  1  0.121877  0.108370  0.815443  1
  H  H37  1  0.878123  0.891630  0.184557  1
  H  H38  1  0.948862  0.057633  0.844192  1
  H  H39  1  0.051138  0.942367  0.155808  1
  H  H40  1  0.504131  0.078535  0.818213  1
  H  H41  1  0.495869  0.921465  0.181787  1
  H  H42  1  0.679495  0.945820  0.830264  1
  H  H43  1  0.320505  0.054180  0.169736  1
  H  H44  1  0.722404  0.374079  0.676789  1
  H  H45  1  0.277596  0.625921  0.323211  1
  H  H46  1  0.550912  0.338116  0.718473  1
  H  H47  1  0.449088  0.661884  0.281527  1
  H  H48  1  0.998243  0.188291  0.570660  1
  H  H49  1  0.001757  0.811709  0.429340  1
  H  H50  1  0.097681  0.242802  0.625212  1
  H  H51  1  0.902319  0.757198  0.374788  1
  H  H52  1  0.629182  0.165441  0.568541  1
  H  H53  1  0.370818  0.834559  0.431459  1
  H  H54  1  0.475994  0.225315  0.625802  1
  H  H55  1  0.524006  0.774685  0.374198  1
  H  H56  1  0.803636  0.853618  0.543484  1
  H  H57  1  0.196364  0.146382  0.456516  1
  H  H58  1  0.665582  0.769743  0.534600  1
  H  H59  1  0.334418  0.230257  0.465400  1
  H  H60  1  0.845410  0.603977  0.681529  1
  H  H61  1  0.154590  0.396023  0.318471  1
  H  H62  1  0.783239  0.577625  0.762280  1
  H  H63  1  0.216761  0.422375  0.237720  1
  Se  Se64  1  0.238669  0.869864  0.035665  1
  Se  Se65  1  0.761331  0.130136  0.964335  1
  Se  Se66  1  0.754467  0.760288  0.126012  1
  Se  Se67  1  0.245533  0.239712  0.873988  1
  Se  Se68  1  0.891050  0.745006  0.909277  1
  Se  Se69  1  0.108950  0.254994  0.090723  1
  Se  Se70  1  0.690357  0.528450  0.557937  1
  Se  Se71  1  0.309643  0.471550  0.442063  1
  Se  Se72  1  0.229429  0.412427  0.667972  1
  Se  Se73  1  0.770571  0.587573  0.332028  1
  Se  Se74  1  0.149343  0.816130  0.536360  1
  Se  Se75  1  0.850657  0.183870  0.463640  1
  O  O76  1  0.271029  0.509916  0.998407  1
  O  O77  1  0.728971  0.490084  0.001593  1
  O  O78  1  0.790943  0.439704  0.829907  1
  O  O79  1  0.209057  0.560296  0.170093  1
  O  O80  1  0.291592  0.565260  0.802458  1
  O  O81  1  0.708408  0.434740  0.197542  1
  O  O82  1  0.441382  0.742346  0.889816  1
  O  O83  1  0.558618  0.257654  0.110184  1
  O  O84  1  0.981634  0.851406  0.701358  1
  O  O85  1  0.018366  0.148594  0.298642  1
  O  O86  1  0.449578  0.869482  0.712358  1
  O  O87  1  0.550422  0.130518  0.287642  1
  O  O88  1  0.045961  0.048557  0.805813  1
  O  O89  1  0.954039  0.951443  0.194187  1
  O  O90  1  0.604959  0.017920  0.792288  1
  O  O91  1  0.395041  0.982080  0.207712  1
  O  O92  1  0.691129  0.323791  0.723441  1
  O  O93  1  0.308871  0.676209  0.276559  1
  O  O94  1  0.065661  0.161486  0.617518  1
  O  O95  1  0.934339  0.838514  0.382482  1
  O  O96  1  0.568718  0.140600  0.615335  1
  O  O97  1  0.431282  0.859400  0.384665  1
  O  O98  1  0.667812  0.864133  0.532980  1
  O  O99  1  0.332188  0.135867  0.467020  1
  O  O100  1  0.776556  0.651807  0.719357  1
  O  O101  1  0.223444  0.348193  0.280643  1
