# generated using pymatgen
data_Mn2F7
_symmetry_space_group_name_H-M   'P 1'
_cell_length_a   5.35270628
_cell_length_b   6.36002217
_cell_length_c   8.68252441
_cell_angle_alpha   71.05540247
_cell_angle_beta   75.52402829
_cell_angle_gamma   83.56802593
_symmetry_Int_Tables_number   1
_chemical_formula_structural   Mn2F7
_chemical_formula_sum   'Mn4 F14'
_cell_volume   270.54175230
_cell_formula_units_Z   2
loop_
 _symmetry_equiv_pos_site_id
 _symmetry_equiv_pos_as_xyz
  1  'x, y, z'
loop_
 _atom_site_type_symbol
 _atom_site_label
 _atom_site_symmetry_multiplicity
 _atom_site_fract_x
 _atom_site_fract_y
 _atom_site_fract_z
 _atom_site_occupancy
  Mn  Mn0  1  0.288388  0.026304  0.174532  1
  Mn  Mn1  1  0.786268  0.782603  0.306677  1
  Mn  Mn2  1  0.213732  0.217397  0.693323  1
  Mn  Mn3  1  0.711612  0.973696  0.825468  1
  F  F4  1  0.391923  0.292174  0.140326  1
  F  F5  1  0.684380  0.914437  0.084064  1
  F  F6  1  0.916872  0.074906  0.263842  1
  F  F7  1  0.144107  0.744147  0.206298  1
  F  F8  1  0.712779  0.521122  0.308227  1
  F  F9  1  0.162097  0.301329  0.490753  1
  F  F10  1  0.447694  0.874621  0.376266  1
  F  F11  1  0.552306  0.125379  0.623734  1
  F  F12  1  0.837903  0.698671  0.509247  1
  F  F13  1  0.287221  0.478878  0.691773  1
  F  F14  1  0.855893  0.255853  0.793702  1
  F  F15  1  0.083128  0.925094  0.736158  1
  F  F16  1  0.315620  0.085563  0.915936  1
  F  F17  1  0.608077  0.707826  0.859674  1
