# generated using pymatgen
data_LiVO2
_symmetry_space_group_name_H-M   'P 1'
_cell_length_a   5.16166204
_cell_length_b   5.21547697
_cell_length_c   7.90439421
_cell_angle_alpha   71.09843120
_cell_angle_beta   71.10228592
_cell_angle_gamma   80.63913151
_symmetry_Int_Tables_number   1
_chemical_formula_structural   LiVO2
_chemical_formula_sum   'Li5 V5 O10'
_cell_volume   190.06817236
_cell_formula_units_Z   5
loop_
 _symmetry_equiv_pos_site_id
 _symmetry_equiv_pos_as_xyz
  1  'x, y, z'
loop_
 _atom_site_type_symbol
 _atom_site_label
 _atom_site_symmetry_multiplicity
 _atom_site_fract_x
 _atom_site_fract_y
 _atom_site_fract_z
 _atom_site_occupancy
  Li  Li0  1  0.494696  0.779270  0.417978  1
  Li  Li1  1  0.505600  0.606737  0.779890  1
  Li  Li2  1  0.000000  0.500000  0.500000  1
  Li  Li3  1  0.505304  0.220730  0.582022  1
  Li  Li4  1  0.494400  0.393263  0.220110  1
  V  V5  1  0.500000  0.000000  0.000000  1
  V  V6  1  0.004259  0.901362  0.691920  1
  V  V7  1  0.995095  0.689555  0.113772  1
  V  V8  1  0.004905  0.310445  0.886228  1
  V  V9  1  0.995741  0.098638  0.308080  1
  O  O10  1  0.230833  0.948633  0.865748  1
  O  O11  1  0.762246  0.856882  0.548502  1
  O  O12  1  0.760794  0.667520  0.951379  1
  O  O13  1  0.244701  0.764689  0.239187  1
  O  O14  1  0.222875  0.549098  0.668003  1
  O  O15  1  0.777125  0.450902  0.331997  1
  O  O16  1  0.755299  0.235311  0.760813  1
  O  O17  1  0.239206  0.332480  0.048621  1
  O  O18  1  0.237754  0.143118  0.451498  1
  O  O19  1  0.769167  0.051367  0.134252  1
