# generated using pymatgen
data_Li2Si3Ni2O9
_symmetry_space_group_name_H-M   'P 1'
_cell_length_a   9.93840904
_cell_length_b   9.93840904
_cell_length_c   12.24471243
_cell_angle_alpha   90.00000000
_cell_angle_beta   90.00000000
_cell_angle_gamma   120.00000000
_symmetry_Int_Tables_number   1
_chemical_formula_structural   Li2Si3Ni2O9
_chemical_formula_sum   'Li12 Si18 Ni12 O54'
_cell_volume   1047.40093171
_cell_formula_units_Z   6
loop_
 _symmetry_equiv_pos_site_id
 _symmetry_equiv_pos_as_xyz
  1  'x, y, z'
loop_
 _atom_site_type_symbol
 _atom_site_label
 _atom_site_symmetry_multiplicity
 _atom_site_fract_x
 _atom_site_fract_y
 _atom_site_fract_z
 _atom_site_occupancy
  Li  Li0  1  0.476441  0.642071  0.183251  1
  Li  Li1  1  0.636415  0.491947  0.013478  1
  Li  Li2  1  0.508053  0.144468  0.680145  1
  Li  Li3  1  0.357929  0.834369  0.849918  1
  Li  Li4  1  0.855532  0.363585  0.346811  1
  Li  Li5  1  0.500136  0.694798  0.682845  1
  Li  Li6  1  0.678793  0.998433  0.761023  1
  Li  Li7  1  0.165631  0.523559  0.516584  1
  Li  Li8  1  0.194662  0.499864  0.016178  1
  Li  Li9  1  0.001567  0.680360  0.427690  1
  Li  Li10  1  0.319640  0.321207  0.094356  1
  Li  Li11  1  0.305202  0.805338  0.349511  1
  Si  Si12  1  0.472182  0.623434  0.918353  1
  Si  Si13  1  0.625463  0.480913  0.757379  1
  Si  Si14  1  0.507927  0.173869  0.905248  1
  Si  Si15  1  0.665942  0.492073  0.238582  1
  Si  Si16  1  0.376566  0.848748  0.585020  1
  Si  Si17  1  0.519087  0.144550  0.424045  1
  Si  Si18  1  0.504480  0.671717  0.436305  1
  Si  Si19  1  0.826131  0.334058  0.571915  1
  Si  Si20  1  0.855450  0.374537  0.090712  1
  Si  Si21  1  0.951673  0.155233  0.444819  1
  Si  Si22  1  0.803267  0.850789  0.572288  1
  Si  Si23  1  0.151252  0.527818  0.251686  1
  Si  Si24  1  0.167237  0.495520  0.769639  1
  Si  Si25  1  0.047522  0.196733  0.905621  1
  Si  Si26  1  0.844767  0.796440  0.111485  1
  Si  Si27  1  0.203560  0.048327  0.778152  1
  Si  Si28  1  0.149211  0.952478  0.238955  1
  Si  Si29  1  0.328283  0.832763  0.102972  1
  Ni  Ni30  1  0.674266  0.494572  0.498066  1
  Ni  Ni31  1  0.505428  0.179693  0.164733  1
  Ni  Ni32  1  0.820307  0.325734  0.831400  1
  Ni  Ni33  1  0.675553  0.996051  0.237441  1
  Ni  Ni34  1  0.703477  0.999547  0.001517  1
  Ni  Ni35  1  0.822672  0.827501  0.840306  1
  Ni  Ni36  1  0.004829  0.177328  0.173640  1
  Ni  Ni37  1  0.320497  0.324447  0.570774  1
  Ni  Ni38  1  0.296070  0.296523  0.334850  1
  Ni  Ni39  1  0.000453  0.703930  0.668183  1
  Ni  Ni40  1  0.003949  0.679503  0.904108  1
  Ni  Ni41  1  0.172499  0.995171  0.506973  1
  O  O42  1  0.404101  0.481675  0.437338  1
  O  O43  1  0.430800  0.544184  0.037050  1
  O  O44  1  0.525580  0.529069  0.835750  1
  O  O45  1  0.480441  0.365601  0.232382  1
  O  O46  1  0.392492  0.200164  0.440243  1
  O  O47  1  0.351236  0.043725  0.840357  1
  O  O48  1  0.549199  0.435112  0.635779  1
  O  O49  1  0.475581  0.240382  0.015877  1
  O  O50  1  0.692489  0.648764  0.173690  1
  O  O51  1  0.597958  0.317921  0.814437  1
  O  O52  1  0.470931  0.996511  0.502417  1
  O  O53  1  0.764801  0.524419  0.349210  1
  O  O54  1  0.455816  0.886615  0.703716  1
  O  O55  1  0.564888  0.114087  0.302445  1
  O  O56  1  0.807672  0.607508  0.773576  1
  O  O57  1  0.719963  0.402042  0.147771  1
  O  O58  1  0.634399  0.114840  0.899048  1
  O  O59  1  0.518325  0.922426  0.104005  1
  O  O60  1  0.409651  0.716315  0.527978  1
  O  O61  1  0.682079  0.280037  0.481104  1
  O  O62  1  0.535803  0.770431  0.325324  1
  O  O63  1  0.759618  0.235199  0.682544  1
  O  O64  1  0.885160  0.519559  0.565715  1
  O  O65  1  0.885913  0.450801  0.969112  1
  O  O66  1  0.600332  0.804832  0.904748  1
  O  O67  1  0.799836  0.192328  0.106909  1
  O  O68  1  0.003489  0.474420  0.169083  1
  O  O69  1  0.956275  0.307511  0.507023  1
  O  O70  1  0.667283  0.700808  0.499198  1
  O  O71  1  0.077574  0.595899  0.770671  1
  O  O72  1  0.887390  0.150168  0.320397  1
  O  O73  1  0.732574  0.840014  0.693339  1
  O  O74  1  0.113385  0.569200  0.370383  1
  O  O75  1  0.820047  0.003451  0.509856  1
  O  O76  1  0.819456  0.945579  0.128350  1
  O  O77  1  0.878608  0.043390  0.893223  1
  O  O78  1  0.033525  0.332717  0.832532  1
  O  O79  1  0.849832  0.737222  0.987064  1
  O  O80  1  0.107440  0.267426  0.026672  1
  O  O81  1  0.234627  0.464197  0.658657  1
  O  O82  1  0.204500  0.399668  0.238082  1
  O  O83  1  0.956610  0.835218  0.559890  1
  O  O84  1  0.126123  0.180544  0.461683  1
  O  O85  1  0.306664  0.590349  0.861311  1
  O  O86  1  0.996549  0.816596  0.176522  1
  O  O87  1  0.183404  0.179953  0.843189  1
  O  O88  1  0.164782  0.121392  0.226556  1
  O  O89  1  0.054421  0.873877  0.795016  1
  O  O90  1  0.159986  0.892560  0.360005  1
  O  O91  1  0.262778  0.112610  0.653731  1
  O  O92  1  0.195168  0.795500  0.571415  1
  O  O93  1  0.299192  0.966475  0.165865  1
  O  O94  1  0.229569  0.765373  0.991991  1
  O  O95  1  0.283685  0.693336  0.194644  1
