# generated using pymatgen
data_Li5FeO4
_symmetry_space_group_name_H-M   'P 1'
_cell_length_a   5.53590497
_cell_length_b   6.82455101
_cell_length_c   11.22348043
_cell_angle_alpha   90.00000000
_cell_angle_beta   106.21662248
_cell_angle_gamma   90.00000000
_symmetry_Int_Tables_number   1
_chemical_formula_structural   Li5FeO4
_chemical_formula_sum   'Li20 Fe4 O16'
_cell_volume   407.15306886
_cell_formula_units_Z   4
loop_
 _symmetry_equiv_pos_site_id
 _symmetry_equiv_pos_as_xyz
  1  'x, y, z'
loop_
 _atom_site_type_symbol
 _atom_site_label
 _atom_site_symmetry_multiplicity
 _atom_site_fract_x
 _atom_site_fract_y
 _atom_site_fract_z
 _atom_site_occupancy
  Li  Li0  1  0.382536  0.784943  0.286226  1
  Li  Li1  1  0.361107  0.029055  0.078025  1
  Li  Li2  1  0.679373  0.752552  0.663006  1
  Li  Li3  1  0.634271  0.978832  0.436828  1
  Li  Li4  1  0.365729  0.478832  0.063172  1
  Li  Li5  1  0.903914  0.471443  0.797944  1
  Li  Li6  1  0.638893  0.529055  0.421975  1
  Li  Li7  1  0.617464  0.284943  0.213774  1
  Li  Li8  1  0.096086  0.971443  0.702056  1
  Li  Li9  1  0.320627  0.252552  0.836994  1
  Li  Li10  1  0.679373  0.747448  0.163006  1
  Li  Li11  1  0.903914  0.028557  0.297944  1
  Li  Li12  1  0.382536  0.715057  0.786226  1
  Li  Li13  1  0.361107  0.470945  0.578025  1
  Li  Li14  1  0.096086  0.528557  0.202056  1
  Li  Li15  1  0.634271  0.521168  0.936828  1
  Li  Li16  1  0.365729  0.021168  0.563172  1
  Li  Li17  1  0.320627  0.247448  0.336994  1
  Li  Li18  1  0.638893  0.970945  0.921975  1
  Li  Li19  1  0.617464  0.215057  0.713774  1
  Fe  Fe20  1  0.109782  0.756327  0.939357  1
  Fe  Fe21  1  0.890218  0.256327  0.560643  1
  Fe  Fe22  1  0.109782  0.743673  0.439357  1
  Fe  Fe23  1  0.890218  0.243673  0.060643  1
  O  O24  1  0.270093  0.741223  0.113934  1
  O  O25  1  0.241057  0.270829  0.145754  1
  O  O26  1  0.743661  0.024757  0.615040  1
  O  O27  1  0.728386  0.465713  0.620156  1
  O  O28  1  0.758943  0.770829  0.354246  1
  O  O29  1  0.729907  0.241223  0.386066  1
  O  O30  1  0.271614  0.965713  0.879844  1
  O  O31  1  0.256339  0.524757  0.884960  1
  O  O32  1  0.743661  0.475243  0.115040  1
  O  O33  1  0.728386  0.034287  0.120156  1
  O  O34  1  0.270093  0.758777  0.613934  1
  O  O35  1  0.241057  0.229171  0.645754  1
  O  O36  1  0.271614  0.534287  0.379844  1
  O  O37  1  0.256339  0.975243  0.384960  1
  O  O38  1  0.758943  0.729171  0.854246  1
  O  O39  1  0.729907  0.258777  0.886066  1
