# generated using pymatgen
data_LiMnPH2O5
_symmetry_space_group_name_H-M   'P 1'
_cell_length_a   5.15638897
_cell_length_b   8.29690371
_cell_length_c   11.19159534
_cell_angle_alpha   90.00000000
_cell_angle_beta   90.00000000
_cell_angle_gamma   90.00000000
_symmetry_Int_Tables_number   1
_chemical_formula_structural   LiMnPH2O5
_chemical_formula_sum   'Li4 Mn4 P4 H8 O20'
_cell_volume   478.79953439
_cell_formula_units_Z   4
loop_
 _symmetry_equiv_pos_site_id
 _symmetry_equiv_pos_as_xyz
  1  'x, y, z'
loop_
 _atom_site_type_symbol
 _atom_site_label
 _atom_site_symmetry_multiplicity
 _atom_site_fract_x
 _atom_site_fract_y
 _atom_site_fract_z
 _atom_site_occupancy
  Li  Li0  1  0.299730  0.683345  0.189559  1
  Li  Li1  1  0.799730  0.183345  0.310441  1
  Li  Li2  1  0.299730  0.816655  0.689559  1
  Li  Li3  1  0.799730  0.316655  0.810441  1
  Mn  Mn4  1  0.805454  0.873945  0.123061  1
  Mn  Mn5  1  0.305454  0.373945  0.376939  1
  Mn  Mn6  1  0.805454  0.626055  0.623061  1
  Mn  Mn7  1  0.305454  0.126055  0.876939  1
  P  P8  1  0.305906  0.082714  0.171777  1
  P  P9  1  0.805906  0.582714  0.328223  1
  P  P10  1  0.305906  0.417286  0.671777  1
  P  P11  1  0.805906  0.917286  0.828223  1
  H  H12  1  0.637078  0.441510  0.001456  1
  H  H13  1  0.848221  0.318048  0.039826  1
  H  H14  1  0.348221  0.818048  0.460174  1
  H  H15  1  0.137078  0.941510  0.498544  1
  H  H16  1  0.637078  0.058490  0.501456  1
  H  H17  1  0.848221  0.181952  0.539826  1
  H  H18  1  0.348221  0.681952  0.960174  1
  H  H19  1  0.137078  0.558490  0.998544  1
  O  O20  1  0.312541  0.597460  0.018583  1
  O  O21  1  0.372708  0.167963  0.053195  1
  O  O22  1  0.418412  0.907461  0.170743  1
  O  O23  1  0.005800  0.072906  0.189734  1
  O  O24  1  0.927880  0.677458  0.222448  1
  O  O25  1  0.427880  0.177458  0.277552  1
  O  O26  1  0.505800  0.572906  0.310266  1
  O  O27  1  0.918412  0.407461  0.329257  1
  O  O28  1  0.872708  0.667963  0.446805  1
  O  O29  1  0.812541  0.097460  0.481417  1
  O  O30  1  0.312541  0.902540  0.518583  1
  O  O31  1  0.372708  0.332037  0.553195  1
  O  O32  1  0.418412  0.592539  0.670743  1
  O  O33  1  0.005800  0.427094  0.689734  1
  O  O34  1  0.927880  0.822542  0.722448  1
  O  O35  1  0.427880  0.322542  0.777552  1
  O  O36  1  0.505800  0.927094  0.810266  1
  O  O37  1  0.918412  0.092539  0.829257  1
  O  O38  1  0.872708  0.832037  0.946805  1
  O  O39  1  0.812541  0.402540  0.981417  1
