# generated using pymatgen
data_VPH5NO6
_symmetry_space_group_name_H-M   'P 1'
_cell_length_a   6.87949682
_cell_length_b   9.16343296
_cell_length_c   9.66373384
_cell_angle_alpha   90.00000000
_cell_angle_beta   90.00000000
_cell_angle_gamma   90.00000000
_symmetry_Int_Tables_number   1
_chemical_formula_structural   VPH5NO6
_chemical_formula_sum   'V4 P4 H20 N4 O24'
_cell_volume   609.19992495
_cell_formula_units_Z   4
loop_
 _symmetry_equiv_pos_site_id
 _symmetry_equiv_pos_as_xyz
  1  'x, y, z'
loop_
 _atom_site_type_symbol
 _atom_site_label
 _atom_site_symmetry_multiplicity
 _atom_site_fract_x
 _atom_site_fract_y
 _atom_site_fract_z
 _atom_site_occupancy
  V  V0  1  0.472492  0.509775  0.020618  1
  V  V1  1  0.527508  0.490225  0.520618  1
  V  V2  1  0.027508  0.509775  0.520618  1
  V  V3  1  0.972492  0.490225  0.020618  1
  P  P4  1  0.205855  0.796181  0.953349  1
  P  P5  1  0.794145  0.203819  0.453349  1
  P  P6  1  0.294145  0.796181  0.453349  1
  P  P7  1  0.705855  0.203819  0.953349  1
  H  H8  1  0.851352  0.836742  0.737511  1
  H  H9  1  0.148648  0.163258  0.237511  1
  H  H10  1  0.648648  0.836742  0.237511  1
  H  H11  1  0.351352  0.163258  0.737511  1
  H  H12  1  0.667032  0.890925  0.837486  1
  H  H13  1  0.332968  0.109075  0.337486  1
  H  H14  1  0.832968  0.890925  0.337486  1
  H  H15  1  0.167032  0.109075  0.837486  1
  H  H16  1  0.675325  0.758791  0.391343  1
  H  H17  1  0.324675  0.241209  0.891343  1
  H  H18  1  0.824675  0.758791  0.891343  1
  H  H19  1  0.175325  0.241209  0.391343  1
  H  H20  1  0.662488  0.720876  0.767256  1
  H  H21  1  0.337512  0.279124  0.267256  1
  H  H22  1  0.837512  0.720876  0.267256  1
  H  H23  1  0.162488  0.279124  0.767256  1
  H  H24  1  0.258298  0.887212  0.163609  1
  H  H25  1  0.741702  0.112788  0.663609  1
  H  H26  1  0.241702  0.887212  0.663609  1
  H  H27  1  0.758298  0.112788  0.163609  1
  N  N28  1  0.748344  0.802297  0.807259  1
  N  N29  1  0.251656  0.197703  0.307259  1
  N  N30  1  0.751656  0.802297  0.307259  1
  N  N31  1  0.248344  0.197703  0.807259  1
  O  O32  1  0.219036  0.454167  0.967913  1
  O  O33  1  0.780964  0.545833  0.467913  1
  O  O34  1  0.280964  0.454167  0.467913  1
  O  O35  1  0.719036  0.545833  0.967913  1
  O  O36  1  0.026130  0.700302  0.994319  1
  O  O37  1  0.973870  0.299698  0.494319  1
  O  O38  1  0.473870  0.700302  0.494319  1
  O  O39  1  0.526130  0.299698  0.994319  1
  O  O40  1  0.396206  0.704405  0.958612  1
  O  O41  1  0.603794  0.295595  0.458612  1
  O  O42  1  0.103794  0.704405  0.458612  1
  O  O43  1  0.896206  0.295595  0.958612  1
  O  O44  1  0.222183  0.920578  0.066173  1
  O  O45  1  0.777817  0.079422  0.566173  1
  O  O46  1  0.277817  0.920578  0.566173  1
  O  O47  1  0.722183  0.079422  0.066173  1
  O  O48  1  0.470570  0.519596  0.188886  1
  O  O49  1  0.529430  0.480404  0.688886  1
  O  O50  1  0.029430  0.519596  0.688886  1
  O  O51  1  0.970570  0.480404  0.188886  1
  O  O52  1  0.172173  0.871446  0.816107  1
  O  O53  1  0.827827  0.128554  0.316107  1
  O  O54  1  0.327827  0.871446  0.316107  1
  O  O55  1  0.672173  0.128554  0.816107  1
