# generated using pymatgen
data_Li4V2CrTeO12
_symmetry_space_group_name_H-M   'P 1'
_cell_length_a   5.06248031
_cell_length_b   5.32189035
_cell_length_c   7.32971686
_cell_angle_alpha   86.10822423
_cell_angle_beta   89.72000803
_cell_angle_gamma   89.92189328
_symmetry_Int_Tables_number   1
_chemical_formula_structural   Li4V2CrTeO12
_chemical_formula_sum   'Li4 V2 Cr1 Te1 O12'
_cell_volume   197.01914237
_cell_formula_units_Z   1
loop_
 _symmetry_equiv_pos_site_id
 _symmetry_equiv_pos_as_xyz
  1  'x, y, z'
loop_
 _atom_site_type_symbol
 _atom_site_label
 _atom_site_symmetry_multiplicity
 _atom_site_fract_x
 _atom_site_fract_y
 _atom_site_fract_z
 _atom_site_occupancy
  Li  Li0  1  0.998463  0.595441  0.277970  1
  Li  Li1  1  0.503522  0.079292  0.804348  1
  Li  Li2  1  0.003184  0.568549  0.797308  1
  Li  Li3  1  0.491672  0.051693  0.264596  1
  V  V4  1  0.004504  0.011673  0.503082  1
  V  V5  1  0.497822  0.521434  0.001530  1
  Cr  Cr6  1  0.995606  0.022432  0.005358  1
  Te  Te7  1  0.500786  0.501765  0.500267  1
  O  O8  1  0.694927  0.796575  0.421161  1
  O  O9  1  0.889224  0.990778  0.731605  1
  O  O10  1  0.689344  0.175372  0.047450  1
  O  O11  1  0.809844  0.299068  0.425487  1
  O  O12  1  0.206896  0.292384  0.940082  1
  O  O13  1  0.628836  0.476007  0.746447  1
  O  O14  1  0.375347  0.473751  0.248729  1
  O  O15  1  0.798371  0.673143  0.044866  1
  O  O16  1  0.179426  0.672062  0.557677  1
  O  O17  1  0.301645  0.784606  0.940642  1
  O  O18  1  0.109657  0.982250  0.256337  1
  O  O19  1  0.320928  0.174124  0.556256  1
