# generated using pymatgen
data_NaCrAsCO7
_symmetry_space_group_name_H-M   'P 1'
_cell_length_a   5.37264476
_cell_length_b   6.47245533
_cell_length_c   9.26561309
_cell_angle_alpha   90.00000000
_cell_angle_beta   92.72662710
_cell_angle_gamma   90.00000000
_symmetry_Int_Tables_number   1
_chemical_formula_structural   NaCrAsCO7
_chemical_formula_sum   'Na2 Cr2 As2 C2 O14'
_cell_volume   321.83953731
_cell_formula_units_Z   2
loop_
 _symmetry_equiv_pos_site_id
 _symmetry_equiv_pos_as_xyz
  1  'x, y, z'
loop_
 _atom_site_type_symbol
 _atom_site_label
 _atom_site_symmetry_multiplicity
 _atom_site_fract_x
 _atom_site_fract_y
 _atom_site_fract_z
 _atom_site_occupancy
  Na  Na0  1  0.769430  0.515273  0.217271  1
  Na  Na1  1  0.230570  0.015273  0.782729  1
  Cr  Cr2  1  0.207671  0.237540  0.333576  1
  Cr  Cr3  1  0.792329  0.737540  0.666424  1
  As  As4  1  0.283017  0.745312  0.434557  1
  As  As5  1  0.716983  0.245312  0.565443  1
  C  C6  1  0.273594  0.255668  0.079516  1
  C  C7  1  0.726406  0.755668  0.920484  1
  O  O8  1  0.678424  0.749239  0.048384  1
  O  O9  1  0.051428  0.249726  0.134575  1
  O  O10  1  0.450721  0.266089  0.189325  1
  O  O11  1  0.207397  0.949771  0.319879  1
  O  O12  1  0.191856  0.543865  0.325016  1
  O  O13  1  0.877204  0.259170  0.410065  1
  O  O14  1  0.597088  0.730495  0.476596  1
  O  O15  1  0.402912  0.230495  0.523404  1
  O  O16  1  0.122796  0.759170  0.589935  1
  O  O17  1  0.808144  0.043865  0.674984  1
  O  O18  1  0.792603  0.449771  0.680121  1
  O  O19  1  0.549279  0.766089  0.810675  1
  O  O20  1  0.948572  0.749726  0.865425  1
  O  O21  1  0.321576  0.249239  0.951616  1
