# generated using pymatgen
data_Mn3OF6
_symmetry_space_group_name_H-M   'P 1'
_cell_length_a   4.83223687
_cell_length_b   10.23445436
_cell_length_c   11.63230511
_cell_angle_alpha   114.42972115
_cell_angle_beta   100.31766615
_cell_angle_gamma   89.62003810
_symmetry_Int_Tables_number   1
_chemical_formula_structural   Mn3OF6
_chemical_formula_sum   'Mn12 O4 F24'
_cell_volume   513.84187849
_cell_formula_units_Z   4
loop_
 _symmetry_equiv_pos_site_id
 _symmetry_equiv_pos_as_xyz
  1  'x, y, z'
loop_
 _atom_site_type_symbol
 _atom_site_label
 _atom_site_symmetry_multiplicity
 _atom_site_fract_x
 _atom_site_fract_y
 _atom_site_fract_z
 _atom_site_occupancy
  Mn  Mn0  1  0.016836  0.987771  0.981370  1
  Mn  Mn1  1  0.036209  0.838988  0.208797  1
  Mn  Mn2  1  0.167359  0.184289  0.351029  1
  Mn  Mn3  1  0.487145  0.489795  0.973428  1
  Mn  Mn4  1  0.420297  0.127070  0.786230  1
  Mn  Mn5  1  0.326089  0.312083  0.643339  1
  Mn  Mn6  1  0.319031  0.532336  0.518471  1
  Mn  Mn7  1  0.722271  0.015995  0.498023  1
  Mn  Mn8  1  0.628523  0.330686  0.190072  1
  Mn  Mn9  1  0.886090  0.631130  0.797981  1
  Mn  Mn10  1  0.848724  0.813342  0.653009  1
  Mn  Mn11  1  0.682811  0.677207  0.333968  1
  O  O12  1  0.411759  0.323910  0.492796  1
  O  O13  1  0.524458  0.147010  0.641648  1
  O  O14  1  0.654604  0.657823  0.657971  1
  O  O15  1  0.866941  0.846736  0.347877  1
  F  F16  1  0.133282  0.799005  0.790049  1
  F  F17  1  0.103946  0.486423  0.655663  1
  F  F18  1  0.051823  0.972357  0.642843  1
  F  F19  1  0.256556  0.097350  0.911916  1
  F  F20  1  0.154739  0.595160  0.919308  1
  F  F21  1  0.011003  0.668910  0.492619  1
  F  F22  1  0.176819  0.294745  0.780290  1
  F  F23  1  0.326556  0.708860  0.236122  1
  F  F24  1  0.223370  0.881392  0.094680  1
  F  F25  1  0.377109  0.023349  0.361239  1
  F  F26  1  0.354091  0.396305  0.091534  1
  F  F27  1  0.482051  0.526563  0.360968  1
  F  F28  1  0.378545  0.206067  0.212872  1
  F  F29  1  0.748078  0.802578  0.923358  1
  F  F30  1  0.614070  0.478408  0.792187  1
  F  F31  1  0.673560  0.973055  0.786473  1
  F  F32  1  0.675149  0.297622  0.913370  1
  F  F33  1  0.560941  0.827831  0.509232  1
  F  F34  1  0.761549  0.668434  0.091516  1
  F  F35  1  0.851486  0.494603  0.213888  1
  F  F36  1  0.924278  0.335382  0.340791  1
  F  F37  1  0.971931  0.174503  0.500338  1
  F  F38  1  0.818875  0.165624  0.077239  1
  F  F39  1  0.888588  0.032150  0.234383  1
