# generated using pymatgen
data_Li4V3O8
_symmetry_space_group_name_H-M   'P 1'
_cell_length_a   6.14783288
_cell_length_b   6.14783288
_cell_length_c   6.14783288
_cell_angle_alpha   56.76120050
_cell_angle_beta   56.76120050
_cell_angle_gamma   56.76120050
_symmetry_Int_Tables_number   1
_chemical_formula_structural   Li4V3O8
_chemical_formula_sum   'Li4 V3 O8'
_cell_volume   152.02059987
_cell_formula_units_Z   1
loop_
 _symmetry_equiv_pos_site_id
 _symmetry_equiv_pos_as_xyz
  1  'x, y, z'
loop_
 _atom_site_type_symbol
 _atom_site_label
 _atom_site_symmetry_multiplicity
 _atom_site_fract_x
 _atom_site_fract_y
 _atom_site_fract_z
 _atom_site_occupancy
  Li  Li0  1  0.000000  0.000000  0.000000  1
  Li  Li1  1  0.357489  0.357489  0.357489  1
  Li  Li2  1  0.500000  0.500000  0.500000  1
  Li  Li3  1  0.642511  0.642511  0.642511  1
  V  V4  1  0.500000  1.000000  0.000000  1
  V  V5  1  1.000000  0.000000  0.500000  1
  V  V6  1  0.000000  0.500000  0.000000  1
  O  O7  1  0.235104  0.235104  0.235104  1
  O  O8  1  0.218154  0.756728  0.729095  1
  O  O9  1  0.756728  0.729095  0.218154  1
  O  O10  1  0.729095  0.218154  0.756728  1
  O  O11  1  0.764896  0.764896  0.764896  1
  O  O12  1  0.781846  0.243272  0.270905  1
  O  O13  1  0.243272  0.270905  0.781846  1
  O  O14  1  0.270905  0.781846  0.243272  1
