# generated using pymatgen
data_Li2MnNi3O8
_symmetry_space_group_name_H-M   'P 1'
_cell_length_a   5.76571148
_cell_length_b   5.76571148
_cell_length_c   5.76571148
_cell_angle_alpha   60.38882605
_cell_angle_beta   60.38882605
_cell_angle_gamma   60.38882605
_symmetry_Int_Tables_number   1
_chemical_formula_structural   Li2MnNi3O8
_chemical_formula_sum   'Li2 Mn1 Ni3 O8'
_cell_volume   136.72442884
_cell_formula_units_Z   1
loop_
 _symmetry_equiv_pos_site_id
 _symmetry_equiv_pos_as_xyz
  1  'x, y, z'
loop_
 _atom_site_type_symbol
 _atom_site_label
 _atom_site_symmetry_multiplicity
 _atom_site_fract_x
 _atom_site_fract_y
 _atom_site_fract_z
 _atom_site_occupancy
  Li  Li0  1  0.874321  0.874321  0.874321  1
  Li  Li1  1  0.125679  0.125679  0.125679  1
  Mn  Mn2  1  0.500000  0.500000  0.500000  1
  Ni  Ni3  1  0.500000  0.000000  0.500000  1
  Ni  Ni4  1  0.500000  0.500000  0.000000  1
  Ni  Ni5  1  0.000000  0.500000  0.500000  1
  O  O6  1  0.735765  0.735765  0.735765  1
  O  O7  1  0.287456  0.734552  0.734552  1
  O  O8  1  0.734552  0.734552  0.287456  1
  O  O9  1  0.734552  0.287456  0.734552  1
  O  O10  1  0.265448  0.712544  0.265448  1
  O  O11  1  0.265448  0.265448  0.712544  1
  O  O12  1  0.712544  0.265448  0.265448  1
  O  O13  1  0.264235  0.264235  0.264235  1
