# generated using pymatgen
data_Li2MnFe(BO3)2
_symmetry_space_group_name_H-M   'P 1'
_cell_length_a   5.16996764
_cell_length_b   5.24244709
_cell_length_c   6.05127305
_cell_angle_alpha   91.13010286
_cell_angle_beta   113.12794046
_cell_angle_gamma   119.27395428
_symmetry_Int_Tables_number   1
_chemical_formula_structural   Li2MnFe(BO3)2
_chemical_formula_sum   'Li2 Mn1 Fe1 B2 O6'
_cell_volume   126.89778600
_cell_formula_units_Z   1
loop_
 _symmetry_equiv_pos_site_id
 _symmetry_equiv_pos_as_xyz
  1  'x, y, z'
loop_
 _atom_site_type_symbol
 _atom_site_label
 _atom_site_symmetry_multiplicity
 _atom_site_fract_x
 _atom_site_fract_y
 _atom_site_fract_z
 _atom_site_occupancy
  Li  Li0  1  0.564167  0.631148  0.327760  1
  Li  Li1  1  0.439490  0.372444  0.673021  1
  Mn  Mn2  1  0.834514  0.250124  0.228269  1
  Fe  Fe3  1  0.158109  0.740773  0.763659  1
  B  B4  1  0.189555  0.924153  0.261527  1
  B  B5  1  0.810362  0.076072  0.740207  1
  O  O6  1  0.964326  0.694261  0.322562  1
  O  O7  1  0.374315  0.867541  0.172121  1
  O  O8  1  0.243371  0.210984  0.297839  1
  O  O9  1  0.767664  0.794961  0.705660  1
  O  O10  1  0.612374  0.123007  0.819911  1
  O  O11  1  0.041753  0.314531  0.687464  1
