# generated using pymatgen
data_Na3AsH24SeO15
_symmetry_space_group_name_H-M   'P 1'
_cell_length_a   9.30869885
_cell_length_b   13.14078806
_cell_length_c   13.92796269
_cell_angle_alpha   90.00000000
_cell_angle_beta   90.00000000
_cell_angle_gamma   90.00000000
_symmetry_Int_Tables_number   1
_chemical_formula_structural   Na3AsH24SeO15
_chemical_formula_sum   'Na12 As4 H96 Se4 O60'
_cell_volume   1703.71907595
_cell_formula_units_Z   4
loop_
 _symmetry_equiv_pos_site_id
 _symmetry_equiv_pos_as_xyz
  1  'x, y, z'
loop_
 _atom_site_type_symbol
 _atom_site_label
 _atom_site_symmetry_multiplicity
 _atom_site_fract_x
 _atom_site_fract_y
 _atom_site_fract_z
 _atom_site_occupancy
  Na  Na0  1  0.749031  0.008384  0.979476  1
  Na  Na1  1  0.750969  0.991616  0.479476  1
  Na  Na2  1  0.249031  0.491616  0.020524  1
  Na  Na3  1  0.250969  0.508384  0.520524  1
  Na  Na4  1  0.741102  0.212444  0.100310  1
  Na  Na5  1  0.758898  0.787556  0.600310  1
  Na  Na6  1  0.241102  0.287556  0.899690  1
  Na  Na7  1  0.258898  0.712444  0.399690  1
  Na  Na8  1  0.745043  0.218073  0.390798  1
  Na  Na9  1  0.754957  0.781927  0.890798  1
  Na  Na10  1  0.245043  0.281927  0.609202  1
  Na  Na11  1  0.254957  0.718073  0.109202  1
  As  As12  1  0.748091  0.540665  0.272872  1
  As  As13  1  0.751909  0.459335  0.772872  1
  As  As14  1  0.248091  0.959335  0.727128  1
  As  As15  1  0.251909  0.040665  0.227128  1
  H  H16  1  0.989817  0.084940  0.057681  1
  H  H17  1  0.510183  0.915060  0.557681  1
  H  H18  1  0.489817  0.415060  0.942319  1
  H  H19  1  0.010183  0.584940  0.442319  1
  H  H20  1  0.959589  0.038364  0.157483  1
  H  H21  1  0.540411  0.961636  0.657483  1
  H  H22  1  0.459589  0.461636  0.842517  1
  H  H23  1  0.040411  0.538364  0.342517  1
  H  H24  1  0.012286  0.359463  0.025894  1
  H  H25  1  0.487714  0.640537  0.525894  1
  H  H26  1  0.512286  0.140537  0.974106  1
  H  H27  1  0.987714  0.859463  0.474106  1
  H  H28  1  0.971206  0.414408  0.929444  1
  H  H29  1  0.528794  0.585592  0.429444  1
  H  H30  1  0.471206  0.085592  0.070556  1
  H  H31  1  0.028794  0.914408  0.570556  1
  H  H32  1  0.778711  0.034059  0.290911  1
  H  H33  1  0.721289  0.965941  0.790911  1
  H  H34  1  0.278711  0.465941  0.709089  1
  H  H35  1  0.221289  0.534059  0.209089  1
  H  H36  1  0.945158  0.042836  0.311672  1
  H  H37  1  0.554842  0.957164  0.811672  1
  H  H38  1  0.445158  0.457164  0.688328  1
  H  H39  1  0.054842  0.542836  0.188328  1
  H  H40  1  0.498951  0.119737  0.486750  1
  H  H41  1  0.001049  0.880263  0.986750  1
  H  H42  1  0.998951  0.380263  0.513250  1
  H  H43  1  0.501049  0.619737  0.013250  1
  H  H44  1  0.478690  0.065283  0.384432  1
  H  H45  1  0.021310  0.934717  0.884432  1
  H  H46  1  0.978690  0.434717  0.615568  1
  H  H47  1  0.521310  0.565283  0.115568  1
  H  H48  1  0.513902  0.246121  0.254171  1
  H  H49  1  0.986098  0.753879  0.754171  1
  H  H50  1  0.013902  0.253879  0.745829  1
  H  H51  1  0.486098  0.746121  0.245829  1
  H  H52  1  0.608721  0.343690  0.234670  1
  H  H53  1  0.891279  0.656310  0.734670  1
  H  H54  1  0.108721  0.156310  0.765330  1
  H  H55  1  0.391279  0.843690  0.265330  1
  H  H56  1  0.709930  0.402846  0.978744  1
  H  H57  1  0.790070  0.597154  0.478744  1
  H  H58  1  0.209930  0.097154  0.021256  1
  H  H59  1  0.290070  0.902846  0.521256  1
  H  H60  1  0.653460  0.418975  0.086443  1
  H  H61  1  0.846540  0.581025  0.586443  1
  H  H62  1  0.153460  0.081025  0.913557  1
  H  H63  1  0.346540  0.918975  0.413557  1
  H  H64  1  0.937191  0.388914  0.346012  1
  H  H65  1  0.562809  0.611086  0.846012  1
  H  H66  1  0.437191  0.111086  0.653988  1
  H  H67  1  0.062809  0.888914  0.153988  1
  H  H68  1  0.034152  0.292821  0.365476  1
  H  H69  1  0.465848  0.707179  0.865476  1
  H  H70  1  0.534152  0.207179  0.634524  1
  H  H71  1  0.965848  0.792821  0.134524  1
  H  H72  1  0.664444  0.424367  0.448524  1
  H  H73  1  0.835556  0.575633  0.948524  1
  H  H74  1  0.164444  0.075633  0.551476  1
  H  H75  1  0.335556  0.924367  0.051476  1
  H  H76  1  0.664462  0.361533  0.547922  1
  H  H77  1  0.835538  0.638467  0.047922  1
  H  H78  1  0.164462  0.138467  0.452078  1
  H  H79  1  0.335538  0.861533  0.952078  1
  H  H80  1  0.554264  0.822248  0.437062  1
  H  H81  1  0.945736  0.177752  0.937062  1
  H  H82  1  0.054264  0.677752  0.562938  1
  H  H83  1  0.445736  0.322248  0.062938  1
  H  H84  1  0.687874  0.789857  0.375604  1
  H  H85  1  0.812126  0.210143  0.875604  1
  H  H86  1  0.187874  0.710143  0.624396  1
  H  H87  1  0.312126  0.289857  0.124396  1
  H  H88  1  0.545440  0.853297  0.038073  1
  H  H89  1  0.954560  0.146703  0.538073  1
  H  H90  1  0.045440  0.646703  0.961927  1
  H  H91  1  0.454560  0.353297  0.461927  1
  H  H92  1  0.671732  0.795475  0.092361  1
  H  H93  1  0.828268  0.204525  0.592361  1
  H  H94  1  0.171732  0.704525  0.907639  1
  H  H95  1  0.328268  0.295475  0.407639  1
  H  H96  1  0.022843  0.272718  0.170847  1
  H  H97  1  0.477157  0.727282  0.670847  1
  H  H98  1  0.522843  0.227282  0.829153  1
  H  H99  1  0.977157  0.772718  0.329153  1
  H  H100  1  0.933781  0.374635  0.181117  1
  H  H101  1  0.566219  0.625365  0.681117  1
  H  H102  1  0.433781  0.125365  0.818883  1
  H  H103  1  0.066219  0.874635  0.318883  1
  H  H104  1  0.648638  0.946276  0.165454  1
  H  H105  1  0.851362  0.053724  0.665454  1
  H  H106  1  0.148638  0.553724  0.834546  1
  H  H107  1  0.351362  0.446276  0.334546  1
  H  H108  1  0.546383  0.983539  0.250216  1
  H  H109  1  0.953617  0.016461  0.750216  1
  H  H110  1  0.046383  0.516461  0.749784  1
  H  H111  1  0.453617  0.483539  0.249784  1
  Se  Se112  1  0.765727  0.711856  0.230899  1
  Se  Se113  1  0.734273  0.288144  0.730899  1
  Se  Se114  1  0.265727  0.788144  0.769101  1
  Se  Se115  1  0.234273  0.211856  0.269101  1
  O  O116  1  0.912310  0.479454  0.259634  1
  O  O117  1  0.587690  0.520546  0.759634  1
  O  O118  1  0.412310  0.020546  0.740366  1
  O  O119  1  0.087690  0.979454  0.240366  1
  O  O120  1  0.695449  0.532003  0.391566  1
  O  O121  1  0.804551  0.467997  0.891566  1
  O  O122  1  0.195449  0.967997  0.608434  1
  O  O123  1  0.304551  0.032003  0.108434  1
  O  O124  1  0.623555  0.479200  0.200672  1
  O  O125  1  0.876445  0.520800  0.700672  1
  O  O126  1  0.123555  0.020800  0.799328  1
  O  O127  1  0.376445  0.979200  0.299328  1
  O  O128  1  0.910394  0.071262  0.102599  1
  O  O129  1  0.589606  0.928738  0.602599  1
  O  O130  1  0.410394  0.428738  0.897401  1
  O  O131  1  0.089606  0.571262  0.397401  1
  O  O132  1  0.554564  0.112189  0.033862  1
  O  O133  1  0.945436  0.887811  0.533862  1
  O  O134  1  0.054564  0.387811  0.966138  1
  O  O135  1  0.445436  0.612189  0.466138  1
  O  O136  1  0.850222  0.063607  0.336880  1
  O  O137  1  0.649778  0.936393  0.836880  1
  O  O138  1  0.350222  0.436393  0.663120  1
  O  O139  1  0.149778  0.563607  0.163120  1
  O  O140  1  0.548987  0.099817  0.427032  1
  O  O141  1  0.951013  0.900183  0.927032  1
  O  O142  1  0.048987  0.400183  0.572968  1
  O  O143  1  0.451013  0.599817  0.072968  1
  O  O144  1  0.613842  0.269260  0.247382  1
  O  O145  1  0.886158  0.730740  0.747382  1
  O  O146  1  0.113843  0.230740  0.752618  1
  O  O147  1  0.386158  0.769260  0.252618  1
  O  O148  1  0.646745  0.372958  0.029888  1
  O  O149  1  0.853255  0.627042  0.529888  1
  O  O150  1  0.146745  0.127042  0.970112  1
  O  O151  1  0.353255  0.872958  0.470112  1
  O  O152  1  0.953411  0.331439  0.392581  1
  O  O153  1  0.546589  0.668561  0.892581  1
  O  O154  1  0.453411  0.168561  0.607419  1
  O  O155  1  0.046589  0.831439  0.107419  1
  O  O156  1  0.635641  0.357945  0.480228  1
  O  O157  1  0.864359  0.642055  0.980228  1
  O  O158  1  0.135641  0.142055  0.519772  1
  O  O159  1  0.364359  0.857945  0.019772  1
  O  O160  1  0.659314  0.826447  0.434475  1
  O  O161  1  0.840686  0.173553  0.934475  1
  O  O162  1  0.159314  0.673553  0.565525  1
  O  O163  1  0.340686  0.326447  0.065525  1
  O  O164  1  0.650758  0.856158  0.053130  1
  O  O165  1  0.849242  0.143842  0.553130  1
  O  O166  1  0.150758  0.643842  0.946870  1
  O  O167  1  0.349242  0.356158  0.446870  1
  O  O168  1  0.948293  0.313810  0.139182  1
  O  O169  1  0.551707  0.686190  0.639182  1
  O  O170  1  0.448293  0.186190  0.860818  1
  O  O171  1  0.051707  0.813810  0.360818  1
  O  O172  1  0.645240  0.988820  0.223647  1
  O  O173  1  0.854760  0.011180  0.723647  1
  O  O174  1  0.145240  0.511180  0.776353  1
  O  O175  1  0.354760  0.488820  0.276353  1
