# generated using pymatgen
data_V3O2F5
_symmetry_space_group_name_H-M   'P 1'
_cell_length_a   4.92194432
_cell_length_b   5.11329705
_cell_length_c   16.81532254
_cell_angle_alpha   90.00000000
_cell_angle_beta   90.00000000
_cell_angle_gamma   90.00000000
_symmetry_Int_Tables_number   1
_chemical_formula_structural   V3O2F5
_chemical_formula_sum   'V12 O8 F20'
_cell_volume   423.19733265
_cell_formula_units_Z   4
loop_
 _symmetry_equiv_pos_site_id
 _symmetry_equiv_pos_as_xyz
  1  'x, y, z'
loop_
 _atom_site_type_symbol
 _atom_site_label
 _atom_site_symmetry_multiplicity
 _atom_site_fract_x
 _atom_site_fract_y
 _atom_site_fract_z
 _atom_site_occupancy
  V  V0  1  0.448527  0.059348  0.750000  1
  V  V1  1  0.048723  0.122750  0.597539  1
  V  V2  1  0.048723  0.122750  0.902461  1
  V  V3  1  0.548723  0.377250  0.097539  1
  V  V4  1  0.548723  0.377250  0.402461  1
  V  V5  1  0.948527  0.440652  0.250000  1
  V  V6  1  0.051473  0.559348  0.750000  1
  V  V7  1  0.451277  0.622750  0.902461  1
  V  V8  1  0.451277  0.622750  0.597539  1
  V  V9  1  0.951277  0.877250  0.097539  1
  V  V10  1  0.951277  0.877250  0.402461  1
  V  V11  1  0.551473  0.940652  0.250000  1
  O  O12  1  0.786141  0.160381  0.172968  1
  O  O13  1  0.786141  0.160381  0.327032  1
  O  O14  1  0.286141  0.339619  0.827032  1
  O  O15  1  0.286141  0.339619  0.672968  1
  O  O16  1  0.713859  0.660381  0.327032  1
  O  O17  1  0.713859  0.660381  0.172968  1
  O  O18  1  0.213859  0.839619  0.672968  1
  O  O19  1  0.213859  0.839619  0.827032  1
  F  F20  1  0.316712  0.050138  0.113523  1
  F  F21  1  0.316712  0.050138  0.386477  1
  F  F22  1  0.824853  0.170597  0.025736  1
  F  F23  1  0.824853  0.170597  0.474264  1
  F  F24  1  0.820430  0.222872  0.750000  1
  F  F25  1  0.320430  0.277128  0.250000  1
  F  F26  1  0.324853  0.329403  0.525736  1
  F  F27  1  0.324853  0.329403  0.974264  1
  F  F28  1  0.816712  0.449862  0.613523  1
  F  F29  1  0.816712  0.449862  0.886477  1
  F  F30  1  0.183288  0.550138  0.386477  1
  F  F31  1  0.183288  0.550138  0.113523  1
  F  F32  1  0.675147  0.670597  0.025736  1
  F  F33  1  0.675147  0.670597  0.474264  1
  F  F34  1  0.679570  0.722872  0.750000  1
  F  F35  1  0.179570  0.777128  0.250000  1
  F  F36  1  0.175147  0.829403  0.974264  1
  F  F37  1  0.175147  0.829403  0.525736  1
  F  F38  1  0.683288  0.949862  0.886477  1
  F  F39  1  0.683288  0.949862  0.613523  1
