# generated using pymatgen
data_Li2AlVO4
_symmetry_space_group_name_H-M   'P 1'
_cell_length_a   5.08771086
_cell_length_b   6.49137228
_cell_length_c   11.07008977
_cell_angle_alpha   90.00000000
_cell_angle_beta   90.00000000
_cell_angle_gamma   90.00000000
_symmetry_Int_Tables_number   1
_chemical_formula_structural   Li2AlVO4
_chemical_formula_sum   'Li8 Al4 V4 O16'
_cell_volume   365.60327823
_cell_formula_units_Z   4
loop_
 _symmetry_equiv_pos_site_id
 _symmetry_equiv_pos_as_xyz
  1  'x, y, z'
loop_
 _atom_site_type_symbol
 _atom_site_label
 _atom_site_symmetry_multiplicity
 _atom_site_fract_x
 _atom_site_fract_y
 _atom_site_fract_z
 _atom_site_occupancy
  Li  Li0  1  0.244436  0.869003  0.080823  1
  Li  Li1  1  0.690607  0.117302  0.163630  1
  Li  Li2  1  0.190607  0.617302  0.336370  1
  Li  Li3  1  0.744436  0.369003  0.419177  1
  Li  Li4  1  0.255564  0.869003  0.580823  1
  Li  Li5  1  0.809393  0.117302  0.663630  1
  Li  Li6  1  0.309393  0.617302  0.836370  1
  Li  Li7  1  0.755564  0.369003  0.919177  1
  Al  Al8  1  0.184264  0.366493  0.085305  1
  Al  Al9  1  0.684264  0.866493  0.414695  1
  Al  Al10  1  0.315736  0.366493  0.585305  1
  Al  Al11  1  0.815736  0.866493  0.914695  1
  V  V12  1  0.688497  0.619595  0.168234  1
  V  V13  1  0.188497  0.119595  0.331766  1
  V  V14  1  0.811503  0.619595  0.668234  1
  V  V15  1  0.311503  0.119595  0.831766  1
  O  O16  1  0.746858  0.860685  0.071487  1
  O  O17  1  0.833084  0.375001  0.094689  1
  O  O18  1  0.303722  0.592559  0.158598  1
  O  O19  1  0.293658  0.141456  0.163372  1
  O  O20  1  0.793658  0.641456  0.336628  1
  O  O21  1  0.803722  0.092559  0.341402  1
  O  O22  1  0.333084  0.875001  0.405311  1
  O  O23  1  0.246858  0.360685  0.428513  1
  O  O24  1  0.753142  0.860685  0.571487  1
  O  O25  1  0.666916  0.375001  0.594689  1
  O  O26  1  0.196278  0.592559  0.658598  1
  O  O27  1  0.206342  0.141456  0.663372  1
  O  O28  1  0.706342  0.641456  0.836628  1
  O  O29  1  0.696278  0.092559  0.841402  1
  O  O30  1  0.166916  0.875001  0.905311  1
  O  O31  1  0.253142  0.360685  0.928513  1
