# generated using pymatgen
data_SnH6Cl4O3
_symmetry_space_group_name_H-M   'P 1'
_cell_length_a   6.52675156
_cell_length_b   11.42899693
_cell_length_c   12.10651640
_cell_angle_alpha   90.00000000
_cell_angle_beta   90.62297038
_cell_angle_gamma   90.00000000
_symmetry_Int_Tables_number   1
_chemical_formula_structural   SnH6Cl4O3
_chemical_formula_sum   'Sn4 H24 Cl16 O12'
_cell_volume   903.02281037
_cell_formula_units_Z   4
loop_
 _symmetry_equiv_pos_site_id
 _symmetry_equiv_pos_as_xyz
  1  'x, y, z'
loop_
 _atom_site_type_symbol
 _atom_site_label
 _atom_site_symmetry_multiplicity
 _atom_site_fract_x
 _atom_site_fract_y
 _atom_site_fract_z
 _atom_site_occupancy
  Sn  Sn0  1  0.635904  0.734375  0.835689  1
  Sn  Sn1  1  0.364096  0.234375  0.664311  1
  Sn  Sn2  1  0.364096  0.265625  0.164311  1
  Sn  Sn3  1  0.635904  0.765625  0.335689  1
  H  H4  1  0.385009  0.848306  0.671890  1
  H  H5  1  0.614991  0.348306  0.828110  1
  H  H6  1  0.614991  0.151694  0.328110  1
  H  H7  1  0.385009  0.651694  0.171890  1
  H  H8  1  0.571590  0.937249  0.707634  1
  H  H9  1  0.428410  0.437249  0.792366  1
  H  H10  1  0.428410  0.062751  0.292366  1
  H  H11  1  0.571590  0.562751  0.207634  1
  H  H12  1  0.574104  0.856323  0.028120  1
  H  H13  1  0.425896  0.356323  0.471880  1
  H  H14  1  0.425896  0.143677  0.971880  1
  H  H15  1  0.574104  0.643677  0.528120  1
  H  H16  1  0.362306  0.789032  0.008799  1
  H  H17  1  0.637694  0.289032  0.491201  1
  H  H18  1  0.637694  0.210968  0.991201  1
  H  H19  1  0.362306  0.710968  0.508799  1
  H  H20  1  0.108138  0.751426  0.135549  1
  H  H21  1  0.891862  0.251426  0.364451  1
  H  H22  1  0.891862  0.248574  0.864451  1
  H  H23  1  0.108138  0.748574  0.635549  1
  H  H24  1  0.116754  0.655520  0.043405  1
  H  H25  1  0.883246  0.155520  0.456595  1
  H  H26  1  0.883246  0.344480  0.956595  1
  H  H27  1  0.116754  0.844480  0.543405  1
  Cl  Cl28  1  0.767167  0.594989  0.970017  1
  Cl  Cl29  1  0.232833  0.094989  0.529983  1
  Cl  Cl30  1  0.232833  0.405011  0.029983  1
  Cl  Cl31  1  0.767167  0.905011  0.470017  1
  Cl  Cl32  1  0.313208  0.630642  0.813764  1
  Cl  Cl33  1  0.686792  0.130642  0.686236  1
  Cl  Cl34  1  0.686792  0.369358  0.186236  1
  Cl  Cl35  1  0.313208  0.869358  0.313764  1
  Cl  Cl36  1  0.787005  0.637418  0.675610  1
  Cl  Cl37  1  0.212995  0.137418  0.824390  1
  Cl  Cl38  1  0.212995  0.362582  0.324390  1
  Cl  Cl39  1  0.787005  0.862582  0.175610  1
  Cl  Cl40  1  0.901732  0.875345  0.858786  1
  Cl  Cl41  1  0.098268  0.375345  0.641214  1
  Cl  Cl42  1  0.098268  0.124655  0.141214  1
  Cl  Cl43  1  0.901732  0.624655  0.358786  1
  O  O44  1  0.492050  0.867647  0.729358  1
  O  O45  1  0.507950  0.367647  0.770642  1
  O  O46  1  0.507950  0.132353  0.270642  1
  O  O47  1  0.492050  0.632353  0.229358  1
  O  O48  1  0.476422  0.831111  0.969792  1
  O  O49  1  0.523578  0.331111  0.530208  1
  O  O50  1  0.523578  0.168889  0.030208  1
  O  O51  1  0.476422  0.668889  0.469792  1
  O  O52  1  0.203478  0.707176  0.088887  1
  O  O53  1  0.796522  0.207176  0.411113  1
  O  O54  1  0.796522  0.292824  0.911113  1
  O  O55  1  0.203478  0.792824  0.588887  1
