# generated using pymatgen
data_Li3V4P9O32
_symmetry_space_group_name_H-M   'P 1'
_cell_length_a   13.77768768
_cell_length_b   13.77768768
_cell_length_c   6.34549313
_cell_angle_alpha   90.00000000
_cell_angle_beta   90.00000000
_cell_angle_gamma   90.00000000
_symmetry_Int_Tables_number   1
_chemical_formula_structural   Li3V4P9O32
_chemical_formula_sum   'Li6 V8 P18 O64'
_cell_volume   1204.53118893
_cell_formula_units_Z   2
loop_
 _symmetry_equiv_pos_site_id
 _symmetry_equiv_pos_as_xyz
  1  'x, y, z'
loop_
 _atom_site_type_symbol
 _atom_site_label
 _atom_site_symmetry_multiplicity
 _atom_site_fract_x
 _atom_site_fract_y
 _atom_site_fract_z
 _atom_site_occupancy
  Li  Li0  1  0.500000  0.000000  0.358109  1
  Li  Li1  1  0.000000  0.500000  0.141891  1
  Li  Li2  1  0.500000  0.000000  0.858109  1
  Li  Li3  1  0.500000  0.500000  0.500000  1
  Li  Li4  1  0.000000  0.500000  0.641891  1
  Li  Li5  1  0.000000  0.000000  0.000000  1
  V  V6  1  0.803570  0.881796  0.377806  1
  V  V7  1  0.303570  0.618204  0.122194  1
  V  V8  1  0.118204  0.803570  0.622194  1
  V  V9  1  0.881796  0.196430  0.622194  1
  V  V10  1  0.196430  0.118204  0.377806  1
  V  V11  1  0.381796  0.303570  0.877806  1
  V  V12  1  0.618204  0.696430  0.877806  1
  V  V13  1  0.696430  0.381796  0.122194  1
  P  P14  1  0.246625  0.105861  0.867653  1
  P  P15  1  0.559899  0.195731  0.112120  1
  P  P16  1  0.440101  0.804269  0.112120  1
  P  P17  1  0.940101  0.695731  0.387880  1
  P  P18  1  0.695731  0.059899  0.612120  1
  P  P19  1  0.059899  0.304269  0.387880  1
  P  P20  1  0.500000  0.500000  0.000000  1
  P  P21  1  0.304269  0.940101  0.612120  1
  P  P22  1  0.000000  0.000000  0.500000  1
  P  P23  1  0.253375  0.605861  0.632347  1
  P  P24  1  0.105861  0.753375  0.132347  1
  P  P25  1  0.195731  0.440101  0.887880  1
  P  P26  1  0.394139  0.253375  0.367653  1
  P  P27  1  0.894139  0.246625  0.132347  1
  P  P28  1  0.605861  0.746625  0.367653  1
  P  P29  1  0.804269  0.559899  0.887880  1
  P  P30  1  0.746625  0.394139  0.632347  1
  P  P31  1  0.753375  0.894139  0.867653  1
  O  O32  1  0.250818  0.994844  0.430905  1
  O  O33  1  0.994911  0.722408  0.169645  1
  O  O34  1  0.254198  0.840633  0.638217  1
  O  O35  1  0.688523  0.397658  0.428062  1
  O  O36  1  0.245802  0.340633  0.861783  1
  O  O37  1  0.366724  0.319789  0.184024  1
  O  O38  1  0.819789  0.866724  0.684024  1
  O  O39  1  0.494844  0.750818  0.930905  1
  O  O40  1  0.665037  0.839871  0.381845  1
  O  O41  1  0.745802  0.159367  0.638217  1
  O  O42  1  0.339871  0.165037  0.881845  1
  O  O43  1  0.563728  0.437420  0.149262  1
  O  O44  1  0.936272  0.937420  0.350738  1
  O  O45  1  0.680211  0.366724  0.815976  1
  O  O46  1  0.750818  0.505156  0.069095  1
  O  O47  1  0.160129  0.665037  0.618155  1
  O  O48  1  0.397658  0.311477  0.571938  1
  O  O49  1  0.505156  0.249182  0.930905  1
  O  O50  1  0.937420  0.063728  0.649262  1
  O  O51  1  0.749182  0.005156  0.430905  1
  O  O52  1  0.722408  0.005089  0.830355  1
  O  O53  1  0.866724  0.180211  0.315976  1
  O  O54  1  0.340633  0.754198  0.138217  1
  O  O55  1  0.562580  0.563728  0.850738  1
  O  O56  1  0.249182  0.494844  0.069095  1
  O  O57  1  0.659367  0.245802  0.138217  1
  O  O58  1  0.180211  0.133276  0.684024  1
  O  O59  1  0.839871  0.334963  0.618155  1
  O  O60  1  0.994844  0.749182  0.569095  1
  O  O61  1  0.311477  0.602342  0.428062  1
  O  O62  1  0.633276  0.680211  0.184024  1
  O  O63  1  0.897658  0.188523  0.928062  1
  O  O64  1  0.660129  0.834963  0.881845  1
  O  O65  1  0.840633  0.745802  0.361783  1
  O  O66  1  0.188523  0.102342  0.071938  1
  O  O67  1  0.811477  0.897658  0.071938  1
  O  O68  1  0.436272  0.562580  0.149262  1
  O  O69  1  0.505089  0.222408  0.330355  1
  O  O70  1  0.059236  0.412781  0.408044  1
  O  O71  1  0.754198  0.659367  0.861783  1
  O  O72  1  0.587219  0.059236  0.591956  1
  O  O73  1  0.437420  0.436272  0.850738  1
  O  O74  1  0.912781  0.559236  0.908044  1
  O  O75  1  0.087219  0.440764  0.908044  1
  O  O76  1  0.133276  0.819789  0.315976  1
  O  O77  1  0.834963  0.339871  0.118155  1
  O  O78  1  0.102342  0.811477  0.928062  1
  O  O79  1  0.602342  0.688523  0.571938  1
  O  O80  1  0.777592  0.505089  0.669645  1
  O  O81  1  0.062580  0.936272  0.649262  1
  O  O82  1  0.559236  0.087219  0.091956  1
  O  O83  1  0.222408  0.494911  0.669645  1
  O  O84  1  0.494911  0.777592  0.330355  1
  O  O85  1  0.063728  0.062580  0.350738  1
  O  O86  1  0.159367  0.254198  0.361783  1
  O  O87  1  0.940764  0.587219  0.408044  1
  O  O88  1  0.165037  0.660129  0.118155  1
  O  O89  1  0.277592  0.994911  0.830355  1
  O  O90  1  0.334963  0.160129  0.381845  1
  O  O91  1  0.319789  0.633276  0.815976  1
  O  O92  1  0.412781  0.940764  0.591956  1
  O  O93  1  0.005089  0.277592  0.169645  1
  O  O94  1  0.005156  0.250818  0.569095  1
  O  O95  1  0.440764  0.912781  0.091956  1
