# generated using pymatgen
data_HfTiO4
_symmetry_space_group_name_H-M   'P 1'
_cell_length_a   4.77077732
_cell_length_b   5.68478557
_cell_length_c   10.17510622
_cell_angle_alpha   90.14598669
_cell_angle_beta   90.94090836
_cell_angle_gamma   90.05634282
_symmetry_Int_Tables_number   1
_chemical_formula_structural   HfTiO4
_chemical_formula_sum   'Hf4 Ti4 O16'
_cell_volume   275.91923939
_cell_formula_units_Z   4
loop_
 _symmetry_equiv_pos_site_id
 _symmetry_equiv_pos_as_xyz
  1  'x, y, z'
loop_
 _atom_site_type_symbol
 _atom_site_label
 _atom_site_symmetry_multiplicity
 _atom_site_fract_x
 _atom_site_fract_y
 _atom_site_fract_z
 _atom_site_occupancy
  Hf  Hf0  1  0.001736  0.327680  0.120885  1
  Hf  Hf1  1  0.499147  0.820939  0.121836  1
  Hf  Hf2  1  0.501358  0.181906  0.379382  1
  Hf  Hf3  1  0.498712  0.817552  0.628381  1
  Ti  Ti4  1  0.999814  0.681004  0.871995  1
  Ti  Ti5  1  0.002226  0.327114  0.628073  1
  Ti  Ti6  1  0.996549  0.672470  0.377914  1
  Ti  Ti7  1  0.502027  0.187096  0.871293  1
  O  O8  1  0.245503  0.386767  0.954433  1
  O  O9  1  0.216930  0.389592  0.470083  1
  O  O10  1  0.224841  0.608705  0.218540  1
  O  O11  1  0.207259  0.609753  0.714191  1
  O  O12  1  0.258226  0.884117  0.952374  1
  O  O13  1  0.272702  0.121751  0.709464  1
  O  O14  1  0.280998  0.106664  0.208491  1
  O  O15  1  0.266492  0.881593  0.456606  1
  O  O16  1  0.731589  0.882919  0.796915  1
  O  O17  1  0.742714  0.885521  0.294655  1
  O  O18  1  0.736545  0.114623  0.549361  1
  O  O19  1  0.710340  0.113842  0.032927  1
  O  O20  1  0.787993  0.613915  0.031039  1
  O  O21  1  0.778109  0.607278  0.535413  1
  O  O22  1  0.773810  0.396898  0.288289  1
  O  O23  1  0.764379  0.380305  0.787459  1
