# generated using pymatgen
data_CrPb5O8
_symmetry_space_group_name_H-M   'P 1'
_cell_length_a   11.97980777
_cell_length_b   11.98731065
_cell_length_c   15.14951986
_cell_angle_alpha   90.00000000
_cell_angle_beta   91.09684231
_cell_angle_gamma   90.00000000
_symmetry_Int_Tables_number   1
_chemical_formula_structural   CrPb5O8
_chemical_formula_sum   'Cr8 Pb40 O64'
_cell_volume   2175.15842973
_cell_formula_units_Z   8
loop_
 _symmetry_equiv_pos_site_id
 _symmetry_equiv_pos_as_xyz
  1  'x, y, z'
loop_
 _atom_site_type_symbol
 _atom_site_label
 _atom_site_symmetry_multiplicity
 _atom_site_fract_x
 _atom_site_fract_y
 _atom_site_fract_z
 _atom_site_occupancy
  Cr  Cr0  1  0.157872  0.391128  0.426566  1
  Cr  Cr1  1  0.657872  0.108872  0.426566  1
  Cr  Cr2  1  0.842128  0.608872  0.573434  1
  Cr  Cr3  1  0.650326  0.097749  0.929158  1
  Cr  Cr4  1  0.150326  0.402251  0.929158  1
  Cr  Cr5  1  0.849674  0.597749  0.070842  1
  Cr  Cr6  1  0.342128  0.891128  0.573434  1
  Cr  Cr7  1  0.349674  0.902251  0.070842  1
  Pb  Pb8  1  0.390361  0.586719  0.810967  1
  Pb  Pb9  1  0.116478  0.053939  0.937300  1
  Pb  Pb10  1  0.108302  0.760602  0.190496  1
  Pb  Pb11  1  0.609639  0.413281  0.189033  1
  Pb  Pb12  1  0.862484  0.581592  0.809898  1
  Pb  Pb13  1  0.099014  0.739097  0.937663  1
  Pb  Pb14  1  0.372599  0.918648  0.325863  1
  Pb  Pb15  1  0.400986  0.239097  0.062337  1
  Pb  Pb16  1  0.362484  0.918408  0.809898  1
  Pb  Pb17  1  0.107892  0.069288  0.439728  1
  Pb  Pb18  1  0.616478  0.446061  0.937300  1
  Pb  Pb19  1  0.392108  0.569288  0.560272  1
  Pb  Pb20  1  0.892842  0.912506  0.310877  1
  Pb  Pb21  1  0.883522  0.946061  0.062700  1
  Pb  Pb22  1  0.109639  0.086719  0.189033  1
  Pb  Pb23  1  0.392842  0.587494  0.310877  1
  Pb  Pb24  1  0.890361  0.913281  0.810967  1
  Pb  Pb25  1  0.110846  0.754236  0.706218  1
  Pb  Pb26  1  0.113112  0.744413  0.424892  1
  Pb  Pb27  1  0.608302  0.739398  0.190496  1
  Pb  Pb28  1  0.137516  0.418408  0.190102  1
  Pb  Pb29  1  0.872599  0.581352  0.325863  1
  Pb  Pb30  1  0.607892  0.430712  0.439728  1
  Pb  Pb31  1  0.889154  0.245764  0.293782  1
  Pb  Pb32  1  0.886888  0.255587  0.575108  1
  Pb  Pb33  1  0.637516  0.081592  0.190102  1
  Pb  Pb34  1  0.391698  0.260602  0.809504  1
  Pb  Pb35  1  0.389154  0.254236  0.293782  1
  Pb  Pb36  1  0.892108  0.930712  0.560272  1
  Pb  Pb37  1  0.107158  0.087494  0.689123  1
  Pb  Pb38  1  0.891698  0.239398  0.809504  1
  Pb  Pb39  1  0.599014  0.760903  0.937663  1
  Pb  Pb40  1  0.607158  0.412506  0.689123  1
  Pb  Pb41  1  0.627401  0.081352  0.674137  1
  Pb  Pb42  1  0.610846  0.745764  0.706218  1
  Pb  Pb43  1  0.386888  0.244413  0.575108  1
  Pb  Pb44  1  0.383522  0.553939  0.062700  1
  Pb  Pb45  1  0.900986  0.260903  0.062337  1
  Pb  Pb46  1  0.127401  0.418648  0.674137  1
  Pb  Pb47  1  0.613112  0.755587  0.424892  1
  O  O48  1  0.290840  0.400688  0.928461  1
  O  O49  1  0.651919  0.203017  0.344445  1
  O  O50  1  0.505670  0.399838  0.054176  1
  O  O51  1  0.591005  0.995128  0.393235  1
  O  O52  1  0.611541  0.055207  0.029175  1
  O  O53  1  0.018779  0.275016  0.181842  1
  O  O54  1  0.292298  0.421450  0.445805  1
  O  O55  1  0.709160  0.599312  0.071539  1
  O  O56  1  0.102028  0.274196  0.909575  1
  O  O57  1  0.995776  0.081110  0.815543  1
  O  O58  1  0.709810  0.674576  0.310523  1
  O  O59  1  0.701282  0.677219  0.828619  1
  O  O60  1  0.298718  0.322781  0.171381  1
  O  O61  1  0.009919  0.911435  0.685539  1
  O  O62  1  0.104971  0.487574  0.848869  1
  O  O63  1  0.209810  0.825424  0.310523  1
  O  O64  1  0.481221  0.775016  0.818158  1
  O  O65  1  0.603708  0.163606  0.518507  1
  O  O66  1  0.013672  0.272672  0.692977  1
  O  O67  1  0.495776  0.418890  0.815543  1
  O  O68  1  0.604971  0.012426  0.848869  1
  O  O69  1  0.908995  0.495128  0.606765  1
  O  O70  1  0.792298  0.078550  0.445805  1
  O  O71  1  0.111541  0.444793  0.029175  1
  O  O72  1  0.103708  0.336394  0.518507  1
  O  O73  1  0.895029  0.512426  0.151131  1
  O  O74  1  0.494245  0.404729  0.560185  1
  O  O75  1  0.490081  0.411435  0.314461  1
  O  O76  1  0.004224  0.918890  0.184457  1
  O  O77  1  0.896292  0.663606  0.481493  1
  O  O78  1  0.348081  0.796983  0.655555  1
  O  O79  1  0.209160  0.900688  0.071539  1
  O  O80  1  0.518779  0.224984  0.181842  1
  O  O81  1  0.790190  0.174576  0.689477  1
  O  O82  1  0.790840  0.099312  0.928461  1
  O  O83  1  0.396292  0.836394  0.481493  1
  O  O84  1  0.981221  0.724984  0.818158  1
  O  O85  1  0.848081  0.703017  0.655555  1
  O  O86  1  0.397972  0.774196  0.090425  1
  O  O87  1  0.201282  0.822781  0.828619  1
  O  O88  1  0.207702  0.921450  0.554195  1
  O  O89  1  0.986328  0.727328  0.307023  1
  O  O90  1  0.408995  0.004872  0.606765  1
  O  O91  1  0.505755  0.595271  0.439815  1
  O  O92  1  0.990081  0.088565  0.314461  1
  O  O93  1  0.091005  0.504872  0.393235  1
  O  O94  1  0.395029  0.987574  0.151131  1
  O  O95  1  0.290190  0.325424  0.689477  1
  O  O96  1  0.897972  0.725804  0.090425  1
  O  O97  1  0.798718  0.177219  0.171381  1
  O  O98  1  0.151919  0.296983  0.344445  1
  O  O99  1  0.504224  0.581110  0.184457  1
  O  O100  1  0.509919  0.588565  0.685539  1
  O  O101  1  0.994245  0.095271  0.560185  1
  O  O102  1  0.602028  0.225804  0.909575  1
  O  O103  1  0.707702  0.578550  0.554195  1
  O  O104  1  0.888459  0.555207  0.970825  1
  O  O105  1  0.494330  0.600162  0.945824  1
  O  O106  1  0.994330  0.899838  0.945824  1
  O  O107  1  0.005670  0.100162  0.054176  1
  O  O108  1  0.486328  0.772672  0.307023  1
  O  O109  1  0.388459  0.944793  0.970825  1
  O  O110  1  0.005755  0.904729  0.439815  1
  O  O111  1  0.513672  0.227328  0.692977  1
