# generated using pymatgen
data_Tl2GeS3
_symmetry_space_group_name_H-M   'P 1'
_cell_length_a   6.93493362
_cell_length_b   7.08852835
_cell_length_c   8.58421870
_cell_angle_alpha   88.91378364
_cell_angle_beta   111.92375271
_cell_angle_gamma   113.31700711
_symmetry_Int_Tables_number   1
_chemical_formula_structural   Tl2GeS3
_chemical_formula_sum   'Tl4 Ge2 S6'
_cell_volume   355.36346888
_cell_formula_units_Z   2
loop_
 _symmetry_equiv_pos_site_id
 _symmetry_equiv_pos_as_xyz
  1  'x, y, z'
loop_
 _atom_site_type_symbol
 _atom_site_label
 _atom_site_symmetry_multiplicity
 _atom_site_fract_x
 _atom_site_fract_y
 _atom_site_fract_z
 _atom_site_occupancy
  Tl  Tl0  1  0.278120  0.686169  0.890163  1
  Tl  Tl1  1  0.721880  0.313831  0.109837  1
  Tl  Tl2  1  0.862912  0.040813  0.672996  1
  Tl  Tl3  1  0.137088  0.959187  0.327004  1
  Ge  Ge4  1  0.429928  0.551189  0.317078  1
  Ge  Ge5  1  0.570072  0.448811  0.682922  1
  S  S6  1  0.508225  0.872427  0.266180  1
  S  S7  1  0.491775  0.127573  0.733820  1
  S  S8  1  0.749516  0.689962  0.906495  1
  S  S9  1  0.240844  0.465575  0.495537  1
  S  S10  1  0.759156  0.534425  0.504463  1
  S  S11  1  0.250484  0.310038  0.093505  1
