# generated using pymatgen
data_CrPO4
_symmetry_space_group_name_H-M   'P 1'
_cell_length_a   5.58266490
_cell_length_b   6.45331365
_cell_length_c   9.27433453
_cell_angle_alpha   73.06820055
_cell_angle_beta   80.54071225
_cell_angle_gamma   78.01921316
_symmetry_Int_Tables_number   1
_chemical_formula_structural   CrPO4
_chemical_formula_sum   'Cr4 P4 O16'
_cell_volume   310.74454057
_cell_formula_units_Z   4
loop_
 _symmetry_equiv_pos_site_id
 _symmetry_equiv_pos_as_xyz
  1  'x, y, z'
loop_
 _atom_site_type_symbol
 _atom_site_label
 _atom_site_symmetry_multiplicity
 _atom_site_fract_x
 _atom_site_fract_y
 _atom_site_fract_z
 _atom_site_occupancy
  Cr  Cr0  1  0.300352  0.912822  0.801980  1
  Cr  Cr1  1  0.796558  0.165311  0.565206  1
  Cr  Cr2  1  0.203442  0.834689  0.434794  1
  Cr  Cr3  1  0.699648  0.087178  0.198020  1
  P  P4  1  0.836306  0.855364  0.902451  1
  P  P5  1  0.653732  0.715196  0.526049  1
  P  P6  1  0.346268  0.284804  0.473951  1
  P  P7  1  0.163694  0.144636  0.097549  1
  O  O8  1  0.638134  0.770614  0.849991  1
  O  O9  1  0.087402  0.698273  0.915998  1
  O  O10  1  0.260657  0.066038  0.957216  1
  O  O11  1  0.931690  0.053870  0.762555  1
  O  O12  1  0.848886  0.849030  0.542530  1
  O  O13  1  0.765424  0.477618  0.554817  1
  O  O14  1  0.398666  0.757284  0.622871  1
  O  O15  1  0.434636  0.179255  0.638058  1
  O  O16  1  0.565364  0.820745  0.361942  1
  O  O17  1  0.601334  0.242716  0.377129  1
  O  O18  1  0.234576  0.522382  0.445183  1
  O  O19  1  0.151114  0.150970  0.457470  1
  O  O20  1  0.068310  0.946130  0.237445  1
  O  O21  1  0.739343  0.933962  0.042784  1
  O  O22  1  0.912598  0.301727  0.084002  1
  O  O23  1  0.361866  0.229386  0.150009  1
