# generated using pymatgen
data_Mn4(PO4)3
_symmetry_space_group_name_H-M   'P 1'
_cell_length_a   9.83839905
_cell_length_b   9.83839905
_cell_length_c   9.83839905
_cell_angle_alpha   51.13389327
_cell_angle_beta   51.13389327
_cell_angle_gamma   51.13389327
_symmetry_Int_Tables_number   1
_chemical_formula_structural   Mn4(PO4)3
_chemical_formula_sum   'Mn8 P6 O24'
_cell_volume   532.68484531
_cell_formula_units_Z   2
loop_
 _symmetry_equiv_pos_site_id
 _symmetry_equiv_pos_as_xyz
  1  'x, y, z'
loop_
 _atom_site_type_symbol
 _atom_site_label
 _atom_site_symmetry_multiplicity
 _atom_site_fract_x
 _atom_site_fract_y
 _atom_site_fract_z
 _atom_site_occupancy
  Mn  Mn0  1  0.288688  0.288688  0.288688  1
  Mn  Mn1  1  0.788688  0.788688  0.788688  1
  Mn  Mn2  1  0.463104  0.806559  0.267047  1
  Mn  Mn3  1  0.963104  0.767047  0.306559  1
  Mn  Mn4  1  0.767047  0.306559  0.963104  1
  Mn  Mn5  1  0.306559  0.963104  0.767047  1
  Mn  Mn6  1  0.806559  0.267047  0.463104  1
  Mn  Mn7  1  0.267047  0.463104  0.806559  1
  P  P8  1  0.579736  0.170286  0.904229  1
  P  P9  1  0.404229  0.670286  0.079736  1
  P  P10  1  0.079736  0.404229  0.670286  1
  P  P11  1  0.170286  0.904229  0.579736  1
  P  P12  1  0.670286  0.079736  0.404229  1
  P  P13  1  0.904229  0.579736  0.170286  1
  O  O14  1  0.965382  0.980593  0.597755  1
  O  O15  1  0.788261  0.066401  0.205617  1
  O  O16  1  0.891277  0.738222  0.174292  1
  O  O17  1  0.174292  0.891277  0.738222  1
  O  O18  1  0.980593  0.597755  0.965382  1
  O  O19  1  0.674292  0.238222  0.391277  1
  O  O20  1  0.480593  0.465382  0.097755  1
  O  O21  1  0.566401  0.288261  0.705617  1
  O  O22  1  0.785204  0.879231  0.520894  1
  O  O23  1  0.066401  0.205617  0.788261  1
  O  O24  1  0.391277  0.674292  0.238222  1
  O  O25  1  0.597755  0.965382  0.980593  1
  O  O26  1  0.879231  0.520894  0.785204  1
  O  O27  1  0.520894  0.785204  0.879231  1
  O  O28  1  0.020894  0.379231  0.285204  1
  O  O29  1  0.285204  0.020894  0.379231  1
  O  O30  1  0.379231  0.285204  0.020894  1
  O  O31  1  0.205617  0.788261  0.066401  1
  O  O32  1  0.738222  0.174292  0.891277  1
  O  O33  1  0.097755  0.480593  0.465382  1
  O  O34  1  0.705617  0.566401  0.288261  1
  O  O35  1  0.465382  0.097755  0.480593  1
  O  O36  1  0.288261  0.705617  0.566401  1
  O  O37  1  0.238222  0.391277  0.674292  1
