# generated using pymatgen
data_Sr2Bi2O5
_symmetry_space_group_name_H-M   'P 1'
_cell_length_a   7.57612127
_cell_length_b   6.25519520
_cell_length_c   7.75618464
_cell_angle_alpha   90.00000000
_cell_angle_beta   104.71360886
_cell_angle_gamma   90.00000000
_symmetry_Int_Tables_number   1
_chemical_formula_structural   Sr2Bi2O5
_chemical_formula_sum   'Sr4 Bi4 O10'
_cell_volume   355.51305898
_cell_formula_units_Z   2
loop_
 _symmetry_equiv_pos_site_id
 _symmetry_equiv_pos_as_xyz
  1  'x, y, z'
loop_
 _atom_site_type_symbol
 _atom_site_label
 _atom_site_symmetry_multiplicity
 _atom_site_fract_x
 _atom_site_fract_y
 _atom_site_fract_z
 _atom_site_occupancy
  Sr  Sr0  1  0.606813  0.750000  0.151203  1
  Sr  Sr1  1  0.393187  0.250000  0.848797  1
  Sr  Sr2  1  0.629445  0.750000  0.657571  1
  Sr  Sr3  1  0.370555  0.250000  0.342429  1
  Bi  Bi4  1  0.123177  0.750000  0.038534  1
  Bi  Bi5  1  0.876823  0.250000  0.961466  1
  Bi  Bi6  1  0.129652  0.750000  0.525356  1
  Bi  Bi7  1  0.870348  0.250000  0.474644  1
  O  O8  1  0.986115  0.250000  0.246576  1
  O  O9  1  0.319412  0.508666  0.074246  1
  O  O10  1  0.319412  0.991334  0.074246  1
  O  O11  1  0.013885  0.750000  0.753424  1
  O  O12  1  0.680588  0.008666  0.925754  1
  O  O13  1  0.680588  0.491334  0.925754  1
  O  O14  1  0.324374  0.992133  0.586941  1
  O  O15  1  0.324374  0.507867  0.586941  1
  O  O16  1  0.675626  0.007867  0.413059  1
  O  O17  1  0.675626  0.492133  0.413059  1
