# generated using pymatgen
data_Li3MnAl2O6
_symmetry_space_group_name_H-M   'P 1'
_cell_length_a   5.92341408
_cell_length_b   10.33138294
_cell_length_c   9.91382191
_cell_angle_alpha   90.00000000
_cell_angle_beta   126.34956792
_cell_angle_gamma   90.00000000
_symmetry_Int_Tables_number   1
_chemical_formula_structural   Li3MnAl2O6
_chemical_formula_sum   'Li12 Mn4 Al8 O24'
_cell_volume   488.64315452
_cell_formula_units_Z   4
loop_
 _symmetry_equiv_pos_site_id
 _symmetry_equiv_pos_as_xyz
  1  'x, y, z'
loop_
 _atom_site_type_symbol
 _atom_site_label
 _atom_site_symmetry_multiplicity
 _atom_site_fract_x
 _atom_site_fract_y
 _atom_site_fract_z
 _atom_site_occupancy
  Li  Li0  1  0.786055  0.001646  0.634681  1
  Li  Li1  1  0.811416  0.348333  0.625166  1
  Li  Li2  1  0.261285  0.995856  0.117511  1
  Li  Li3  1  0.188584  0.848333  0.874834  1
  Li  Li4  1  0.738715  0.495856  0.382489  1
  Li  Li5  1  0.213945  0.501646  0.865319  1
  Li  Li6  1  0.786055  0.498354  0.134681  1
  Li  Li7  1  0.261285  0.504144  0.617511  1
  Li  Li8  1  0.811416  0.151667  0.125166  1
  Li  Li9  1  0.738715  0.004144  0.882489  1
  Li  Li10  1  0.188584  0.651667  0.374834  1
  Li  Li11  1  0.213945  0.998354  0.365319  1
  Mn  Mn12  1  0.289945  0.665618  0.126567  1
  Mn  Mn13  1  0.710055  0.165618  0.373433  1
  Mn  Mn14  1  0.289945  0.834382  0.626567  1
  Mn  Mn15  1  0.710055  0.334382  0.873433  1
  Al  Al16  1  0.783321  0.665263  0.616248  1
  Al  Al17  1  0.298066  0.341891  0.125765  1
  Al  Al18  1  0.216679  0.165263  0.883752  1
  Al  Al19  1  0.701934  0.841891  0.374235  1
  Al  Al20  1  0.298066  0.158109  0.625765  1
  Al  Al21  1  0.783321  0.834737  0.116248  1
  Al  Al22  1  0.701934  0.658109  0.874235  1
  Al  Al23  1  0.216679  0.334737  0.383752  1
  O  O24  1  0.022254  0.670773  0.885596  1
  O  O25  1  0.501190  0.328783  0.363115  1
  O  O26  1  0.063644  0.020742  0.877272  1
  O  O27  1  0.563947  0.995999  0.372342  1
  O  O28  1  0.530034  0.690414  0.368631  1
  O  O29  1  0.070536  0.319332  0.885998  1
  O  O30  1  0.929464  0.819332  0.614002  1
  O  O31  1  0.469966  0.190414  0.131369  1
  O  O32  1  0.436053  0.495999  0.127658  1
  O  O33  1  0.936356  0.520742  0.622728  1
  O  O34  1  0.977746  0.170773  0.614404  1
  O  O35  1  0.498810  0.828783  0.136885  1
  O  O36  1  0.501190  0.171217  0.863115  1
  O  O37  1  0.022254  0.829227  0.385596  1
  O  O38  1  0.063644  0.479258  0.377272  1
  O  O39  1  0.563947  0.504001  0.872342  1
  O  O40  1  0.530034  0.809586  0.868631  1
  O  O41  1  0.070536  0.180668  0.385998  1
  O  O42  1  0.929464  0.680668  0.114002  1
  O  O43  1  0.469966  0.309586  0.631369  1
  O  O44  1  0.436053  0.004001  0.627658  1
  O  O45  1  0.936356  0.979258  0.122728  1
  O  O46  1  0.498810  0.671217  0.636885  1
  O  O47  1  0.977746  0.329227  0.114404  1
