# generated using pymatgen
data_V4OF11
_symmetry_space_group_name_H-M   'P 1'
_cell_length_a   5.25372840
_cell_length_b   5.44933593
_cell_length_c   17.49760359
_cell_angle_alpha   89.24477754
_cell_angle_beta   98.26969794
_cell_angle_gamma   118.33859606
_symmetry_Int_Tables_number   1
_chemical_formula_structural   V4OF11
_chemical_formula_sum   'V8 O2 F22'
_cell_volume   435.45203977
_cell_formula_units_Z   2
loop_
 _symmetry_equiv_pos_site_id
 _symmetry_equiv_pos_as_xyz
  1  'x, y, z'
loop_
 _atom_site_type_symbol
 _atom_site_label
 _atom_site_symmetry_multiplicity
 _atom_site_fract_x
 _atom_site_fract_y
 _atom_site_fract_z
 _atom_site_occupancy
  V  V0  1  0.247416  0.628463  0.876254  1
  V  V1  1  0.249233  0.126165  0.375409  1
  V  V2  1  0.500978  0.247554  0.748154  1
  V  V3  1  0.500807  0.748348  0.249490  1
  V  V4  1  0.734861  0.892863  0.627596  1
  V  V5  1  0.753100  0.370308  0.123791  1
  V  V6  1  0.007727  0.985045  0.992627  1
  V  V7  1  0.997305  0.504754  0.501746  1
  O  O8  1  0.078301  0.840116  0.919716  1
  O  O9  1  0.591327  0.075308  0.664823  1
  F  F10  1  0.024264  0.309733  0.937167  1
  F  F11  1  0.021878  0.812825  0.439149  1
  F  F12  1  0.469915  0.938204  0.813703  1
  F  F13  1  0.076952  0.032666  0.711552  1
  F  F14  1  0.073592  0.340324  0.412263  1
  F  F15  1  0.072855  0.533933  0.212194  1
  F  F16  1  0.579434  0.788239  0.962846  1
  F  F17  1  0.422693  0.413886  0.836027  1
  F  F18  1  0.426040  0.911765  0.338929  1
  F  F19  1  0.427065  0.714734  0.537647  1
  F  F20  1  0.525359  0.557904  0.684921  1
  F  F21  1  0.477281  0.437925  0.311746  1
  F  F22  1  0.572488  0.287479  0.464271  1
  F  F23  1  0.573399  0.584173  0.160768  1
  F  F24  1  0.423922  0.214817  0.037163  1
  F  F25  1  0.917200  0.674723  0.588995  1
  F  F26  1  0.923482  0.465640  0.788066  1
  F  F27  1  0.927903  0.964033  0.286845  1
  F  F28  1  0.524874  0.060411  0.187493  1
  F  F29  1  0.980113  0.694592  0.064145  1
  F  F30  1  0.973482  0.186960  0.562274  1
  F  F31  1  0.924753  0.156112  0.082230  1
