# generated using pymatgen
data_Mn3Fe3(SbO8)2
_symmetry_space_group_name_H-M   'P 1'
_cell_length_a   5.95011466
_cell_length_b   5.95011466
_cell_length_c   9.28943305
_cell_angle_alpha   88.82696638
_cell_angle_beta   91.17303362
_cell_angle_gamma   120.46493508
_symmetry_Int_Tables_number   1
_chemical_formula_structural   Mn3Fe3(SbO8)2
_chemical_formula_sum   'Mn3 Fe3 Sb2 O16'
_cell_volume   283.39743032
_cell_formula_units_Z   1
loop_
 _symmetry_equiv_pos_site_id
 _symmetry_equiv_pos_as_xyz
  1  'x, y, z'
loop_
 _atom_site_type_symbol
 _atom_site_label
 _atom_site_symmetry_multiplicity
 _atom_site_fract_x
 _atom_site_fract_y
 _atom_site_fract_z
 _atom_site_occupancy
  Mn  Mn0  1  0.829520  0.170480  0.786586  1
  Mn  Mn1  1  0.662307  0.833446  0.288123  1
  Mn  Mn2  1  0.166554  0.337693  0.288123  1
  Fe  Fe3  1  0.829493  0.667756  0.790553  1
  Fe  Fe4  1  0.332244  0.170507  0.790553  1
  Fe  Fe5  1  0.165615  0.834385  0.290583  1
  Sb  Sb6  1  0.666783  0.333217  0.510162  1
  Sb  Sb7  1  0.332319  0.667681  0.009495  1
  O  O8  1  0.830931  0.666771  0.399056  1
  O  O9  1  0.521418  0.478582  0.656309  1
  O  O10  1  0.672777  0.327223  0.893082  1
  O  O11  1  0.992965  0.007035  0.692990  1
  O  O12  1  0.992704  0.007296  0.192269  1
  O  O13  1  0.333229  0.169069  0.399056  1
  O  O14  1  0.963118  0.470662  0.659462  1
  O  O15  1  0.529338  0.036882  0.659462  1
  O  O16  1  0.165296  0.834704  0.902153  1
  O  O17  1  0.834207  0.165793  0.396061  1
  O  O18  1  0.489937  0.958759  0.160499  1
  O  O19  1  0.041241  0.510063  0.160499  1
  O  O20  1  0.340484  0.659516  0.392111  1
  O  O21  1  0.662785  0.835661  0.899791  1
  O  O22  1  0.480310  0.519690  0.167305  1
  O  O23  1  0.164339  0.337215  0.899791  1
