# generated using pymatgen
data_LiSiBiO4
_symmetry_space_group_name_H-M   'P 1'
_cell_length_a   5.62196197
_cell_length_b   6.40861229
_cell_length_c   11.18459863
_cell_angle_alpha   90.00000000
_cell_angle_beta   113.24497344
_cell_angle_gamma   90.00000000
_symmetry_Int_Tables_number   1
_chemical_formula_structural   LiSiBiO4
_chemical_formula_sum   'Li4 Si4 Bi4 O16'
_cell_volume   370.25889820
_cell_formula_units_Z   4
loop_
 _symmetry_equiv_pos_site_id
 _symmetry_equiv_pos_as_xyz
  1  'x, y, z'
loop_
 _atom_site_type_symbol
 _atom_site_label
 _atom_site_symmetry_multiplicity
 _atom_site_fract_x
 _atom_site_fract_y
 _atom_site_fract_z
 _atom_site_occupancy
  Li  Li0  1  0.926077  0.634560  0.072235  1
  Li  Li1  1  0.073923  0.134560  0.427765  1
  Li  Li2  1  0.926077  0.865440  0.572235  1
  Li  Li3  1  0.073923  0.365440  0.927765  1
  Si  Si4  1  0.092298  0.651289  0.359623  1
  Si  Si5  1  0.907702  0.151289  0.140377  1
  Si  Si6  1  0.092298  0.848711  0.859623  1
  Si  Si7  1  0.907702  0.348711  0.640377  1
  Bi  Bi8  1  0.444402  0.613781  0.650751  1
  Bi  Bi9  1  0.555598  0.113781  0.849249  1
  Bi  Bi10  1  0.444402  0.886219  0.150751  1
  Bi  Bi11  1  0.555598  0.386219  0.349249  1
  O  O12  1  0.230481  0.660162  0.253135  1
  O  O13  1  0.223648  0.135987  0.221861  1
  O  O14  1  0.218678  0.433234  0.444375  1
  O  O15  1  0.171882  0.835818  0.470859  1
  O  O16  1  0.828118  0.335818  0.029141  1
  O  O17  1  0.781322  0.933234  0.055625  1
  O  O18  1  0.230481  0.839838  0.753135  1
  O  O19  1  0.223648  0.364013  0.721861  1
  O  O20  1  0.776352  0.635987  0.278139  1
  O  O21  1  0.769519  0.160162  0.246865  1
  O  O22  1  0.218678  0.066766  0.944375  1
  O  O23  1  0.171882  0.664182  0.970859  1
  O  O24  1  0.828118  0.164182  0.529141  1
  O  O25  1  0.781322  0.566766  0.555625  1
  O  O26  1  0.776352  0.864013  0.778139  1
  O  O27  1  0.769519  0.339838  0.746865  1
