# generated using pymatgen
data_NaVO3
_symmetry_space_group_name_H-M   'P 1'
_cell_length_a   7.81697434
_cell_length_b   7.81697434
_cell_length_c   7.81697434
_cell_angle_alpha   133.04275433
_cell_angle_beta   106.85434189
_cell_angle_gamma   91.57677601
_symmetry_Int_Tables_number   1
_chemical_formula_structural   NaVO3
_chemical_formula_sum   'Na4 V4 O12'
_cell_volume   316.27266256
_cell_formula_units_Z   4
loop_
 _symmetry_equiv_pos_site_id
 _symmetry_equiv_pos_as_xyz
  1  'x, y, z'
loop_
 _atom_site_type_symbol
 _atom_site_label
 _atom_site_symmetry_multiplicity
 _atom_site_fract_x
 _atom_site_fract_y
 _atom_site_fract_z
 _atom_site_occupancy
  Na  Na0  1  0.707189  0.750000  0.457189  1
  Na  Na1  1  0.292811  0.750000  0.042811  1
  Na  Na2  1  0.292811  0.250000  0.542811  1
  Na  Na3  1  0.707189  0.250000  0.957189  1
  V  V4  1  0.135375  0.219924  0.915451  1
  V  V5  1  0.304474  0.719924  0.584549  1
  V  V6  1  0.695526  0.280076  0.415451  1
  V  V7  1  0.864625  0.780076  0.084549  1
  O  O8  1  0.168932  0.918932  0.750000  1
  O  O9  1  0.168932  0.418932  0.250000  1
  O  O10  1  0.599997  0.346093  0.253904  1
  O  O11  1  0.266512  0.373031  0.893481  1
  O  O12  1  0.092189  0.846093  0.246096  1
  O  O13  1  0.479550  0.873031  0.606519  1
  O  O14  1  0.520450  0.126969  0.393481  1
  O  O15  1  0.907811  0.153907  0.753904  1
  O  O16  1  0.733488  0.626969  0.106519  1
  O  O17  1  0.400003  0.653907  0.746096  1
  O  O18  1  0.831068  0.581068  0.750000  1
  O  O19  1  0.831068  0.081068  0.250000  1
