# generated using pymatgen
data_LiFeF3
_symmetry_space_group_name_H-M   'P 1'
_cell_length_a   6.11419929
_cell_length_b   6.11419929
_cell_length_c   6.11419929
_cell_angle_alpha   89.95518375
_cell_angle_beta   89.95518375
_cell_angle_gamma   89.95518375
_symmetry_Int_Tables_number   1
_chemical_formula_structural   LiFeF3
_chemical_formula_sum   'Li4 Fe4 F12'
_cell_volume   228.56955009
_cell_formula_units_Z   4
loop_
 _symmetry_equiv_pos_site_id
 _symmetry_equiv_pos_as_xyz
  1  'x, y, z'
loop_
 _atom_site_type_symbol
 _atom_site_label
 _atom_site_symmetry_multiplicity
 _atom_site_fract_x
 _atom_site_fract_y
 _atom_site_fract_z
 _atom_site_occupancy
  Li  Li0  1  0.120265  0.120265  0.120265  1
  Li  Li1  1  0.880679  0.622477  0.380520  1
  Li  Li2  1  0.380520  0.880679  0.622477  1
  Li  Li3  1  0.622477  0.380520  0.880679  1
  Fe  Fe4  1  0.836947  0.836947  0.836947  1
  Fe  Fe5  1  0.660134  0.159646  0.334532  1
  Fe  Fe6  1  0.334532  0.660134  0.159646  1
  Fe  Fe7  1  0.159646  0.334532  0.660134  1
  F  F8  1  0.988274  0.267146  0.376412  1
  F  F9  1  0.731721  0.875129  0.515570  1
  F  F10  1  0.875129  0.515570  0.731721  1
  F  F11  1  0.632149  0.486982  0.230953  1
  F  F12  1  0.767540  0.125662  0.012672  1
  F  F13  1  0.515570  0.731721  0.875129  1
  F  F14  1  0.486982  0.230953  0.632149  1
  F  F15  1  0.230953  0.632149  0.486982  1
  F  F16  1  0.376412  0.988274  0.267146  1
  F  F17  1  0.125662  0.012672  0.767540  1
  F  F18  1  0.267146  0.376412  0.988274  1
  F  F19  1  0.012672  0.767540  0.125662  1
