# generated using pymatgen
data_Ba2Zr7O16
_symmetry_space_group_name_H-M   'P 1'
_cell_length_a   9.91868811
_cell_length_b   9.91868811
_cell_length_c   9.91868811
_cell_angle_alpha   38.65542598
_cell_angle_beta   38.65542598
_cell_angle_gamma   38.65542598
_symmetry_Int_Tables_number   1
_chemical_formula_structural   Ba2Zr7O16
_chemical_formula_sum   'Ba2 Zr7 O16'
_cell_volume   342.17448593
_cell_formula_units_Z   1
loop_
 _symmetry_equiv_pos_site_id
 _symmetry_equiv_pos_as_xyz
  1  'x, y, z'
loop_
 _atom_site_type_symbol
 _atom_site_label
 _atom_site_symmetry_multiplicity
 _atom_site_fract_x
 _atom_site_fract_y
 _atom_site_fract_z
 _atom_site_occupancy
  Ba  Ba0  1  0.333544  0.333544  0.333544  1
  Ba  Ba1  1  0.666456  0.666456  0.666456  1
  Zr  Zr2  1  0.000000  1.000000  0.000000  1
  Zr  Zr3  1  0.251880  0.513338  0.885356  1
  Zr  Zr4  1  0.114644  0.748120  0.486662  1
  Zr  Zr5  1  0.486662  0.114644  0.748120  1
  Zr  Zr6  1  0.513338  0.885356  0.251880  1
  Zr  Zr7  1  0.885356  0.251880  0.513338  1
  Zr  Zr8  1  0.748120  0.486662  0.114644  1
  O  O9  1  0.233943  0.233943  0.233943  1
  O  O10  1  0.218546  0.685088  0.961513  1
  O  O11  1  0.149831  0.415374  0.846700  1
  O  O12  1  0.153300  0.850169  0.584626  1
  O  O13  1  0.038487  0.781454  0.314912  1
  O  O14  1  0.314912  0.038487  0.781454  1
  O  O15  1  0.584626  0.153300  0.850169  1
  O  O16  1  0.431563  0.431563  0.431563  1
  O  O17  1  0.568437  0.568437  0.568437  1
  O  O18  1  0.415374  0.846700  0.149831  1
  O  O19  1  0.685088  0.961513  0.218546  1
  O  O20  1  0.961513  0.218546  0.685088  1
  O  O21  1  0.846700  0.149831  0.415374  1
  O  O22  1  0.850169  0.584626  0.153300  1
  O  O23  1  0.781454  0.314912  0.038487  1
  O  O24  1  0.766057  0.766057  0.766057  1
