# generated using pymatgen
data_Li4V(TeO4)3
_symmetry_space_group_name_H-M   'P 1'
_cell_length_a   5.21586705
_cell_length_b   5.63046038
_cell_length_c   7.75256623
_cell_angle_alpha   84.48047872
_cell_angle_beta   89.88011957
_cell_angle_gamma   89.65570853
_symmetry_Int_Tables_number   1
_chemical_formula_structural   Li4V(TeO4)3
_chemical_formula_sum   'Li4 V1 Te3 O12'
_cell_volume   226.61531946
_cell_formula_units_Z   1
loop_
 _symmetry_equiv_pos_site_id
 _symmetry_equiv_pos_as_xyz
  1  'x, y, z'
loop_
 _atom_site_type_symbol
 _atom_site_label
 _atom_site_symmetry_multiplicity
 _atom_site_fract_x
 _atom_site_fract_y
 _atom_site_fract_z
 _atom_site_occupancy
  Li  Li0  1  0.500439  0.918978  0.718925  1
  Li  Li1  1  0.499465  0.927951  0.208160  1
  Li  Li2  1  0.996291  0.383718  0.196223  1
  Li  Li3  1  0.004166  0.416142  0.722504  1
  V  V4  1  0.001763  0.980597  0.977107  1
  Te  Te5  1  0.993306  0.998183  0.495781  1
  Te  Te6  1  0.507813  0.465944  0.997299  1
  Te  Te7  1  0.498318  0.492000  0.495746  1
  O  O8  1  0.703822  0.872433  0.940700  1
  O  O9  1  0.316530  0.842062  0.446138  1
  O  O10  1  0.818946  0.706968  0.584556  1
  O  O11  1  0.158584  0.733586  0.071803  1
  O  O12  1  0.380678  0.513631  0.744519  1
  O  O13  1  0.617780  0.526781  0.249367  1
  O  O14  1  0.841988  0.326389  0.956329  1
  O  O15  1  0.162456  0.319364  0.446761  1
  O  O16  1  0.702552  0.187462  0.587314  1
  O  O17  1  0.305578  0.190883  0.072075  1
  O  O18  1  0.129815  0.019063  0.750247  1
  O  O19  1  0.859711  0.035464  0.267246  1
