# generated using pymatgen
data_Li6Co2OF11
_symmetry_space_group_name_H-M   'P 1'
_cell_length_a   5.12700696
_cell_length_b   5.45240939
_cell_length_c   8.69552604
_cell_angle_alpha   106.83925514
_cell_angle_beta   90.28045649
_cell_angle_gamma   117.97609998
_symmetry_Int_Tables_number   1
_chemical_formula_structural   Li6Co2OF11
_chemical_formula_sum   'Li6 Co2 O1 F11'
_cell_volume   202.59893770
_cell_formula_units_Z   1
loop_
 _symmetry_equiv_pos_site_id
 _symmetry_equiv_pos_as_xyz
  1  'x, y, z'
loop_
 _atom_site_type_symbol
 _atom_site_label
 _atom_site_symmetry_multiplicity
 _atom_site_fract_x
 _atom_site_fract_y
 _atom_site_fract_z
 _atom_site_occupancy
  Li  Li0  1  0.109613  0.349774  0.081551  1
  Li  Li1  1  0.178947  0.873261  0.568265  1
  Li  Li2  1  0.342715  0.893350  0.166768  1
  Li  Li3  1  0.370127  0.378533  0.682628  1
  Li  Li4  1  0.850692  0.151910  0.437748  1
  Li  Li5  1  0.632410  0.096476  0.813303  1
  Co  Co6  1  0.660761  0.643090  0.321845  1
  Co  Co7  1  0.840170  0.605466  0.925888  1
  O  O8  1  0.613352  0.626618  0.134109  1
  F  F9  1  0.041256  0.022291  0.227363  1
  F  F10  1  0.049385  0.519592  0.726903  1
  F  F11  1  0.447212  0.856638  0.358397  1
  F  F12  1  0.282570  0.309983  0.455487  1
  F  F13  1  0.233562  0.766192  0.969922  1
  F  F14  1  0.750604  0.725334  0.516025  1
  F  F15  1  0.742775  0.226408  0.022815  1
  F  F16  1  0.441748  0.387651  0.890966  1
  F  F17  1  0.542008  0.124837  0.624917  1
  F  F18  1  0.930893  0.480770  0.279105  1
  F  F19  1  0.919974  0.934551  0.795477  1
