# generated using pymatgen
data_Li5Fe8(BO3)8
_symmetry_space_group_name_H-M   'P 1'
_cell_length_a   5.25785122
_cell_length_b   9.05179681
_cell_length_c   10.16186808
_cell_angle_alpha   89.54967661
_cell_angle_beta   88.21319135
_cell_angle_gamma   89.62593325
_symmetry_Int_Tables_number   1
_chemical_formula_structural   Li5Fe8(BO3)8
_chemical_formula_sum   'Li5 Fe8 B8 O24'
_cell_volume   483.37415458
_cell_formula_units_Z   1
loop_
 _symmetry_equiv_pos_site_id
 _symmetry_equiv_pos_as_xyz
  1  'x, y, z'
loop_
 _atom_site_type_symbol
 _atom_site_label
 _atom_site_symmetry_multiplicity
 _atom_site_fract_x
 _atom_site_fract_y
 _atom_site_fract_z
 _atom_site_occupancy
  Li  Li0  1  0.658082  0.982798  0.835887  1
  Li  Li1  1  0.344583  0.993452  0.097668  1
  Li  Li2  1  0.854314  0.509270  0.588850  1
  Li  Li3  1  0.165618  0.494581  0.845440  1
  Li  Li4  1  0.658186  0.009871  0.337185  1
  Fe  Fe5  1  0.844659  0.824303  0.114717  1
  Fe  Fe6  1  0.162300  0.827646  0.370404  1
  Fe  Fe7  1  0.668632  0.654235  0.875911  1
  Fe  Fe8  1  0.352215  0.677759  0.622244  1
  Fe  Fe9  1  0.662768  0.351570  0.363197  1
  Fe  Fe10  1  0.839457  0.164237  0.617348  1
  Fe  Fe11  1  0.328378  0.340130  0.125110  1
  Fe  Fe12  1  0.157109  0.157883  0.867565  1
  B  B13  1  0.843057  0.831881  0.621605  1
  B  B14  1  0.676002  0.675701  0.377317  1
  B  B15  1  0.169114  0.831920  0.875598  1
  B  B16  1  0.342153  0.666727  0.124008  1
  B  B17  1  0.663465  0.326782  0.868257  1
  B  B18  1  0.330566  0.333013  0.623500  1
  B  B19  1  0.825890  0.170926  0.123643  1
  B  B20  1  0.163133  0.161302  0.366031  1
  O  O21  1  0.723025  0.966509  0.641519  1
  O  O22  1  0.907719  0.838033  0.901784  1
  O  O23  1  0.312255  0.958554  0.895775  1
  O  O24  1  0.797461  0.807530  0.335703  1
  O  O25  1  0.723841  0.701350  0.659385  1
  O  O26  1  0.220532  0.798377  0.169310  1
  O  O27  1  0.084322  0.825932  0.564175  1
  O  O28  1  0.588586  0.675801  0.079010  1
  O  O29  1  0.805470  0.547535  0.395029  1
  O  O30  1  0.418090  0.684752  0.408516  1
  O  O31  1  0.284173  0.701311  0.834542  1
  O  O32  1  0.807369  0.450301  0.860066  1
  O  O33  1  0.211667  0.536291  0.121978  1
  O  O34  1  0.691791  0.300250  0.152690  1
  O  O35  1  0.590422  0.322166  0.584546  1
  O  O36  1  0.211244  0.466294  0.638240  1
  O  O37  1  0.407617  0.329722  0.914967  1
  O  O38  1  0.906232  0.165062  0.413076  1
  O  O39  1  0.769515  0.190207  0.825691  1
  O  O40  1  0.285743  0.289652  0.325097  1
  O  O41  1  0.194421  0.203043  0.652864  1
  O  O42  1  0.705421  0.036849  0.135391  1
  O  O43  1  0.086611  0.177595  0.086716  1
  O  O44  1  0.289221  0.027747  0.356484  1
