# generated using pymatgen
data_Fe2OF3
_symmetry_space_group_name_H-M   'P 1'
_cell_length_a   4.84070265
_cell_length_b   4.84070265
_cell_length_c   15.61306534
_cell_angle_alpha   90.00000000
_cell_angle_beta   90.00000000
_cell_angle_gamma   91.85638366
_symmetry_Int_Tables_number   1
_chemical_formula_structural   Fe2OF3
_chemical_formula_sum   'Fe10 O5 F15'
_cell_volume   365.65961480
_cell_formula_units_Z   5
loop_
 _symmetry_equiv_pos_site_id
 _symmetry_equiv_pos_as_xyz
  1  'x, y, z'
loop_
 _atom_site_type_symbol
 _atom_site_label
 _atom_site_symmetry_multiplicity
 _atom_site_fract_x
 _atom_site_fract_y
 _atom_site_fract_z
 _atom_site_occupancy
  Fe  Fe0  1  0.978280  0.978280  0.899912  1
  Fe  Fe1  1  0.978280  0.978280  0.100088  1
  Fe  Fe2  1  0.022461  0.022461  0.299810  1
  Fe  Fe3  1  0.011625  0.011625  0.500000  1
  Fe  Fe4  1  0.022461  0.022461  0.700190  1
  Fe  Fe5  1  0.524749  0.524749  1.000000  1
  Fe  Fe6  1  0.475294  0.475294  0.399679  1
  Fe  Fe7  1  0.500213  0.500213  0.199659  1
  Fe  Fe8  1  0.475294  0.475294  0.600321  1
  Fe  Fe9  1  0.500213  0.500213  0.800341  1
  O  O10  1  0.320188  0.320188  0.296931  1
  O  O11  1  0.310805  0.310805  0.500000  1
  O  O12  1  0.320188  0.320188  0.703069  1
  O  O13  1  0.680238  0.680238  0.897518  1
  O  O14  1  0.680238  0.680238  0.102482  1
  F  F15  1  0.785386  0.204658  1.000000  1
  F  F16  1  0.792430  0.208242  0.199874  1
  F  F17  1  0.793019  0.212153  0.399749  1
  F  F18  1  0.793019  0.212153  0.600251  1
  F  F19  1  0.792430  0.208242  0.800126  1
  F  F20  1  0.295959  0.295959  0.902190  1
  F  F21  1  0.295959  0.295959  0.097810  1
  F  F22  1  0.704226  0.704226  0.302155  1
  F  F23  1  0.697366  0.697366  0.500000  1
  F  F24  1  0.704226  0.704226  0.697845  1
  F  F25  1  0.204658  0.785386  0.000000  1
  F  F26  1  0.212153  0.793019  0.399749  1
  F  F27  1  0.208242  0.792430  0.199874  1
  F  F28  1  0.208242  0.792430  0.800126  1
  F  F29  1  0.212153  0.793019  0.600251  1
