# generated using pymatgen
data_LiVSiO4
_symmetry_space_group_name_H-M   'P 1'
_cell_length_a   5.79555026
_cell_length_b   5.79555026
_cell_length_c   8.01810971
_cell_angle_alpha   90.00000000
_cell_angle_beta   90.00000000
_cell_angle_gamma   90.00000000
_symmetry_Int_Tables_number   1
_chemical_formula_structural   LiVSiO4
_chemical_formula_sum   'Li4 V4 Si4 O16'
_cell_volume   269.31549849
_cell_formula_units_Z   4
loop_
 _symmetry_equiv_pos_site_id
 _symmetry_equiv_pos_as_xyz
  1  'x, y, z'
loop_
 _atom_site_type_symbol
 _atom_site_label
 _atom_site_symmetry_multiplicity
 _atom_site_fract_x
 _atom_site_fract_y
 _atom_site_fract_z
 _atom_site_occupancy
  Li  Li0  1  0.786541  0.000000  0.250000  1
  Li  Li1  1  0.000000  0.786541  0.000000  1
  Li  Li2  1  0.000000  0.213459  0.500000  1
  Li  Li3  1  0.213459  0.000000  0.750000  1
  V  V4  1  0.500000  0.773669  0.000000  1
  V  V5  1  0.500000  0.226331  0.500000  1
  V  V6  1  0.773669  0.500000  0.250000  1
  V  V7  1  0.226331  0.500000  0.750000  1
  Si  Si8  1  0.742915  0.742915  0.625000  1
  Si  Si9  1  0.742915  0.257085  0.875000  1
  Si  Si10  1  0.257085  0.742915  0.375000  1
  Si  Si11  1  0.257085  0.257085  0.125000  1
  O  O12  1  0.494302  0.737579  0.249933  1
  O  O13  1  0.494302  0.262421  0.250067  1
  O  O14  1  0.737579  0.494302  0.000067  1
  O  O15  1  0.737579  0.505698  0.499933  1
  O  O16  1  0.739624  0.022773  0.989900  1
  O  O17  1  0.739624  0.977227  0.510100  1
  O  O18  1  0.022773  0.739624  0.260100  1
  O  O19  1  0.022773  0.260376  0.239900  1
  O  O20  1  0.977227  0.739624  0.739900  1
  O  O21  1  0.977227  0.260376  0.760100  1
  O  O22  1  0.260376  0.977227  0.489900  1
  O  O23  1  0.260376  0.022773  0.010100  1
  O  O24  1  0.262421  0.505698  0.500067  1
  O  O25  1  0.262421  0.494302  0.999933  1
  O  O26  1  0.505698  0.737579  0.750067  1
  O  O27  1  0.505698  0.262421  0.749933  1
