# generated using pymatgen
data_Li2Mn3NbO8
_symmetry_space_group_name_H-M   'P 1'
_cell_length_a   5.97644963
_cell_length_b   5.97644963
_cell_length_c   9.91504838
_cell_angle_alpha   88.03899908
_cell_angle_beta   91.96100092
_cell_angle_gamma   60.75312935
_symmetry_Int_Tables_number   1
_chemical_formula_structural   Li2Mn3NbO8
_chemical_formula_sum   'Li4 Mn6 Nb2 O16'
_cell_volume   308.29143350
_cell_formula_units_Z   2
loop_
 _symmetry_equiv_pos_site_id
 _symmetry_equiv_pos_as_xyz
  1  'x, y, z'
loop_
 _atom_site_type_symbol
 _atom_site_label
 _atom_site_symmetry_multiplicity
 _atom_site_fract_x
 _atom_site_fract_y
 _atom_site_fract_z
 _atom_site_occupancy
  Li  Li0  1  0.343064  0.324946  0.096200  1
  Li  Li1  1  0.001081  0.997781  0.010838  1
  Li  Li2  1  0.002219  0.998919  0.510838  1
  Li  Li3  1  0.675054  0.656936  0.596200  1
  Mn  Mn4  1  0.659446  0.168598  0.784578  1
  Mn  Mn5  1  0.171046  0.662403  0.785918  1
  Mn  Mn6  1  0.169378  0.168441  0.786690  1
  Mn  Mn7  1  0.831559  0.830622  0.286690  1
  Mn  Mn8  1  0.831402  0.340554  0.284578  1
  Mn  Mn9  1  0.337597  0.828954  0.285918  1
  Nb  Nb10  1  0.353834  0.312429  0.510294  1
  Nb  Nb11  1  0.687571  0.646166  0.010294  1
  O  O12  1  0.652933  0.172625  0.412412  1
  O  O13  1  0.497449  0.465515  0.653063  1
  O  O14  1  0.341853  0.326234  0.884272  1
  O  O15  1  0.989282  0.009128  0.697588  1
  O  O16  1  0.990872  0.010718  0.197588  1
  O  O17  1  0.161856  0.681639  0.406167  1
  O  O18  1  0.475980  0.026435  0.642861  1
  O  O19  1  0.039994  0.485666  0.666077  1
  O  O20  1  0.804813  0.859884  0.909123  1
  O  O21  1  0.140116  0.195187  0.409123  1
  O  O22  1  0.973565  0.524021  0.142861  1
  O  O23  1  0.514334  0.960006  0.166077  1
  O  O24  1  0.673766  0.658147  0.384272  1
  O  O25  1  0.827375  0.347067  0.912412  1
  O  O26  1  0.534485  0.502551  0.153063  1
  O  O27  1  0.318361  0.838144  0.906167  1
