# generated using pymatgen
data_Ba5Nb2O10
_symmetry_space_group_name_H-M   'P 1'
_cell_length_a   6.17834568
_cell_length_b   6.17834568
_cell_length_c   18.33528405
_cell_angle_alpha   90.00000000
_cell_angle_beta   90.00000000
_cell_angle_gamma   120.22517794
_symmetry_Int_Tables_number   1
_chemical_formula_structural   Ba5Nb2O10
_chemical_formula_sum   'Ba10 Nb4 O20'
_cell_volume   604.74567297
_cell_formula_units_Z   2
loop_
 _symmetry_equiv_pos_site_id
 _symmetry_equiv_pos_as_xyz
  1  'x, y, z'
loop_
 _atom_site_type_symbol
 _atom_site_label
 _atom_site_symmetry_multiplicity
 _atom_site_fract_x
 _atom_site_fract_y
 _atom_site_fract_z
 _atom_site_occupancy
  Ba  Ba0  1  0.831875  0.168125  0.750501  1
  Ba  Ba1  1  0.807702  0.192298  0.981575  1
  Ba  Ba2  1  0.496239  0.503761  0.864922  1
  Ba  Ba3  1  0.500439  0.499561  0.635046  1
  Ba  Ba4  1  0.503761  0.496239  0.364922  1
  Ba  Ba5  1  0.499561  0.500439  0.135046  1
  Ba  Ba6  1  0.850706  0.149294  0.519658  1
  Ba  Ba7  1  0.192298  0.807702  0.481575  1
  Ba  Ba8  1  0.168125  0.831875  0.250501  1
  Ba  Ba9  1  0.149294  0.850706  0.019658  1
  Nb  Nb10  1  0.836671  0.163329  0.330725  1
  Nb  Nb11  1  0.830911  0.169089  0.169806  1
  Nb  Nb12  1  0.163329  0.836671  0.830725  1
  Nb  Nb13  1  0.169089  0.830911  0.669806  1
  O  O14  1  0.562876  0.437124  0.999733  1
  O  O15  1  0.975464  0.483846  0.380124  1
  O  O16  1  0.003969  0.475984  0.114672  1
  O  O17  1  0.687250  0.312750  0.245135  1
  O  O18  1  0.126936  0.312836  0.252444  1
  O  O19  1  0.516154  0.024536  0.380124  1
  O  O20  1  0.524016  0.996031  0.114672  1
  O  O21  1  0.687164  0.873064  0.252444  1
  O  O22  1  0.984850  0.015150  0.389456  1
  O  O23  1  0.993506  0.006494  0.121248  1
  O  O24  1  0.006494  0.993506  0.621248  1
  O  O25  1  0.015150  0.984850  0.889456  1
  O  O26  1  0.312836  0.126936  0.752444  1
  O  O27  1  0.483846  0.975464  0.880124  1
  O  O28  1  0.873064  0.687164  0.752444  1
  O  O29  1  0.475984  0.003969  0.614672  1
  O  O30  1  0.312750  0.687250  0.745135  1
  O  O31  1  0.024536  0.516154  0.880124  1
  O  O32  1  0.996031  0.524016  0.614672  1
  O  O33  1  0.437124  0.562876  0.499733  1
