# generated using pymatgen
data_Li2CrP2O7
_symmetry_space_group_name_H-M   'P 1'
_cell_length_a   5.51516316
_cell_length_b   6.44625485
_cell_length_c   8.97687003
_cell_angle_alpha   110.58169292
_cell_angle_beta   92.70962667
_cell_angle_gamma   106.39634075
_symmetry_Int_Tables_number   1
_chemical_formula_structural   Li2CrP2O7
_chemical_formula_sum   'Li4 Cr2 P4 O14'
_cell_volume   282.78630823
_cell_formula_units_Z   2
loop_
 _symmetry_equiv_pos_site_id
 _symmetry_equiv_pos_as_xyz
  1  'x, y, z'
loop_
 _atom_site_type_symbol
 _atom_site_label
 _atom_site_symmetry_multiplicity
 _atom_site_fract_x
 _atom_site_fract_y
 _atom_site_fract_z
 _atom_site_occupancy
  Li  Li0  1  0.103465  0.778635  0.991265  1
  Li  Li1  1  0.307032  0.464209  0.759116  1
  Li  Li2  1  0.692968  0.535791  0.240884  1
  Li  Li3  1  0.896535  0.221365  0.008735  1
  Cr  Cr4  1  0.112685  0.232924  0.375668  1
  Cr  Cr5  1  0.887315  0.767076  0.624332  1
  P  P6  1  0.236385  0.753156  0.391170  1
  P  P7  1  0.603466  0.818308  0.885554  1
  P  P8  1  0.396534  0.181692  0.114446  1
  P  P9  1  0.763615  0.246844  0.608830  1
  O  O10  1  0.069723  0.560886  0.324432  1
  O  O11  1  0.058357  0.883583  0.416168  1
  O  O12  1  0.319506  0.704690  0.871464  1
  O  O13  1  0.236553  0.300759  0.163163  1
  O  O14  1  0.267529  0.149967  0.951738  1
  O  O15  1  0.570655  0.320517  0.460141  1
  O  O16  1  0.616430  0.076331  0.755671  1
  O  O17  1  0.383570  0.923669  0.244329  1
  O  O18  1  0.429345  0.679483  0.539859  1
  O  O19  1  0.732471  0.850033  0.048262  1
  O  O20  1  0.763447  0.699241  0.836837  1
  O  O21  1  0.680494  0.295310  0.128536  1
  O  O22  1  0.941643  0.116417  0.583832  1
  O  O23  1  0.930277  0.439114  0.675568  1
