# generated using pymatgen
data_LaTa2NO5
_symmetry_space_group_name_H-M   'P 1'
_cell_length_a   5.52784417
_cell_length_b   7.74141327
_cell_length_c   11.31722637
_cell_angle_alpha   89.96765895
_cell_angle_beta   89.59579955
_cell_angle_gamma   89.96225378
_symmetry_Int_Tables_number   1
_chemical_formula_structural   LaTa2NO5
_chemical_formula_sum   'La4 Ta8 N4 O20'
_cell_volume   484.28952789
_cell_formula_units_Z   4
loop_
 _symmetry_equiv_pos_site_id
 _symmetry_equiv_pos_as_xyz
  1  'x, y, z'
loop_
 _atom_site_type_symbol
 _atom_site_label
 _atom_site_symmetry_multiplicity
 _atom_site_fract_x
 _atom_site_fract_y
 _atom_site_fract_z
 _atom_site_occupancy
  La  La0  1  0.446079  0.252215  0.965140  1
  La  La1  1  0.950755  0.747598  0.536569  1
  La  La2  1  0.043649  0.252329  0.454582  1
  La  La3  1  0.551114  0.746241  0.041375  1
  Ta  Ta4  1  0.962519  0.004101  0.858901  1
  Ta  Ta5  1  0.959819  0.497460  0.859369  1
  Ta  Ta6  1  0.456502  0.003601  0.643225  1
  Ta  Ta7  1  0.458283  0.495494  0.642080  1
  Ta  Ta8  1  0.536195  0.007285  0.356271  1
  Ta  Ta9  1  0.536141  0.504627  0.349843  1
  Ta  Ta10  1  0.049899  0.503468  0.146769  1
  Ta  Ta11  1  0.037012  0.993482  0.142978  1
  N  N12  1  0.047132  0.249138  0.852281  1
  N  N13  1  0.453822  0.248568  0.359563  1
  N  N14  1  0.373552  0.555892  0.207625  1
  N  N15  1  0.949247  0.750927  0.144486  1
  O  O16  1  0.228911  0.964390  0.975973  1
  O  O17  1  0.229204  0.535858  0.973325  1
  O  O18  1  0.849278  0.750230  0.874671  1
  O  O19  1  0.626537  0.447381  0.786397  1
  O  O20  1  0.628128  0.051699  0.786174  1
  O  O21  1  0.133333  0.941806  0.710795  1
  O  O22  1  0.133583  0.557932  0.710741  1
  O  O23  1  0.544534  0.750298  0.643497  1
  O  O24  1  0.353027  0.249160  0.623687  1
  O  O25  1  0.733939  0.465516  0.531393  1
  O  O26  1  0.727821  0.033066  0.526248  1
  O  O27  1  0.270409  0.962784  0.479020  1
  O  O28  1  0.272374  0.536028  0.479206  1
  O  O29  1  0.654427  0.749077  0.383677  1
  O  O30  1  0.873403  0.443006  0.291789  1
  O  O31  1  0.871683  0.055536  0.290435  1
  O  O32  1  0.369929  0.944822  0.211307  1
  O  O33  1  0.145901  0.248926  0.119915  1
  O  O34  1  0.771717  0.464132  0.018558  1
  O  O35  1  0.770142  0.035933  0.022133  1
