# generated using pymatgen
data_Rb9Na2Al11Si13O48
_symmetry_space_group_name_H-M   'P 1'
_cell_length_a   12.19473669
_cell_length_b   12.25967736
_cell_length_c   12.57806684
_cell_angle_alpha   90.14989770
_cell_angle_beta   91.29581676
_cell_angle_gamma   90.94578056
_symmetry_Int_Tables_number   1
_chemical_formula_structural   Rb9Na2Al11Si13O48
_chemical_formula_sum   'Rb9 Na2 Al11 Si13 O48'
_cell_volume   1879.72005040
_cell_formula_units_Z   1
loop_
 _symmetry_equiv_pos_site_id
 _symmetry_equiv_pos_as_xyz
  1  'x, y, z'
loop_
 _atom_site_type_symbol
 _atom_site_label
 _atom_site_symmetry_multiplicity
 _atom_site_fract_x
 _atom_site_fract_y
 _atom_site_fract_z
 _atom_site_occupancy
  Rb  Rb0  1  0.452347  0.502437  0.022651  1
  Rb  Rb1  1  0.264359  0.761525  0.251459  1
  Rb  Rb2  1  0.530293  0.999588  0.527704  1
  Rb  Rb3  1  0.995084  0.497698  0.574882  1
  Rb  Rb4  1  0.757354  0.743448  0.734578  1
  Rb  Rb5  1  0.747819  0.249099  0.727823  1
  Rb  Rb6  1  0.337617  0.798096  0.675350  1
  Rb  Rb7  1  0.290329  0.223386  0.540644  1
  Rb  Rb8  1  0.942477  0.135393  0.072126  1
  Na  Na9  1  0.135480  0.847865  0.829914  1
  Na  Na10  1  0.181500  0.166834  0.807647  1
  Al  Al11  1  0.373935  0.814871  0.996578  1
  Al  Al12  1  0.196277  0.007882  0.372379  1
  Al  Al13  1  0.003417  0.805126  0.615927  1
  Al  Al14  1  0.807266  0.992103  0.604871  1
  Al  Al15  1  0.987856  0.197183  0.610953  1
  Al  Al16  1  0.182412  0.008704  0.621964  1
  Al  Al17  1  0.006912  0.630266  0.829381  1
  Al  Al18  1  0.000362  0.361359  0.824498  1
  Al  Al19  1  0.633709  0.993365  0.813805  1
  Al  Al20  1  0.362320  0.003685  0.832561  1
  Al  Al21  1  0.180960  0.363471  0.004063  1
  Si  Si22  1  0.631751  0.811303  0.992808  1
  Si  Si23  1  0.809717  0.377866  0.002578  1
  Si  Si24  1  0.184779  0.628444  0.008383  1
  Si  Si25  1  0.998744  0.621838  0.187071  1
  Si  Si26  1  0.996649  0.378129  0.187492  1
  Si  Si27  1  0.638228  0.994831  0.173735  1
  Si  Si28  1  0.390786  0.007171  0.186630  1
  Si  Si29  1  0.007571  0.809743  0.372108  1
  Si  Si30  1  0.822404  0.990401  0.363201  1
  Si  Si31  1  0.003448  0.189951  0.368667  1
  Si  Si32  1  0.814004  0.625427  0.004595  1
  Si  Si33  1  0.632882  0.179966  0.995074  1
  Si  Si34  1  0.376740  0.189726  0.014545  1
  O  O35  1  0.708719  0.704136  0.012108  1
  O  O36  1  0.757735  0.500713  0.997161  1
  O  O37  1  0.705178  0.293018  0.013249  1
  O  O38  1  0.297883  0.697681  0.036757  1
  O  O39  1  0.218838  0.502953  0.990352  1
  O  O40  1  0.506314  0.222838  0.990903  1
  O  O41  1  0.311707  0.302892  0.021757  1
  O  O42  1  0.887102  0.635594  0.115495  1
  O  O43  1  0.639536  0.884492  0.102215  1
  O  O44  1  0.884163  0.369848  0.111885  1
  O  O45  1  0.371467  0.905111  0.106061  1
  O  O46  1  0.657133  0.103531  0.099692  1
  O  O47  1  0.109339  0.636892  0.116864  1
  O  O48  1  0.375511  0.125993  0.129337  1
  O  O49  1  0.102286  0.352687  0.119159  1
  O  O50  1  0.000397  0.500255  0.243887  1
  O  O51  1  0.520239  0.002957  0.235079  1
  O  O52  1  0.006791  0.714296  0.278326  1
  O  O53  1  0.739939  0.990371  0.257215  1
  O  O54  1  0.980930  0.281560  0.274572  1
  O  O55  1  0.308387  0.996570  0.284922  1
  O  O56  1  0.895617  0.879908  0.353562  1
  O  O57  1  0.902265  0.099204  0.351213  1
  O  O58  1  0.114629  0.887802  0.351119  1
  O  O59  1  0.119443  0.128409  0.350312  1
  O  O60  1  0.013823  0.746401  0.485241  1
  O  O61  1  0.750118  0.989232  0.469292  1
  O  O62  1  0.000020  0.255468  0.480547  1
  O  O63  1  0.255925  0.008886  0.500871  1
  O  O64  1  0.882910  0.875951  0.622290  1
  O  O65  1  0.872166  0.116507  0.620262  1
  O  O66  1  0.122998  0.881589  0.649867  1
  O  O67  1  0.110329  0.129716  0.635860  1
  O  O68  1  0.995916  0.700589  0.710388  1
  O  O69  1  0.972363  0.306150  0.698796  1
  O  O70  1  0.692602  0.987834  0.688730  1
  O  O71  1  0.284688  0.032233  0.719584  1
  O  O72  1  0.027695  0.496586  0.801841  1
  O  O73  1  0.494054  0.988350  0.789851  1
  O  O74  1  0.884770  0.653367  0.901875  1
  O  O75  1  0.678079  0.880797  0.893442  1
  O  O76  1  0.668659  0.116567  0.888770  1
  O  O77  1  0.117824  0.684623  0.910388  1
  O  O78  1  0.877085  0.342812  0.900506  1
  O  O79  1  0.315879  0.875798  0.883684  1
  O  O80  1  0.328093  0.111860  0.919647  1
  O  O81  1  0.107014  0.300031  0.899525  1
  O  O82  1  0.506855  0.762961  0.976896  1
