# generated using pymatgen
data_Al2CuO4
_symmetry_space_group_name_H-M   'P 1'
_cell_length_a   5.82222948
_cell_length_b   5.82222948
_cell_length_c   5.82222948
_cell_angle_alpha   122.65033134
_cell_angle_beta   121.64120614
_cell_angle_gamma   86.32430726
_symmetry_Int_Tables_number   1
_chemical_formula_structural   Al2CuO4
_chemical_formula_sum   'Al4 Cu2 O8'
_cell_volume   134.71506464
_cell_formula_units_Z   2
loop_
 _symmetry_equiv_pos_site_id
 _symmetry_equiv_pos_as_xyz
  1  'x, y, z'
loop_
 _atom_site_type_symbol
 _atom_site_label
 _atom_site_symmetry_multiplicity
 _atom_site_fract_x
 _atom_site_fract_y
 _atom_site_fract_z
 _atom_site_occupancy
  Al  Al0  1  0.612171  0.862171  0.750000  1
  Al  Al1  1  0.387829  0.137829  0.250000  1
  Al  Al2  1  0.000000  0.500000  0.500000  1
  Al  Al3  1  0.500000  0.500000  0.000000  1
  Cu  Cu4  1  0.000000  0.000000  0.500000  1
  Cu  Cu5  1  0.000000  0.500000  1.000000  1
  O  O6  1  0.772595  0.269184  0.503411  1
  O  O7  1  0.265773  0.269184  0.996589  1
  O  O8  1  0.734227  0.730816  0.003411  1
  O  O9  1  0.266533  0.282436  0.515903  1
  O  O10  1  0.266533  0.750630  0.984097  1
  O  O11  1  0.227405  0.730816  0.496589  1
  O  O12  1  0.733467  0.249370  0.015903  1
  O  O13  1  0.733467  0.717564  0.484097  1
