# generated using pymatgen
data_LiMnF3
_symmetry_space_group_name_H-M   'P 1'
_cell_length_a   6.24088958
_cell_length_b   6.24088958
_cell_length_c   6.24088958
_cell_angle_alpha   90.00000000
_cell_angle_beta   90.00000000
_cell_angle_gamma   90.00000000
_symmetry_Int_Tables_number   1
_chemical_formula_structural   LiMnF3
_chemical_formula_sum   'Li4 Mn4 F12'
_cell_volume   243.07455354
_cell_formula_units_Z   4
loop_
 _symmetry_equiv_pos_site_id
 _symmetry_equiv_pos_as_xyz
  1  'x, y, z'
loop_
 _atom_site_type_symbol
 _atom_site_label
 _atom_site_symmetry_multiplicity
 _atom_site_fract_x
 _atom_site_fract_y
 _atom_site_fract_z
 _atom_site_occupancy
  Li  Li0  1  0.629653  0.629653  0.629653  1
  Li  Li1  1  0.370347  0.129653  0.870347  1
  Li  Li2  1  0.870347  0.370347  0.129653  1
  Li  Li3  1  0.129653  0.870347  0.370347  1
  Mn  Mn4  1  0.337249  0.337249  0.337249  1
  Mn  Mn5  1  0.162751  0.662751  0.837249  1
  Mn  Mn6  1  0.837249  0.162751  0.662751  1
  Mn  Mn7  1  0.662751  0.837249  0.162751  1
  F  F8  1  0.126073  0.990398  0.734457  1
  F  F9  1  0.009602  0.234457  0.373927  1
  F  F10  1  0.234457  0.373927  0.009602  1
  F  F11  1  0.265543  0.626073  0.509602  1
  F  F12  1  0.490398  0.765543  0.873927  1
  F  F13  1  0.373927  0.009602  0.234457  1
  F  F14  1  0.626073  0.509602  0.265543  1
  F  F15  1  0.509602  0.265543  0.626073  1
  F  F16  1  0.734457  0.126073  0.990398  1
  F  F17  1  0.765543  0.873927  0.490398  1
  F  F18  1  0.990398  0.734457  0.126073  1
  F  F19  1  0.873927  0.490398  0.765543  1
