# generated using pymatgen
data_Li5MnF8
_symmetry_space_group_name_H-M   'P 1'
_cell_length_a   6.03749877
_cell_length_b   6.03749877
_cell_length_c   6.03749877
_cell_angle_alpha   123.49446033
_cell_angle_beta   122.19938581
_cell_angle_gamma   85.13987113
_symmetry_Int_Tables_number   1
_chemical_formula_structural   Li5MnF8
_chemical_formula_sum   'Li5 Mn1 F8'
_cell_volume   148.31138813
_cell_formula_units_Z   1
loop_
 _symmetry_equiv_pos_site_id
 _symmetry_equiv_pos_as_xyz
  1  'x, y, z'
loop_
 _atom_site_type_symbol
 _atom_site_label
 _atom_site_symmetry_multiplicity
 _atom_site_fract_x
 _atom_site_fract_y
 _atom_site_fract_z
 _atom_site_occupancy
  Li  Li0  1  0.500000  0.000000  0.000000  1
  Li  Li1  1  0.500000  0.500000  0.500000  1
  Li  Li2  1  0.500000  0.000000  0.500000  1
  Li  Li3  1  0.000000  0.000000  0.500000  1
  Li  Li4  1  0.000000  0.500000  0.000000  1
  Mn  Mn5  1  0.000000  0.000000  0.000000  1
  F  F6  1  0.725813  0.225813  0.500000  1
  F  F7  1  0.232992  0.227182  0.460174  1
  F  F8  1  0.761258  0.761258  0.000000  1
  F  F9  1  0.232992  0.772818  0.005811  1
  F  F10  1  0.767008  0.227182  0.994189  1
  F  F11  1  0.238742  0.238742  0.000000  1
  F  F12  1  0.767008  0.772818  0.539826  1
  F  F13  1  0.274187  0.774187  0.500000  1
