# generated using pymatgen
data_Li11V16O32
_symmetry_space_group_name_H-M   'P 1'
_cell_length_a   8.47793348
_cell_length_b   8.51546769
_cell_length_c   10.36969904
_cell_angle_alpha   113.54338887
_cell_angle_beta   113.57166600
_cell_angle_gamma   91.29810441
_symmetry_Int_Tables_number   1
_chemical_formula_structural   Li11V16O32
_chemical_formula_sum   'Li11 V16 O32'
_cell_volume   614.04535199
_cell_formula_units_Z   1
loop_
 _symmetry_equiv_pos_site_id
 _symmetry_equiv_pos_as_xyz
  1  'x, y, z'
loop_
 _atom_site_type_symbol
 _atom_site_label
 _atom_site_symmetry_multiplicity
 _atom_site_fract_x
 _atom_site_fract_y
 _atom_site_fract_z
 _atom_site_occupancy
  Li  Li0  1  0.610686  0.912030  0.286113  1
  Li  Li1  1  0.426153  0.935798  0.619206  1
  Li  Li2  1  0.686593  0.667572  0.112628  1
  Li  Li3  1  0.718467  0.846919  0.819466  1
  Li  Li4  1  0.058630  0.566268  0.381160  1
  Li  Li5  1  0.877501  0.607636  0.740678  1
  Li  Li6  1  0.145113  0.260056  0.170247  1
  Li  Li7  1  0.762984  0.264794  0.509298  1
  Li  Li8  1  0.388326  0.117589  0.263697  1
  Li  Li9  1  0.125404  0.370380  0.742988  1
  Li  Li10  1  0.278800  0.272001  0.957661  1
  V  V11  1  0.250853  0.742205  0.996765  1
  V  V12  1  0.010935  0.992578  0.503451  1
  V  V13  1  0.110072  0.863966  0.242559  1
  V  V14  1  0.750265  0.746564  0.499691  1
  V  V15  1  0.370570  0.623850  0.250118  1
  V  V16  1  0.127613  0.878391  0.756051  1
  V  V17  1  0.988578  0.498123  0.997018  1
  V  V18  1  0.377234  0.624111  0.753436  1
  V  V19  1  0.741628  0.251972  0.998684  1
  V  V20  1  0.488792  0.502273  0.498175  1
  V  V21  1  0.629532  0.378927  0.254904  1
  V  V22  1  0.247737  0.249228  0.500314  1
  V  V23  1  0.875211  0.124585  0.254397  1
  V  V24  1  0.613408  0.366255  0.744842  1
  V  V25  1  0.505910  0.000688  0.005045  1
  V  V26  1  0.867017  0.120935  0.745326  1
  O  O27  1  0.883970  0.888676  0.264420  1
  O  O28  1  0.009943  0.719818  0.995166  1
  O  O29  1  0.774567  0.992267  0.507171  1
  O  O30  1  0.346954  0.858431  0.223508  1
  O  O31  1  0.880269  0.869877  0.737016  1
  O  O32  1  0.237593  0.512887  0.007202  1
  O  O33  1  0.005657  0.772539  0.519121  1
  O  O34  1  0.120363  0.620535  0.230406  1
  O  O35  1  0.377522  0.870456  0.771201  1
  O  O36  1  0.272023  0.984476  0.998179  1
  O  O37  1  0.494216  0.725124  0.486931  1
  O  O38  1  0.613175  0.629858  0.262529  1
  O  O39  1  0.725324  0.503830  0.494209  1
  O  O40  1  0.389197  0.382082  0.261226  1
  O  O41  1  0.484718  0.758140  0.997768  1
  O  O42  1  0.139914  0.640570  0.776502  1
  O  O43  1  0.270168  0.502538  0.512293  1
  O  O44  1  0.860822  0.353616  0.238818  1
  O  O45  1  0.611714  0.601217  0.730255  1
  O  O46  1  0.514021  0.239338  0.019400  1
  O  O47  1  0.489967  0.269352  0.501662  1
  O  O48  1  0.625055  0.125879  0.245387  1
  O  O49  1  0.369200  0.382533  0.735436  1
  O  O50  1  0.731833  0.013097  0.013044  1
  O  O51  1  0.752979  0.480232  0.983853  1
  O  O52  1  0.003538  0.225657  0.494674  1
  O  O53  1  0.125799  0.113290  0.264125  1
  O  O54  1  0.865469  0.371143  0.755594  1
  O  O55  1  0.638321  0.133363  0.760471  1
  O  O56  1  0.222648  0.995563  0.486574  1
  O  O57  1  0.984207  0.266429  0.985451  1
  O  O58  1  0.104413  0.114879  0.739510  1
