# generated using pymatgen
data_Na2H2CO4
_symmetry_space_group_name_H-M   'P 1'
_cell_length_a   5.28193666
_cell_length_b   6.48907669
_cell_length_c   10.77706764
_cell_angle_alpha   90.00000000
_cell_angle_beta   90.00000000
_cell_angle_gamma   90.00000000
_symmetry_Int_Tables_number   1
_chemical_formula_structural   Na2H2CO4
_chemical_formula_sum   'Na8 H8 C4 O16'
_cell_volume   369.38283007
_cell_formula_units_Z   4
loop_
 _symmetry_equiv_pos_site_id
 _symmetry_equiv_pos_as_xyz
  1  'x, y, z'
loop_
 _atom_site_type_symbol
 _atom_site_label
 _atom_site_symmetry_multiplicity
 _atom_site_fract_x
 _atom_site_fract_y
 _atom_site_fract_z
 _atom_site_occupancy
  Na  Na0  1  0.860465  0.999793  0.693156  1
  Na  Na1  1  0.139535  0.499793  0.306844  1
  Na  Na2  1  0.860465  0.499793  0.806844  1
  Na  Na3  1  0.139535  0.999793  0.193156  1
  Na  Na4  1  0.378100  0.064379  0.501195  1
  Na  Na5  1  0.621900  0.564379  0.498805  1
  Na  Na6  1  0.378100  0.564379  0.998805  1
  Na  Na7  1  0.621900  0.064379  0.001195  1
  H  H8  1  0.837366  0.147902  0.433653  1
  H  H9  1  0.162634  0.647902  0.566347  1
  H  H10  1  0.837366  0.647902  0.066347  1
  H  H11  1  0.162634  0.147902  0.933653  1
  H  H12  1  0.899770  0.917841  0.409430  1
  H  H13  1  0.100230  0.417841  0.590570  1
  H  H14  1  0.899770  0.417841  0.090570  1
  H  H15  1  0.100230  0.917841  0.909430  1
  C  C16  1  0.398014  0.785465  0.754910  1
  C  C17  1  0.601986  0.285465  0.245090  1
  C  C18  1  0.398014  0.285465  0.745090  1
  C  C19  1  0.601986  0.785465  0.254910  1
  O  O20  1  0.453034  0.798788  0.637512  1
  O  O21  1  0.546966  0.298788  0.362488  1
  O  O22  1  0.453034  0.298788  0.862488  1
  O  O23  1  0.546966  0.798788  0.137512  1
  O  O24  1  0.575369  0.796909  0.837499  1
  O  O25  1  0.424631  0.296909  0.162501  1
  O  O26  1  0.575369  0.296909  0.662501  1
  O  O27  1  0.424631  0.796909  0.337499  1
  O  O28  1  0.162157  0.760560  0.788754  1
  O  O29  1  0.837843  0.260560  0.211246  1
  O  O30  1  0.162157  0.260560  0.711246  1
  O  O31  1  0.837843  0.760560  0.288754  1
  O  O32  1  0.931750  0.032163  0.470936  1
  O  O33  1  0.068250  0.532163  0.529064  1
  O  O34  1  0.931750  0.532163  0.029064  1
  O  O35  1  0.068250  0.032163  0.970936  1
