# generated using pymatgen
data_Li4Cr3(FeO4)3
_symmetry_space_group_name_H-M   'P 1'
_cell_length_a   5.15137365
_cell_length_b   6.02849545
_cell_length_c   7.84239678
_cell_angle_alpha   78.64317592
_cell_angle_beta   77.02084872
_cell_angle_gamma   73.41720148
_symmetry_Int_Tables_number   1
_chemical_formula_structural   Li4Cr3(FeO4)3
_chemical_formula_sum   'Li4 Cr3 Fe3 O12'
_cell_volume   225.14113683
_cell_formula_units_Z   1
loop_
 _symmetry_equiv_pos_site_id
 _symmetry_equiv_pos_as_xyz
  1  'x, y, z'
loop_
 _atom_site_type_symbol
 _atom_site_label
 _atom_site_symmetry_multiplicity
 _atom_site_fract_x
 _atom_site_fract_y
 _atom_site_fract_z
 _atom_site_occupancy
  Li  Li0  1  0.497323  0.833107  0.663404  1
  Li  Li1  1  0.502677  0.166893  0.336596  1
  Li  Li2  1  0.990629  0.335318  0.167012  1
  Li  Li3  1  0.009371  0.664682  0.832988  1
  Cr  Cr4  1  0.501864  0.332489  0.666838  1
  Cr  Cr5  1  0.498136  0.667511  0.333162  1
  Cr  Cr6  1  0.500000  0.000000  0.000000  1
  Fe  Fe7  1  0.000000  0.500000  0.500000  1
  Fe  Fe8  1  0.999771  0.832589  0.167849  1
  Fe  Fe9  1  0.000229  0.167411  0.832151  1
  O  O10  1  0.771263  0.481003  0.728432  1
  O  O11  1  0.268467  0.637179  0.581166  1
  O  O12  1  0.726287  0.018434  0.772209  1
  O  O13  1  0.731533  0.362821  0.418834  1
  O  O14  1  0.253425  0.191394  0.591134  1
  O  O15  1  0.228737  0.518997  0.271568  1
  O  O16  1  0.746575  0.808606  0.408866  1
  O  O17  1  0.753958  0.137292  0.077732  1
  O  O18  1  0.273713  0.981566  0.227791  1
  O  O19  1  0.256612  0.307336  0.910133  1
  O  O20  1  0.743388  0.692664  0.089867  1
  O  O21  1  0.246042  0.862708  0.922268  1
