# generated using pymatgen
data_LiCoB2O5
_symmetry_space_group_name_H-M   'P 1'
_cell_length_a   7.29822725
_cell_length_b   7.29822725
_cell_length_c   9.66717223
_cell_angle_alpha   68.82122042
_cell_angle_beta   111.17877958
_cell_angle_gamma   89.53733966
_symmetry_Int_Tables_number   1
_chemical_formula_structural   LiCoB2O5
_chemical_formula_sum   'Li4 Co4 B8 O20'
_cell_volume   441.98097863
_cell_formula_units_Z   4
loop_
 _symmetry_equiv_pos_site_id
 _symmetry_equiv_pos_as_xyz
  1  'x, y, z'
loop_
 _atom_site_type_symbol
 _atom_site_label
 _atom_site_symmetry_multiplicity
 _atom_site_fract_x
 _atom_site_fract_y
 _atom_site_fract_z
 _atom_site_occupancy
  Li  Li0  1  0.837487  0.837487  0.250000  1
  Li  Li1  1  0.380018  0.380018  0.250000  1
  Li  Li2  1  0.619982  0.619982  0.750000  1
  Li  Li3  1  0.162513  0.162513  0.750000  1
  Co  Co4  1  0.961871  0.348981  0.352208  1
  Co  Co5  1  0.651019  0.038129  0.852208  1
  Co  Co6  1  0.348981  0.961871  0.147792  1
  Co  Co7  1  0.038129  0.651019  0.647792  1
  B  B8  1  0.762627  0.230402  0.093844  1
  B  B9  1  0.737757  0.601137  0.026670  1
  B  B10  1  0.769598  0.237373  0.593844  1
  B  B11  1  0.398863  0.262243  0.526670  1
  B  B12  1  0.601137  0.737757  0.473330  1
  B  B13  1  0.230402  0.762627  0.406156  1
  B  B14  1  0.262243  0.398863  0.973330  1
  B  B15  1  0.237373  0.769598  0.906156  1
  O  O16  1  0.704861  0.086726  0.034211  1
  O  O17  1  0.859374  0.171151  0.255903  1
  O  O18  1  0.913274  0.295139  0.534211  1
  O  O19  1  0.818722  0.594676  0.178705  1
  O  O20  1  0.334165  0.228369  0.111650  1
  O  O21  1  0.828849  0.140626  0.755903  1
  O  O22  1  0.568839  0.283583  0.486143  1
  O  O23  1  0.283583  0.568839  0.013857  1
  O  O24  1  0.405324  0.181278  0.678705  1
  O  O25  1  0.771631  0.665835  0.611650  1
  O  O26  1  0.228369  0.334165  0.388350  1
  O  O27  1  0.594676  0.818722  0.321295  1
  O  O28  1  0.716417  0.431161  0.986143  1
  O  O29  1  0.431161  0.716417  0.513857  1
  O  O30  1  0.171151  0.859374  0.244097  1
  O  O31  1  0.665835  0.771631  0.888350  1
  O  O32  1  0.181278  0.405324  0.821295  1
  O  O33  1  0.086726  0.704861  0.465789  1
  O  O34  1  0.140626  0.828849  0.744097  1
  O  O35  1  0.295139  0.913274  0.965789  1
