# generated using pymatgen
data_Li4Mn3(FeO5)2
_symmetry_space_group_name_H-M   'P 1'
_cell_length_a   5.14828610
_cell_length_b   5.22075925
_cell_length_c   7.85706788
_cell_angle_alpha   71.35904798
_cell_angle_beta   71.43859659
_cell_angle_gamma   81.70015887
_symmetry_Int_Tables_number   1
_chemical_formula_structural   Li4Mn3(FeO5)2
_chemical_formula_sum   'Li4 Mn3 Fe2 O10'
_cell_volume   189.48112825
_cell_formula_units_Z   1
loop_
 _symmetry_equiv_pos_site_id
 _symmetry_equiv_pos_as_xyz
  1  'x, y, z'
loop_
 _atom_site_type_symbol
 _atom_site_label
 _atom_site_symmetry_multiplicity
 _atom_site_fract_x
 _atom_site_fract_y
 _atom_site_fract_z
 _atom_site_occupancy
  Li  Li0  1  0.508478  0.774390  0.433715  1
  Li  Li1  1  0.972375  0.497281  0.512459  1
  Li  Li2  1  0.499264  0.397818  0.220854  1
  Li  Li3  1  0.489757  0.205001  0.593778  1
  Mn  Mn4  1  0.504133  0.002702  0.995256  1
  Mn  Mn5  1  0.996372  0.309672  0.896149  1
  Mn  Mn6  1  0.010212  0.696885  0.101476  1
  Fe  Fe7  1  0.008388  0.887867  0.683962  1
  Fe  Fe8  1  0.997587  0.112423  0.310063  1
  O  O9  1  0.228630  0.975001  0.863303  1
  O  O10  1  0.790256  0.645017  0.951479  1
  O  O11  1  0.772917  0.877208  0.533544  1
  O  O12  1  0.253332  0.776540  0.221106  1
  O  O13  1  0.205027  0.537286  0.667322  1
  O  O14  1  0.779427  0.460662  0.332640  1
  O  O15  1  0.768384  0.205996  0.771552  1
  O  O16  1  0.242668  0.130351  0.454412  1
  O  O17  1  0.218327  0.329311  0.051135  1
  O  O18  1  0.751191  0.073985  0.127752  1
