# generated using pymatgen
data_Al2FeO4
_symmetry_space_group_name_H-M   'P 1'
_cell_length_a   19.35845192
_cell_length_b   19.35845192
_cell_length_c   19.35845192
_cell_angle_alpha   17.30543032
_cell_angle_beta   17.30543032
_cell_angle_gamma   17.30543032
_symmetry_Int_Tables_number   1
_chemical_formula_structural   Al2FeO4
_chemical_formula_sum   'Al16 Fe8 O32'
_cell_volume   560.14943689
_cell_formula_units_Z   8
loop_
 _symmetry_equiv_pos_site_id
 _symmetry_equiv_pos_as_xyz
  1  'x, y, z'
loop_
 _atom_site_type_symbol
 _atom_site_label
 _atom_site_symmetry_multiplicity
 _atom_site_fract_x
 _atom_site_fract_y
 _atom_site_fract_z
 _atom_site_occupancy
  Al  Al0  1  0.128306  0.622609  0.622609  1
  Al  Al1  1  0.622609  0.128306  0.622609  1
  Al  Al2  1  0.749977  0.749977  0.749977  1
  Al  Al3  1  0.374519  0.875306  0.875306  1
  Al  Al4  1  0.622609  0.622609  0.128306  1
  Al  Al5  1  0.875306  0.374519  0.875306  1
  Al  Al6  1  0.000045  0.000045  0.000045  1
  Al  Al7  1  0.625207  0.124988  0.124988  1
  Al  Al8  1  0.875306  0.875306  0.374519  1
  Al  Al9  1  0.124988  0.625207  0.124988  1
  Al  Al10  1  0.373288  0.373288  0.879668  1
  Al  Al11  1  0.250530  0.250530  0.250530  1
  Al  Al12  1  0.879668  0.373288  0.373288  1
  Al  Al13  1  0.124988  0.124988  0.625207  1
  Al  Al14  1  0.373288  0.879669  0.373288  1
  Al  Al15  1  0.844562  0.844562  0.844562  1
  Fe  Fe16  1  0.155691  0.155691  0.155691  1
  Fe  Fe17  1  0.499575  0.499575  0.499575  1
  Fe  Fe18  1  0.405762  0.405762  0.405762  1
  Fe  Fe19  1  0.656322  0.656322  0.656322  1
  Fe  Fe20  1  0.906468  0.906468  0.906468  1
  Fe  Fe21  1  0.094481  0.094481  0.094481  1
  Fe  Fe22  1  0.343688  0.343688  0.343688  1
  Fe  Fe23  1  0.593328  0.593328  0.593328  1
  O  O24  1  0.320692  0.784314  0.320692  1
  O  O25  1  0.784314  0.320692  0.320692  1
  O  O26  1  0.440403  0.440403  0.440403  1
  O  O27  1  0.320692  0.320692  0.784314  1
  O  O28  1  0.581874  0.019675  0.581874  1
  O  O29  1  0.915305  0.915305  0.486039  1
  O  O30  1  0.812263  0.812263  0.812263  1
  O  O31  1  0.691402  0.691402  0.691402  1
  O  O32  1  0.019675  0.581874  0.581874  1
  O  O33  1  0.486039  0.915305  0.915305  1
  O  O34  1  0.915305  0.486039  0.915305  1
  O  O35  1  0.581874  0.581874  0.019675  1
  O  O36  1  0.831998  0.269991  0.831998  1
  O  O37  1  0.168169  0.168169  0.730279  1
  O  O38  1  0.058884  0.058884  0.058884  1
  O  O39  1  0.269991  0.831998  0.831998  1
  O  O40  1  0.941567  0.941567  0.941567  1
  O  O41  1  0.730279  0.168169  0.168169  1
  O  O42  1  0.831998  0.831998  0.269991  1
  O  O43  1  0.168169  0.730279  0.168169  1
  O  O44  1  0.083653  0.517660  0.083653  1
  O  O45  1  0.418461  0.418461  0.979893  1
  O  O46  1  0.308657  0.308657  0.308657  1
  O  O47  1  0.517660  0.083653  0.083653  1
  O  O48  1  0.191199  0.191199  0.191199  1
  O  O49  1  0.979893  0.418461  0.418461  1
  O  O50  1  0.083653  0.083653  0.517660  1
  O  O51  1  0.418461  0.979893  0.418461  1
  O  O52  1  0.689342  0.689342  0.191151  1
  O  O53  1  0.557124  0.557124  0.557124  1
  O  O54  1  0.191151  0.689342  0.689342  1
  O  O55  1  0.689342  0.191151  0.689342  1
