# generated using pymatgen
data_Li2Cr3SbO8
_symmetry_space_group_name_H-M   'P 1'
_cell_length_a   8.54076426
_cell_length_b   8.54076426
_cell_length_c   8.54076426
_cell_angle_alpha   90.00000000
_cell_angle_beta   90.00000000
_cell_angle_gamma   90.00000000
_symmetry_Int_Tables_number   1
_chemical_formula_structural   Li2Cr3SbO8
_chemical_formula_sum   'Li8 Cr12 Sb4 O32'
_cell_volume   623.00309435
_cell_formula_units_Z   4
loop_
 _symmetry_equiv_pos_site_id
 _symmetry_equiv_pos_as_xyz
  1  'x, y, z'
loop_
 _atom_site_type_symbol
 _atom_site_label
 _atom_site_symmetry_multiplicity
 _atom_site_fract_x
 _atom_site_fract_y
 _atom_site_fract_z
 _atom_site_occupancy
  Li  Li0  1  0.496887  0.496887  0.496887  1
  Li  Li1  1  0.753113  0.753113  0.753113  1
  Li  Li2  1  0.746887  0.246887  0.253113  1
  Li  Li3  1  0.003113  0.503113  0.996887  1
  Li  Li4  1  0.996887  0.003113  0.503113  1
  Li  Li5  1  0.253113  0.746887  0.246887  1
  Li  Li6  1  0.246887  0.253113  0.746887  1
  Li  Li7  1  0.503113  0.996887  0.003113  1
  Cr  Cr8  1  0.620536  0.629464  0.125000  1
  Cr  Cr9  1  0.625000  0.879464  0.370536  1
  Cr  Cr10  1  0.629464  0.125000  0.620536  1
  Cr  Cr11  1  0.870536  0.875000  0.120536  1
  Cr  Cr12  1  0.875000  0.120536  0.870536  1
  Cr  Cr13  1  0.879464  0.370536  0.625000  1
  Cr  Cr14  1  0.120536  0.870536  0.875000  1
  Cr  Cr15  1  0.125000  0.620536  0.629464  1
  Cr  Cr16  1  0.129464  0.375000  0.379464  1
  Cr  Cr17  1  0.370536  0.625000  0.879464  1
  Cr  Cr18  1  0.375000  0.379464  0.129464  1
  Cr  Cr19  1  0.379464  0.129464  0.375000  1
  Sb  Sb20  1  0.625000  0.375000  0.875000  1
  Sb  Sb21  1  0.875000  0.625000  0.375000  1
  Sb  Sb22  1  0.125000  0.125000  0.125000  1
  Sb  Sb23  1  0.375000  0.875000  0.625000  1
  O  O24  1  0.612582  0.611548  0.886539  1
  O  O25  1  0.613461  0.387418  0.111548  1
  O  O26  1  0.612157  0.112157  0.387843  1
  O  O27  1  0.638452  0.637418  0.363461  1
  O  O28  1  0.611548  0.886539  0.612582  1
  O  O29  1  0.637843  0.862157  0.137843  1
  O  O30  1  0.636539  0.138452  0.862582  1
  O  O31  1  0.637418  0.363461  0.638452  1
  O  O32  1  0.862582  0.636539  0.138452  1
  O  O33  1  0.863461  0.861548  0.362582  1
  O  O34  1  0.862157  0.137843  0.637843  1
  O  O35  1  0.888452  0.113461  0.112582  1
  O  O36  1  0.861548  0.362582  0.863461  1
  O  O37  1  0.887843  0.887843  0.887843  1
  O  O38  1  0.886539  0.612582  0.611548  1
  O  O39  1  0.887418  0.388452  0.386539  1
  O  O40  1  0.112582  0.888452  0.113461  1
  O  O41  1  0.113461  0.112582  0.888452  1
  O  O42  1  0.112157  0.387843  0.612157  1
  O  O43  1  0.138452  0.862582  0.636539  1
  O  O44  1  0.111548  0.613461  0.387418  1
  O  O45  1  0.137843  0.637843  0.862157  1
  O  O46  1  0.136539  0.361548  0.137418  1
  O  O47  1  0.137418  0.136539  0.361548  1
  O  O48  1  0.362582  0.863461  0.861548  1
  O  O49  1  0.363461  0.638452  0.637418  1
  O  O50  1  0.362157  0.362157  0.362157  1
  O  O51  1  0.388452  0.386539  0.887418  1
  O  O52  1  0.361548  0.137418  0.136539  1
  O  O53  1  0.387843  0.612157  0.112157  1
  O  O54  1  0.386539  0.887418  0.388452  1
  O  O55  1  0.387418  0.111548  0.613461  1
