# generated using pymatgen
data_Sm3NbO7
_symmetry_space_group_name_H-M   'P 1'
_cell_length_a   6.62967150
_cell_length_b   6.62967150
_cell_length_c   7.67723208
_cell_angle_alpha   90.00000000
_cell_angle_beta   90.00000000
_cell_angle_gamma   109.24813120
_symmetry_Int_Tables_number   1
_chemical_formula_structural   Sm3NbO7
_chemical_formula_sum   'Sm6 Nb2 O14'
_cell_volume   318.57125207
_cell_formula_units_Z   2
loop_
 _symmetry_equiv_pos_site_id
 _symmetry_equiv_pos_as_xyz
  1  'x, y, z'
loop_
 _atom_site_type_symbol
 _atom_site_label
 _atom_site_symmetry_multiplicity
 _atom_site_fract_x
 _atom_site_fract_y
 _atom_site_fract_z
 _atom_site_occupancy
  Sm  Sm0  1  0.463788  0.000573  0.254850  1
  Sm  Sm1  1  0.999427  0.536212  0.245150  1
  Sm  Sm2  1  0.473512  0.473512  1.000000  1
  Sm  Sm3  1  0.526488  0.526488  0.500000  1
  Sm  Sm4  1  0.536212  0.999427  0.754850  1
  Sm  Sm5  1  0.000573  0.463788  0.745150  1
  Nb  Nb6  1  0.003317  0.003317  0.500000  1
  Nb  Nb7  1  0.996683  0.996683  1.000000  1
  O  O8  1  0.935218  0.064782  0.750000  1
  O  O9  1  0.636398  0.363602  0.750000  1
  O  O10  1  0.311097  0.059613  0.536871  1
  O  O11  1  0.940387  0.688903  0.963129  1
  O  O12  1  0.629561  0.370439  0.250000  1
  O  O13  1  0.920911  0.676462  0.526395  1
  O  O14  1  0.323538  0.079089  0.973605  1
  O  O15  1  0.079089  0.323538  0.026395  1
  O  O16  1  0.676462  0.920911  0.473605  1
  O  O17  1  0.370439  0.629561  0.750000  1
  O  O18  1  0.688903  0.940387  0.036871  1
  O  O19  1  0.059613  0.311097  0.463129  1
  O  O20  1  0.363602  0.636398  0.250000  1
  O  O21  1  0.064782  0.935218  0.250000  1
