# generated using pymatgen
data_MnH4(SO5)2
_symmetry_space_group_name_H-M   'P 1'
_cell_length_a   5.15059222
_cell_length_b   12.98615957
_cell_length_c   5.80430209
_cell_angle_alpha   90.00000000
_cell_angle_beta   103.38444504
_cell_angle_gamma   90.00000000
_symmetry_Int_Tables_number   1
_chemical_formula_structural   MnH4(SO5)2
_chemical_formula_sum   'Mn2 H8 S4 O20'
_cell_volume   377.68416324
_cell_formula_units_Z   2
loop_
 _symmetry_equiv_pos_site_id
 _symmetry_equiv_pos_as_xyz
  1  'x, y, z'
loop_
 _atom_site_type_symbol
 _atom_site_label
 _atom_site_symmetry_multiplicity
 _atom_site_fract_x
 _atom_site_fract_y
 _atom_site_fract_z
 _atom_site_occupancy
  Mn  Mn0  1  0.500000  0.500000  0.000000  1
  Mn  Mn1  1  0.000000  0.000000  0.000000  1
  H  H2  1  0.497881  0.303480  0.916215  1
  H  H3  1  0.997881  0.196520  0.916215  1
  H  H4  1  0.318391  0.360462  0.682583  1
  H  H5  1  0.818391  0.139538  0.682583  1
  H  H6  1  0.181609  0.860462  0.317417  1
  H  H7  1  0.681609  0.639538  0.317417  1
  H  H8  1  0.002119  0.803480  0.083785  1
  H  H9  1  0.502119  0.696520  0.083785  1
  S  S10  1  0.435732  0.881994  0.781257  1
  S  S11  1  0.935732  0.618006  0.781257  1
  S  S12  1  0.064268  0.381994  0.218743  1
  S  S13  1  0.564268  0.118006  0.218743  1
  O  O14  1  0.006749  0.317860  0.007601  1
  O  O15  1  0.506749  0.182140  0.007601  1
  O  O16  1  0.159666  0.539785  0.789092  1
  O  O17  1  0.472546  0.369881  0.825380  1
  O  O18  1  0.180303  0.944211  0.763583  1
  O  O19  1  0.659666  0.960215  0.789092  1
  O  O20  1  0.972546  0.130119  0.825380  1
  O  O21  1  0.680303  0.555789  0.763583  1
  O  O22  1  0.398396  0.826910  0.556648  1
  O  O23  1  0.101604  0.326910  0.443352  1
  O  O24  1  0.898396  0.673090  0.556648  1
  O  O25  1  0.601604  0.173090  0.443352  1
  O  O26  1  0.319697  0.444211  0.236417  1
  O  O27  1  0.027454  0.869881  0.174620  1
  O  O28  1  0.340334  0.039785  0.210908  1
  O  O29  1  0.819697  0.055789  0.236417  1
  O  O30  1  0.527454  0.630119  0.174620  1
  O  O31  1  0.840334  0.460215  0.210908  1
  O  O32  1  0.493251  0.817860  0.992399  1
  O  O33  1  0.993251  0.682140  0.992399  1
