# generated using pymatgen
data_Ba(ZnAs)2
_symmetry_space_group_name_H-M   'P 1'
_cell_length_a   4.29811590
_cell_length_b   10.14279464
_cell_length_c   11.01366506
_cell_angle_alpha   90.00000000
_cell_angle_beta   90.00000000
_cell_angle_gamma   90.00000000
_symmetry_Int_Tables_number   1
_chemical_formula_structural   Ba(ZnAs)2
_chemical_formula_sum   'Ba4 Zn8 As8'
_cell_volume   480.13970306
_cell_formula_units_Z   4
loop_
 _symmetry_equiv_pos_site_id
 _symmetry_equiv_pos_as_xyz
  1  'x, y, z'
loop_
 _atom_site_type_symbol
 _atom_site_label
 _atom_site_symmetry_multiplicity
 _atom_site_fract_x
 _atom_site_fract_y
 _atom_site_fract_z
 _atom_site_occupancy
  Ba  Ba0  1  0.250000  0.747710  0.325320  1
  Ba  Ba1  1  0.750000  0.252290  0.674680  1
  Ba  Ba2  1  0.250000  0.247710  0.174680  1
  Ba  Ba3  1  0.750000  0.752290  0.825320  1
  Zn  Zn4  1  0.750000  0.401415  0.950550  1
  Zn  Zn5  1  0.250000  0.598585  0.049450  1
  Zn  Zn6  1  0.250000  0.098585  0.450550  1
  Zn  Zn7  1  0.750000  0.901415  0.549450  1
  Zn  Zn8  1  0.750000  0.950915  0.117339  1
  Zn  Zn9  1  0.250000  0.049085  0.882661  1
  Zn  Zn10  1  0.750000  0.450915  0.382661  1
  Zn  Zn11  1  0.250000  0.549085  0.617339  1
  As  As12  1  0.750000  0.649707  0.538943  1
  As  As13  1  0.250000  0.350293  0.461057  1
  As  As14  1  0.250000  0.850293  0.038943  1
  As  As15  1  0.750000  0.149707  0.961057  1
  As  As16  1  0.750000  0.522404  0.160125  1
  As  As17  1  0.250000  0.477596  0.839875  1
  As  As18  1  0.750000  0.022404  0.339875  1
  As  As19  1  0.250000  0.977596  0.660125  1
