# generated using pymatgen
data_MnSn3(PO4)4
_symmetry_space_group_name_H-M   'P 1'
_cell_length_a   5.09061226
_cell_length_b   6.24599757
_cell_length_c   11.68332985
_cell_angle_alpha   90.00000000
_cell_angle_beta   115.86738767
_cell_angle_gamma   90.00000000
_symmetry_Int_Tables_number   1
_chemical_formula_structural   MnSn3(PO4)4
_chemical_formula_sum   'Mn1 Sn3 P4 O16'
_cell_volume   334.26236144
_cell_formula_units_Z   1
loop_
 _symmetry_equiv_pos_site_id
 _symmetry_equiv_pos_as_xyz
  1  'x, y, z'
loop_
 _atom_site_type_symbol
 _atom_site_label
 _atom_site_symmetry_multiplicity
 _atom_site_fract_x
 _atom_site_fract_y
 _atom_site_fract_z
 _atom_site_occupancy
  Mn  Mn0  1  0.322235  0.500000  0.274252  1
  Sn  Sn1  1  0.244124  0.500000  0.788405  1
  Sn  Sn2  1  0.759644  0.000000  0.213379  1
  Sn  Sn3  1  0.676024  0.000000  0.718257  1
  P  P4  1  0.496846  0.000000  0.383681  1
  P  P5  1  0.349174  0.000000  0.917304  1
  P  P6  1  0.673241  0.500000  0.095277  1
  P  P7  1  0.478537  0.500000  0.602378  1
  O  O8  1  0.696157  0.000000  0.523797  1
  O  O9  1  0.564610  0.192380  0.311839  1
  O  O10  1  0.564610  0.807620  0.311839  1
  O  O11  1  0.816857  0.500000  0.653786  1
  O  O12  1  0.390282  0.500000  0.107390  1
  O  O13  1  0.150744  0.198441  0.844596  1
  O  O14  1  0.150744  0.801559  0.844596  1
  O  O15  1  0.373138  0.000000  0.054859  1
  O  O16  1  0.625157  0.500000  0.953217  1
  O  O17  1  0.881624  0.695863  0.165435  1
  O  O18  1  0.881624  0.304137  0.165435  1
  O  O19  1  0.644318  0.000000  0.916486  1
  O  O20  1  0.170106  0.000000  0.359438  1
  O  O21  1  0.377926  0.688291  0.667302  1
  O  O22  1  0.377926  0.311709  0.667302  1
  O  O23  1  0.334355  0.500000  0.459748  1
