# generated using pymatgen
data_Bi4(B2O5)3
_symmetry_space_group_name_H-M   'P 1'
_cell_length_a   6.42430770
_cell_length_b   6.42430770
_cell_length_c   19.55404656
_cell_angle_alpha   82.76943096
_cell_angle_beta   97.23056904
_cell_angle_gamma   138.50546090
_symmetry_Int_Tables_number   1
_chemical_formula_structural   Bi4(B2O5)3
_chemical_formula_sum   'Bi8 B12 O30'
_cell_volume   529.83116069
_cell_formula_units_Z   2
loop_
 _symmetry_equiv_pos_site_id
 _symmetry_equiv_pos_as_xyz
  1  'x, y, z'
loop_
 _atom_site_type_symbol
 _atom_site_label
 _atom_site_symmetry_multiplicity
 _atom_site_fract_x
 _atom_site_fract_y
 _atom_site_fract_z
 _atom_site_occupancy
  Bi  Bi0  1  0.942463  0.654138  0.800013  1
  Bi  Bi1  1  0.943005  0.682004  0.594867  1
  Bi  Bi2  1  0.345862  0.057537  0.300013  1
  Bi  Bi3  1  0.317996  0.056995  0.094867  1
  Bi  Bi4  1  0.682004  0.943005  0.905133  1
  Bi  Bi5  1  0.654138  0.942463  0.699987  1
  Bi  Bi6  1  0.056995  0.317996  0.405133  1
  Bi  Bi7  1  0.057537  0.345862  0.199987  1
  B  B8  1  0.393473  0.193081  0.911970  1
  B  B9  1  0.337825  0.209012  0.695216  1
  B  B10  1  0.965747  0.625404  0.972171  1
  B  B11  1  0.806919  0.606527  0.411970  1
  B  B12  1  0.790988  0.662175  0.195216  1
  B  B13  1  0.374596  0.034253  0.472171  1
  B  B14  1  0.625404  0.965747  0.527829  1
  B  B15  1  0.209012  0.337825  0.804784  1
  B  B16  1  0.193081  0.393473  0.588030  1
  B  B17  1  0.034253  0.374596  0.027829  1
  B  B18  1  0.662175  0.790988  0.304784  1
  B  B19  1  0.606527  0.806919  0.088030  1
  O  O20  1  0.197117  0.176124  0.625298  1
  O  O21  1  0.690144  0.514138  0.934587  1
  O  O22  1  0.661359  0.516430  0.698781  1
  O  O23  1  0.227629  0.968956  0.971810  1
  O  O24  1  0.823876  0.802883  0.125298  1
  O  O25  1  0.485862  0.309856  0.434587  1
  O  O26  1  0.460216  0.095377  0.862005  1
  O  O27  1  0.483570  0.338641  0.198781  1
  O  O28  1  0.031044  0.772371  0.471810  1
  O  O29  1  0.291261  0.942384  0.706076  1
  O  O30  1  0.487003  0.066959  0.548132  1
  O  O31  1  0.066959  0.487003  0.951868  1
  O  O32  1  0.904623  0.539784  0.362005  1
  O  O33  1  0.057616  0.708739  0.206076  1
  O  O34  1  0.942384  0.291261  0.793924  1
  O  O35  1  0.095377  0.460216  0.637995  1
  O  O36  1  0.933041  0.512997  0.048132  1
  O  O37  1  0.512997  0.933041  0.451868  1
  O  O38  1  0.708739  0.057616  0.293924  1
  O  O39  1  0.968956  0.227629  0.528190  1
  O  O40  1  0.516430  0.661359  0.801219  1
  O  O41  1  0.539784  0.904623  0.137995  1
  O  O42  1  0.514138  0.690144  0.565413  1
  O  O43  1  0.176124  0.197117  0.874702  1
  O  O44  1  0.145346  0.145346  0.750000  1
  O  O45  1  0.772371  0.031044  0.028190  1
  O  O46  1  0.338641  0.483570  0.301219  1
  O  O47  1  0.309856  0.485862  0.065413  1
  O  O48  1  0.802883  0.823876  0.374702  1
  O  O49  1  0.854654  0.854654  0.250000  1
