# generated using pymatgen
data_Li2Cu3F8
_symmetry_space_group_name_H-M   'P 1'
_cell_length_a   8.53190259
_cell_length_b   8.53190259
_cell_length_c   8.53190259
_cell_angle_alpha   90.00000000
_cell_angle_beta   90.00000000
_cell_angle_gamma   90.00000000
_symmetry_Int_Tables_number   1
_chemical_formula_structural   Li2Cu3F8
_chemical_formula_sum   'Li8 Cu12 F32'
_cell_volume   621.06587212
_cell_formula_units_Z   4
loop_
 _symmetry_equiv_pos_site_id
 _symmetry_equiv_pos_as_xyz
  1  'x, y, z'
loop_
 _atom_site_type_symbol
 _atom_site_label
 _atom_site_symmetry_multiplicity
 _atom_site_fract_x
 _atom_site_fract_y
 _atom_site_fract_z
 _atom_site_occupancy
  Li  Li0  1  0.007101  0.492899  0.507101  1
  Li  Li1  1  0.242899  0.742899  0.757101  1
  Li  Li2  1  0.257101  0.257101  0.257101  1
  Li  Li3  1  0.492899  0.507101  0.007101  1
  Li  Li4  1  0.507101  0.007101  0.492899  1
  Li  Li5  1  0.742899  0.757101  0.242899  1
  Li  Li6  1  0.757101  0.242899  0.742899  1
  Li  Li7  1  0.992899  0.992899  0.992899  1
  Cu  Cu8  1  0.109591  0.625000  0.140409  1
  Cu  Cu9  1  0.125000  0.359591  0.890409  1
  Cu  Cu10  1  0.140409  0.109591  0.625000  1
  Cu  Cu11  1  0.359591  0.890409  0.125000  1
  Cu  Cu12  1  0.375000  0.640409  0.390409  1
  Cu  Cu13  1  0.390409  0.375000  0.640409  1
  Cu  Cu14  1  0.609591  0.875000  0.859591  1
  Cu  Cu15  1  0.625000  0.140409  0.109591  1
  Cu  Cu16  1  0.640409  0.390409  0.375000  1
  Cu  Cu17  1  0.859591  0.609591  0.875000  1
  Cu  Cu18  1  0.875000  0.859591  0.609591  1
  Cu  Cu19  1  0.890409  0.125000  0.359591  1
  F  F20  1  0.105538  0.873769  0.631456  1
  F  F21  1  0.111988  0.611988  0.888012  1
  F  F22  1  0.118544  0.123769  0.855538  1
  F  F23  1  0.126231  0.131456  0.394462  1
  F  F24  1  0.123769  0.855538  0.118544  1
  F  F25  1  0.131456  0.394462  0.126231  1
  F  F26  1  0.138012  0.361988  0.638012  1
  F  F27  1  0.144462  0.618544  0.376231  1
  F  F28  1  0.355538  0.381456  0.876231  1
  F  F29  1  0.361988  0.638012  0.138012  1
  F  F30  1  0.368544  0.605538  0.626231  1
  F  F31  1  0.376231  0.144462  0.618544  1
  F  F32  1  0.373769  0.868544  0.894462  1
  F  F33  1  0.381456  0.876231  0.355538  1
  F  F34  1  0.388012  0.388012  0.388012  1
  F  F35  1  0.394462  0.126231  0.131456  1
  F  F36  1  0.605538  0.626231  0.368544  1
  F  F37  1  0.611988  0.888012  0.111988  1
  F  F38  1  0.618544  0.376231  0.144462  1
  F  F39  1  0.626231  0.368544  0.605538  1
  F  F40  1  0.623769  0.644462  0.881456  1
  F  F41  1  0.631456  0.105538  0.873769  1
  F  F42  1  0.638012  0.138012  0.361988  1
  F  F43  1  0.644462  0.881456  0.623769  1
  F  F44  1  0.855538  0.118544  0.123769  1
  F  F45  1  0.861988  0.861988  0.861988  1
  F  F46  1  0.868544  0.894462  0.373769  1
  F  F47  1  0.876231  0.355538  0.381456  1
  F  F48  1  0.873769  0.631456  0.105538  1
  F  F49  1  0.881456  0.623769  0.644462  1
  F  F50  1  0.888012  0.111988  0.611988  1
  F  F51  1  0.894462  0.373769  0.868544  1
