# generated using pymatgen
data_Li2CoP2O7
_symmetry_space_group_name_H-M   'P 1'
_cell_length_a   5.01727879
_cell_length_b   8.34862563
_cell_length_c   7.11100903
_cell_angle_alpha   90.00000000
_cell_angle_beta   109.31084925
_cell_angle_gamma   90.00000000
_symmetry_Int_Tables_number   1
_chemical_formula_structural   Li2CoP2O7
_chemical_formula_sum   'Li4 Co2 P4 O14'
_cell_volume   281.10337128
_cell_formula_units_Z   2
loop_
 _symmetry_equiv_pos_site_id
 _symmetry_equiv_pos_as_xyz
  1  'x, y, z'
loop_
 _atom_site_type_symbol
 _atom_site_label
 _atom_site_symmetry_multiplicity
 _atom_site_fract_x
 _atom_site_fract_y
 _atom_site_fract_z
 _atom_site_occupancy
  Li  Li0  1  0.830984  0.853992  0.349571  1
  Li  Li1  1  0.348575  0.677194  0.079048  1
  Li  Li2  1  0.651425  0.177194  0.920952  1
  Li  Li3  1  0.169016  0.353992  0.650429  1
  Co  Co4  1  0.797972  0.495815  0.279452  1
  Co  Co5  1  0.202028  0.995815  0.720548  1
  P  P6  1  0.610498  0.186134  0.482583  1
  P  P7  1  0.789174  0.792250  0.914908  1
  P  P8  1  0.210826  0.292250  0.085092  1
  P  P9  1  0.389502  0.686134  0.517417  1
  O  O10  1  0.924787  0.316314  0.115751  1
  O  O11  1  0.824207  0.702188  0.109546  1
  O  O12  1  0.798951  0.038256  0.512432  1
  O  O13  1  0.772240  0.342926  0.498086  1
  O  O14  1  0.569751  0.688661  0.378499  1
  O  O15  1  0.377260  0.447305  0.092028  1
  O  O16  1  0.398708  0.169792  0.254437  1
  O  O17  1  0.601292  0.669792  0.745563  1
  O  O18  1  0.622740  0.947305  0.907972  1
  O  O19  1  0.430249  0.188661  0.621501  1
  O  O20  1  0.227760  0.842926  0.501914  1
  O  O21  1  0.201049  0.538256  0.487568  1
  O  O22  1  0.175793  0.202188  0.890454  1
  O  O23  1  0.075213  0.816314  0.884249  1
