# generated using pymatgen
data_Ho2(SeO3)3
_symmetry_space_group_name_H-M   'P 1'
_cell_length_a   8.53378406
_cell_length_b   8.53378406
_cell_length_c   8.18910659
_cell_angle_alpha   90.00000000
_cell_angle_beta   90.00000000
_cell_angle_gamma   120.00000000
_symmetry_Int_Tables_number   1
_chemical_formula_structural   Ho2(SeO3)3
_chemical_formula_sum   'Ho4 Se6 O18'
_cell_volume   516.47636767
_cell_formula_units_Z   2
loop_
 _symmetry_equiv_pos_site_id
 _symmetry_equiv_pos_as_xyz
  1  'x, y, z'
loop_
 _atom_site_type_symbol
 _atom_site_label
 _atom_site_symmetry_multiplicity
 _atom_site_fract_x
 _atom_site_fract_y
 _atom_site_fract_z
 _atom_site_occupancy
  Ho  Ho0  1  0.333333  0.666667  0.039319  1
  Ho  Ho1  1  0.333333  0.666667  0.460681  1
  Ho  Ho2  1  0.666667  0.333333  0.539319  1
  Ho  Ho3  1  0.666667  0.333333  0.960681  1
  Se  Se4  1  0.029250  0.732602  0.750000  1
  Se  Se5  1  0.267398  0.296648  0.750000  1
  Se  Se6  1  0.703352  0.970750  0.750000  1
  Se  Se7  1  0.296648  0.029250  0.250000  1
  Se  Se8  1  0.732602  0.703352  0.250000  1
  Se  Se9  1  0.970750  0.267398  0.250000  1
  O  O10  1  0.161695  0.750318  0.913375  1
  O  O11  1  0.161695  0.750318  0.586625  1
  O  O12  1  0.129606  0.500470  0.250000  1
  O  O13  1  0.370864  0.870394  0.250000  1
  O  O14  1  0.249682  0.411376  0.586625  1
  O  O15  1  0.249682  0.411376  0.913375  1
  O  O16  1  0.588624  0.838305  0.586625  1
  O  O17  1  0.588624  0.838305  0.913375  1
  O  O18  1  0.499530  0.629136  0.250000  1
  O  O19  1  0.500470  0.370864  0.750000  1
  O  O20  1  0.411376  0.161695  0.413375  1
  O  O21  1  0.411376  0.161695  0.086625  1
  O  O22  1  0.750318  0.588624  0.086625  1
  O  O23  1  0.750318  0.588624  0.413375  1
  O  O24  1  0.629136  0.129606  0.750000  1
  O  O25  1  0.870394  0.499530  0.750000  1
  O  O26  1  0.838305  0.249682  0.086625  1
  O  O27  1  0.838305  0.249682  0.413375  1
