# generated using pymatgen
data_Li10Ti4O13
_symmetry_space_group_name_H-M   'P 1'
_cell_length_a   7.78479538
_cell_length_b   8.95331295
_cell_length_c   10.74095872
_cell_angle_alpha   66.11674270
_cell_angle_beta   71.97348690
_cell_angle_gamma   76.12303604
_symmetry_Int_Tables_number   1
_chemical_formula_structural   Li10Ti4O13
_chemical_formula_sum   'Li20 Ti8 O26'
_cell_volume   645.26228439
_cell_formula_units_Z   2
loop_
 _symmetry_equiv_pos_site_id
 _symmetry_equiv_pos_as_xyz
  1  'x, y, z'
loop_
 _atom_site_type_symbol
 _atom_site_label
 _atom_site_symmetry_multiplicity
 _atom_site_fract_x
 _atom_site_fract_y
 _atom_site_fract_z
 _atom_site_occupancy
  Li  Li0  1  0.516916  0.614640  0.097497  1
  Li  Li1  1  0.140522  0.538364  0.113782  1
  Li  Li2  1  0.191909  0.204591  0.034267  1
  Li  Li3  1  0.794333  0.061205  0.092829  1
  Li  Li4  1  0.487682  0.959090  0.130269  1
  Li  Li5  1  0.989830  0.304344  0.422593  1
  Li  Li6  1  0.399400  0.505458  0.373156  1
  Li  Li7  1  0.107519  0.027155  0.386420  1
  Li  Li8  1  0.638129  0.213196  0.521874  1
  Li  Li9  1  0.757909  0.927106  0.396407  1
  Li  Li10  1  0.242091  0.072894  0.603593  1
  Li  Li11  1  0.361871  0.786804  0.478126  1
  Li  Li12  1  0.892481  0.972845  0.613580  1
  Li  Li13  1  0.600600  0.494542  0.626844  1
  Li  Li14  1  0.010170  0.695656  0.577407  1
  Li  Li15  1  0.512318  0.040910  0.869731  1
  Li  Li16  1  0.205667  0.938795  0.907171  1
  Li  Li17  1  0.808091  0.795409  0.965733  1
  Li  Li18  1  0.859478  0.461636  0.886218  1
  Li  Li19  1  0.483084  0.385360  0.902503  1
  Ti  Ti20  1  0.751516  0.671020  0.277275  1
  Ti  Ti21  1  0.816352  0.311379  0.219152  1
  Ti  Ti22  1  0.406195  0.246963  0.242295  1
  Ti  Ti23  1  0.151700  0.798406  0.230576  1
  Ti  Ti24  1  0.848300  0.201594  0.769424  1
  Ti  Ti25  1  0.593805  0.753037  0.757705  1
  Ti  Ti26  1  0.183648  0.688621  0.780848  1
  Ti  Ti27  1  0.248484  0.328980  0.722725  1
  O  O28  1  0.625557  0.747160  0.148981  1
  O  O29  1  0.256675  0.600371  0.222437  1
  O  O30  1  0.307965  0.340500  0.091416  1
  O  O31  1  0.917716  0.272733  0.058642  1
  O  O32  1  0.898164  0.471138  0.257130  1
  O  O33  1  0.566864  0.381058  0.244735  1
  O  O34  1  0.261522  0.960485  0.078813  1
  O  O35  1  0.557043  0.064086  0.229802  1
  O  O36  1  0.228059  0.182612  0.403013  1
  O  O37  1  0.854589  0.130235  0.368453  1
  O  O38  1  0.896125  0.832772  0.241949  1
  O  O39  1  0.175109  0.801991  0.392690  1
  O  O40  1  0.410129  0.352368  0.558632  1
  O  O41  1  0.589871  0.647632  0.441368  1
  O  O42  1  0.824891  0.198009  0.607310  1
  O  O43  1  0.103875  0.167228  0.758051  1
  O  O44  1  0.145411  0.869765  0.631547  1
  O  O45  1  0.771941  0.817388  0.596987  1
  O  O46  1  0.442957  0.935914  0.770198  1
  O  O47  1  0.738478  0.039515  0.921187  1
  O  O48  1  0.433136  0.618942  0.755265  1
  O  O49  1  0.101836  0.528862  0.742870  1
  O  O50  1  0.082284  0.727267  0.941358  1
  O  O51  1  0.692035  0.659500  0.908584  1
  O  O52  1  0.743325  0.399629  0.777563  1
  O  O53  1  0.374443  0.252840  0.851019  1
