# generated using pymatgen
data_Li3Mn2Fe(BO3)3
_symmetry_space_group_name_H-M   'P 1'
_cell_length_a   8.25024308
_cell_length_b   3.16968186
_cell_length_c   14.31506261
_cell_angle_alpha   90.00000000
_cell_angle_beta   90.04609885
_cell_angle_gamma   90.00000000
_symmetry_Int_Tables_number   1
_chemical_formula_structural   Li3Mn2Fe(BO3)3
_chemical_formula_sum   'Li6 Mn4 Fe2 B6 O18'
_cell_volume   374.34801147
_cell_formula_units_Z   2
loop_
 _symmetry_equiv_pos_site_id
 _symmetry_equiv_pos_as_xyz
  1  'x, y, z'
loop_
 _atom_site_type_symbol
 _atom_site_label
 _atom_site_symmetry_multiplicity
 _atom_site_fract_x
 _atom_site_fract_y
 _atom_site_fract_z
 _atom_site_occupancy
  Li  Li0  1  0.707046  0.500000  0.010002  1
  Li  Li1  1  0.659299  0.500000  0.641457  1
  Li  Li2  1  0.633171  0.500000  0.348512  1
  Li  Li3  1  0.206954  0.500000  0.507056  1
  Li  Li4  1  0.158638  0.500000  0.143184  1
  Li  Li5  1  0.132878  0.500000  0.849692  1
  Mn  Mn6  1  0.865895  0.000000  0.493419  1
  Mn  Mn7  1  0.808431  0.000000  0.820284  1
  Mn  Mn8  1  0.365538  0.000000  0.994644  1
  Mn  Mn9  1  0.326207  0.000000  0.685435  1
  Fe  Fe10  1  0.824696  0.000000  0.183382  1
  Fe  Fe11  1  0.312780  0.000000  0.320569  1
  B  B12  1  0.000549  0.500000  0.331692  1
  B  B13  1  0.000562  0.000000  0.001140  1
  B  B14  1  0.000051  0.500000  0.666521  1
  B  B15  1  0.500056  0.500000  0.833589  1
  B  B16  1  0.498471  0.000000  0.499715  1
  B  B17  1  0.500961  0.500000  0.167854  1
  O  O18  1  0.990141  0.500000  0.569859  1
  O  O19  1  0.981700  0.500000  0.235195  1
  O  O20  1  0.862855  0.500000  0.388843  1
  O  O21  1  0.859442  0.500000  0.720022  1
  O  O22  1  0.846260  0.000000  0.041570  1
  O  O23  1  0.652632  0.500000  0.875416  1
  O  O24  1  0.653203  0.500000  0.209508  1
  O  O25  1  0.635589  0.000000  0.556464  1
  O  O26  1  0.514625  0.000000  0.402511  1
  O  O27  1  0.488616  0.500000  0.070882  1
  O  O28  1  0.486615  0.500000  0.736643  1
  O  O29  1  0.361429  0.500000  0.888883  1
  O  O30  1  0.361621  0.500000  0.222369  1
  O  O31  1  0.344528  0.000000  0.539381  1
  O  O32  1  0.154351  0.500000  0.371717  1
  O  O33  1  0.150283  0.500000  0.710310  1
  O  O34  1  0.136905  0.000000  0.058073  1
  O  O35  1  0.017021  0.000000  0.904205  1
