# generated using pymatgen
data_V4O5F7
_symmetry_space_group_name_H-M   'P 1'
_cell_length_a   5.41679159
_cell_length_b   5.18995835
_cell_length_c   7.44387926
_cell_angle_alpha   90.00000000
_cell_angle_beta   92.99509369
_cell_angle_gamma   90.00000000
_symmetry_Int_Tables_number   1
_chemical_formula_structural   V4O5F7
_chemical_formula_sum   'V4 O5 F7'
_cell_volume   208.98334344
_cell_formula_units_Z   1
loop_
 _symmetry_equiv_pos_site_id
 _symmetry_equiv_pos_as_xyz
  1  'x, y, z'
loop_
 _atom_site_type_symbol
 _atom_site_label
 _atom_site_symmetry_multiplicity
 _atom_site_fract_x
 _atom_site_fract_y
 _atom_site_fract_z
 _atom_site_occupancy
  V  V0  1  0.475526  0.469212  0.755958  1
  V  V1  1  0.524474  0.469212  0.244042  1
  V  V2  1  0.965233  0.971370  0.758819  1
  V  V3  1  0.034767  0.971370  0.241181  1
  O  O4  1  0.296113  0.217712  0.793792  1
  O  O5  1  0.703887  0.217712  0.206208  1
  O  O6  1  0.293696  0.805757  0.288241  1
  O  O7  1  0.706304  0.805757  0.711759  1
  O  O8  1  0.000000  0.922384  0.000000  1
  F  F9  1  0.000000  0.087197  0.500000  1
  F  F10  1  0.197407  0.305537  0.202454  1
  F  F11  1  0.802593  0.305537  0.797546  1
  F  F12  1  0.500000  0.410307  0.500000  1
  F  F13  1  0.500000  0.610222  0.000000  1
  F  F14  1  0.204841  0.715357  0.696461  1
  F  F15  1  0.795159  0.715357  0.303539  1
