# generated using pymatgen
data_Li4Ti2V3Cr4O18
_symmetry_space_group_name_H-M   'P 1'
_cell_length_a   2.97694480
_cell_length_b   8.96260863
_cell_length_c   24.98488601
_cell_angle_alpha   90.00000000
_cell_angle_beta   90.00000000
_cell_angle_gamma   90.00000000
_symmetry_Int_Tables_number   1
_chemical_formula_structural   Li4Ti2V3Cr4O18
_chemical_formula_sum   'Li8 Ti4 V6 Cr8 O36'
_cell_volume   666.62651981
_cell_formula_units_Z   2
loop_
 _symmetry_equiv_pos_site_id
 _symmetry_equiv_pos_as_xyz
  1  'x, y, z'
loop_
 _atom_site_type_symbol
 _atom_site_label
 _atom_site_symmetry_multiplicity
 _atom_site_fract_x
 _atom_site_fract_y
 _atom_site_fract_z
 _atom_site_occupancy
  Li  Li0  1  0.000000  0.187791  0.493810  1
  Li  Li1  1  0.000000  0.208038  0.690039  1
  Li  Li2  1  0.000000  0.291962  0.190039  1
  Li  Li3  1  0.000000  0.312209  0.993810  1
  Li  Li4  1  0.000000  0.687791  0.006190  1
  Li  Li5  1  0.000000  0.708038  0.809961  1
  Li  Li6  1  0.000000  0.791962  0.309961  1
  Li  Li7  1  0.000000  0.812209  0.506190  1
  Ti  Ti8  1  0.000000  0.993161  0.602586  1
  Ti  Ti9  1  0.000000  0.506839  0.102586  1
  Ti  Ti10  1  0.000000  0.493161  0.897414  1
  Ti  Ti11  1  0.000000  0.006839  0.397414  1
  V  V12  1  0.000000  0.000000  0.000000  1
  V  V13  1  0.500000  0.145366  0.302550  1
  V  V14  1  0.500000  0.354634  0.802550  1
  V  V15  1  0.000000  0.500000  0.500000  1
  V  V16  1  0.500000  0.645366  0.197450  1
  V  V17  1  0.500000  0.854634  0.697450  1
  Cr  Cr18  1  0.000000  0.019082  0.810621  1
  Cr  Cr19  1  0.500000  0.148371  0.086282  1
  Cr  Cr20  1  0.500000  0.351629  0.586282  1
  Cr  Cr21  1  0.000000  0.480918  0.310621  1
  Cr  Cr22  1  0.000000  0.519082  0.689379  1
  Cr  Cr23  1  0.500000  0.648371  0.413718  1
  Cr  Cr24  1  0.500000  0.851629  0.913718  1
  Cr  Cr25  1  0.000000  0.980918  0.189379  1
  O  O26  1  0.000000  0.999536  0.924184  1
  O  O27  1  0.000000  0.000464  0.075816  1
  O  O28  1  0.500000  0.060786  0.441760  1
  O  O29  1  0.500000  0.045831  0.659751  1
  O  O30  1  0.500000  0.113267  0.164644  1
  O  O31  1  0.000000  0.090833  0.256244  1
  O  O32  1  0.500000  0.150439  0.004678  1
  O  O33  1  0.500000  0.152478  0.784826  1
  O  O34  1  0.000000  0.187731  0.353681  1
  O  O35  1  0.000000  0.201872  0.585670  1
  O  O36  1  0.000000  0.298128  0.085670  1
  O  O37  1  0.000000  0.312269  0.853681  1
  O  O38  1  0.500000  0.347522  0.284826  1
  O  O39  1  0.500000  0.349561  0.504678  1
  O  O40  1  0.000000  0.409167  0.756244  1
  O  O41  1  0.500000  0.386733  0.664644  1
  O  O42  1  0.500000  0.454169  0.159751  1
  O  O43  1  0.500000  0.439214  0.941760  1
  O  O44  1  0.000000  0.499536  0.575816  1
  O  O45  1  0.000000  0.500464  0.424184  1
  O  O46  1  0.500000  0.560786  0.058240  1
  O  O47  1  0.500000  0.545831  0.840249  1
  O  O48  1  0.500000  0.613267  0.335356  1
  O  O49  1  0.000000  0.590833  0.243756  1
  O  O50  1  0.500000  0.650439  0.495322  1
  O  O51  1  0.500000  0.652478  0.715174  1
  O  O52  1  0.000000  0.687731  0.146319  1
  O  O53  1  0.000000  0.701872  0.914330  1
  O  O54  1  0.000000  0.798128  0.414330  1
  O  O55  1  0.000000  0.812269  0.646319  1
  O  O56  1  0.500000  0.847522  0.215174  1
  O  O57  1  0.500000  0.849561  0.995322  1
  O  O58  1  0.000000  0.909167  0.743756  1
  O  O59  1  0.500000  0.886733  0.835356  1
  O  O60  1  0.500000  0.954169  0.340249  1
  O  O61  1  0.500000  0.939214  0.558240  1
