# generated using pymatgen
data_Li2MnF4
_symmetry_space_group_name_H-M   'P 1'
_cell_length_a   8.10741287
_cell_length_b   8.10741287
_cell_length_c   8.10741287
_cell_angle_alpha   136.10334638
_cell_angle_beta   115.58322131
_cell_angle_gamma   81.23319646
_symmetry_Int_Tables_number   1
_chemical_formula_structural   Li2MnF4
_chemical_formula_sum   'Li8 Mn4 F16'
_cell_volume   322.35028403
_cell_formula_units_Z   4
loop_
 _symmetry_equiv_pos_site_id
 _symmetry_equiv_pos_as_xyz
  1  'x, y, z'
loop_
 _atom_site_type_symbol
 _atom_site_label
 _atom_site_symmetry_multiplicity
 _atom_site_fract_x
 _atom_site_fract_y
 _atom_site_fract_z
 _atom_site_occupancy
  Li  Li0  1  0.000000  0.000000  0.000000  1
  Li  Li1  1  0.887234  0.887234  0.500000  1
  Li  Li2  1  0.112766  0.612766  0.000000  1
  Li  Li3  1  0.500000  0.500000  0.000000  1
  Li  Li4  1  0.245290  0.250000  0.995290  1
  Li  Li5  1  0.754710  0.750000  0.004710  1
  Li  Li6  1  0.887234  0.387234  0.000000  1
  Li  Li7  1  0.112766  0.112766  0.500000  1
  Mn  Mn8  1  0.509606  0.887839  0.621768  1
  Mn  Mn9  1  0.233929  0.612161  0.621768  1
  Mn  Mn10  1  0.766071  0.387839  0.378232  1
  Mn  Mn11  1  0.490394  0.112161  0.378232  1
  F  F12  1  0.113857  0.895662  0.761677  1
  F  F13  1  0.778818  0.017057  0.761761  1
  F  F14  1  0.507629  0.750000  0.757629  1
  F  F15  1  0.633984  0.852180  0.238323  1
  F  F16  1  0.366016  0.604338  0.218196  1
  F  F17  1  0.113857  0.352180  0.218196  1
  F  F18  1  0.244705  0.482943  0.761761  1
  F  F19  1  0.987049  0.750000  0.237049  1
  F  F20  1  0.012951  0.250000  0.762951  1
  F  F21  1  0.755295  0.517057  0.238239  1
  F  F22  1  0.886143  0.647820  0.781804  1
  F  F23  1  0.633984  0.395662  0.781804  1
  F  F24  1  0.366016  0.147820  0.761677  1
  F  F25  1  0.221182  0.982943  0.238239  1
  F  F26  1  0.492371  0.250000  0.242371  1
  F  F27  1  0.886143  0.104338  0.238323  1
