# generated using pymatgen
data_Ti3MnO8
_symmetry_space_group_name_H-M   'P 1'
_cell_length_a   5.93879589
_cell_length_b   5.93879589
_cell_length_c   8.91597581
_cell_angle_alpha   90.00000000
_cell_angle_beta   90.00000000
_cell_angle_gamma   120.00000000
_symmetry_Int_Tables_number   1
_chemical_formula_structural   Ti3MnO8
_chemical_formula_sum   'Ti6 Mn2 O16'
_cell_volume   272.33051803
_cell_formula_units_Z   2
loop_
 _symmetry_equiv_pos_site_id
 _symmetry_equiv_pos_as_xyz
  1  'x, y, z'
loop_
 _atom_site_type_symbol
 _atom_site_label
 _atom_site_symmetry_multiplicity
 _atom_site_fract_x
 _atom_site_fract_y
 _atom_site_fract_z
 _atom_site_occupancy
  Ti  Ti0  1  0.166463  0.833537  0.206205  1
  Ti  Ti1  1  0.166463  0.332926  0.206205  1
  Ti  Ti2  1  0.667074  0.833537  0.206205  1
  Ti  Ti3  1  0.332926  0.166463  0.706205  1
  Ti  Ti4  1  0.833537  0.667074  0.706205  1
  Ti  Ti5  1  0.833537  0.166463  0.706205  1
  Mn  Mn6  1  0.333333  0.666667  0.482316  1
  Mn  Mn7  1  0.666667  0.333333  0.982316  1
  O  O8  1  0.172962  0.827038  0.605960  1
  O  O9  1  0.053048  0.526524  0.343435  1
  O  O10  1  0.333333  0.666667  0.096032  1
  O  O11  1  0.000000  0.000000  0.312721  1
  O  O12  1  0.000000  0.000000  0.812721  1
  O  O13  1  0.172962  0.345924  0.605960  1
  O  O14  1  0.473476  0.946952  0.343435  1
  O  O15  1  0.473476  0.526524  0.343435  1
  O  O16  1  0.345924  0.172962  0.105960  1
  O  O17  1  0.654076  0.827038  0.605960  1
  O  O18  1  0.526524  0.473476  0.843435  1
  O  O19  1  0.526524  0.053048  0.843435  1
  O  O20  1  0.666667  0.333333  0.596032  1
  O  O21  1  0.827038  0.654076  0.105960  1
  O  O22  1  0.946952  0.473476  0.843435  1
  O  O23  1  0.827038  0.172962  0.105960  1
