# generated using pymatgen
data_Li3V2(O2F)2
_symmetry_space_group_name_H-M   'P 1'
_cell_length_a   5.88475816
_cell_length_b   5.96338833
_cell_length_c   7.93093739
_cell_angle_alpha   99.28399710
_cell_angle_beta   101.54073514
_cell_angle_gamma   119.02794655
_symmetry_Int_Tables_number   1
_chemical_formula_structural   Li3V2(O2F)2
_chemical_formula_sum   'Li6 V4 O8 F4'
_cell_volume   227.33408786
_cell_formula_units_Z   2
loop_
 _symmetry_equiv_pos_site_id
 _symmetry_equiv_pos_as_xyz
  1  'x, y, z'
loop_
 _atom_site_type_symbol
 _atom_site_label
 _atom_site_symmetry_multiplicity
 _atom_site_fract_x
 _atom_site_fract_y
 _atom_site_fract_z
 _atom_site_occupancy
  Li  Li0  1  0.481581  0.870447  0.625177  1
  Li  Li1  1  0.006055  0.591098  0.349003  1
  Li  Li2  1  0.055281  0.138182  0.380943  1
  Li  Li3  1  0.993945  0.408902  0.650997  1
  Li  Li4  1  0.518419  0.129553  0.374823  1
  Li  Li5  1  0.944719  0.861818  0.619057  1
  V  V6  1  0.011473  0.257653  0.009905  1
  V  V7  1  0.988527  0.742347  0.990095  1
  V  V8  1  0.505308  0.754008  0.003964  1
  V  V9  1  0.494692  0.245992  0.996036  1
  O  O10  1  0.777920  0.351141  0.860244  1
  O  O11  1  0.780412  0.866043  0.855325  1
  O  O12  1  0.254661  0.847745  0.854271  1
  O  O13  1  0.253825  0.357325  0.864558  1
  O  O14  1  0.745339  0.152255  0.145729  1
  O  O15  1  0.746175  0.642675  0.135442  1
  O  O16  1  0.222080  0.648859  0.139756  1
  O  O17  1  0.219588  0.133957  0.144675  1
  F  F18  1  0.229270  0.503239  0.502429  1
  F  F19  1  0.232003  0.970727  0.487495  1
  F  F20  1  0.767997  0.029273  0.512505  1
  F  F21  1  0.770730  0.496761  0.497571  1
