# generated using pymatgen
data_LiCuC2O5
_symmetry_space_group_name_H-M   'P 1'
_cell_length_a   7.30364191
_cell_length_b   7.30364191
_cell_length_c   10.04410664
_cell_angle_alpha   68.75490510
_cell_angle_beta   111.24509490
_cell_angle_gamma   90.18997363
_symmetry_Int_Tables_number   1
_chemical_formula_structural   LiCuC2O5
_chemical_formula_sum   'Li4 Cu4 C8 O20'
_cell_volume   460.35491906
_cell_formula_units_Z   4
loop_
 _symmetry_equiv_pos_site_id
 _symmetry_equiv_pos_as_xyz
  1  'x, y, z'
loop_
 _atom_site_type_symbol
 _atom_site_label
 _atom_site_symmetry_multiplicity
 _atom_site_fract_x
 _atom_site_fract_y
 _atom_site_fract_z
 _atom_site_occupancy
  Li  Li0  1  0.342986  0.958426  0.643078  1
  Li  Li1  1  0.041574  0.657014  0.143078  1
  Li  Li2  1  0.958426  0.342986  0.856922  1
  Li  Li3  1  0.657014  0.041574  0.356922  1
  Cu  Cu4  1  0.829734  0.829734  0.750000  1
  Cu  Cu5  1  0.379912  0.379912  0.750000  1
  Cu  Cu6  1  0.620088  0.620088  0.250000  1
  Cu  Cu7  1  0.170266  0.170266  0.250000  1
  C  C8  1  0.226364  0.766413  0.898395  1
  C  C9  1  0.600605  0.741497  0.965198  1
  C  C10  1  0.233587  0.773636  0.398395  1
  C  C11  1  0.258503  0.399395  0.465198  1
  C  C12  1  0.741497  0.600605  0.534802  1
  C  C13  1  0.766413  0.226364  0.601605  1
  C  C14  1  0.399395  0.258503  0.034802  1
  C  C15  1  0.773636  0.233587  0.101605  1
  O  O16  1  0.109373  0.712075  0.966370  1
  O  O17  1  0.185109  0.852043  0.757577  1
  O  O18  1  0.287925  0.890627  0.466370  1
  O  O19  1  0.586187  0.816027  0.828321  1
  O  O20  1  0.246664  0.324887  0.910037  1
  O  O21  1  0.147957  0.814891  0.257577  1
  O  O22  1  0.282613  0.569512  0.505234  1
  O  O23  1  0.569512  0.282613  0.994766  1
  O  O24  1  0.183973  0.413813  0.328321  1
  O  O25  1  0.675113  0.753336  0.410037  1
  O  O26  1  0.324887  0.246664  0.589963  1
  O  O27  1  0.816027  0.586187  0.671679  1
  O  O28  1  0.430488  0.717387  0.005234  1
  O  O29  1  0.717387  0.430488  0.494766  1
  O  O30  1  0.852043  0.185109  0.742423  1
  O  O31  1  0.753336  0.675113  0.089963  1
  O  O32  1  0.413813  0.183973  0.171679  1
  O  O33  1  0.712075  0.109373  0.533630  1
  O  O34  1  0.814891  0.147957  0.242423  1
  O  O35  1  0.890627  0.287925  0.033630  1
