# generated using pymatgen
data_Li4V3Cr2Sn3O16
_symmetry_space_group_name_H-M   'P 1'
_cell_length_a   6.09750388
_cell_length_b   6.12163028
_cell_length_c   9.67615037
_cell_angle_alpha   89.62579450
_cell_angle_beta   89.69360107
_cell_angle_gamma   60.23396241
_symmetry_Int_Tables_number   1
_chemical_formula_structural   Li4V3Cr2Sn3O16
_chemical_formula_sum   'Li4 V3 Cr2 Sn3 O16'
_cell_volume   313.51688657
_cell_formula_units_Z   1
loop_
 _symmetry_equiv_pos_site_id
 _symmetry_equiv_pos_as_xyz
  1  'x, y, z'
loop_
 _atom_site_type_symbol
 _atom_site_label
 _atom_site_symmetry_multiplicity
 _atom_site_fract_x
 _atom_site_fract_y
 _atom_site_fract_z
 _atom_site_occupancy
  Li  Li0  1  0.671072  0.653456  0.110020  1
  Li  Li1  1  0.988680  0.022401  0.008165  1
  Li  Li2  1  0.994745  0.014545  0.500021  1
  Li  Li3  1  0.333314  0.331954  0.604603  1
  V  V4  1  0.831331  0.337167  0.786930  1
  V  V5  1  0.661730  0.170203  0.290429  1
  V  V6  1  0.178933  0.162723  0.286198  1
  Cr  Cr7  1  0.672626  0.661558  0.512940  1
  Cr  Cr8  1  0.334437  0.328087  0.016942  1
  Sn  Sn9  1  0.339124  0.828974  0.786630  1
  Sn  Sn10  1  0.831754  0.829184  0.786844  1
  Sn  Sn11  1  0.168483  0.660522  0.286054  1
  O  O12  1  0.330615  0.844499  0.398642  1
  O  O13  1  0.521357  0.959032  0.650952  1
  O  O14  1  0.665646  0.667065  0.903666  1
  O  O15  1  0.000582  0.000019  0.683434  1
  O  O16  1  0.006636  0.006432  0.190835  1
  O  O17  1  0.828546  0.844171  0.399486  1
  O  O18  1  0.525114  0.514428  0.656339  1
  O  O19  1  0.960913  0.515443  0.656951  1
  O  O20  1  0.161769  0.675164  0.908433  1
  O  O21  1  0.848401  0.325952  0.391151  1
  O  O22  1  0.043176  0.467528  0.156993  1
  O  O23  1  0.486251  0.467600  0.157041  1
  O  O24  1  0.321064  0.330441  0.399991  1
  O  O25  1  0.159160  0.169844  0.898030  1
  O  O26  1  0.463340  0.043159  0.165112  1
  O  O27  1  0.670904  0.168449  0.899327  1
