# generated using pymatgen
data_Li8Nb2S9
_symmetry_space_group_name_H-M   'P 1'
_cell_length_a   7.25302004
_cell_length_b   10.91950058
_cell_length_c   18.70398731
_cell_angle_alpha   85.71428072
_cell_angle_beta   79.00565056
_cell_angle_gamma   70.79695476
_symmetry_Int_Tables_number   1
_chemical_formula_structural   Li8Nb2S9
_chemical_formula_sum   'Li32 Nb8 S36'
_cell_volume   1373.12927238
_cell_formula_units_Z   4
loop_
 _symmetry_equiv_pos_site_id
 _symmetry_equiv_pos_as_xyz
  1  'x, y, z'
loop_
 _atom_site_type_symbol
 _atom_site_label
 _atom_site_symmetry_multiplicity
 _atom_site_fract_x
 _atom_site_fract_y
 _atom_site_fract_z
 _atom_site_occupancy
  Li  Li0  1  0.086585  0.125272  0.041281  1
  Li  Li1  1  0.781854  0.627461  0.048943  1
  Li  Li2  1  0.286687  0.625876  0.052748  1
  Li  Li3  1  0.503320  0.123125  0.039451  1
  Li  Li4  1  0.590140  0.400416  0.157812  1
  Li  Li5  1  0.868164  0.851770  0.158340  1
  Li  Li6  1  0.162697  0.626368  0.239507  1
  Li  Li7  1  0.712449  0.634349  0.240840  1
  Li  Li8  1  0.957596  0.125493  0.257031  1
  Li  Li9  1  0.413775  0.118492  0.257806  1
  Li  Li10  1  0.533398  0.342978  0.339413  1
  Li  Li11  1  0.260067  0.891570  0.343469  1
  Li  Li12  1  0.035812  0.630648  0.460517  1
  Li  Li13  1  0.828051  0.122077  0.445784  1
  Li  Li14  1  0.623539  0.624391  0.458085  1
  Li  Li15  1  0.657376  0.869818  0.548432  1
  Li  Li16  1  0.342624  0.130182  0.451568  1
  Li  Li17  1  0.376461  0.375609  0.541915  1
  Li  Li18  1  0.171949  0.877923  0.554216  1
  Li  Li19  1  0.964188  0.369352  0.539483  1
  Li  Li20  1  0.739933  0.108430  0.656531  1
  Li  Li21  1  0.466602  0.657022  0.660587  1
  Li  Li22  1  0.586225  0.881508  0.742194  1
  Li  Li23  1  0.042404  0.874507  0.742969  1
  Li  Li24  1  0.287551  0.365651  0.759160  1
  Li  Li25  1  0.837303  0.373632  0.760493  1
  Li  Li26  1  0.131836  0.148230  0.841660  1
  Li  Li27  1  0.409860  0.599584  0.842188  1
  Li  Li28  1  0.496680  0.876875  0.960549  1
  Li  Li29  1  0.713313  0.374124  0.947252  1
  Li  Li30  1  0.218146  0.372539  0.951057  1
  Li  Li31  1  0.913415  0.874728  0.958719  1
  Nb  Nb32  1  0.344505  0.864752  0.144237  1
  Nb  Nb33  1  0.123454  0.375076  0.136099  1
  Nb  Nb34  1  0.730448  0.871585  0.364739  1
  Nb  Nb35  1  0.005984  0.356206  0.356384  1
  Nb  Nb36  1  0.994016  0.643794  0.643616  1
  Nb  Nb37  1  0.269552  0.128415  0.635261  1
  Nb  Nb38  1  0.876546  0.624924  0.863901  1
  Nb  Nb39  1  0.655495  0.135248  0.855763  1
  S  S40  1  0.162809  0.880630  0.052849  1
  S  S41  1  0.644309  0.887869  0.067218  1
  S  S42  1  0.906736  0.360556  0.059944  1
  S  S43  1  0.414536  0.367787  0.054428  1
  S  S44  1  0.477740  0.637971  0.152549  1
  S  S45  1  0.995206  0.606722  0.141661  1
  S  S46  1  0.234765  0.126771  0.153137  1
  S  S47  1  0.077557  0.878056  0.246938  1
  S  S48  1  0.568254  0.875016  0.254029  1
  S  S49  1  0.828196  0.377766  0.251375  1
  S  S50  1  0.284744  0.376231  0.248774  1
  S  S51  1  0.648949  0.103487  0.344457  1
  S  S52  1  0.880420  0.636381  0.346366  1
  S  S53  1  0.128104  0.133064  0.358355  1
  S  S54  1  0.957937  0.869916  0.442075  1
  S  S55  1  0.216104  0.393539  0.432269  1
  S  S56  1  0.458126  0.866884  0.450299  1
  S  S57  1  0.715358  0.385964  0.442622  1
  S  S58  1  0.284642  0.614036  0.557378  1
  S  S59  1  0.541874  0.133116  0.549701  1
  S  S60  1  0.783896  0.606461  0.567731  1
  S  S61  1  0.042063  0.130084  0.557925  1
  S  S62  1  0.871896  0.866936  0.641645  1
  S  S63  1  0.119580  0.363619  0.653634  1
  S  S64  1  0.351051  0.896513  0.655543  1
  S  S65  1  0.715256  0.623769  0.751226  1
  S  S66  1  0.171804  0.622234  0.748625  1
  S  S67  1  0.431746  0.124984  0.745971  1
  S  S68  1  0.922443  0.121944  0.753062  1
  S  S69  1  0.765235  0.873229  0.846863  1
  S  S70  1  0.004794  0.393278  0.858339  1
  S  S71  1  0.522260  0.362029  0.847451  1
  S  S72  1  0.585464  0.632213  0.945572  1
  S  S73  1  0.093264  0.639444  0.940056  1
  S  S74  1  0.355691  0.112131  0.932782  1
  S  S75  1  0.837191  0.119370  0.947151  1
