# generated using pymatgen
data_Li2FeSiO4
_symmetry_space_group_name_H-M   'P 1'
_cell_length_a   5.39684000
_cell_length_b   5.39684000
_cell_length_c   6.20610880
_cell_angle_alpha   90.00000000
_cell_angle_beta   90.00000000
_cell_angle_gamma   93.08267142
_symmetry_Int_Tables_number   1
_chemical_formula_structural   Li2FeSiO4
_chemical_formula_sum   'Li4 Fe2 Si2 O8'
_cell_volume   180.49683128
_cell_formula_units_Z   2
loop_
 _symmetry_equiv_pos_site_id
 _symmetry_equiv_pos_as_xyz
  1  'x, y, z'
loop_
 _atom_site_type_symbol
 _atom_site_label
 _atom_site_symmetry_multiplicity
 _atom_site_fract_x
 _atom_site_fract_y
 _atom_site_fract_z
 _atom_site_occupancy
  Li  Li0  1  0.325644  0.325644  0.000000  1
  Li  Li1  1  0.809469  0.190531  0.250000  1
  Li  Li2  1  0.190531  0.809469  0.750000  1
  Li  Li3  1  0.674356  0.674356  0.500000  1
  Fe  Fe4  1  0.822215  0.177785  0.750000  1
  Fe  Fe5  1  0.177785  0.822215  0.250000  1
  Si  Si6  1  0.320510  0.320510  0.500000  1
  Si  Si7  1  0.679490  0.679490  1.000000  1
  O  O8  1  0.200685  0.189856  0.720719  1
  O  O9  1  0.189856  0.200685  0.279281  1
  O  O10  1  0.623898  0.290746  0.497503  1
  O  O11  1  0.290746  0.623898  0.502497  1
  O  O12  1  0.709254  0.376102  0.002497  1
  O  O13  1  0.376102  0.709254  0.997503  1
  O  O14  1  0.799315  0.810144  0.220719  1
  O  O15  1  0.810144  0.799315  0.779281  1
