# generated using pymatgen
data_LiFeF4
_symmetry_space_group_name_H-M   'P 1'
_cell_length_a   4.64416359
_cell_length_b   5.02435475
_cell_length_c   12.01138150
_cell_angle_alpha   90.00000000
_cell_angle_beta   90.00000000
_cell_angle_gamma   90.00000000
_symmetry_Int_Tables_number   1
_chemical_formula_structural   LiFeF4
_chemical_formula_sum   'Li4 Fe4 F16'
_cell_volume   280.27267979
_cell_formula_units_Z   4
loop_
 _symmetry_equiv_pos_site_id
 _symmetry_equiv_pos_as_xyz
  1  'x, y, z'
loop_
 _atom_site_type_symbol
 _atom_site_label
 _atom_site_symmetry_multiplicity
 _atom_site_fract_x
 _atom_site_fract_y
 _atom_site_fract_z
 _atom_site_occupancy
  Li  Li0  1  0.000000  0.250000  0.321743  1
  Li  Li1  1  0.000000  0.750000  0.678257  1
  Li  Li2  1  0.500000  0.750000  0.178257  1
  Li  Li3  1  0.500000  0.250000  0.821743  1
  Fe  Fe4  1  0.000000  0.250000  0.076141  1
  Fe  Fe5  1  0.000000  0.750000  0.923859  1
  Fe  Fe6  1  0.500000  0.250000  0.576141  1
  Fe  Fe7  1  0.500000  0.750000  0.423859  1
  F  F8  1  0.771859  0.920538  0.052368  1
  F  F9  1  0.771859  0.420538  0.947632  1
  F  F10  1  0.766348  0.910483  0.815002  1
  F  F11  1  0.766348  0.410483  0.184998  1
  F  F12  1  0.733652  0.910483  0.315002  1
  F  F13  1  0.733652  0.410483  0.684998  1
  F  F14  1  0.728141  0.920538  0.552368  1
  F  F15  1  0.728141  0.420538  0.447632  1
  F  F16  1  0.271859  0.079462  0.447632  1
  F  F17  1  0.271859  0.579462  0.552368  1
  F  F18  1  0.266348  0.089517  0.684998  1
  F  F19  1  0.266348  0.589517  0.315002  1
  F  F20  1  0.233652  0.089517  0.184998  1
  F  F21  1  0.233652  0.589517  0.815002  1
  F  F22  1  0.228141  0.579462  0.052368  1
  F  F23  1  0.228141  0.079462  0.947632  1
