# generated using pymatgen
data_LiCo2OF5
_symmetry_space_group_name_H-M   'P 1'
_cell_length_a   4.49947886
_cell_length_b   8.51243063
_cell_length_c   8.62437403
_cell_angle_alpha   60.48074826
_cell_angle_beta   88.93696134
_cell_angle_gamma   88.02623656
_symmetry_Int_Tables_number   1
_chemical_formula_structural   LiCo2OF5
_chemical_formula_sum   'Li3 Co6 O3 F15'
_cell_volume   287.27584191
_cell_formula_units_Z   3
loop_
 _symmetry_equiv_pos_site_id
 _symmetry_equiv_pos_as_xyz
  1  'x, y, z'
loop_
 _atom_site_type_symbol
 _atom_site_label
 _atom_site_symmetry_multiplicity
 _atom_site_fract_x
 _atom_site_fract_y
 _atom_site_fract_z
 _atom_site_occupancy
  Li  Li0  1  0.494351  0.333821  0.336152  1
  Li  Li1  1  0.007874  0.998967  0.002801  1
  Li  Li2  1  0.489834  0.664269  0.668219  1
  Co  Co3  1  0.988117  0.351745  0.007359  1
  Co  Co4  1  0.514086  0.671517  0.003875  1
  Co  Co5  1  0.986599  0.657933  0.352930  1
  Co  Co6  1  0.512869  0.989521  0.325624  1
  Co  Co7  1  0.513203  0.307004  0.687646  1
  Co  Co8  1  0.985924  0.004780  0.658781  1
  O  O9  1  0.743676  0.462895  0.094057  1
  O  O10  1  0.737237  0.780595  0.427399  1
  O  O11  1  0.765385  0.112800  0.761620  1
  F  F12  1  0.764096  0.119769  0.107548  1
  F  F13  1  0.272631  0.217573  0.218784  1
  F  F14  1  0.744431  0.108263  0.434902  1
  F  F15  1  0.765738  0.776865  0.112315  1
  F  F16  1  0.252599  0.567166  0.226761  1
  F  F17  1  0.261686  0.216200  0.559752  1
  F  F18  1  0.238211  0.883322  0.226439  1
  F  F19  1  0.742749  0.439343  0.451317  1
  F  F20  1  0.263652  0.535789  0.564568  1
  F  F21  1  0.243786  0.899051  0.547864  1
  F  F22  1  0.230582  0.231833  0.893919  1
  F  F23  1  0.737921  0.438865  0.781805  1
  F  F24  1  0.735651  0.784767  0.770226  1
  F  F25  1  0.257149  0.562833  0.891575  1
  F  F26  1  0.249963  0.882514  0.885658  1
