# generated using pymatgen
data_Li4Nb3Co3(TeO8)2
_symmetry_space_group_name_H-M   'P 1'
_cell_length_a   6.17031768
_cell_length_b   6.17031768
_cell_length_c   10.51760331
_cell_angle_alpha   89.29062550
_cell_angle_beta   90.70937450
_cell_angle_gamma   120.58926654
_symmetry_Int_Tables_number   1
_chemical_formula_structural   Li4Nb3Co3(TeO8)2
_chemical_formula_sum   'Li4 Nb3 Co3 Te2 O16'
_cell_volume   344.67424024
_cell_formula_units_Z   1
loop_
 _symmetry_equiv_pos_site_id
 _symmetry_equiv_pos_as_xyz
  1  'x, y, z'
loop_
 _atom_site_type_symbol
 _atom_site_label
 _atom_site_symmetry_multiplicity
 _atom_site_fract_x
 _atom_site_fract_y
 _atom_site_fract_z
 _atom_site_occupancy
  Li  Li0  1  0.664529  0.335471  0.905175  1
  Li  Li1  1  0.001697  0.998303  0.997902  1
  Li  Li2  1  0.006182  0.993818  0.483051  1
  Li  Li3  1  0.336045  0.663955  0.401114  1
  Nb  Nb4  1  0.818957  0.181043  0.234548  1
  Nb  Nb5  1  0.154741  0.349749  0.718844  1
  Nb  Nb6  1  0.650251  0.845259  0.718844  1
  Co  Co7  1  0.343856  0.172214  0.214822  1
  Co  Co8  1  0.827786  0.656144  0.214822  1
  Co  Co9  1  0.185773  0.814227  0.708502  1
  Te  Te10  1  0.636845  0.363155  0.496099  1
  Te  Te11  1  0.327125  0.672875  0.018188  1
  O  O12  1  0.318091  0.181333  0.589553  1
  O  O13  1  0.517525  0.482475  0.352127  1
  O  O14  1  0.677101  0.322899  0.107421  1
  O  O15  1  0.994807  0.005193  0.298353  1
  O  O16  1  0.997895  0.002105  0.810108  1
  O  O17  1  0.818667  0.681909  0.589553  1
  O  O18  1  0.522639  0.013913  0.333598  1
  O  O19  1  0.986087  0.477361  0.333598  1
  O  O20  1  0.165436  0.834564  0.102907  1
  O  O21  1  0.856761  0.143239  0.603647  1
  O  O22  1  0.003792  0.477568  0.826455  1
  O  O23  1  0.522432  0.996208  0.826455  1
  O  O24  1  0.348761  0.651239  0.597406  1
  O  O25  1  0.166486  0.340157  0.102789  1
  O  O26  1  0.486625  0.513375  0.818806  1
  O  O27  1  0.659843  0.833514  0.102789  1
