# generated using pymatgen
data_V3OF11
_symmetry_space_group_name_H-M   'P 1'
_cell_length_a   5.27029525
_cell_length_b   5.45423774
_cell_length_c   14.78977379
_cell_angle_alpha   100.28210762
_cell_angle_beta   90.00861390
_cell_angle_gamma   90.09268326
_symmetry_Int_Tables_number   1
_chemical_formula_structural   V3OF11
_chemical_formula_sum   'V6 O2 F22'
_cell_volume   418.31063940
_cell_formula_units_Z   2
loop_
 _symmetry_equiv_pos_site_id
 _symmetry_equiv_pos_as_xyz
  1  'x, y, z'
loop_
 _atom_site_type_symbol
 _atom_site_label
 _atom_site_symmetry_multiplicity
 _atom_site_fract_x
 _atom_site_fract_y
 _atom_site_fract_z
 _atom_site_occupancy
  V  V0  1  0.990999  0.000185  0.006308  1
  V  V1  1  0.524715  0.125897  0.330373  1
  V  V2  1  0.000035  0.333481  0.667087  1
  V  V3  1  0.496024  0.498089  0.998729  1
  V  V4  1  0.008051  0.655488  0.334384  1
  V  V5  1  0.499875  0.833523  0.667114  1
  O  O6  1  0.918322  0.044812  0.114221  1
  O  O7  1  0.705172  0.874699  0.310877  1
  F  F8  1  0.800912  0.024056  0.642264  1
  F  F9  1  0.707911  0.194077  0.973918  1
  F  F10  1  0.301209  0.143798  0.691615  1
  F  F11  1  0.572561  0.226856  0.449411  1
  F  F12  1  0.912541  0.376626  0.784204  1
  F  F13  1  0.407956  0.135015  0.218466  1
  F  F14  1  0.083776  0.290997  0.549499  1
  F  F15  1  0.417814  0.457336  0.881486  1
  F  F16  1  0.789418  0.357255  0.308824  1
  F  F17  1  0.698832  0.524118  0.642016  1
  F  F18  1  0.797010  0.697664  0.974225  1
  F  F19  1  0.201823  0.303123  0.024427  1
  F  F20  1  0.292700  0.471746  0.356908  1
  F  F21  1  0.199013  0.642749  0.691118  1
  F  F22  1  0.587582  0.542446  0.115525  1
  F  F23  1  0.912120  0.715825  0.450738  1
  F  F24  1  0.586859  0.875130  0.784190  1
  F  F25  1  0.076345  0.628555  0.215581  1
  F  F26  1  0.414214  0.793796  0.549698  1
  F  F27  1  0.090044  0.958259  0.884997  1
  F  F28  1  0.292600  0.804215  0.024499  1
  F  F29  1  0.213565  0.970183  0.357302  1
