# generated using pymatgen
data_Ag7Sb9O25
_symmetry_space_group_name_H-M   'P 1'
_cell_length_a   12.78486175
_cell_length_b   12.78486175
_cell_length_c   12.78486175
_cell_angle_alpha   33.35626580
_cell_angle_beta   33.35626580
_cell_angle_gamma   33.35626580
_symmetry_Int_Tables_number   1
_chemical_formula_structural   Ag7Sb9O25
_chemical_formula_sum   'Ag7 Sb9 O25'
_cell_volume   562.55602424
_cell_formula_units_Z   1
loop_
 _symmetry_equiv_pos_site_id
 _symmetry_equiv_pos_as_xyz
  1  'x, y, z'
loop_
 _atom_site_type_symbol
 _atom_site_label
 _atom_site_symmetry_multiplicity
 _atom_site_fract_x
 _atom_site_fract_y
 _atom_site_fract_z
 _atom_site_occupancy
  Ag  Ag0  1  0.255969  0.746706  0.746706  1
  Ag  Ag1  1  0.746706  0.255969  0.746706  1
  Ag  Ag2  1  0.999854  0.999854  0.999854  1
  Ag  Ag3  1  0.248350  0.750655  0.248350  1
  Ag  Ag4  1  0.248350  0.248350  0.750655  1
  Ag  Ag5  1  0.750655  0.248350  0.248350  1
  Ag  Ag6  1  0.746706  0.746706  0.255969  1
  Sb  Sb7  1  0.486173  0.486173  0.486173  1
  Sb  Sb8  1  0.499689  0.499689  0.999331  1
  Sb  Sb9  1  0.996668  0.996668  0.507576  1
  Sb  Sb10  1  0.507576  0.996668  0.996668  1
  Sb  Sb11  1  0.996668  0.507576  0.996668  1
  Sb  Sb12  1  0.249531  0.249531  0.249531  1
  Sb  Sb13  1  0.499689  0.999331  0.499689  1
  Sb  Sb14  1  0.999331  0.499689  0.499689  1
  Sb  Sb15  1  0.749828  0.749828  0.749828  1
  O  O16  1  0.084138  0.494317  0.084138  1
  O  O17  1  0.219447  0.658349  0.658349  1
  O  O18  1  0.411960  0.411960  0.012154  1
  O  O19  1  0.211116  0.613816  0.211116  1
  O  O20  1  0.658349  0.219447  0.658349  1
  O  O21  1  0.987227  0.586913  0.586913  1
  O  O22  1  0.084138  0.084138  0.494317  1
  O  O23  1  0.787001  0.787001  0.386194  1
  O  O24  1  0.278036  0.278036  0.899351  1
  O  O25  1  0.494317  0.084138  0.084138  1
  O  O26  1  0.386194  0.787001  0.787001  1
  O  O27  1  0.411960  0.012154  0.411960  1
  O  O28  1  0.586913  0.987227  0.586913  1
  O  O29  1  0.211116  0.211116  0.613816  1
  O  O30  1  0.613816  0.211116  0.211116  1
  O  O31  1  0.911481  0.911481  0.515576  1
  O  O32  1  0.844662  0.844662  0.844662  1
  O  O33  1  0.515576  0.911481  0.911481  1
  O  O34  1  0.658349  0.658349  0.219447  1
  O  O35  1  0.012154  0.411960  0.411960  1
  O  O36  1  0.787001  0.386194  0.787001  1
  O  O37  1  0.278036  0.899351  0.278036  1
  O  O38  1  0.899351  0.278036  0.278036  1
  O  O39  1  0.586913  0.586913  0.987227  1
  O  O40  1  0.911481  0.515576  0.911481  1
