# generated using pymatgen
data_La2(BiO2)7
_symmetry_space_group_name_H-M   'P 1'
_cell_length_a   6.93994537
_cell_length_b   6.94844074
_cell_length_c   10.66933958
_cell_angle_alpha   96.97001172
_cell_angle_beta   95.70408333
_cell_angle_gamma   119.13424468
_symmetry_Int_Tables_number   1
_chemical_formula_structural   La2(BiO2)7
_chemical_formula_sum   'La2 Bi7 O14'
_cell_volume   438.56609331
_cell_formula_units_Z   1
loop_
 _symmetry_equiv_pos_site_id
 _symmetry_equiv_pos_as_xyz
  1  'x, y, z'
loop_
 _atom_site_type_symbol
 _atom_site_label
 _atom_site_symmetry_multiplicity
 _atom_site_fract_x
 _atom_site_fract_y
 _atom_site_fract_z
 _atom_site_occupancy
  La  La0  1  0.995124  0.993260  0.985115  1
  La  La1  1  0.665640  0.335243  0.005420  1
  Bi  Bi2  1  0.772502  0.750968  0.302739  1
  Bi  Bi3  1  0.323628  0.654697  0.978118  1
  Bi  Bi4  1  0.546126  0.873155  0.691897  1
  Bi  Bi5  1  0.074207  0.433641  0.296416  1
  Bi  Bi6  1  0.223992  0.246435  0.688929  1
  Bi  Bi7  1  0.923829  0.565698  0.691590  1
  Bi  Bi8  1  0.453066  0.127859  0.302202  1
  O  O9  1  0.716291  0.728289  0.096802  1
  O  O10  1  0.380672  0.404586  0.331351  1
  O  O11  1  0.637982  0.982238  0.902054  1
  O  O12  1  0.633360  0.615759  0.690041  1
  O  O13  1  0.118457  0.805391  0.326367  1
  O  O14  1  0.043350  0.352946  0.091700  1
  O  O15  1  0.260351  0.590717  0.768100  1
  O  O16  1  0.312865  0.300056  0.901548  1
  O  O17  1  0.175628  0.909391  0.695306  1
  O  O18  1  0.736894  0.408480  0.230680  1
  O  O19  1  0.833226  0.112013  0.331146  1
  O  O20  1  0.953114  0.619477  0.902075  1
  O  O21  1  0.884241  0.167994  0.693364  1
  O  O22  1  0.335456  0.021708  0.097040  1
