# generated using pymatgen
data_Li3NbV4O8
_symmetry_space_group_name_H-M   'P 1'
_cell_length_a   6.07664100
_cell_length_b   6.07664100
_cell_length_c   6.10354955
_cell_angle_alpha   60.44129401
_cell_angle_beta   119.55870599
_cell_angle_gamma   119.22505875
_symmetry_Int_Tables_number   1
_chemical_formula_structural   Li3NbV4O8
_chemical_formula_sum   'Li3 Nb1 V4 O8'
_cell_volume   161.35128482
_cell_formula_units_Z   1
loop_
 _symmetry_equiv_pos_site_id
 _symmetry_equiv_pos_as_xyz
  1  'x, y, z'
loop_
 _atom_site_type_symbol
 _atom_site_label
 _atom_site_symmetry_multiplicity
 _atom_site_fract_x
 _atom_site_fract_y
 _atom_site_fract_z
 _atom_site_occupancy
  Li  Li0  1  0.500000  0.000000  0.500000  1
  Li  Li1  1  1.000000  0.500000  0.500000  1
  Li  Li2  1  1.000000  0.000000  0.500000  1
  Nb  Nb3  1  0.500000  0.500000  0.000000  1
  V  V4  1  0.000000  0.000000  0.000000  1
  V  V5  1  0.000000  0.500000  0.000000  1
  V  V6  1  0.500000  1.000000  0.000000  1
  V  V7  1  0.500000  0.500000  0.500000  1
  O  O8  1  0.738192  0.261808  0.235281  1
  O  O9  1  0.742462  0.741364  0.242464  1
  O  O10  1  0.258636  0.257538  0.242464  1
  O  O11  1  0.261808  0.738192  0.764719  1
  O  O12  1  0.250253  0.749747  0.244440  1
  O  O13  1  0.257538  0.258636  0.757536  1
  O  O14  1  0.741364  0.742462  0.757536  1
  O  O15  1  0.749747  0.250253  0.755560  1
