# generated using pymatgen
data_Li4Cr3Ni2Sn3O16
_symmetry_space_group_name_H-M   'P 1'
_cell_length_a   6.05405314
_cell_length_b   6.05405314
_cell_length_c   9.72231478
_cell_angle_alpha   89.21715712
_cell_angle_beta   90.78284288
_cell_angle_gamma   120.02281907
_symmetry_Int_Tables_number   1
_chemical_formula_structural   Li4Cr3Ni2Sn3O16
_chemical_formula_sum   'Li4 Cr3 Ni2 Sn3 O16'
_cell_volume   308.48838561
_cell_formula_units_Z   1
loop_
 _symmetry_equiv_pos_site_id
 _symmetry_equiv_pos_as_xyz
  1  'x, y, z'
loop_
 _atom_site_type_symbol
 _atom_site_label
 _atom_site_symmetry_multiplicity
 _atom_site_fract_x
 _atom_site_fract_y
 _atom_site_fract_z
 _atom_site_occupancy
  Li  Li0  1  0.672309  0.327691  0.112224  1
  Li  Li1  1  0.988867  0.011133  0.005201  1
  Li  Li2  1  0.989347  0.010653  0.498468  1
  Li  Li3  1  0.336581  0.663419  0.604966  1
  Cr  Cr4  1  0.832958  0.167042  0.787335  1
  Cr  Cr5  1  0.664521  0.828960  0.286431  1
  Cr  Cr6  1  0.171040  0.335479  0.286431  1
  Ni  Ni7  1  0.668021  0.331979  0.510385  1
  Ni  Ni8  1  0.332689  0.667311  0.014364  1
  Sn  Sn9  1  0.833173  0.660063  0.784183  1
  Sn  Sn10  1  0.339937  0.166827  0.784183  1
  Sn  Sn11  1  0.171474  0.828526  0.284881  1
  O  O12  1  0.828802  0.684439  0.397158  1
  O  O13  1  0.517402  0.482598  0.657048  1
  O  O14  1  0.673731  0.326269  0.902842  1
  O  O15  1  0.992843  0.007157  0.681349  1
  O  O16  1  0.995098  0.004902  0.187155  1
  O  O17  1  0.315561  0.171198  0.397158  1
  O  O18  1  0.965034  0.465905  0.665375  1
  O  O19  1  0.534095  0.034966  0.665375  1
  O  O20  1  0.156815  0.843185  0.907201  1
  O  O21  1  0.840122  0.159878  0.382733  1
  O  O22  1  0.496156  0.960394  0.165229  1
  O  O23  1  0.039606  0.503844  0.165229  1
  O  O24  1  0.341006  0.658994  0.397497  1
  O  O25  1  0.679397  0.855723  0.892773  1
  O  O26  1  0.479989  0.520011  0.176171  1
  O  O27  1  0.144277  0.320603  0.892773  1
