# generated using pymatgen
data_LiCoPO4
_symmetry_space_group_name_H-M   'P 1'
_cell_length_a   8.48217783
_cell_length_b   8.48217783
_cell_length_c   7.48655769
_cell_angle_alpha   90.00000000
_cell_angle_beta   90.00000000
_cell_angle_gamma   120.00000000
_symmetry_Int_Tables_number   1
_chemical_formula_structural   LiCoPO4
_chemical_formula_sum   'Li6 Co6 P6 O24'
_cell_volume   466.47411987
_cell_formula_units_Z   6
loop_
 _symmetry_equiv_pos_site_id
 _symmetry_equiv_pos_as_xyz
  1  'x, y, z'
loop_
 _atom_site_type_symbol
 _atom_site_label
 _atom_site_symmetry_multiplicity
 _atom_site_fract_x
 _atom_site_fract_y
 _atom_site_fract_z
 _atom_site_occupancy
  Li  Li0  1  0.331906  0.316787  0.592563  1
  Li  Li1  1  0.984881  0.668094  0.592563  1
  Li  Li2  1  0.683213  0.015119  0.592563  1
  Li  Li3  1  0.316787  0.984881  0.092563  1
  Li  Li4  1  0.015119  0.331906  0.092563  1
  Li  Li5  1  0.668094  0.683213  0.092563  1
  Co  Co6  1  0.666667  0.333333  0.702943  1
  Co  Co7  1  0.666667  0.333333  0.300344  1
  Co  Co8  1  0.000000  0.000000  0.860421  1
  Co  Co9  1  0.000000  0.000000  0.360421  1
  Co  Co10  1  0.333333  0.666667  0.202943  1
  Co  Co11  1  0.333333  0.666667  0.800344  1
  P  P12  1  0.361589  0.323043  0.994352  1
  P  P13  1  0.961454  0.638411  0.994352  1
  P  P14  1  0.676957  0.038546  0.994352  1
  P  P15  1  0.323043  0.961454  0.494352  1
  P  P16  1  0.038546  0.361589  0.494352  1
  P  P17  1  0.638411  0.676957  0.494352  1
  O  O18  1  0.217157  0.068978  0.496388  1
  O  O19  1  0.422819  0.276912  0.817299  1
  O  O20  1  0.430901  0.255918  0.151504  1
  O  O21  1  0.578683  0.471048  0.503650  1
  O  O22  1  0.528952  0.107635  0.503650  1
  O  O23  1  0.851821  0.782843  0.496388  1
  O  O24  1  0.825017  0.569099  0.151504  1
  O  O25  1  0.854093  0.577181  0.817299  1
  O  O26  1  0.068978  0.851821  0.996388  1
  O  O27  1  0.723088  0.145907  0.817299  1
  O  O28  1  0.744082  0.174983  0.151504  1
  O  O29  1  0.892365  0.421317  0.503650  1
  O  O30  1  0.107635  0.578683  0.003650  1
  O  O31  1  0.255918  0.825017  0.651504  1
  O  O32  1  0.276912  0.854093  0.317299  1
  O  O33  1  0.931022  0.148179  0.496388  1
  O  O34  1  0.145907  0.422819  0.317299  1
  O  O35  1  0.174983  0.430901  0.651504  1
  O  O36  1  0.148179  0.217157  0.996388  1
  O  O37  1  0.471048  0.892365  0.003650  1
  O  O38  1  0.421317  0.528952  0.003650  1
  O  O39  1  0.569099  0.744082  0.651504  1
  O  O40  1  0.577181  0.723088  0.317299  1
  O  O41  1  0.782843  0.931022  0.996388  1
