# generated using pymatgen
data_Ti3P6WO24
_symmetry_space_group_name_H-M   'P 1'
_cell_length_a   8.85457084
_cell_length_b   8.85457084
_cell_length_c   8.85457084
_cell_angle_alpha   58.49690254
_cell_angle_beta   58.49690254
_cell_angle_gamma   58.49690254
_symmetry_Int_Tables_number   1
_chemical_formula_structural   Ti3P6WO24
_chemical_formula_sum   'Ti3 P6 W1 O24'
_cell_volume   474.01430321
_cell_formula_units_Z   1
loop_
 _symmetry_equiv_pos_site_id
 _symmetry_equiv_pos_as_xyz
  1  'x, y, z'
loop_
 _atom_site_type_symbol
 _atom_site_label
 _atom_site_symmetry_multiplicity
 _atom_site_fract_x
 _atom_site_fract_y
 _atom_site_fract_z
 _atom_site_occupancy
  Ti  Ti0  1  0.859308  0.859308  0.859308  1
  Ti  Ti1  1  0.639862  0.639862  0.639862  1
  Ti  Ti2  1  0.359055  0.359055  0.359055  1
  P  P3  1  0.251116  0.538360  0.965200  1
  P  P4  1  0.965200  0.251116  0.538360  1
  P  P5  1  0.538360  0.965200  0.251116  1
  P  P6  1  0.471445  0.032642  0.744410  1
  P  P7  1  0.032642  0.744410  0.471445  1
  P  P8  1  0.744410  0.471445  0.032642  1
  W  W9  1  0.141282  0.141282  0.141282  1
  O  O10  1  0.723996  0.492249  0.861522  1
  O  O11  1  0.492249  0.861522  0.723996  1
  O  O12  1  0.076179  0.711875  0.937927  1
  O  O13  1  0.861522  0.723996  0.492249  1
  O  O14  1  0.423834  0.558214  0.786252  1
  O  O15  1  0.218059  0.361408  0.999977  1
  O  O16  1  0.937927  0.076179  0.711875  1
  O  O17  1  0.786252  0.423834  0.558214  1
  O  O18  1  0.558214  0.786252  0.423834  1
  O  O19  1  0.635351  0.004005  0.782445  1
  O  O20  1  0.286826  0.064542  0.924219  1
  O  O21  1  0.004005  0.782445  0.635351  1
  O  O22  1  0.999977  0.218059  0.361408  1
  O  O23  1  0.711875  0.937927  0.076179  1
  O  O24  1  0.361408  0.999977  0.218059  1
  O  O25  1  0.434335  0.214745  0.579111  1
  O  O26  1  0.214745  0.579111  0.434335  1
  O  O27  1  0.064542  0.924219  0.286826  1
  O  O28  1  0.782445  0.635351  0.004005  1
  O  O29  1  0.579111  0.434335  0.214745  1
  O  O30  1  0.137575  0.279922  0.502753  1
  O  O31  1  0.924219  0.286826  0.064542  1
  O  O32  1  0.502753  0.137575  0.279922  1
  O  O33  1  0.279922  0.502753  0.137575  1
