# generated using pymatgen
data_KRe4O8F13
_symmetry_space_group_name_H-M   'P 1'
_cell_length_a   14.36436250
_cell_length_b   14.36436250
_cell_length_c   5.50963670
_cell_angle_alpha   80.70681963
_cell_angle_beta   99.29318037
_cell_angle_gamma   158.22479809
_symmetry_Int_Tables_number   1
_chemical_formula_structural   KRe4O8F13
_chemical_formula_sum   'K1 Re4 O8 F13'
_cell_volume   415.98399561
_cell_formula_units_Z   1
loop_
 _symmetry_equiv_pos_site_id
 _symmetry_equiv_pos_as_xyz
  1  'x, y, z'
loop_
 _atom_site_type_symbol
 _atom_site_label
 _atom_site_symmetry_multiplicity
 _atom_site_fract_x
 _atom_site_fract_y
 _atom_site_fract_z
 _atom_site_occupancy
  K  K0  1  0.509617  0.509617  0.500000  1
  Re  Re1  1  0.025991  0.873458  0.084199  1
  Re  Re2  1  0.737595  0.336040  0.616465  1
  Re  Re3  1  0.336040  0.737595  0.383535  1
  Re  Re4  1  0.873458  0.025991  0.915801  1
  O  O5  1  0.859063  0.696720  0.826975  1
  O  O6  1  0.182852  0.915105  0.175437  1
  O  O7  1  0.501106  0.185321  0.693065  1
  O  O8  1  0.994904  0.636631  0.689931  1
  O  O9  1  0.636631  0.994904  0.310069  1
  O  O10  1  0.185321  0.501106  0.306935  1
  O  O11  1  0.915105  0.182852  0.824563  1
  O  O12  1  0.696720  0.859063  0.173025  1
  F  F13  1  0.287780  0.183682  0.909840  1
  F  F14  1  0.144118  0.047553  0.353974  1
  F  F15  1  0.744645  0.587595  0.288753  1
  F  F16  1  0.726208  0.367429  0.276085  1
  F  F17  1  0.743963  0.249035  0.895682  1
  F  F18  1  0.466313  0.987397  0.502875  1
  F  F19  1  0.987397  0.466313  0.497125  1
  F  F20  1  0.249035  0.743963  0.104318  1
  F  F21  1  0.367429  0.726208  0.723915  1
  F  F22  1  0.587595  0.744645  0.711247  1
  F  F23  1  0.047553  0.144118  0.646026  1
  F  F24  1  0.183682  0.287780  0.090160  1
  F  F25  1  0.833930  0.833930  0.000000  1
