# generated using pymatgen
data_LiCoPO4
_symmetry_space_group_name_H-M   'P 1'
_cell_length_a   7.58573463
_cell_length_b   7.58573463
_cell_length_c   9.71994999
_cell_angle_alpha   90.00000000
_cell_angle_beta   90.00000000
_cell_angle_gamma   120.00000000
_symmetry_Int_Tables_number   1
_chemical_formula_structural   LiCoPO4
_chemical_formula_sum   'Li6 Co6 P6 O24'
_cell_volume   484.38418400
_cell_formula_units_Z   6
loop_
 _symmetry_equiv_pos_site_id
 _symmetry_equiv_pos_as_xyz
  1  'x, y, z'
loop_
 _atom_site_type_symbol
 _atom_site_label
 _atom_site_symmetry_multiplicity
 _atom_site_fract_x
 _atom_site_fract_y
 _atom_site_fract_z
 _atom_site_occupancy
  Li  Li0  1  0.056488  0.590962  0.486732  1
  Li  Li1  1  0.534474  0.943512  0.486732  1
  Li  Li2  1  0.409038  0.465526  0.486732  1
  Li  Li3  1  0.465526  0.409038  0.986732  1
  Li  Li4  1  0.590962  0.056488  0.986732  1
  Li  Li5  1  0.943512  0.534474  0.986732  1
  Co  Co6  1  0.223841  0.949491  0.267068  1
  Co  Co7  1  0.050509  0.274350  0.267068  1
  Co  Co8  1  0.274350  0.050509  0.767068  1
  Co  Co9  1  0.725650  0.776159  0.267068  1
  Co  Co10  1  0.776159  0.725650  0.767068  1
  Co  Co11  1  0.949491  0.223841  0.767068  1
  P  P12  1  0.333333  0.666667  0.185830  1
  P  P13  1  0.000000  0.000000  0.001064  1
  P  P14  1  0.000000  0.000000  0.501064  1
  P  P15  1  0.333333  0.666667  0.769972  1
  P  P16  1  0.666667  0.333333  0.685830  1
  P  P17  1  0.666667  0.333333  0.269972  1
  O  O18  1  0.085463  0.864952  0.449274  1
  O  O19  1  0.190761  0.744437  0.131049  1
  O  O20  1  0.376894  0.876462  0.828548  1
  O  O21  1  0.123538  0.500433  0.828548  1
  O  O22  1  0.255563  0.446324  0.131049  1
  O  O23  1  0.333333  0.666667  0.344309  1
  O  O24  1  0.000000  0.000000  0.165888  1
  O  O25  1  0.000000  0.000000  0.665888  1
  O  O26  1  0.333333  0.666667  0.612017  1
  O  O27  1  0.135048  0.220511  0.449274  1
  O  O28  1  0.220511  0.135048  0.949274  1
  O  O29  1  0.553676  0.809239  0.131049  1
  O  O30  1  0.499567  0.623106  0.828548  1
  O  O31  1  0.779489  0.914537  0.449274  1
  O  O32  1  0.446324  0.255563  0.631049  1
  O  O33  1  0.500433  0.123538  0.328548  1
  O  O34  1  0.623106  0.499567  0.328548  1
  O  O35  1  0.809239  0.553676  0.631049  1
  O  O36  1  0.666667  0.333333  0.844309  1
  O  O37  1  0.666667  0.333333  0.112017  1
  O  O38  1  0.914537  0.779489  0.949274  1
  O  O39  1  0.744437  0.190761  0.631049  1
  O  O40  1  0.876462  0.376894  0.328548  1
  O  O41  1  0.864952  0.085463  0.949274  1
