# generated using pymatgen
data_Li3SiNi3O8
_symmetry_space_group_name_H-M   'P 1'
_cell_length_a   5.05744485
_cell_length_b   5.50389799
_cell_length_c   5.16754757
_cell_angle_alpha   90.00000000
_cell_angle_beta   111.63307418
_cell_angle_gamma   90.00000000
_symmetry_Int_Tables_number   1
_chemical_formula_structural   Li3SiNi3O8
_chemical_formula_sum   'Li3 Si1 Ni3 O8'
_cell_volume   133.71041370
_cell_formula_units_Z   1
loop_
 _symmetry_equiv_pos_site_id
 _symmetry_equiv_pos_as_xyz
  1  'x, y, z'
loop_
 _atom_site_type_symbol
 _atom_site_label
 _atom_site_symmetry_multiplicity
 _atom_site_fract_x
 _atom_site_fract_y
 _atom_site_fract_z
 _atom_site_occupancy
  Li  Li0  1  0.000000  0.500000  0.000000  1
  Li  Li1  1  0.500000  0.755407  0.000000  1
  Li  Li2  1  0.500000  0.244593  0.000000  1
  Si  Si3  1  0.500000  0.000000  0.500000  1
  Ni  Ni4  1  0.000000  0.752135  0.500000  1
  Ni  Ni5  1  0.000000  0.247865  0.500000  1
  Ni  Ni6  1  0.500000  0.500000  0.500000  1
  O  O7  1  0.735640  0.000000  0.303710  1
  O  O8  1  0.774875  0.500000  0.277643  1
  O  O9  1  0.711961  0.761502  0.714156  1
  O  O10  1  0.288039  0.761502  0.285844  1
  O  O11  1  0.711961  0.238498  0.714156  1
  O  O12  1  0.264360  0.000000  0.696290  1
  O  O13  1  0.225125  0.500000  0.722357  1
  O  O14  1  0.288039  0.238498  0.285844  1
