# generated using pymatgen
data_Fe(SbO3)4
_symmetry_space_group_name_H-M   'P 1'
_cell_length_a   5.15936324
_cell_length_b   5.48162710
_cell_length_c   7.57201872
_cell_angle_alpha   85.32388488
_cell_angle_beta   89.94920294
_cell_angle_gamma   89.93778735
_symmetry_Int_Tables_number   1
_chemical_formula_structural   Fe(SbO3)4
_chemical_formula_sum   'Fe1 Sb4 O12'
_cell_volume   213.43660250
_cell_formula_units_Z   1
loop_
 _symmetry_equiv_pos_site_id
 _symmetry_equiv_pos_as_xyz
  1  'x, y, z'
loop_
 _atom_site_type_symbol
 _atom_site_label
 _atom_site_symmetry_multiplicity
 _atom_site_fract_x
 _atom_site_fract_y
 _atom_site_fract_z
 _atom_site_occupancy
  Fe  Fe0  1  0.003430  0.418670  0.718131  1
  Sb  Sb1  1  0.993925  0.011125  0.024596  1
  Sb  Sb2  1  0.503316  0.531594  0.495315  1
  Sb  Sb3  1  0.007413  0.011094  0.501599  1
  Sb  Sb4  1  0.496871  0.530394  0.014785  1
  O  O5  1  0.716292  0.236816  0.586129  1
  O  O6  1  0.856177  0.023073  0.265526  1
  O  O7  1  0.681482  0.840401  0.944901  1
  O  O8  1  0.821222  0.702060  0.589251  1
  O  O9  1  0.181050  0.703253  0.081744  1
  O  O10  1  0.641035  0.519227  0.257018  1
  O  O11  1  0.357433  0.536073  0.757451  1
  O  O12  1  0.814959  0.342860  0.943477  1
  O  O13  1  0.172972  0.349672  0.474302  1
  O  O14  1  0.310154  0.211667  0.076701  1
  O  O15  1  0.108532  0.061299  0.763143  1
  O  O16  1  0.333736  0.852121  0.446631  1
