# generated using pymatgen
data_Ti(Sn2O5)2
_symmetry_space_group_name_H-M   'P 1'
_cell_length_a   4.79742174
_cell_length_b   5.76088212
_cell_length_c   13.55407606
_cell_angle_alpha   78.66206517
_cell_angle_beta   89.95622431
_cell_angle_gamma   89.93328062
_symmetry_Int_Tables_number   1
_chemical_formula_structural   Ti(Sn2O5)2
_chemical_formula_sum   'Ti2 Sn8 O20'
_cell_volume   367.28845095
_cell_formula_units_Z   2
loop_
 _symmetry_equiv_pos_site_id
 _symmetry_equiv_pos_as_xyz
  1  'x, y, z'
loop_
 _atom_site_type_symbol
 _atom_site_label
 _atom_site_symmetry_multiplicity
 _atom_site_fract_x
 _atom_site_fract_y
 _atom_site_fract_z
 _atom_site_occupancy
  Ti  Ti0  1  0.999523  0.101270  0.198460  1
  Ti  Ti1  1  0.000477  0.898730  0.801540  1
  Sn  Sn2  1  0.499760  0.600806  0.199461  1
  Sn  Sn3  1  0.500240  0.399194  0.800539  1
  Sn  Sn4  1  0.500000  0.000000  0.000000  1
  Sn  Sn5  1  0.501694  0.199242  0.397328  1
  Sn  Sn6  1  0.498306  0.800758  0.602672  1
  Sn  Sn7  1  0.000363  0.296547  0.601607  1
  Sn  Sn8  1  0.000000  0.500000  0.000000  1
  Sn  Sn9  1  0.999637  0.703453  0.398393  1
  O  O10  1  0.810490  0.176646  0.066394  1
  O  O11  1  0.810056  0.975096  0.668277  1
  O  O12  1  0.810085  0.596070  0.857812  1
  O  O13  1  0.809734  0.798651  0.256179  1
  O  O14  1  0.807007  0.382955  0.460608  1
  O  O15  1  0.705461  0.083025  0.861649  1
  O  O16  1  0.706074  0.283744  0.258762  1
  O  O17  1  0.689912  0.478703  0.661088  1
  O  O18  1  0.693837  0.883276  0.461560  1
  O  O19  1  0.689650  0.678726  0.059321  1
  O  O20  1  0.294539  0.916975  0.138351  1
  O  O21  1  0.306163  0.116724  0.538440  1
  O  O22  1  0.310350  0.321274  0.940679  1
  O  O23  1  0.293926  0.716256  0.741238  1
  O  O24  1  0.310088  0.521297  0.338912  1
  O  O25  1  0.189510  0.823354  0.933606  1
  O  O26  1  0.190266  0.201349  0.743821  1
  O  O27  1  0.189944  0.024904  0.331723  1
  O  O28  1  0.189915  0.403930  0.142188  1
  O  O29  1  0.192993  0.617045  0.539392  1
