# generated using pymatgen
data_Li4Ti3MnO8
_symmetry_space_group_name_H-M   'P 1'
_cell_length_a   6.02251158
_cell_length_b   6.02251158
_cell_length_c   6.02251158
_cell_angle_alpha   59.71395048
_cell_angle_beta   59.71395048
_cell_angle_gamma   59.71395048
_symmetry_Int_Tables_number   1
_chemical_formula_structural   Li4Ti3MnO8
_chemical_formula_sum   'Li4 Ti3 Mn1 O8'
_cell_volume   153.45714198
_cell_formula_units_Z   1
loop_
 _symmetry_equiv_pos_site_id
 _symmetry_equiv_pos_as_xyz
  1  'x, y, z'
loop_
 _atom_site_type_symbol
 _atom_site_label
 _atom_site_symmetry_multiplicity
 _atom_site_fract_x
 _atom_site_fract_y
 _atom_site_fract_z
 _atom_site_occupancy
  Li  Li0  1  0.500000  0.500000  0.500000  1
  Li  Li1  1  1.000000  0.000000  0.500000  1
  Li  Li2  1  0.500000  0.000000  0.000000  1
  Li  Li3  1  0.000000  0.500000  0.000000  1
  Ti  Ti4  1  0.500000  0.500000  0.000000  1
  Ti  Ti5  1  0.000000  0.500000  0.500000  1
  Ti  Ti6  1  0.500000  0.000000  0.500000  1
  Mn  Mn7  1  0.000000  0.000000  0.000000  1
  O  O8  1  0.255351  0.255351  0.255351  1
  O  O9  1  0.747310  0.747310  0.272988  1
  O  O10  1  0.272988  0.747310  0.747310  1
  O  O11  1  0.744649  0.744649  0.744649  1
  O  O12  1  0.747310  0.272988  0.747310  1
  O  O13  1  0.252690  0.252690  0.727012  1
  O  O14  1  0.727012  0.252690  0.252690  1
  O  O15  1  0.252690  0.727012  0.252690  1
