# generated using pymatgen
data_Li2MnPHO5
_symmetry_space_group_name_H-M   'P 1'
_cell_length_a   5.23353757
_cell_length_b   5.68815932
_cell_length_c   7.82523079
_cell_angle_alpha   108.24294423
_cell_angle_beta   107.53165632
_cell_angle_gamma   95.35214023
_symmetry_Int_Tables_number   1
_chemical_formula_structural   Li2MnPHO5
_chemical_formula_sum   'Li4 Mn2 P2 H2 O10'
_cell_volume   206.39075360
_cell_formula_units_Z   2
loop_
 _symmetry_equiv_pos_site_id
 _symmetry_equiv_pos_as_xyz
  1  'x, y, z'
loop_
 _atom_site_type_symbol
 _atom_site_label
 _atom_site_symmetry_multiplicity
 _atom_site_fract_x
 _atom_site_fract_y
 _atom_site_fract_z
 _atom_site_occupancy
  Li  Li0  1  0.219361  0.578420  0.203396  1
  Li  Li1  1  0.590728  0.880384  0.191768  1
  Li  Li2  1  0.756163  0.374079  0.849014  1
  Li  Li3  1  0.758454  0.606928  0.589579  1
  Mn  Mn4  1  0.001992  0.992745  0.994702  1
  Mn  Mn5  1  0.047343  0.023541  0.526290  1
  P  P6  1  0.666219  0.375848  0.219630  1
  P  P7  1  0.328115  0.624110  0.762975  1
  H  H8  1  0.625291  0.964749  0.665252  1
  H  H9  1  0.339039  0.072181  0.338058  1
  O  O10  1  0.873690  0.356076  0.113555  1
  O  O11  1  0.371543  0.269072  0.075123  1
  O  O12  1  0.291165  0.767638  0.620628  1
  O  O13  1  0.679216  0.660176  0.336601  1
  O  O14  1  0.825443  0.029728  0.717446  1
  O  O15  1  0.182136  0.929651  0.265108  1
  O  O16  1  0.370572  0.353601  0.664066  1
  O  O17  1  0.732062  0.236180  0.366474  1
  O  O18  1  0.595731  0.753652  0.940986  1
  O  O19  1  0.071852  0.614243  0.826381  1
