# generated using pymatgen
data_Li4Mn2CrNi3(PO4)6
_symmetry_space_group_name_H-M   'P 1'
_cell_length_a   8.47354431
_cell_length_b   8.55289707
_cell_length_c   8.55419360
_cell_angle_alpha   62.11794246
_cell_angle_beta   62.43420858
_cell_angle_gamma   62.38150510
_symmetry_Int_Tables_number   1
_chemical_formula_structural   Li4Mn2CrNi3(PO4)6
_chemical_formula_sum   'Li4 Mn2 Cr1 Ni3 P6 O24'
_cell_volume   460.97469541
_cell_formula_units_Z   1
loop_
 _symmetry_equiv_pos_site_id
 _symmetry_equiv_pos_as_xyz
  1  'x, y, z'
loop_
 _atom_site_type_symbol
 _atom_site_label
 _atom_site_symmetry_multiplicity
 _atom_site_fract_x
 _atom_site_fract_y
 _atom_site_fract_z
 _atom_site_occupancy
  Li  Li0  1  0.251753  0.644652  0.854696  1
  Li  Li1  1  0.735484  0.359494  0.143024  1
  Li  Li2  1  0.359405  0.143265  0.736052  1
  Li  Li3  1  0.143623  0.734963  0.359213  1
  Mn  Mn4  1  0.984729  0.002866  0.996165  1
  Mn  Mn5  1  0.511724  0.501146  0.495741  1
  Cr  Cr6  1  0.144896  0.144526  0.148662  1
  Ni  Ni7  1  0.855762  0.854769  0.853640  1
  Ni  Ni8  1  0.644741  0.645943  0.644233  1
  Ni  Ni9  1  0.353813  0.349934  0.354029  1
  P  P10  1  0.952483  0.547673  0.251710  1
  P  P11  1  0.548618  0.250366  0.953117  1
  P  P12  1  0.251017  0.951628  0.549423  1
  P  P13  1  0.751823  0.043385  0.457854  1
  P  P14  1  0.452238  0.750864  0.043167  1
  P  P15  1  0.048491  0.457460  0.752674  1
  O  O16  1  0.885493  0.493554  0.699391  1
  O  O17  1  0.693194  0.888277  0.484913  1
  O  O18  1  0.951597  0.732190  0.082840  1
  O  O19  1  0.463437  0.694971  0.892042  1
  O  O20  1  0.987206  0.386243  0.191247  1
  O  O21  1  0.758298  0.565200  0.405130  1
  O  O22  1  0.739296  0.094071  0.930907  1
  O  O23  1  0.544387  0.416857  0.766464  1
  O  O24  1  0.811774  0.014395  0.611910  1
  O  O25  1  0.402400  0.753612  0.569548  1
  O  O26  1  0.909579  0.069052  0.257232  1
  O  O27  1  0.614751  0.805790  0.002763  1
  O  O28  1  0.386460  0.186942  0.990585  1
  O  O29  1  0.097370  0.926612  0.744969  1
  O  O30  1  0.596100  0.242710  0.431753  1
  O  O31  1  0.188696  0.985763  0.389709  1
  O  O32  1  0.432189  0.594633  0.241863  1
  O  O33  1  0.253245  0.910952  0.071676  1
  O  O34  1  0.246317  0.429436  0.595086  1
  O  O35  1  0.033503  0.608208  0.810419  1
  O  O36  1  0.523191  0.312494  0.107450  1
  O  O37  1  0.068708  0.257322  0.911757  1
  O  O38  1  0.314355  0.105001  0.523645  1
  O  O39  1  0.107858  0.519784  0.316303  1
