# generated using pymatgen
data_Gd3InO6
_symmetry_space_group_name_H-M   'P 1'
_cell_length_a   6.76505697
_cell_length_b   6.76505697
_cell_length_c   6.76505697
_cell_angle_alpha   92.25806054
_cell_angle_beta   92.25806054
_cell_angle_gamma   92.25806054
_symmetry_Int_Tables_number   1
_chemical_formula_structural   Gd3InO6
_chemical_formula_sum   'Gd6 In2 O12'
_cell_volume   308.86879309
_cell_formula_units_Z   2
loop_
 _symmetry_equiv_pos_site_id
 _symmetry_equiv_pos_as_xyz
  1  'x, y, z'
loop_
 _atom_site_type_symbol
 _atom_site_label
 _atom_site_symmetry_multiplicity
 _atom_site_fract_x
 _atom_site_fract_y
 _atom_site_fract_z
 _atom_site_occupancy
  Gd  Gd0  1  0.253382  0.560223  0.068189  1
  Gd  Gd1  1  0.560223  0.068189  0.253382  1
  Gd  Gd2  1  0.931811  0.746618  0.439777  1
  Gd  Gd3  1  0.068189  0.253382  0.560223  1
  Gd  Gd4  1  0.439777  0.931811  0.746618  1
  Gd  Gd5  1  0.746618  0.439777  0.931811  1
  In  In6  1  0.000000  0.000000  0.000000  1
  In  In7  1  0.500000  0.500000  0.500000  1
  O  O8  1  0.931642  0.689982  0.088635  1
  O  O9  1  0.310018  0.911365  0.068358  1
  O  O10  1  0.534226  0.403682  0.189318  1
  O  O11  1  0.911365  0.068358  0.310018  1
  O  O12  1  0.189318  0.534226  0.403682  1
  O  O13  1  0.596318  0.810682  0.465774  1
  O  O14  1  0.403682  0.189318  0.534226  1
  O  O15  1  0.810682  0.465774  0.596318  1
  O  O16  1  0.088635  0.931642  0.689982  1
  O  O17  1  0.465774  0.596318  0.810682  1
  O  O18  1  0.689982  0.088635  0.931642  1
  O  O19  1  0.068358  0.310018  0.911365  1
