# generated using pymatgen
data_Li2Mn3SnO8
_symmetry_space_group_name_H-M   'P 1'
_cell_length_a   8.72627453
_cell_length_b   8.72627453
_cell_length_c   8.34767992
_cell_angle_alpha   90.00000000
_cell_angle_beta   90.00000000
_cell_angle_gamma   90.00000000
_symmetry_Int_Tables_number   1
_chemical_formula_structural   Li2Mn3SnO8
_chemical_formula_sum   'Li8 Mn12 Sn4 O32'
_cell_volume   635.65802186
_cell_formula_units_Z   4
loop_
 _symmetry_equiv_pos_site_id
 _symmetry_equiv_pos_as_xyz
  1  'x, y, z'
loop_
 _atom_site_type_symbol
 _atom_site_label
 _atom_site_symmetry_multiplicity
 _atom_site_fract_x
 _atom_site_fract_y
 _atom_site_fract_z
 _atom_site_occupancy
  Li  Li0  1  0.746258  0.499154  0.874701  1
  Li  Li1  1  0.500846  0.253742  0.625299  1
  Li  Li2  1  0.000846  0.246258  0.124701  1
  Li  Li3  1  0.246258  0.000846  0.875299  1
  Li  Li4  1  0.753742  0.999154  0.375299  1
  Li  Li5  1  0.999154  0.753742  0.624701  1
  Li  Li6  1  0.499154  0.746258  0.125299  1
  Li  Li7  1  0.253742  0.500846  0.374701  1
  Mn  Mn8  1  0.126724  0.377479  0.741605  1
  Mn  Mn9  1  0.877479  0.373276  0.491605  1
  Mn  Mn10  1  0.628310  0.371690  0.250000  1
  Mn  Mn11  1  0.128310  0.128310  0.500000  1
  Mn  Mn12  1  0.377479  0.126724  0.258395  1
  Mn  Mn13  1  0.626724  0.122521  0.008395  1
  Mn  Mn14  1  0.373276  0.877479  0.508395  1
  Mn  Mn15  1  0.622521  0.873276  0.758395  1
  Mn  Mn16  1  0.871690  0.871690  0.000000  1
  Mn  Mn17  1  0.371690  0.628310  0.750000  1
  Mn  Mn18  1  0.122521  0.626724  0.991605  1
  Mn  Mn19  1  0.873276  0.622521  0.241605  1
  Sn  Sn20  1  0.374673  0.374673  0.000000  1
  Sn  Sn21  1  0.874673  0.125327  0.750000  1
  Sn  Sn22  1  0.125327  0.874673  0.250000  1
  Sn  Sn23  1  0.625327  0.625327  0.500000  1
  O  O24  1  0.371971  0.403395  0.752763  1
  O  O25  1  0.134962  0.379752  0.975477  1
  O  O26  1  0.854710  0.385470  0.259324  1
  O  O27  1  0.879752  0.365038  0.725477  1
  O  O28  1  0.640214  0.381923  0.481802  1
  O  O29  1  0.114530  0.354710  0.509324  1
  O  O30  1  0.403395  0.371971  0.247237  1
  O  O31  1  0.618077  0.359786  0.018198  1
  O  O32  1  0.118077  0.140214  0.731802  1
  O  O33  1  0.903395  0.128029  0.502763  1
  O  O34  1  0.614530  0.145290  0.240676  1
  O  O35  1  0.140214  0.118077  0.268198  1
  O  O36  1  0.379752  0.134962  0.024523  1
  O  O37  1  0.354710  0.114530  0.490676  1
  O  O38  1  0.634962  0.120248  0.774523  1
  O  O39  1  0.871971  0.096605  0.997237  1
  O  O40  1  0.128029  0.903395  0.497237  1
  O  O41  1  0.365038  0.879752  0.274523  1
  O  O42  1  0.645290  0.885470  0.990676  1
  O  O43  1  0.620248  0.865038  0.524523  1
  O  O44  1  0.859786  0.881923  0.768198  1
  O  O45  1  0.385470  0.854710  0.740676  1
  O  O46  1  0.096605  0.871971  0.002763  1
  O  O47  1  0.881923  0.859786  0.231802  1
  O  O48  1  0.381923  0.640214  0.518198  1
  O  O49  1  0.596605  0.628029  0.747237  1
  O  O50  1  0.885470  0.645290  0.009324  1
  O  O51  1  0.359786  0.618077  0.981802  1
  O  O52  1  0.120248  0.634962  0.225477  1
  O  O53  1  0.145290  0.614530  0.759324  1
  O  O54  1  0.865038  0.620248  0.475477  1
  O  O55  1  0.628029  0.596605  0.252763  1
