# generated using pymatgen
data_LiCoSiO4
_symmetry_space_group_name_H-M   'P 1'
_cell_length_a   8.65314932
_cell_length_b   8.02571309
_cell_length_c   17.33813687
_cell_angle_alpha   90.00000000
_cell_angle_beta   119.34276971
_cell_angle_gamma   90.00000000
_symmetry_Int_Tables_number   1
_chemical_formula_structural   LiCoSiO4
_chemical_formula_sum   'Li12 Co12 Si12 O48'
_cell_volume   1049.61288630
_cell_formula_units_Z   12
loop_
 _symmetry_equiv_pos_site_id
 _symmetry_equiv_pos_as_xyz
  1  'x, y, z'
loop_
 _atom_site_type_symbol
 _atom_site_label
 _atom_site_symmetry_multiplicity
 _atom_site_fract_x
 _atom_site_fract_y
 _atom_site_fract_z
 _atom_site_occupancy
  Li  Li0  1  0.264486  0.993275  0.059904  1
  Li  Li1  1  0.638541  0.008588  0.413507  1
  Li  Li2  1  0.004140  0.848904  0.754178  1
  Li  Li3  1  0.995860  0.348904  0.745822  1
  Li  Li4  1  0.361459  0.508588  0.086493  1
  Li  Li5  1  0.735514  0.493275  0.440096  1
  Li  Li6  1  0.264486  0.506725  0.559904  1
  Li  Li7  1  0.638541  0.491412  0.913507  1
  Li  Li8  1  0.004140  0.651096  0.254178  1
  Li  Li9  1  0.995860  0.151096  0.245822  1
  Li  Li10  1  0.361459  0.991412  0.586493  1
  Li  Li11  1  0.735514  0.006725  0.940096  1
  Co  Co12  1  0.646329  0.660442  0.595747  1
  Co  Co13  1  0.310983  0.832512  0.230876  1
  Co  Co14  1  0.029945  0.662524  0.923846  1
  Co  Co15  1  0.970055  0.162524  0.576154  1
  Co  Co16  1  0.689017  0.332512  0.269124  1
  Co  Co17  1  0.353671  0.160442  0.904253  1
  Co  Co18  1  0.646329  0.839558  0.095747  1
  Co  Co19  1  0.310983  0.667488  0.730876  1
  Co  Co20  1  0.029945  0.837476  0.423846  1
  Co  Co21  1  0.970055  0.337476  0.076154  1
  Co  Co22  1  0.689017  0.167488  0.769124  1
  Co  Co23  1  0.353671  0.339558  0.404253  1
  Si  Si24  1  0.635518  0.265090  0.590589  1
  Si  Si25  1  0.308363  0.219465  0.225024  1
  Si  Si26  1  0.041786  0.271051  0.927420  1
  Si  Si27  1  0.958214  0.771051  0.572580  1
  Si  Si28  1  0.691637  0.719465  0.274976  1
  Si  Si29  1  0.364482  0.765090  0.909411  1
  Si  Si30  1  0.635518  0.234910  0.090589  1
  Si  Si31  1  0.308363  0.280535  0.725024  1
  Si  Si32  1  0.041786  0.228949  0.427420  1
  Si  Si33  1  0.958214  0.728949  0.072580  1
  Si  Si34  1  0.691637  0.780535  0.774976  1
  Si  Si35  1  0.364482  0.734910  0.409411  1
  O  O36  1  0.431849  0.550769  0.395320  1
  O  O37  1  0.417583  0.869281  0.354178  1
  O  O38  1  0.075810  0.784852  0.025194  1
  O  O39  1  0.253660  0.038663  0.173489  1
  O  O40  1  0.217751  0.358984  0.144921  1
  O  O41  1  0.776014  0.757492  0.708488  1
  O  O42  1  0.544563  0.215023  0.485063  1
  O  O43  1  0.907872  0.276574  0.819558  1
  O  O44  1  0.136432  0.454690  0.962584  1
  O  O45  1  0.523487  0.229774  0.289082  1
  O  O46  1  0.852780  0.262275  0.631076  1
  O  O47  1  0.201805  0.135293  0.953393  1
  O  O48  1  0.798195  0.635293  0.546607  1
  O  O49  1  0.147220  0.762275  0.868924  1
  O  O50  1  0.476513  0.729774  0.210918  1
  O  O51  1  0.863568  0.954690  0.537416  1
  O  O52  1  0.092128  0.776574  0.680442  1
  O  O53  1  0.455437  0.715023  0.014937  1
  O  O54  1  0.782249  0.858984  0.355079  1
  O  O55  1  0.223986  0.257492  0.791512  1
  O  O56  1  0.746340  0.538663  0.326511  1
  O  O57  1  0.924190  0.284852  0.474806  1
  O  O58  1  0.582417  0.369281  0.145822  1
  O  O59  1  0.568151  0.050769  0.104680  1
  O  O60  1  0.431849  0.949231  0.895320  1
  O  O61  1  0.417583  0.630719  0.854178  1
  O  O62  1  0.075810  0.715148  0.525194  1
  O  O63  1  0.253660  0.461337  0.673489  1
  O  O64  1  0.776014  0.742508  0.208488  1
  O  O65  1  0.217751  0.141016  0.644921  1
  O  O66  1  0.544563  0.284977  0.985063  1
  O  O67  1  0.907872  0.223426  0.319558  1
  O  O68  1  0.136432  0.045310  0.462584  1
  O  O69  1  0.523487  0.270226  0.789082  1
  O  O70  1  0.852780  0.237725  0.131076  1
  O  O71  1  0.201805  0.364707  0.453393  1
  O  O72  1  0.798195  0.864707  0.046607  1
  O  O73  1  0.147220  0.737725  0.368924  1
  O  O74  1  0.476513  0.770226  0.710918  1
  O  O75  1  0.863568  0.545310  0.037416  1
  O  O76  1  0.092128  0.723426  0.180442  1
  O  O77  1  0.455437  0.784977  0.514937  1
  O  O78  1  0.223986  0.242508  0.291512  1
  O  O79  1  0.782249  0.641016  0.855079  1
  O  O80  1  0.746340  0.961337  0.826511  1
  O  O81  1  0.924190  0.215148  0.974806  1
  O  O82  1  0.582417  0.130719  0.645822  1
  O  O83  1  0.568151  0.449231  0.604680  1
