# generated using pymatgen
data_Li3Mn2Fe(BO3)3
_symmetry_space_group_name_H-M   'P 1'
_cell_length_a   8.27087402
_cell_length_b   3.17341844
_cell_length_c   14.32463894
_cell_angle_alpha   90.00000000
_cell_angle_beta   90.16400089
_cell_angle_gamma   90.00000000
_symmetry_Int_Tables_number   1
_chemical_formula_structural   Li3Mn2Fe(BO3)3
_chemical_formula_sum   'Li6 Mn4 Fe2 B6 O18'
_cell_volume   375.97645761
_cell_formula_units_Z   2
loop_
 _symmetry_equiv_pos_site_id
 _symmetry_equiv_pos_as_xyz
  1  'x, y, z'
loop_
 _atom_site_type_symbol
 _atom_site_label
 _atom_site_symmetry_multiplicity
 _atom_site_fract_x
 _atom_site_fract_y
 _atom_site_fract_z
 _atom_site_occupancy
  Li  Li0  1  0.707692  0.500000  0.992504  1
  Li  Li1  1  0.661615  0.500000  0.358546  1
  Li  Li2  1  0.634912  0.500000  0.649873  1
  Li  Li3  1  0.207135  0.500000  0.490795  1
  Li  Li4  1  0.158298  0.500000  0.857898  1
  Li  Li5  1  0.132002  0.500000  0.151483  1
  Mn  Mn6  1  0.825821  0.000000  0.813908  1
  Mn  Mn7  1  0.366162  0.000000  0.005951  1
  Mn  Mn8  1  0.326190  0.000000  0.314277  1
  Mn  Mn9  1  0.308652  0.000000  0.679530  1
  Fe  Fe10  1  0.862851  0.000000  0.503672  1
  Fe  Fe11  1  0.812691  0.000000  0.179483  1
  B  B12  1  0.999448  0.500000  0.664888  1
  B  B13  1  0.998038  0.000000  0.000482  1
  B  B14  1  0.997926  0.500000  0.333304  1
  B  B15  1  0.502184  0.500000  0.167363  1
  B  B16  1  0.501505  0.000000  0.500784  1
  B  B17  1  0.499861  0.500000  0.833310  1
  O  O18  1  0.985311  0.500000  0.430267  1
  O  O19  1  0.984815  0.500000  0.761961  1
  O  O20  1  0.862561  0.500000  0.608247  1
  O  O21  1  0.859305  0.500000  0.277903  1
  O  O22  1  0.844681  0.000000  0.960353  1
  O  O23  1  0.654983  0.500000  0.127124  1
  O  O24  1  0.649699  0.500000  0.789738  1
  O  O25  1  0.639068  0.000000  0.444451  1
  O  O26  1  0.518527  0.000000  0.597432  1
  O  O27  1  0.490437  0.500000  0.930249  1
  O  O28  1  0.486250  0.500000  0.264250  1
  O  O29  1  0.363392  0.500000  0.111504  1
  O  O30  1  0.359042  0.500000  0.780202  1
  O  O31  1  0.347847  0.000000  0.460347  1
  O  O32  1  0.152686  0.500000  0.624687  1
  O  O33  1  0.149438  0.500000  0.291585  1
  O  O34  1  0.135136  0.000000  0.943990  1
  O  O35  1  0.013842  0.000000  0.097656  1
