# generated using pymatgen
data_Y(Bi3O5)4
_symmetry_space_group_name_H-M   'P 1'
_cell_length_a   8.97086580
_cell_length_b   8.97086580
_cell_length_c   8.97086580
_cell_angle_alpha   109.47122063
_cell_angle_beta   109.47122063
_cell_angle_gamma   109.47122063
_symmetry_Int_Tables_number   1
_chemical_formula_structural   Y(Bi3O5)4
_chemical_formula_sum   'Y1 Bi12 O20'
_cell_volume   555.75219854
_cell_formula_units_Z   1
loop_
 _symmetry_equiv_pos_site_id
 _symmetry_equiv_pos_as_xyz
  1  'x, y, z'
loop_
 _atom_site_type_symbol
 _atom_site_label
 _atom_site_symmetry_multiplicity
 _atom_site_fract_x
 _atom_site_fract_y
 _atom_site_fract_z
 _atom_site_occupancy
  Y  Y0  1  0.000000  0.000000  0.000000  1
  Bi  Bi1  1  0.817099  0.142128  0.311298  1
  Bi  Bi2  1  0.857872  0.674972  0.169170  1
  Bi  Bi3  1  0.494199  0.325028  0.182901  1
  Bi  Bi4  1  0.325028  0.182901  0.494199  1
  Bi  Bi5  1  0.674972  0.169170  0.857872  1
  Bi  Bi6  1  0.830830  0.505801  0.688702  1
  Bi  Bi7  1  0.182901  0.494199  0.325028  1
  Bi  Bi8  1  0.688702  0.830830  0.505801  1
  Bi  Bi9  1  0.311298  0.817099  0.142128  1
  Bi  Bi10  1  0.142128  0.311298  0.817099  1
  Bi  Bi11  1  0.505801  0.688702  0.830830  1
  Bi  Bi12  1  0.169170  0.857872  0.674972  1
  O  O13  1  0.648119  1.000000  1.000000  1
  O  O14  1  0.753733  0.378199  0.113512  1
  O  O15  1  0.244238  1.000000  0.000000  1
  O  O16  1  0.624467  0.246267  0.359779  1
  O  O17  1  0.886488  0.264687  0.640221  1
  O  O18  1  1.000000  0.244238  0.000000  1
  O  O19  1  1.000000  1.000000  0.244238  1
  O  O20  1  0.735313  0.621801  0.375533  1
  O  O21  1  0.351881  0.351881  0.351881  1
  O  O22  1  0.359779  0.624467  0.246267  1
  O  O23  1  0.640220  0.886488  0.264687  1
  O  O24  1  0.378199  0.113512  0.753733  1
  O  O25  1  0.621801  0.375533  0.735313  1
  O  O26  1  1.000000  0.648119  0.000000  1
  O  O27  1  1.000000  1.000000  0.648119  1
  O  O28  1  0.246267  0.359779  0.624467  1
  O  O29  1  0.755762  0.755762  0.755762  1
  O  O30  1  0.375533  0.735313  0.621801  1
  O  O31  1  0.113512  0.753733  0.378199  1
  O  O32  1  0.264687  0.640220  0.886488  1
