# generated using pymatgen
data_Co(SO4)2
_symmetry_space_group_name_H-M   'P 1'
_cell_length_a   8.90595640
_cell_length_b   8.90595640
_cell_length_c   8.90595640
_cell_angle_alpha   56.11049726
_cell_angle_beta   56.11049726
_cell_angle_gamma   56.11049726
_symmetry_Int_Tables_number   1
_chemical_formula_structural   Co(SO4)2
_chemical_formula_sum   'Co3 S6 O24'
_cell_volume   454.50424279
_cell_formula_units_Z   3
loop_
 _symmetry_equiv_pos_site_id
 _symmetry_equiv_pos_as_xyz
  1  'x, y, z'
loop_
 _atom_site_type_symbol
 _atom_site_label
 _atom_site_symmetry_multiplicity
 _atom_site_fract_x
 _atom_site_fract_y
 _atom_site_fract_z
 _atom_site_occupancy
  Co  Co0  1  0.852138  0.852138  0.852138  1
  Co  Co1  1  0.354965  0.354965  0.354965  1
  Co  Co2  1  0.148468  0.148468  0.148468  1
  S  S3  1  0.252259  0.537211  0.957312  1
  S  S4  1  0.957312  0.252259  0.537211  1
  S  S5  1  0.537211  0.957312  0.252259  1
  S  S6  1  0.461422  0.042563  0.746633  1
  S  S7  1  0.042563  0.746633  0.461422  1
  S  S8  1  0.746633  0.461422  0.042563  1
  O  O9  1  0.706004  0.490022  0.888439  1
  O  O10  1  0.490022  0.888439  0.706004  1
  O  O11  1  0.045153  0.672801  0.985587  1
  O  O12  1  0.888439  0.706004  0.490022  1
  O  O13  1  0.277219  0.347230  0.978128  1
  O  O14  1  0.373731  0.625577  0.762425  1
  O  O15  1  0.762425  0.373731  0.625577  1
  O  O16  1  0.985587  0.045153  0.672801  1
  O  O17  1  0.625577  0.762425  0.373731  1
  O  O18  1  0.326228  0.023126  0.951777  1
  O  O19  1  0.651705  0.025699  0.718521  1
  O  O20  1  0.025699  0.718521  0.651705  1
  O  O21  1  0.978128  0.277219  0.347230  1
  O  O22  1  0.347230  0.978128  0.277219  1
  O  O23  1  0.672801  0.985587  0.045153  1
  O  O24  1  0.378063  0.239408  0.615922  1
  O  O25  1  0.023126  0.951777  0.326228  1
  O  O26  1  0.239408  0.615922  0.378063  1
  O  O27  1  0.615922  0.378063  0.239408  1
  O  O28  1  0.718521  0.651705  0.025699  1
  O  O29  1  0.109565  0.298258  0.511481  1
  O  O30  1  0.951777  0.326228  0.023126  1
  O  O31  1  0.511481  0.109565  0.298258  1
  O  O32  1  0.298258  0.511481  0.109565  1
