# generated using pymatgen
data_VPH5O7
_symmetry_space_group_name_H-M   'P 1'
_cell_length_a   8.24718988
_cell_length_b   7.03966958
_cell_length_c   10.07689975
_cell_angle_alpha   90.00000000
_cell_angle_beta   101.52287928
_cell_angle_gamma   90.00000000
_symmetry_Int_Tables_number   1
_chemical_formula_structural   VPH5O7
_chemical_formula_sum   'V4 P4 H20 O28'
_cell_volume   573.24806102
_cell_formula_units_Z   4
loop_
 _symmetry_equiv_pos_site_id
 _symmetry_equiv_pos_as_xyz
  1  'x, y, z'
loop_
 _atom_site_type_symbol
 _atom_site_label
 _atom_site_symmetry_multiplicity
 _atom_site_fract_x
 _atom_site_fract_y
 _atom_site_fract_z
 _atom_site_occupancy
  V  V0  1  0.455588  0.623111  0.259225  1
  V  V1  1  0.544412  0.123111  0.240775  1
  V  V2  1  0.455588  0.876889  0.759225  1
  V  V3  1  0.544412  0.376889  0.740775  1
  P  P4  1  0.274505  0.351114  0.009298  1
  P  P5  1  0.274505  0.148886  0.509298  1
  P  P6  1  0.725495  0.851114  0.490702  1
  P  P7  1  0.725495  0.648886  0.990702  1
  H  H8  1  0.957848  0.770962  0.112699  1
  H  H9  1  0.002626  0.347444  0.180251  1
  H  H10  1  0.957848  0.729038  0.612699  1
  H  H11  1  0.275602  0.991496  0.320791  1
  H  H12  1  0.002626  0.152556  0.680251  1
  H  H13  1  0.275602  0.508504  0.820791  1
  H  H14  1  0.103887  0.485610  0.290288  1
  H  H15  1  0.103887  0.014390  0.790288  1
  H  H16  1  0.327384  0.540679  0.448668  1
  H  H17  1  0.327384  0.959321  0.948668  1
  H  H18  1  0.672616  0.040679  0.051332  1
  H  H19  1  0.672616  0.459321  0.551332  1
  H  H20  1  0.896113  0.985610  0.209712  1
  H  H21  1  0.896113  0.514390  0.709712  1
  H  H22  1  0.724398  0.491496  0.179209  1
  H  H23  1  0.997374  0.847444  0.319749  1
  H  H24  1  0.724398  0.008504  0.679209  1
  H  H25  1  0.042152  0.270962  0.387301  1
  H  H26  1  0.997374  0.652556  0.819749  1
  H  H27  1  0.042152  0.229038  0.887301  1
  O  O28  1  0.998867  0.903537  0.231167  1
  O  O29  1  0.998867  0.596463  0.731167  1
  O  O30  1  0.084421  0.309480  0.975186  1
  O  O31  1  0.084421  0.190520  0.475186  1
  O  O32  1  0.286151  0.586960  0.355872  1
  O  O33  1  0.327633  0.107249  0.365464  1
  O  O34  1  0.286151  0.913040  0.855872  1
  O  O35  1  0.300407  0.529252  0.094855  1
  O  O36  1  0.327633  0.392751  0.865464  1
  O  O37  1  0.373728  0.177298  0.067246  1
  O  O38  1  0.300407  0.970748  0.594855  1
  O  O39  1  0.448994  0.864795  0.218446  1
  O  O40  1  0.373728  0.322702  0.567246  1
  O  O41  1  0.448994  0.635205  0.718446  1
  O  O42  1  0.551006  0.364795  0.281554  1
  O  O43  1  0.626272  0.677298  0.432754  1
  O  O44  1  0.551006  0.135205  0.781554  1
  O  O45  1  0.699593  0.029252  0.405145  1
  O  O46  1  0.626272  0.822702  0.932754  1
  O  O47  1  0.672367  0.607249  0.134536  1
  O  O48  1  0.699593  0.470748  0.905145  1
  O  O49  1  0.713849  0.086960  0.144128  1
  O  O50  1  0.672367  0.892751  0.634536  1
  O  O51  1  0.713849  0.413040  0.644128  1
  O  O52  1  0.915579  0.809480  0.524814  1
  O  O53  1  0.915579  0.690520  0.024814  1
  O  O54  1  0.001133  0.403537  0.268833  1
  O  O55  1  0.001133  0.096463  0.768833  1
