# generated using pymatgen
data_Li2Fe3BiO8
_symmetry_space_group_name_H-M   'P 1'
_cell_length_a   6.27064096
_cell_length_b   6.27064096
_cell_length_c   6.27064096
_cell_angle_alpha   58.02925879
_cell_angle_beta   58.02925879
_cell_angle_gamma   58.02925879
_symmetry_Int_Tables_number   1
_chemical_formula_structural   Li2Fe3BiO8
_chemical_formula_sum   'Li2 Fe3 Bi1 O8'
_cell_volume   166.46904327
_cell_formula_units_Z   1
loop_
 _symmetry_equiv_pos_site_id
 _symmetry_equiv_pos_as_xyz
  1  'x, y, z'
loop_
 _atom_site_type_symbol
 _atom_site_label
 _atom_site_symmetry_multiplicity
 _atom_site_fract_x
 _atom_site_fract_y
 _atom_site_fract_z
 _atom_site_occupancy
  Li  Li0  1  0.130348  0.130348  0.130348  1
  Li  Li1  1  0.869652  0.869652  0.869652  1
  Fe  Fe2  1  0.500000  0.500000  0.000000  1
  Fe  Fe3  1  0.000000  0.500000  0.500000  1
  Fe  Fe4  1  0.500000  0.000000  0.500000  1
  Bi  Bi5  1  0.500000  0.500000  0.500000  1
  O  O6  1  0.723155  0.255098  0.255098  1
  O  O7  1  0.255098  0.255098  0.723155  1
  O  O8  1  0.733094  0.733094  0.733094  1
  O  O9  1  0.255098  0.723155  0.255098  1
  O  O10  1  0.744902  0.276845  0.744902  1
  O  O11  1  0.266906  0.266906  0.266906  1
  O  O12  1  0.744902  0.744902  0.276845  1
  O  O13  1  0.276845  0.744902  0.744902  1
