# generated using pymatgen
data_LiV6O7F5
_symmetry_space_group_name_H-M   'P 1'
_cell_length_a   4.85289346
_cell_length_b   5.69700003
_cell_length_c   7.76435786
_cell_angle_alpha   85.38713600
_cell_angle_beta   89.12769267
_cell_angle_gamma   88.87535345
_symmetry_Int_Tables_number   1
_chemical_formula_structural   LiV6O7F5
_chemical_formula_sum   'Li1 V6 O7 F5'
_cell_volume   213.90409933
_cell_formula_units_Z   1
loop_
 _symmetry_equiv_pos_site_id
 _symmetry_equiv_pos_as_xyz
  1  'x, y, z'
loop_
 _atom_site_type_symbol
 _atom_site_label
 _atom_site_symmetry_multiplicity
 _atom_site_fract_x
 _atom_site_fract_y
 _atom_site_fract_z
 _atom_site_occupancy
  Li  Li0  1  0.496854  0.910616  0.088351  1
  V  V1  1  0.998769  0.000624  0.995616  1
  V  V2  1  0.026117  0.325029  0.662598  1
  V  V3  1  0.484841  0.846344  0.661632  1
  V  V4  1  0.490720  0.479689  0.994273  1
  V  V5  1  0.544699  0.185759  0.355689  1
  V  V6  1  0.952243  0.670188  0.328797  1
  O  O7  1  0.188265  0.290190  0.899024  1
  O  O8  1  0.310876  0.133765  0.566648  1
  O  O9  1  0.313371  0.792595  0.900253  1
  O  O10  1  0.682557  0.191690  0.104860  1
  O  O11  1  0.695844  0.863629  0.439929  1
  O  O12  1  0.796030  0.703275  0.094927  1
  O  O13  1  0.816124  0.372001  0.443733  1
  F  F14  1  0.200418  0.966616  0.233373  1
  F  F15  1  0.196911  0.636605  0.558932  1
  F  F16  1  0.300690  0.476376  0.240017  1
  F  F17  1  0.699423  0.532587  0.757294  1
  F  F18  1  0.801246  0.034921  0.762467  1
