# generated using pymatgen
data_LiSiBiO4
_symmetry_space_group_name_H-M   'P 1'
_cell_length_a   8.67523808
_cell_length_b   8.67523808
_cell_length_c   8.67523808
_cell_angle_alpha   103.17524580
_cell_angle_beta   103.17524580
_cell_angle_gamma   103.17524580
_symmetry_Int_Tables_number   1
_chemical_formula_structural   LiSiBiO4
_chemical_formula_sum   'Li6 Si6 Bi6 O24'
_cell_volume   591.38873035
_cell_formula_units_Z   6
loop_
 _symmetry_equiv_pos_site_id
 _symmetry_equiv_pos_as_xyz
  1  'x, y, z'
loop_
 _atom_site_type_symbol
 _atom_site_label
 _atom_site_symmetry_multiplicity
 _atom_site_fract_x
 _atom_site_fract_y
 _atom_site_fract_z
 _atom_site_occupancy
  Li  Li0  1  0.189394  0.440147  0.035782  1
  Li  Li1  1  0.964218  0.810606  0.559853  1
  Li  Li2  1  0.559853  0.964218  0.810606  1
  Li  Li3  1  0.440147  0.035782  0.189394  1
  Li  Li4  1  0.035782  0.189394  0.440147  1
  Li  Li5  1  0.810606  0.559853  0.964218  1
  Si  Si6  1  0.745804  0.912940  0.145067  1
  Si  Si7  1  0.087060  0.854933  0.254196  1
  Si  Si8  1  0.854933  0.254196  0.087060  1
  Si  Si9  1  0.145067  0.745804  0.912940  1
  Si  Si10  1  0.912940  0.145067  0.745804  1
  Si  Si11  1  0.254196  0.087060  0.854933  1
  Bi  Bi12  1  0.555622  0.811469  0.456167  1
  Bi  Bi13  1  0.543833  0.444378  0.188531  1
  Bi  Bi14  1  0.188531  0.543833  0.444378  1
  Bi  Bi15  1  0.811469  0.456167  0.555622  1
  Bi  Bi16  1  0.456167  0.555622  0.811469  1
  Bi  Bi17  1  0.444378  0.188531  0.543833  1
  O  O18  1  0.942032  0.954929  0.261670  1
  O  O19  1  0.045071  0.738330  0.057968  1
  O  O20  1  0.620688  0.929995  0.257331  1
  O  O21  1  0.070005  0.742669  0.379312  1
  O  O22  1  0.732054  0.010411  0.693438  1
  O  O23  1  0.334729  0.557803  0.279918  1
  O  O24  1  0.742669  0.379312  0.070005  1
  O  O25  1  0.720082  0.665271  0.442197  1
  O  O26  1  0.306562  0.267946  0.989589  1
  O  O27  1  0.989589  0.306562  0.267946  1
  O  O28  1  0.442197  0.720082  0.665271  1
  O  O29  1  0.738330  0.057968  0.045071  1
  O  O30  1  0.261670  0.942032  0.954929  1
  O  O31  1  0.557803  0.279918  0.334729  1
  O  O32  1  0.010411  0.693438  0.732054  1
  O  O33  1  0.693438  0.732054  0.010411  1
  O  O34  1  0.279918  0.334729  0.557803  1
  O  O35  1  0.257331  0.620688  0.929995  1
  O  O36  1  0.665271  0.442197  0.720082  1
  O  O37  1  0.267946  0.989589  0.306562  1
  O  O38  1  0.929995  0.257331  0.620688  1
  O  O39  1  0.379312  0.070005  0.742669  1
  O  O40  1  0.954929  0.261670  0.942032  1
  O  O41  1  0.057968  0.045071  0.738330  1
