# generated using pymatgen
data_Nb2P4H3O16
_symmetry_space_group_name_H-M   'P 1'
_cell_length_a   5.12162713
_cell_length_b   7.53909685
_cell_length_c   8.22377617
_cell_angle_alpha   90.96147503
_cell_angle_beta   91.83453290
_cell_angle_gamma   103.52842811
_symmetry_Int_Tables_number   1
_chemical_formula_structural   Nb2P4H3O16
_chemical_formula_sum   'Nb2 P4 H3 O16'
_cell_volume   308.47512712
_cell_formula_units_Z   1
loop_
 _symmetry_equiv_pos_site_id
 _symmetry_equiv_pos_as_xyz
  1  'x, y, z'
loop_
 _atom_site_type_symbol
 _atom_site_label
 _atom_site_symmetry_multiplicity
 _atom_site_fract_x
 _atom_site_fract_y
 _atom_site_fract_z
 _atom_site_occupancy
  Nb  Nb0  1  0.998257  0.497152  0.003098  1
  Nb  Nb1  1  0.499589  0.001767  0.498569  1
  P  P2  1  0.108206  0.257214  0.662795  1
  P  P3  1  0.383390  0.228743  0.145215  1
  P  P4  1  0.610587  0.762566  0.850833  1
  P  P5  1  0.891411  0.744056  0.337412  1
  H  H6  1  0.396728  0.447370  0.551608  1
  H  H7  1  0.600668  0.549888  0.443689  1
  H  H8  1  0.947072  0.978600  0.986582  1
  O  O9  1  0.138386  0.851298  0.437010  1
  O  O10  1  0.019957  0.309444  0.829489  1
  O  O11  1  0.202770  0.373709  0.154594  1
  O  O12  1  0.212260  0.445276  0.573583  1
  O  O13  1  0.351052  0.659247  0.933271  1
  O  O14  1  0.540707  0.810834  0.675753  1
  O  O15  1  0.241501  0.064122  0.047955  1
  O  O16  1  0.332586  0.155330  0.668846  1
  O  O17  1  0.667125  0.846046  0.330469  1
  O  O18  1  0.745811  0.937248  0.950611  1
  O  O19  1  0.457693  0.191434  0.324881  1
  O  O20  1  0.651393  0.342190  0.068688  1
  O  O21  1  0.788267  0.556523  0.427658  1
  O  O22  1  0.803927  0.630739  0.844237  1
  O  O23  1  0.977887  0.691924  0.170212  1
  O  O24  1  0.861653  0.149180  0.563043  1
