# generated using pymatgen
data_Mn6O5F7
_symmetry_space_group_name_H-M   'P 1'
_cell_length_a   4.64883957
_cell_length_b   5.70498011
_cell_length_c   7.95124328
_cell_angle_alpha   86.92211516
_cell_angle_beta   89.12974909
_cell_angle_gamma   88.68445077
_symmetry_Int_Tables_number   1
_chemical_formula_structural   Mn6O5F7
_chemical_formula_sum   'Mn6 O5 F7'
_cell_volume   210.49892020
_cell_formula_units_Z   1
loop_
 _symmetry_equiv_pos_site_id
 _symmetry_equiv_pos_as_xyz
  1  'x, y, z'
loop_
 _atom_site_type_symbol
 _atom_site_label
 _atom_site_symmetry_multiplicity
 _atom_site_fract_x
 _atom_site_fract_y
 _atom_site_fract_z
 _atom_site_occupancy
  Mn  Mn0  1  0.496601  0.499768  0.005421  1
  Mn  Mn1  1  0.526750  0.810335  0.647749  1
  Mn  Mn2  1  0.500718  0.170718  0.337475  1
  Mn  Mn3  1  0.000595  0.348004  0.697139  1
  Mn  Mn4  1  0.979202  0.663963  0.313756  1
  Mn  Mn5  1  0.004961  0.996091  0.996648  1
  O  O6  1  0.816785  0.715024  0.091575  1
  O  O7  1  0.691372  0.525941  0.780613  1
  O  O8  1  0.696286  0.878845  0.419711  1
  O  O9  1  0.316025  0.463666  0.234238  1
  O  O10  1  0.193064  0.280924  0.907833  1
  F  F11  1  0.796412  0.362644  0.457940  1
  F  F12  1  0.792087  0.030479  0.770031  1
  F  F13  1  0.718941  0.199078  0.109305  1
  F  F14  1  0.288462  0.142295  0.577381  1
  F  F15  1  0.291217  0.798806  0.878371  1
  F  F16  1  0.175124  0.638998  0.548764  1
  F  F17  1  0.215399  0.974422  0.226052  1
