# generated using pymatgen
data_TaIn3O7
_symmetry_space_group_name_H-M   'P 1'
_cell_length_a   7.31930955
_cell_length_b   7.49386270
_cell_length_c   10.51179597
_cell_angle_alpha   90.00000000
_cell_angle_beta   90.00000000
_cell_angle_gamma   90.00000000
_symmetry_Int_Tables_number   1
_chemical_formula_structural   TaIn3O7
_chemical_formula_sum   'Ta4 In12 O28'
_cell_volume   576.57096647
_cell_formula_units_Z   4
loop_
 _symmetry_equiv_pos_site_id
 _symmetry_equiv_pos_as_xyz
  1  'x, y, z'
loop_
 _atom_site_type_symbol
 _atom_site_label
 _atom_site_symmetry_multiplicity
 _atom_site_fract_x
 _atom_site_fract_y
 _atom_site_fract_z
 _atom_site_occupancy
  Ta  Ta0  1  0.999242  0.757808  0.250000  1
  Ta  Ta1  1  0.500758  0.257808  0.750000  1
  Ta  Ta2  1  0.499242  0.742192  0.250000  1
  Ta  Ta3  1  0.000758  0.242192  0.750000  1
  In  In4  1  0.992483  0.702137  0.750000  1
  In  In5  1  0.749446  0.515481  0.008640  1
  In  In6  1  0.749446  0.515481  0.491360  1
  In  In7  1  0.750554  0.015481  0.508640  1
  In  In8  1  0.750554  0.015481  0.991360  1
  In  In9  1  0.507517  0.202137  0.250000  1
  In  In10  1  0.492483  0.797863  0.750000  1
  In  In11  1  0.249446  0.984519  0.008640  1
  In  In12  1  0.249446  0.984519  0.491360  1
  In  In13  1  0.250554  0.484519  0.508640  1
  In  In14  1  0.250554  0.484519  0.991360  1
  In  In15  1  0.007517  0.297863  0.250000  1
  O  O16  1  0.975353  0.456073  0.622866  1
  O  O17  1  0.975353  0.456073  0.877134  1
  O  O18  1  0.975558  0.923119  0.109750  1
  O  O19  1  0.975558  0.923119  0.390250  1
  O  O20  1  0.748955  0.183078  0.750000  1
  O  O21  1  0.746262  0.761879  0.615976  1
  O  O22  1  0.746262  0.761879  0.884024  1
  O  O23  1  0.753738  0.261879  0.115976  1
  O  O24  1  0.753738  0.261879  0.384024  1
  O  O25  1  0.751045  0.683078  0.250000  1
  O  O26  1  0.524442  0.423119  0.609750  1
  O  O27  1  0.524442  0.423119  0.890250  1
  O  O28  1  0.524647  0.956073  0.122866  1
  O  O29  1  0.524647  0.956073  0.377134  1
  O  O30  1  0.475353  0.043927  0.622866  1
  O  O31  1  0.475353  0.043927  0.877134  1
  O  O32  1  0.475558  0.576881  0.109750  1
  O  O33  1  0.475558  0.576881  0.390250  1
  O  O34  1  0.248955  0.316922  0.750000  1
  O  O35  1  0.246262  0.738121  0.615976  1
  O  O36  1  0.246262  0.738121  0.884024  1
  O  O37  1  0.253738  0.238121  0.115976  1
  O  O38  1  0.253738  0.238121  0.384024  1
  O  O39  1  0.251045  0.816922  0.250000  1
  O  O40  1  0.024442  0.076881  0.609750  1
  O  O41  1  0.024442  0.076881  0.890250  1
  O  O42  1  0.024647  0.543927  0.122866  1
  O  O43  1  0.024647  0.543927  0.377134  1
