# generated using pymatgen
data_K2YPCO7
_symmetry_space_group_name_H-M   'P 1'
_cell_length_a   5.83927977
_cell_length_b   7.15555743
_cell_length_c   10.02650112
_cell_angle_alpha   90.00000000
_cell_angle_beta   91.70120703
_cell_angle_gamma   90.00000000
_symmetry_Int_Tables_number   1
_chemical_formula_structural   K2YPCO7
_chemical_formula_sum   'K4 Y2 P2 C2 O14'
_cell_volume   418.75566794
_cell_formula_units_Z   2
loop_
 _symmetry_equiv_pos_site_id
 _symmetry_equiv_pos_as_xyz
  1  'x, y, z'
loop_
 _atom_site_type_symbol
 _atom_site_label
 _atom_site_symmetry_multiplicity
 _atom_site_fract_x
 _atom_site_fract_y
 _atom_site_fract_z
 _atom_site_occupancy
  K  K0  1  0.247496  0.488379  0.219626  1
  K  K1  1  0.247496  0.011621  0.219626  1
  K  K2  1  0.752504  0.511621  0.780374  1
  K  K3  1  0.752504  0.988379  0.780374  1
  Y  Y4  1  0.782577  0.750000  0.369002  1
  Y  Y5  1  0.217423  0.250000  0.630998  1
  P  P6  1  0.710778  0.250000  0.430793  1
  P  P7  1  0.289222  0.750000  0.569207  1
  C  C8  1  0.728589  0.750000  0.094932  1
  C  C9  1  0.271411  0.250000  0.905068  1
  O  O10  1  0.301120  0.250000  0.030003  1
  O  O11  1  0.932883  0.750000  0.154718  1
  O  O12  1  0.554896  0.750000  0.177697  1
  O  O13  1  0.772425  0.070536  0.352947  1
  O  O14  1  0.772425  0.429464  0.352947  1
  O  O15  1  0.154208  0.750000  0.431508  1
  O  O16  1  0.447545  0.250000  0.456636  1
  O  O17  1  0.552455  0.750000  0.543364  1
  O  O18  1  0.845792  0.250000  0.568492  1
  O  O19  1  0.227575  0.570536  0.647053  1
  O  O20  1  0.227575  0.929464  0.647053  1
  O  O21  1  0.445104  0.250000  0.822303  1
  O  O22  1  0.067117  0.250000  0.845282  1
  O  O23  1  0.698880  0.750000  0.969997  1
