# generated using pymatgen
data_Li4V3Co3(SbO8)2
_symmetry_space_group_name_H-M   'P 1'
_cell_length_a   5.95888805
_cell_length_b   6.00051281
_cell_length_c   9.74585351
_cell_angle_alpha   90.72687637
_cell_angle_beta   90.19422167
_cell_angle_gamma   119.70629534
_symmetry_Int_Tables_number   1
_chemical_formula_structural   Li4V3Co3(SbO8)2
_chemical_formula_sum   'Li4 V3 Co3 Sb2 O16'
_cell_volume   302.63553956
_cell_formula_units_Z   1
loop_
 _symmetry_equiv_pos_site_id
 _symmetry_equiv_pos_as_xyz
  1  'x, y, z'
loop_
 _atom_site_type_symbol
 _atom_site_label
 _atom_site_symmetry_multiplicity
 _atom_site_fract_x
 _atom_site_fract_y
 _atom_site_fract_z
 _atom_site_occupancy
  Li  Li0  1  0.670327  0.337021  0.093506  1
  Li  Li1  1  0.996398  0.994389  0.004072  1
  Li  Li2  1  0.004780  0.999335  0.515959  1
  Li  Li3  1  0.338678  0.677921  0.602877  1
  V  V4  1  0.823890  0.648464  0.778056  1
  V  V5  1  0.655300  0.816172  0.289804  1
  V  V6  1  0.171697  0.828834  0.278144  1
  Co  Co7  1  0.829459  0.172380  0.789260  1
  Co  Co8  1  0.342658  0.173505  0.788895  1
  Co  Co9  1  0.171020  0.341495  0.291694  1
  Sb  Sb10  1  0.657271  0.319518  0.514349  1
  Sb  Sb11  1  0.329686  0.662163  0.005855  1
  O  O12  1  0.820810  0.146678  0.399791  1
  O  O13  1  0.518697  0.038124  0.649873  1
  O  O14  1  0.687239  0.372621  0.894147  1
  O  O15  1  0.984549  0.972139  0.703059  1
  O  O16  1  0.996805  0.978970  0.197029  1
  O  O17  1  0.327040  0.160315  0.402962  1
  O  O18  1  0.967665  0.496193  0.644812  1
  O  O19  1  0.527278  0.496313  0.645882  1
  O  O20  1  0.163056  0.322840  0.915576  1
  O  O21  1  0.826952  0.660592  0.396046  1
  O  O22  1  0.502331  0.541229  0.162212  1
  O  O23  1  0.043061  0.528239  0.157444  1
  O  O24  1  0.340487  0.701276  0.393669  1
  O  O25  1  0.662172  0.825012  0.909143  1
  O  O26  1  0.478599  0.961646  0.159993  1
  O  O27  1  0.162396  0.826617  0.908047  1
