# generated using pymatgen
data_Li3Ni(BO2)5
_symmetry_space_group_name_H-M   'P 1'
_cell_length_a   6.88949922
_cell_length_b   7.07119607
_cell_length_c   9.29176832
_cell_angle_alpha   79.99740432
_cell_angle_beta   68.64427348
_cell_angle_gamma   61.59285411
_symmetry_Int_Tables_number   1
_chemical_formula_structural   Li3Ni(BO2)5
_chemical_formula_sum   'Li6 Ni2 B10 O20'
_cell_volume   370.82229366
_cell_formula_units_Z   2
loop_
 _symmetry_equiv_pos_site_id
 _symmetry_equiv_pos_as_xyz
  1  'x, y, z'
loop_
 _atom_site_type_symbol
 _atom_site_label
 _atom_site_symmetry_multiplicity
 _atom_site_fract_x
 _atom_site_fract_y
 _atom_site_fract_z
 _atom_site_occupancy
  Li  Li0  1  0.244069  0.492030  0.246641  1
  Li  Li1  1  0.821204  0.992754  0.158783  1
  Li  Li2  1  0.020014  0.193008  0.464080  1
  Li  Li3  1  0.979986  0.806992  0.535920  1
  Li  Li4  1  0.178796  0.007246  0.841217  1
  Li  Li5  1  0.755931  0.507970  0.753359  1
  Ni  Ni6  1  0.219135  0.513918  0.882251  1
  Ni  Ni7  1  0.780865  0.486082  0.117749  1
  B  B8  1  0.305198  0.802387  0.070113  1
  B  B9  1  0.411621  0.857167  0.288581  1
  B  B10  1  0.362092  0.746844  0.568995  1
  B  B11  1  0.213628  0.168143  0.130339  1
  B  B12  1  0.746432  0.713986  0.397255  1
  B  B13  1  0.253568  0.286014  0.602745  1
  B  B14  1  0.786372  0.831857  0.869661  1
  B  B15  1  0.637908  0.253156  0.431005  1
  B  B16  1  0.588379  0.142833  0.711419  1
  B  B17  1  0.694802  0.197613  0.929887  1
  O  O18  1  0.268151  0.694316  0.991025  1
  O  O19  1  0.271547  0.840273  0.447607  1
  O  O20  1  0.412561  0.717344  0.184077  1
  O  O21  1  0.215139  0.733002  0.706305  1
  O  O22  1  0.128685  0.379373  0.097175  1
  O  O23  1  0.659478  0.777957  0.271424  1
  O  O24  1  0.045107  0.304985  0.622520  1
  O  O25  1  0.692741  0.913199  0.751240  1
  O  O26  1  0.599570  0.681210  0.541681  1
  O  O27  1  0.779665  0.974824  0.959794  1
  O  O28  1  0.220335  0.025176  0.040206  1
  O  O29  1  0.400430  0.318790  0.458319  1
  O  O30  1  0.307259  0.086801  0.248760  1
  O  O31  1  0.954893  0.695015  0.377480  1
  O  O32  1  0.340522  0.222043  0.728576  1
  O  O33  1  0.871315  0.620627  0.902825  1
  O  O34  1  0.784861  0.266998  0.293695  1
  O  O35  1  0.587439  0.282656  0.815923  1
  O  O36  1  0.728453  0.159727  0.552393  1
  O  O37  1  0.731849  0.305684  0.008975  1
