# generated using pymatgen
data_Li4Ti2Nb3V3O16
_symmetry_space_group_name_H-M   'P 1'
_cell_length_a   6.05770298
_cell_length_b   6.05770298
_cell_length_c   9.82834884
_cell_angle_alpha   89.62655634
_cell_angle_beta   90.37344366
_cell_angle_gamma   120.79470172
_symmetry_Int_Tables_number   1
_chemical_formula_structural   Li4Ti2Nb3V3O16
_chemical_formula_sum   'Li4 Ti2 Nb3 V3 O16'
_cell_volume   309.79980270
_cell_formula_units_Z   1
loop_
 _symmetry_equiv_pos_site_id
 _symmetry_equiv_pos_as_xyz
  1  'x, y, z'
loop_
 _atom_site_type_symbol
 _atom_site_label
 _atom_site_symmetry_multiplicity
 _atom_site_fract_x
 _atom_site_fract_y
 _atom_site_fract_z
 _atom_site_occupancy
  Li  Li0  1  0.667634  0.332366  0.098756  1
  Li  Li1  1  0.004335  0.995665  0.008905  1
  Li  Li2  1  0.008400  0.991600  0.507993  1
  Li  Li3  1  0.334798  0.665202  0.611518  1
  Ti  Ti4  1  0.657739  0.342261  0.504822  1
  Ti  Ti5  1  0.327190  0.672810  0.999680  1
  Nb  Nb6  1  0.826678  0.173322  0.776985  1
  Nb  Nb7  1  0.635358  0.817688  0.284180  1
  Nb  Nb8  1  0.182312  0.364642  0.284180  1
  V  V9  1  0.818814  0.650411  0.788339  1
  V  V10  1  0.349589  0.181186  0.788339  1
  V  V11  1  0.172445  0.827555  0.288352  1
  O  O12  1  0.821365  0.659818  0.405248  1
  O  O13  1  0.525010  0.474990  0.648839  1
  O  O14  1  0.676622  0.323378  0.902164  1
  O  O15  1  0.998772  0.001228  0.693549  1
  O  O16  1  0.001199  0.998801  0.193798  1
  O  O17  1  0.340182  0.178635  0.405248  1
  O  O18  1  0.964829  0.476997  0.657006  1
  O  O19  1  0.523003  0.035171  0.657006  1
  O  O20  1  0.169499  0.830501  0.907284  1
  O  O21  1  0.829520  0.170480  0.406903  1
  O  O22  1  0.488505  0.959010  0.152935  1
  O  O23  1  0.040990  0.511495  0.152935  1
  O  O24  1  0.327768  0.672232  0.418753  1
  O  O25  1  0.656928  0.837866  0.902767  1
  O  O26  1  0.486952  0.513048  0.142893  1
  O  O27  1  0.162134  0.343072  0.902767  1
