# generated using pymatgen
data_Li5V2Ni5O12
_symmetry_space_group_name_H-M   'P 1'
_cell_length_a   5.13140844
_cell_length_b   5.13140844
_cell_length_c   9.78248380
_cell_angle_alpha   84.60836315
_cell_angle_beta   95.39163685
_cell_angle_gamma   58.73572499
_symmetry_Int_Tables_number   1
_chemical_formula_structural   Li5V2Ni5O12
_chemical_formula_sum   'Li5 V2 Ni5 O12'
_cell_volume   216.10084585
_cell_formula_units_Z   1
loop_
 _symmetry_equiv_pos_site_id
 _symmetry_equiv_pos_as_xyz
  1  'x, y, z'
loop_
 _atom_site_type_symbol
 _atom_site_label
 _atom_site_symmetry_multiplicity
 _atom_site_fract_x
 _atom_site_fract_y
 _atom_site_fract_z
 _atom_site_occupancy
  Li  Li0  1  0.325429  0.832547  0.752679  1
  Li  Li1  1  0.168630  0.674200  0.245460  1
  Li  Li2  1  0.832547  0.325429  0.247321  1
  Li  Li3  1  0.674200  0.168630  0.754540  1
  Li  Li4  1  0.079391  0.079391  0.000000  1
  V  V5  1  0.747249  0.747249  0.000000  1
  V  V6  1  0.252131  0.252131  0.500000  1
  Ni  Ni7  1  0.921256  0.921256  0.500000  1
  Ni  Ni8  1  0.493311  0.003725  0.246822  1
  Ni  Ni9  1  0.003725  0.493311  0.753178  1
  Ni  Ni10  1  0.581448  0.581448  0.500000  1
  Ni  Ni11  1  0.418214  0.418214  0.000000  1
  O  O12  1  0.780946  0.017763  0.116328  1
  O  O13  1  0.017763  0.780946  0.883672  1
  O  O14  1  0.607421  0.895017  0.615093  1
  O  O15  1  0.895017  0.607421  0.384907  1
  O  O16  1  0.484545  0.708106  0.115596  1
  O  O17  1  0.708106  0.484545  0.884404  1
  O  O18  1  0.289250  0.527331  0.621877  1
  O  O19  1  0.527331  0.289250  0.378123  1
  O  O20  1  0.103229  0.400731  0.114960  1
  O  O21  1  0.400731  0.103229  0.885040  1
  O  O22  1  0.975013  0.213121  0.621608  1
  O  O23  1  0.213121  0.975013  0.378392  1
