# generated using pymatgen
data_LiAgO
_symmetry_space_group_name_H-M   'P 1'
_cell_length_a   6.88085757
_cell_length_b   6.88085757
_cell_length_c   6.88085757
_cell_angle_alpha   94.48786280
_cell_angle_beta   94.48786280
_cell_angle_gamma   147.51202297
_symmetry_Int_Tables_number   1
_chemical_formula_structural   LiAgO
_chemical_formula_sum   'Li4 Ag4 O4'
_cell_volume   167.99958599
_cell_formula_units_Z   4
loop_
 _symmetry_equiv_pos_site_id
 _symmetry_equiv_pos_as_xyz
  1  'x, y, z'
loop_
 _atom_site_type_symbol
 _atom_site_label
 _atom_site_symmetry_multiplicity
 _atom_site_fract_x
 _atom_site_fract_y
 _atom_site_fract_z
 _atom_site_occupancy
  Li  Li0  1  1.000000  0.362901  0.362901  1
  Li  Li1  1  0.637099  1.000000  0.637099  1
  Li  Li2  1  0.362901  1.000000  0.362901  1
  Li  Li3  1  1.000000  0.637099  0.637099  1
  Ag  Ag4  1  0.661379  0.661379  0.322759  1
  Ag  Ag5  1  0.338621  0.661379  0.000000  1
  Ag  Ag6  1  0.338621  0.338621  0.677241  1
  Ag  Ag7  1  0.661379  0.338621  1.000000  1
  O  O8  1  0.500000  0.821585  0.321585  1
  O  O9  1  0.178415  0.500000  0.678415  1
  O  O10  1  0.821585  0.500000  0.321585  1
  O  O11  1  0.500000  0.178415  0.678415  1
