# generated using pymatgen
data_Li5Fe2P2(CO7)2
_symmetry_space_group_name_H-M   'P 1'
_cell_length_a   8.25897515
_cell_length_b   8.27116801
_cell_length_c   8.42847058
_cell_angle_alpha   93.25479276
_cell_angle_beta   92.92446882
_cell_angle_gamma   104.62174877
_symmetry_Int_Tables_number   1
_chemical_formula_structural   Li5Fe2P2(CO7)2
_chemical_formula_sum   'Li10 Fe4 P4 C4 O28'
_cell_volume   554.94064236
_cell_formula_units_Z   2
loop_
 _symmetry_equiv_pos_site_id
 _symmetry_equiv_pos_as_xyz
  1  'x, y, z'
loop_
 _atom_site_type_symbol
 _atom_site_label
 _atom_site_symmetry_multiplicity
 _atom_site_fract_x
 _atom_site_fract_y
 _atom_site_fract_z
 _atom_site_occupancy
  Li  Li0  1  0.739707  0.495049  0.097695  1
  Li  Li1  1  0.236098  0.987335  0.098831  1
  Li  Li2  1  0.598975  0.123837  0.273083  1
  Li  Li3  1  0.382885  0.364995  0.276633  1
  Li  Li4  1  0.110354  0.644466  0.274067  1
  Li  Li5  1  0.402917  0.890624  0.729279  1
  Li  Li6  1  0.613821  0.637613  0.723012  1
  Li  Li7  1  0.107440  0.149096  0.723637  1
  Li  Li8  1  0.265347  0.508694  0.895581  1
  Li  Li9  1  0.746520  0.016242  0.914428  1
  Fe  Fe10  1  0.486534  0.733930  0.326214  1
  Fe  Fe11  1  0.970535  0.217391  0.337715  1
  Fe  Fe12  1  0.019917  0.768487  0.659256  1
  Fe  Fe13  1  0.535082  0.276439  0.673449  1
  P  P14  1  0.762803  0.510718  0.413548  1
  P  P15  1  0.262122  0.012160  0.416314  1
  P  P16  1  0.737841  0.985990  0.587787  1
  P  P17  1  0.239262  0.485649  0.581410  1
  C  C18  1  0.514906  0.781788  0.028656  1
  C  C19  1  0.037720  0.273532  0.049892  1
  C  C20  1  0.976597  0.719975  0.951503  1
  C  C21  1  0.468700  0.224448  0.969730  1
  O  O22  1  0.403544  0.651137  0.065652  1
  O  O23  1  0.908801  0.153532  0.081546  1
  O  O24  1  0.957081  0.664742  0.088361  1
  O  O25  1  0.594354  0.891361  0.141628  1
  O  O26  1  0.432367  0.195056  0.116102  1
  O  O27  1  0.115657  0.367030  0.177113  1
  O  O28  1  0.635845  0.561400  0.296643  1
  O  O29  1  0.804975  0.361730  0.315542  1
  O  O30  1  0.293565  0.865548  0.308963  1
  O  O31  1  0.124590  0.067940  0.316863  1
  O  O32  1  0.929489  0.653623  0.447866  1
  O  O33  1  0.779158  0.057902  0.424052  1
  O  O34  1  0.304377  0.545139  0.421149  1
  O  O35  1  0.422312  0.158396  0.444031  1
  O  O36  1  0.594929  0.822212  0.559026  1
  O  O37  1  0.689331  0.466432  0.572438  1
  O  O38  1  0.208305  0.955200  0.583796  1
  O  O39  1  0.091267  0.323641  0.546486  1
  O  O40  1  0.896635  0.951032  0.674348  1
  O  O41  1  0.183832  0.625337  0.682003  1
  O  O42  1  0.682836  0.106691  0.707093  1
  O  O43  1  0.374073  0.444905  0.696092  1
  O  O44  1  0.869558  0.656018  0.829200  1
  O  O45  1  0.550741  0.804322  0.882156  1
  O  O46  1  0.382143  0.126128  0.852162  1
  O  O47  1  0.088125  0.298067  0.911864  1
  O  O48  1  0.589080  0.349473  0.938861  1
  O  O49  1  0.104958  0.839536  0.917247  1
