# generated using pymatgen
data_Ba2CaP4(H3O8)2
_symmetry_space_group_name_H-M   'P 1'
_cell_length_a   5.55757548
_cell_length_b   10.38231734
_cell_length_c   12.42323464
_cell_angle_alpha   90.00000000
_cell_angle_beta   100.46583638
_cell_angle_gamma   90.00000000
_symmetry_Int_Tables_number   1
_chemical_formula_structural   Ba2CaP4(H3O8)2
_chemical_formula_sum   'Ba4 Ca2 P8 H12 O32'
_cell_volume   704.90143426
_cell_formula_units_Z   2
loop_
 _symmetry_equiv_pos_site_id
 _symmetry_equiv_pos_as_xyz
  1  'x, y, z'
loop_
 _atom_site_type_symbol
 _atom_site_label
 _atom_site_symmetry_multiplicity
 _atom_site_fract_x
 _atom_site_fract_y
 _atom_site_fract_z
 _atom_site_occupancy
  Ba  Ba0  1  0.858896  0.655052  0.178930  1
  Ba  Ba1  1  0.858896  0.844948  0.678930  1
  Ba  Ba2  1  0.141104  0.155052  0.321070  1
  Ba  Ba3  1  0.141104  0.344948  0.821070  1
  Ca  Ca4  1  0.000000  0.500000  0.500000  1
  Ca  Ca5  1  0.000000  0.000000  0.000000  1
  P  P6  1  0.766080  0.306154  0.054332  1
  P  P7  1  0.766080  0.193846  0.554332  1
  P  P8  1  0.588711  0.992642  0.201742  1
  P  P9  1  0.588711  0.507358  0.701742  1
  P  P10  1  0.411289  0.492642  0.298258  1
  P  P11  1  0.411289  0.007358  0.798258  1
  P  P12  1  0.233920  0.806154  0.445668  1
  P  P13  1  0.233920  0.693846  0.945668  1
  H  H14  1  0.711369  0.033590  0.435189  1
  H  H15  1  0.613615  0.327181  0.241638  1
  H  H16  1  0.438628  0.185969  0.060861  1
  H  H17  1  0.561372  0.685969  0.439139  1
  H  H18  1  0.711369  0.466410  0.935189  1
  H  H19  1  0.386385  0.827181  0.258362  1
  H  H20  1  0.613615  0.172819  0.741638  1
  H  H21  1  0.288631  0.533590  0.064811  1
  H  H22  1  0.438628  0.314031  0.560861  1
  H  H23  1  0.561372  0.814031  0.939139  1
  H  H24  1  0.386385  0.672819  0.758362  1
  H  H25  1  0.288631  0.966410  0.564811  1
  O  O26  1  0.833789  0.304991  0.178757  1
  O  O27  1  0.819241  0.991940  0.151360  1
  O  O28  1  0.762515  0.453618  0.018961  1
  O  O29  1  0.930601  0.270853  0.492699  1
  O  O30  1  0.833789  0.195009  0.678757  1
  O  O31  1  0.819241  0.508060  0.651360  1
  O  O32  1  0.762515  0.046382  0.518961  1
  O  O33  1  0.930601  0.229147  0.992699  1
  O  O34  1  0.631964  0.058273  0.315066  1
  O  O35  1  0.635110  0.557172  0.371549  1
  O  O36  1  0.485364  0.263295  0.018773  1
  O  O37  1  0.528476  0.843412  0.218305  1
  O  O38  1  0.471524  0.343412  0.281695  1
  O  O39  1  0.514636  0.763295  0.481227  1
  O  O40  1  0.364890  0.057172  0.128451  1
  O  O41  1  0.368036  0.558273  0.184934  1
  O  O42  1  0.631964  0.441727  0.815066  1
  O  O43  1  0.635110  0.942828  0.871549  1
  O  O44  1  0.485364  0.236705  0.518773  1
  O  O45  1  0.528476  0.656588  0.718305  1
  O  O46  1  0.471524  0.156588  0.781695  1
  O  O47  1  0.514636  0.736705  0.981227  1
  O  O48  1  0.364890  0.442828  0.628451  1
  O  O49  1  0.368036  0.941727  0.684934  1
  O  O50  1  0.069399  0.770853  0.007301  1
  O  O51  1  0.237485  0.953618  0.481039  1
  O  O52  1  0.180759  0.491940  0.348640  1
  O  O53  1  0.166211  0.804991  0.321243  1
  O  O54  1  0.069399  0.729147  0.507301  1
  O  O55  1  0.237485  0.546382  0.981039  1
  O  O56  1  0.180759  0.008060  0.848640  1
  O  O57  1  0.166211  0.695009  0.821243  1
