# generated using pymatgen
data_Li5Cu(PO4)2
_symmetry_space_group_name_H-M   'P 1'
_cell_length_a   5.33800732
_cell_length_b   6.21500916
_cell_length_c   9.95567516
_cell_angle_alpha   89.87822354
_cell_angle_beta   89.81502533
_cell_angle_gamma   89.91042582
_symmetry_Int_Tables_number   1
_chemical_formula_structural   Li5Cu(PO4)2
_chemical_formula_sum   'Li10 Cu2 P4 O16'
_cell_volume   330.28426593
_cell_formula_units_Z   2
loop_
 _symmetry_equiv_pos_site_id
 _symmetry_equiv_pos_as_xyz
  1  'x, y, z'
loop_
 _atom_site_type_symbol
 _atom_site_label
 _atom_site_symmetry_multiplicity
 _atom_site_fract_x
 _atom_site_fract_y
 _atom_site_fract_z
 _atom_site_occupancy
  Li  Li0  1  0.844806  0.000016  0.755172  1
  Li  Li1  1  0.673468  0.754944  0.505108  1
  Li  Li2  1  0.671672  0.751905  0.003553  1
  Li  Li3  1  0.327655  0.746665  0.754484  1
  Li  Li4  1  0.326529  0.749772  0.254652  1
  Li  Li5  1  0.155023  0.499574  0.003637  1
  Li  Li6  1  0.156288  0.500159  0.505229  1
  Li  Li7  1  0.326903  0.250490  0.254984  1
  Li  Li8  1  0.326268  0.253208  0.754048  1
  Li  Li9  1  0.673942  0.246454  0.505983  1
  Cu  Cu10  1  0.825815  0.002233  0.253702  1
  Cu  Cu11  1  0.664726  0.244378  0.002590  1
  P  P12  1  0.178131  0.995654  0.997972  1
  P  P13  1  0.178687  0.999925  0.503239  1
  P  P14  1  0.826252  0.501816  0.747525  1
  P  P15  1  0.828340  0.502947  0.253127  1
  O  O16  1  0.193265  0.000012  0.346404  1
  O  O17  1  0.901113  0.000051  0.551860  1
  O  O18  1  0.186325  0.000105  0.841942  1
  O  O19  1  0.898789  0.984218  0.043924  1
  O  O20  1  0.314075  0.793109  0.555717  1
  O  O21  1  0.317846  0.792749  0.051751  1
  O  O22  1  0.687529  0.705201  0.802070  1
  O  O23  1  0.682326  0.703261  0.307577  1
  O  O24  1  0.827046  0.509556  0.096536  1
  O  O25  1  0.103827  0.500960  0.303166  1
  O  O26  1  0.822597  0.503804  0.591248  1
  O  O27  1  0.101458  0.499858  0.799864  1
  O  O28  1  0.684078  0.300824  0.306122  1
  O  O29  1  0.686687  0.292485  0.793656  1
  O  O30  1  0.313432  0.206691  0.555119  1
  O  O31  1  0.295103  0.206976  0.055449  1
