# generated using pymatgen
data_K2CrO4
_symmetry_space_group_name_H-M   'P 1'
_cell_length_a   6.04099823
_cell_length_b   8.32553645
_cell_length_c   11.72592734
_cell_angle_alpha   90.00000000
_cell_angle_beta   118.95527180
_cell_angle_gamma   90.00000000
_symmetry_Int_Tables_number   1
_chemical_formula_structural   K2CrO4
_chemical_formula_sum   'K8 Cr4 O16'
_cell_volume   516.03023612
_cell_formula_units_Z   4
loop_
 _symmetry_equiv_pos_site_id
 _symmetry_equiv_pos_as_xyz
  1  'x, y, z'
loop_
 _atom_site_type_symbol
 _atom_site_label
 _atom_site_symmetry_multiplicity
 _atom_site_fract_x
 _atom_site_fract_y
 _atom_site_fract_z
 _atom_site_occupancy
  K  K0  1  0.215445  0.271521  0.907042  1
  K  K1  1  0.450094  0.508825  0.713467  1
  K  K2  1  0.215445  0.228479  0.407042  1
  K  K3  1  0.549906  0.008825  0.786533  1
  K  K4  1  0.450094  0.991175  0.213467  1
  K  K5  1  0.784555  0.771521  0.592958  1
  K  K6  1  0.549906  0.491175  0.286533  1
  K  K7  1  0.784555  0.728479  0.092958  1
  Cr  Cr8  1  0.129318  0.733092  0.933928  1
  Cr  Cr9  1  0.129318  0.766908  0.433928  1
  Cr  Cr10  1  0.870682  0.233092  0.566072  1
  Cr  Cr11  1  0.870682  0.266908  0.066072  1
  O  O12  1  0.226862  0.912676  0.915000  1
  O  O13  1  0.237010  0.593065  0.872008  1
  O  O14  1  0.241973  0.798443  0.593177  1
  O  O15  1  0.187594  0.229105  0.640890  1
  O  O16  1  0.226862  0.587324  0.415000  1
  O  O17  1  0.237010  0.906935  0.372008  1
  O  O18  1  0.812406  0.729105  0.859110  1
  O  O19  1  0.758027  0.298443  0.906823  1
  O  O20  1  0.241973  0.701557  0.093177  1
  O  O21  1  0.187594  0.270895  0.140890  1
  O  O22  1  0.762990  0.093065  0.627992  1
  O  O23  1  0.773138  0.412676  0.585000  1
  O  O24  1  0.812406  0.770895  0.359110  1
  O  O25  1  0.758027  0.201557  0.406823  1
  O  O26  1  0.762990  0.406935  0.127992  1
  O  O27  1  0.773138  0.087324  0.085000  1
