# generated using pymatgen
data_CrH10S2(NO2)4
_symmetry_space_group_name_H-M   'P 1'
_cell_length_a   5.53645918
_cell_length_b   5.80444030
_cell_length_c   7.34797812
_cell_angle_alpha   91.81301841
_cell_angle_beta   103.36728003
_cell_angle_gamma   97.49830152
_symmetry_Int_Tables_number   1
_chemical_formula_structural   CrH10S2(NO2)4
_chemical_formula_sum   'Cr1 H10 S2 N4 O8'
_cell_volume   227.30498706
_cell_formula_units_Z   1
loop_
 _symmetry_equiv_pos_site_id
 _symmetry_equiv_pos_as_xyz
  1  'x, y, z'
loop_
 _atom_site_type_symbol
 _atom_site_label
 _atom_site_symmetry_multiplicity
 _atom_site_fract_x
 _atom_site_fract_y
 _atom_site_fract_z
 _atom_site_occupancy
  Cr  Cr0  1  0.000000  0.000000  0.000000  1
  H  H1  1  0.917196  0.708903  0.268498  1
  H  H2  1  0.244028  0.554956  0.169214  1
  H  H3  1  0.443413  0.789269  0.285470  1
  H  H4  1  0.123296  0.929090  0.375834  1
  H  H5  1  0.292108  0.596594  0.407503  1
  H  H6  1  0.707892  0.403406  0.592497  1
  H  H7  1  0.876704  0.070910  0.624166  1
  H  H8  1  0.556587  0.210731  0.714530  1
  H  H9  1  0.755972  0.445044  0.830786  1
  H  H10  1  0.082804  0.291097  0.731502  1
  S  S11  1  0.655793  0.250888  0.226601  1
  S  S12  1  0.344207  0.749112  0.773399  1
  N  N13  1  0.276390  0.677676  0.280340  1
  N  N14  1  0.075217  0.818765  0.256551  1
  N  N15  1  0.924783  0.181235  0.743449  1
  N  N16  1  0.723610  0.322324  0.719660  1
  O  O17  1  0.860936  0.267903  0.119987  1
  O  O18  1  0.408447  0.239708  0.094023  1
  O  O19  1  0.706885  0.465873  0.355159  1
  O  O20  1  0.670631  0.041490  0.339112  1
  O  O21  1  0.329369  0.958510  0.660888  1
  O  O22  1  0.293115  0.534127  0.644841  1
  O  O23  1  0.591553  0.760292  0.905977  1
  O  O24  1  0.139064  0.732097  0.880013  1
