# generated using pymatgen
data_LiMn2O4
_symmetry_space_group_name_H-M   'P 1'
_cell_length_a   6.63487507
_cell_length_b   6.64773391
_cell_length_c   11.00261500
_cell_angle_alpha   94.07718121
_cell_angle_beta   105.88685800
_cell_angle_gamma   98.53524983
_symmetry_Int_Tables_number   1
_chemical_formula_structural   LiMn2O4
_chemical_formula_sum   'Li6 Mn12 O24'
_cell_volume   458.38991921
_cell_formula_units_Z   6
loop_
 _symmetry_equiv_pos_site_id
 _symmetry_equiv_pos_as_xyz
  1  'x, y, z'
loop_
 _atom_site_type_symbol
 _atom_site_label
 _atom_site_symmetry_multiplicity
 _atom_site_fract_x
 _atom_site_fract_y
 _atom_site_fract_z
 _atom_site_occupancy
  Li  Li0  1  0.490009  0.989317  0.134156  1
  Li  Li1  1  0.366943  0.876393  0.360381  1
  Li  Li2  1  0.219762  0.719444  0.864765  1
  Li  Li3  1  0.013427  0.522648  0.366156  1
  Li  Li4  1  0.861237  0.367519  0.879554  1
  Li  Li5  1  0.628342  0.115879  0.626010  1
  Mn  Mn6  1  0.914459  0.920205  0.254460  1
  Mn  Mn7  1  0.845553  0.822122  0.503618  1
  Mn  Mn8  1  0.669798  0.663163  0.001826  1
  Mn  Mn9  1  0.746325  0.751440  0.750566  1
  Mn  Mn10  1  0.575256  0.585150  0.247648  1
  Mn  Mn11  1  0.517477  0.488075  0.503289  1
  Mn  Mn12  1  0.323930  0.336157  0.992454  1
  Mn  Mn13  1  0.415914  0.420902  0.749542  1
  Mn  Mn14  1  0.238037  0.262512  0.246866  1
  Mn  Mn15  1  0.176018  0.163607  0.506259  1
  Mn  Mn16  1  0.992553  0.002690  0.999788  1
  Mn  Mn17  1  0.085663  0.078591  0.749884  1
  O  O18  1  0.171126  0.969659  0.199216  1
  O  O19  1  0.759594  0.953465  0.081112  1
  O  O20  1  0.080278  0.874856  0.425997  1
  O  O21  1  0.651937  0.883602  0.302272  1
  O  O22  1  0.011800  0.791605  0.707133  1
  O  O23  1  0.603979  0.784613  0.574696  1
  O  O24  1  0.406551  0.625626  0.044915  1
  O  O25  1  0.488282  0.705487  0.801616  1
  O  O26  1  0.839297  0.632929  0.202572  1
  O  O27  1  0.330359  0.547952  0.315670  1
  O  O28  1  0.904230  0.713494  0.924416  1
  O  O29  1  0.758325  0.540612  0.436566  1
  O  O30  1  0.268093  0.448146  0.571453  1
  O  O31  1  0.067634  0.293904  0.041585  1
  O  O32  1  0.676948  0.454638  0.706548  1
  O  O33  1  0.168535  0.374612  0.817115  1
  O  O34  1  0.468913  0.291458  0.162873  1
  O  O35  1  0.018417  0.215243  0.335668  1
  O  O36  1  0.570474  0.376985  0.921844  1
  O  O37  1  0.429600  0.188794  0.456532  1
  O  O38  1  0.331899  0.128532  0.682952  1
  O  O39  1  0.933303  0.111207  0.577616  1
  O  O40  1  0.237979  0.041501  0.927510  1
  O  O41  1  0.824692  0.047084  0.796043  1
