# generated using pymatgen
data_BH5C4(N2O)2
_symmetry_space_group_name_H-M   'P 1'
_cell_length_a   7.66187550
_cell_length_b   12.45827096
_cell_length_c   12.61096130
_cell_angle_alpha   90.00000000
_cell_angle_beta   90.00000000
_cell_angle_gamma   90.00000000
_symmetry_Int_Tables_number   1
_chemical_formula_structural   BH5C4(N2O)2
_chemical_formula_sum   'B6 H30 C24 N24 O12'
_cell_volume   1203.76318199
_cell_formula_units_Z   6
loop_
 _symmetry_equiv_pos_site_id
 _symmetry_equiv_pos_as_xyz
  1  'x, y, z'
loop_
 _atom_site_type_symbol
 _atom_site_label
 _atom_site_symmetry_multiplicity
 _atom_site_fract_x
 _atom_site_fract_y
 _atom_site_fract_z
 _atom_site_occupancy
  B  B0  1  0.000000  0.517225  0.000000  1
  B  B1  1  0.000000  0.553141  0.500000  1
  B  B2  1  0.000000  0.785639  0.500000  1
  B  B3  1  0.500000  0.285639  0.000000  1
  B  B4  1  0.500000  0.017225  0.500000  1
  B  B5  1  0.500000  0.053141  0.000000  1
  H  H6  1  0.000000  0.258712  0.000000  1
  H  H7  1  0.000000  0.380465  0.500000  1
  H  H8  1  0.873488  0.623755  0.195857  1
  H  H9  1  0.742512  0.440348  0.154553  1
  H  H10  1  0.047847  0.382555  0.883554  1
  H  H11  1  0.802594  0.639642  0.968170  1
  H  H12  1  0.773536  0.181926  0.390294  1
  H  H13  1  0.636420  0.410873  0.943085  1
  H  H14  1  0.863580  0.910873  0.443085  1
  H  H15  1  0.726464  0.681926  0.890294  1
  H  H16  1  0.697406  0.139642  0.468170  1
  H  H17  1  0.452153  0.882555  0.383554  1
  H  H18  1  0.757488  0.940348  0.654553  1
  H  H19  1  0.626512  0.123755  0.695857  1
  H  H20  1  0.500000  0.758712  0.500000  1
  H  H21  1  0.500000  0.334918  0.500000  1
  H  H22  1  0.500000  0.880465  0.000000  1
  H  H23  1  0.373488  0.123755  0.304143  1
  H  H24  1  0.242512  0.940348  0.345447  1
  H  H25  1  0.547847  0.882555  0.616446  1
  H  H26  1  0.302594  0.139642  0.531830  1
  H  H27  1  0.273536  0.681926  0.109706  1
  H  H28  1  0.136420  0.910873  0.556915  1
  H  H29  1  0.363580  0.410873  0.056915  1
  H  H30  1  0.226464  0.181926  0.609706  1
  H  H31  1  0.197406  0.639642  0.031830  1
  H  H32  1  0.952153  0.382555  0.116446  1
  H  H33  1  0.257488  0.440348  0.845447  1
  H  H34  1  0.126512  0.623755  0.804143  1
  H  H35  1  0.000000  0.834918  0.000000  1
  C  C36  1  0.024991  0.617972  0.395148  1
  C  C37  1  0.946426  0.014137  0.728067  1
  C  C38  1  0.047604  0.404315  0.055267  1
  C  C39  1  0.860694  0.602725  0.043731  1
  C  C40  1  0.825207  0.828485  0.470200  1
  C  C41  1  0.856419  0.454784  0.510234  1
  C  C42  1  0.643581  0.954784  0.010234  1
  C  C43  1  0.674793  0.328485  0.970200  1
  C  C44  1  0.639306  0.102725  0.543731  1
  C  C45  1  0.452396  0.904315  0.555267  1
  C  C46  1  0.553574  0.514137  0.228067  1
  C  C47  1  0.475009  0.117972  0.895148  1
  C  C48  1  0.524991  0.117972  0.104852  1
  C  C49  1  0.446426  0.514137  0.771933  1
  C  C50  1  0.547604  0.904315  0.444733  1
  C  C51  1  0.360694  0.102725  0.456269  1
  C  C52  1  0.325207  0.328485  0.029800  1
  C  C53  1  0.356419  0.954784  0.989766  1
  C  C54  1  0.143581  0.454784  0.489766  1
  C  C55  1  0.174793  0.828485  0.529800  1
  C  C56  1  0.139306  0.602725  0.956269  1
  C  C57  1  0.952396  0.404315  0.944733  1
  C  C58  1  0.053574  0.014137  0.271933  1
  C  C59  1  0.975009  0.617972  0.604852  1
  N  N60  1  0.817423  0.652030  0.126940  1
  N  N61  1  0.901479  0.309128  0.307373  1
  N  N62  1  0.868267  0.917623  0.694949  1
  N  N63  1  0.646419  0.729080  0.837022  1
  N  N64  1  0.926611  0.647927  0.687605  1
  N  N65  1  0.656703  0.811781  0.463595  1
  N  N66  1  0.843297  0.311781  0.963595  1
  N  N67  1  0.573389  0.147927  0.187605  1
  N  N68  1  0.853581  0.229080  0.337022  1
  N  N69  1  0.631733  0.417623  0.194949  1
  N  N70  1  0.598521  0.809128  0.807373  1
  N  N71  1  0.682577  0.152030  0.626940  1
  N  N72  1  0.317423  0.152030  0.373060  1
  N  N73  1  0.401479  0.809128  0.192627  1
  N  N74  1  0.368267  0.417623  0.805051  1
  N  N75  1  0.146419  0.229080  0.662978  1
  N  N76  1  0.426611  0.147927  0.812395  1
  N  N77  1  0.156703  0.311781  0.036405  1
  N  N78  1  0.343297  0.811781  0.536405  1
  N  N79  1  0.073389  0.647927  0.312395  1
  N  N80  1  0.353581  0.729080  0.162978  1
  N  N81  1  0.131733  0.917623  0.305051  1
  N  N82  1  0.098521  0.309128  0.692627  1
  N  N83  1  0.182577  0.652030  0.873060  1
  O  O84  1  0.227112  0.928135  0.947680  1
  O  O85  1  0.069494  0.051407  0.669899  1
  O  O86  1  0.111599  0.052820  0.186795  1
  O  O87  1  0.388401  0.552820  0.686795  1
  O  O88  1  0.430506  0.551407  0.169899  1
  O  O89  1  0.272888  0.428135  0.447680  1
  O  O90  1  0.727112  0.428135  0.552320  1
  O  O91  1  0.569494  0.551407  0.830101  1
  O  O92  1  0.611599  0.552820  0.313205  1
  O  O93  1  0.888401  0.052820  0.813205  1
  O  O94  1  0.930506  0.051407  0.330101  1
  O  O95  1  0.772888  0.928135  0.052320  1
