# generated using pymatgen
data_LiV4O5F7
_symmetry_space_group_name_H-M   'P 1'
_cell_length_a   5.37839245
_cell_length_b   9.05466967
_cell_length_c   9.14750042
_cell_angle_alpha   69.11177072
_cell_angle_beta   88.13608374
_cell_angle_gamma   87.46474074
_symmetry_Int_Tables_number   1
_chemical_formula_structural   LiV4O5F7
_chemical_formula_sum   'Li2 V8 O10 F14'
_cell_volume   415.72702821
_cell_formula_units_Z   2
loop_
 _symmetry_equiv_pos_site_id
 _symmetry_equiv_pos_as_xyz
  1  'x, y, z'
loop_
 _atom_site_type_symbol
 _atom_site_label
 _atom_site_symmetry_multiplicity
 _atom_site_fract_x
 _atom_site_fract_y
 _atom_site_fract_z
 _atom_site_occupancy
  Li  Li0  1  0.063149  0.135734  0.626197  1
  Li  Li1  1  0.454061  0.113191  0.105040  1
  V  V2  1  0.024800  0.980568  0.999354  1
  V  V3  1  0.006438  0.755374  0.767926  1
  V  V4  1  0.530677  0.982522  0.498058  1
  V  V5  1  0.501513  0.268258  0.726389  1
  V  V6  1  0.967387  0.496112  0.508287  1
  V  V7  1  0.506315  0.753654  0.268535  1
  V  V8  1  0.992506  0.268593  0.226698  1
  V  V9  1  0.467106  0.494812  0.008222  1
  O  O10  1  0.206917  0.625632  0.917067  1
  O  O11  1  0.995858  0.932679  0.813281  1
  O  O12  1  0.783139  0.875833  0.581590  1
  O  O13  1  0.297946  0.369776  0.588720  1
  O  O14  1  0.497550  0.929546  0.313213  1
  O  O15  1  0.819449  0.317804  0.625410  1
  O  O16  1  0.705931  0.624223  0.419433  1
  O  O17  1  0.284786  0.879660  0.080305  1
  O  O18  1  0.313553  0.320339  0.122667  1
  O  O19  1  0.798194  0.375182  0.086200  1
  F  F20  1  0.210793  0.173508  0.879439  1
  F  F21  1  0.706132  0.665384  0.886340  1
  F  F22  1  0.289381  0.824512  0.617875  1
  F  F23  1  0.516756  0.427702  0.824645  1
  F  F24  1  0.693302  0.123556  0.930480  1
  F  F25  1  0.480400  0.076089  0.670902  1
  F  F26  1  0.985932  0.585144  0.672640  1
  F  F27  1  0.205855  0.664243  0.386894  1
  F  F28  1  0.198613  0.126140  0.427389  1
  F  F29  1  0.708258  0.174600  0.377162  1
  F  F30  1  0.482662  0.585648  0.172252  1
  F  F31  1  0.792235  0.820018  0.119435  1
  F  F32  1  0.014259  0.427358  0.326107  1
  F  F33  1  0.002743  0.076603  0.171237  1
