# generated using pymatgen
data_Li2VO2F
_symmetry_space_group_name_H-M   'P 1'
_cell_length_a   6.96287904
_cell_length_b   6.96287904
_cell_length_c   3.99763094
_cell_angle_alpha   90.00000000
_cell_angle_beta   90.00000000
_cell_angle_gamma   145.62094047
_symmetry_Int_Tables_number   1
_chemical_formula_structural   Li2VO2F
_chemical_formula_sum   'Li4 V2 O4 F2'
_cell_volume   109.43886444
_cell_formula_units_Z   2
loop_
 _symmetry_equiv_pos_site_id
 _symmetry_equiv_pos_as_xyz
  1  'x, y, z'
loop_
 _atom_site_type_symbol
 _atom_site_label
 _atom_site_symmetry_multiplicity
 _atom_site_fract_x
 _atom_site_fract_y
 _atom_site_fract_z
 _atom_site_occupancy
  Li  Li0  1  0.664368  0.335632  0.000000  1
  Li  Li1  1  0.335632  0.664368  0.000000  1
  Li  Li2  1  0.000000  0.000000  0.000000  1
  Li  Li3  1  0.500000  0.500000  0.500000  1
  V  V4  1  0.168026  0.831974  0.500000  1
  V  V5  1  0.831974  0.168026  0.500000  1
  O  O6  1  0.156585  0.843415  0.000000  1
  O  O7  1  0.675176  0.324824  0.500000  1
  O  O8  1  0.843415  0.156585  0.000000  1
  O  O9  1  0.324824  0.675176  0.500000  1
  F  F10  1  0.500000  0.500000  0.000000  1
  F  F11  1  0.000000  0.000000  0.500000  1
