# generated using pymatgen
data_Na5LiMn2P2(CO7)2
_symmetry_space_group_name_H-M   'P 1'
_cell_length_a   8.98345639
_cell_length_b   6.76685088
_cell_length_c   10.36674026
_cell_angle_alpha   90.00000000
_cell_angle_beta   90.06941735
_cell_angle_gamma   90.00000000
_symmetry_Int_Tables_number   1
_chemical_formula_structural   Na5LiMn2P2(CO7)2
_chemical_formula_sum   'Na10 Li2 Mn4 P4 C4 O28'
_cell_volume   630.19066963
_cell_formula_units_Z   2
loop_
 _symmetry_equiv_pos_site_id
 _symmetry_equiv_pos_as_xyz
  1  'x, y, z'
loop_
 _atom_site_type_symbol
 _atom_site_label
 _atom_site_symmetry_multiplicity
 _atom_site_fract_x
 _atom_site_fract_y
 _atom_site_fract_z
 _atom_site_occupancy
  Na  Na0  1  0.583433  0.249759  0.119404  1
  Na  Na1  1  0.582837  0.252635  0.620708  1
  Na  Na2  1  0.758568  0.001374  0.376435  1
  Na  Na3  1  0.758510  0.498909  0.376772  1
  Na  Na4  1  0.758036  0.001860  0.875838  1
  Na  Na5  1  0.241964  0.501860  0.124162  1
  Na  Na6  1  0.241432  0.501374  0.623565  1
  Na  Na7  1  0.241490  0.998909  0.623228  1
  Na  Na8  1  0.417163  0.752635  0.379292  1
  Na  Na9  1  0.416567  0.749759  0.880596  1
  Li  Li10  1  0.768708  0.490929  0.879649  1
  Li  Li11  1  0.231292  0.990929  0.120351  1
  Mn  Mn12  1  0.861428  0.747323  0.109752  1
  Mn  Mn13  1  0.861733  0.749389  0.611570  1
  Mn  Mn14  1  0.138267  0.249389  0.388430  1
  Mn  Mn15  1  0.138572  0.247323  0.890248  1
  P  P16  1  0.913881  0.245583  0.147837  1
  P  P17  1  0.909874  0.253176  0.650510  1
  P  P18  1  0.090126  0.753176  0.349490  1
  P  P19  1  0.086119  0.745583  0.852163  1
  C  C20  1  0.556490  0.754902  0.131124  1
  C  C21  1  0.560699  0.748615  0.633262  1
  C  C22  1  0.439301  0.248615  0.366738  1
  C  C23  1  0.443510  0.254902  0.868876  1
  O  O24  1  0.583205  0.249872  0.355912  1
  O  O25  1  0.587892  0.267824  0.859211  1
  O  O26  1  0.620189  0.748223  0.018587  1
  O  O27  1  0.622357  0.750499  0.519580  1
  O  O28  1  0.639591  0.747822  0.234403  1
  O  O29  1  0.644958  0.745925  0.735794  1
  O  O30  1  0.819185  0.063224  0.107401  1
  O  O31  1  0.825724  0.430584  0.100789  1
  O  O32  1  0.818842  0.066726  0.611316  1
  O  O33  1  0.818205  0.434821  0.604723  1
  O  O34  1  0.927202  0.251553  0.298048  1
  O  O35  1  0.931911  0.750590  0.408987  1
  O  O36  1  0.923919  0.261771  0.801394  1
  O  O37  1  0.925625  0.736110  0.908384  1
  O  O38  1  0.074375  0.236110  0.091616  1
  O  O39  1  0.076081  0.761771  0.198606  1
  O  O40  1  0.068089  0.250590  0.591013  1
  O  O41  1  0.072798  0.751553  0.701952  1
  O  O42  1  0.181158  0.566726  0.388684  1
  O  O43  1  0.181795  0.934821  0.395277  1
  O  O44  1  0.180815  0.563224  0.892599  1
  O  O45  1  0.174276  0.930584  0.899211  1
  O  O46  1  0.355042  0.245925  0.264206  1
  O  O47  1  0.360409  0.247822  0.765597  1
  O  O48  1  0.377643  0.250499  0.480420  1
  O  O49  1  0.379811  0.248223  0.981413  1
  O  O50  1  0.412108  0.767824  0.140789  1
  O  O51  1  0.416795  0.749872  0.644088  1
