# generated using pymatgen
data_Na3Cd4P6H10(ClO8)3
_symmetry_space_group_name_H-M   'P 1'
_cell_length_a   9.32248351
_cell_length_b   9.41197879
_cell_length_c   10.45478084
_cell_angle_alpha   63.99590765
_cell_angle_beta   77.49459988
_cell_angle_gamma   64.13257920
_symmetry_Int_Tables_number   1
_chemical_formula_structural   Na3Cd4P6H10(ClO8)3
_chemical_formula_sum   'Na3 Cd4 P6 H10 Cl3 O24'
_cell_volume   741.49753241
_cell_formula_units_Z   1
loop_
 _symmetry_equiv_pos_site_id
 _symmetry_equiv_pos_as_xyz
  1  'x, y, z'
loop_
 _atom_site_type_symbol
 _atom_site_label
 _atom_site_symmetry_multiplicity
 _atom_site_fract_x
 _atom_site_fract_y
 _atom_site_fract_z
 _atom_site_occupancy
  Na  Na0  1  0.980383  0.791190  0.795373  1
  Na  Na1  1  0.949975  0.798827  0.406451  1
  Na  Na2  1  0.960168  0.222169  0.504232  1
  Cd  Cd3  1  0.251485  0.001996  0.099680  1
  Cd  Cd4  1  0.767719  0.510124  0.740710  1
  Cd  Cd5  1  0.751044  0.286016  0.153283  1
  Cd  Cd6  1  0.301229  0.979832  0.757907  1
  P  P7  1  0.623173  0.006603  0.177142  1
  P  P8  1  0.819786  0.747111  0.141964  1
  P  P9  1  0.292630  0.748030  0.621758  1
  P  P10  1  0.403583  0.630581  0.166158  1
  P  P11  1  0.272152  0.486163  0.147032  1
  P  P12  1  0.627846  0.052212  0.590866  1
  H  H13  1  0.795263  0.563862  0.960456  1
  H  H14  1  0.567666  0.981761  0.443481  1
  H  H15  1  0.754814  0.629609  0.246366  1
  H  H16  1  0.662264  0.485345  0.551247  1
  H  H17  1  0.376658  0.623820  0.843389  1
  H  H18  1  0.156352  0.334512  0.879524  1
  H  H19  1  0.384920  0.716721  0.420593  1
  H  H20  1  0.452541  0.263409  0.653729  1
  H  H21  1  0.386990  0.313279  0.204609  1
  H  H22  1  0.283001  0.340525  0.950780  1
  Cl  Cl23  1  0.139429  0.420111  0.591422  1
  Cl  Cl24  1  0.056737  0.061909  0.914401  1
  Cl  Cl25  1  0.020818  0.108745  0.271059  1
  O  O26  1  0.819614  0.751912  0.645788  1
  O  O27  1  0.728690  0.141258  0.487808  1
  O  O28  1  0.826105  0.743585  0.999550  1
  O  O29  1  0.672360  0.949016  0.327137  1
  O  O30  1  0.942856  0.767432  0.196139  1
  O  O31  1  0.405362  0.771228  0.015428  1
  O  O32  1  0.721681  0.873614  0.717577  1
  O  O33  1  0.167143  0.239691  0.584885  1
  O  O34  1  0.425836  0.717133  0.502237  1
  O  O35  1  0.421663  0.680396  0.746507  1
  O  O36  1  0.152157  0.723406  0.556061  1
  O  O37  1  0.821698  0.456109  0.950490  1
  O  O38  1  0.188639  0.928745  0.618818  1
  O  O39  1  0.263375  0.535556  0.986890  1
  O  O40  1  0.564649  0.483672  0.222029  1
  O  O41  1  0.317465  0.719332  0.272300  1
  O  O42  1  0.126871  0.483049  0.244108  1
  O  O43  1  0.213328  0.606304  0.709856  1
  O  O44  1  0.659832  0.158805  0.066134  1
  O  O45  1  0.766173  0.415098  0.594737  1
  O  O46  1  0.512933  0.017646  0.528909  1
  O  O47  1  0.508138  0.138468  0.696376  1
  O  O48  1  0.257453  0.262398  0.928212  1
  O  O49  1  0.477352  0.986505  0.162210  1
