# generated using pymatgen
data_Na2SnBPO7
_symmetry_space_group_name_H-M   'P 1'
_cell_length_a   5.41579020
_cell_length_b   6.76520707
_cell_length_c   9.40690269
_cell_angle_alpha   90.00000000
_cell_angle_beta   91.98141384
_cell_angle_gamma   90.00000000
_symmetry_Int_Tables_number   1
_chemical_formula_structural   Na2SnBPO7
_chemical_formula_sum   'Na4 Sn2 B2 P2 O14'
_cell_volume   344.45289007
_cell_formula_units_Z   2
loop_
 _symmetry_equiv_pos_site_id
 _symmetry_equiv_pos_as_xyz
  1  'x, y, z'
loop_
 _atom_site_type_symbol
 _atom_site_label
 _atom_site_symmetry_multiplicity
 _atom_site_fract_x
 _atom_site_fract_y
 _atom_site_fract_z
 _atom_site_occupancy
  Na  Na0  1  0.764885  0.491813  0.190791  1
  Na  Na1  1  0.764885  0.008187  0.190791  1
  Na  Na2  1  0.235115  0.508187  0.809209  1
  Na  Na3  1  0.235115  0.991813  0.809209  1
  Sn  Sn4  1  0.226449  0.250000  0.344063  1
  Sn  Sn5  1  0.773551  0.750000  0.655937  1
  B  B6  1  0.276000  0.250000  0.076311  1
  B  B7  1  0.724000  0.750000  0.923689  1
  P  P8  1  0.273215  0.750000  0.433759  1
  P  P9  1  0.726785  0.250000  0.566241  1
  O  O10  1  0.693299  0.750000  0.061766  1
  O  O11  1  0.046669  0.250000  0.147361  1
  O  O12  1  0.473438  0.250000  0.184741  1
  O  O13  1  0.203281  0.934168  0.344394  1
  O  O14  1  0.203281  0.565832  0.344394  1
  O  O15  1  0.862941  0.250000  0.422783  1
  O  O16  1  0.560329  0.750000  0.467819  1
  O  O17  1  0.439671  0.250000  0.532181  1
  O  O18  1  0.137059  0.750000  0.577217  1
  O  O19  1  0.796719  0.434168  0.655606  1
  O  O20  1  0.796719  0.065832  0.655606  1
  O  O21  1  0.526562  0.750000  0.815259  1
  O  O22  1  0.953331  0.750000  0.852639  1
  O  O23  1  0.306701  0.250000  0.938234  1
