# generated using pymatgen
data_Li8Fe7O15
_symmetry_space_group_name_H-M   'P 1'
_cell_length_a   7.94267382
_cell_length_b   7.94267382
_cell_length_c   9.01141453
_cell_angle_alpha   78.88114412
_cell_angle_beta   101.11885588
_cell_angle_gamma   150.46421530
_symmetry_Int_Tables_number   1
_chemical_formula_structural   Li8Fe7O15
_chemical_formula_sum   'Li8 Fe7 O15'
_cell_volume   274.61937139
_cell_formula_units_Z   1
loop_
 _symmetry_equiv_pos_site_id
 _symmetry_equiv_pos_as_xyz
  1  'x, y, z'
loop_
 _atom_site_type_symbol
 _atom_site_label
 _atom_site_symmetry_multiplicity
 _atom_site_fract_x
 _atom_site_fract_y
 _atom_site_fract_z
 _atom_site_occupancy
  Li  Li0  1  0.401310  0.598690  0.137284  1
  Li  Li1  1  0.593356  0.406644  0.199272  1
  Li  Li2  1  0.406644  0.593356  0.800728  1
  Li  Li3  1  0.401760  0.598240  0.464806  1
  Li  Li4  1  0.598240  0.401760  0.535194  1
  Li  Li5  1  0.799833  0.200167  0.266947  1
  Li  Li6  1  0.598690  0.401310  0.862716  1
  Li  Li7  1  0.200167  0.799833  0.733053  1
  Fe  Fe8  1  0.800994  0.199006  0.601828  1
  Fe  Fe9  1  0.800103  0.199897  0.931787  1
  Fe  Fe10  1  0.993938  0.006062  0.333959  1
  Fe  Fe11  1  0.006062  0.993938  0.666041  1
  Fe  Fe12  1  0.199006  0.800994  0.398172  1
  Fe  Fe13  1  0.000000  0.000000  0.000000  1
  Fe  Fe14  1  0.199897  0.800103  0.068213  1
  O  O15  1  0.496327  0.503673  0.331012  1
  O  O16  1  0.503673  0.496327  0.668988  1
  O  O17  1  0.500000  0.500000  0.000000  1
  O  O18  1  0.715088  0.284912  0.738361  1
  O  O19  1  0.704310  0.295690  0.056545  1
  O  O20  1  0.704007  0.295993  0.413001  1
  O  O21  1  0.905011  0.094989  0.127448  1
  O  O22  1  0.906416  0.093584  0.478057  1
  O  O23  1  0.902254  0.097746  0.799756  1
  O  O24  1  0.093584  0.906416  0.521943  1
  O  O25  1  0.284912  0.715088  0.261639  1
  O  O26  1  0.097746  0.902254  0.200244  1
  O  O27  1  0.094989  0.905011  0.872552  1
  O  O28  1  0.295993  0.704007  0.586999  1
  O  O29  1  0.295690  0.704310  0.943455  1
