# generated using pymatgen
data_Li6CrFeP2(CO7)2
_symmetry_space_group_name_H-M   'P 1'
_cell_length_a   5.01668137
_cell_length_b   6.47694320
_cell_length_c   8.61083629
_cell_angle_alpha   90.00000000
_cell_angle_beta   94.63951959
_cell_angle_gamma   90.00000000
_symmetry_Int_Tables_number   1
_chemical_formula_structural   Li6CrFeP2(CO7)2
_chemical_formula_sum   'Li6 Cr1 Fe1 P2 C2 O14'
_cell_volume   278.87305930
_cell_formula_units_Z   1
loop_
 _symmetry_equiv_pos_site_id
 _symmetry_equiv_pos_as_xyz
  1  'x, y, z'
loop_
 _atom_site_type_symbol
 _atom_site_label
 _atom_site_symmetry_multiplicity
 _atom_site_fract_x
 _atom_site_fract_y
 _atom_site_fract_z
 _atom_site_occupancy
  Li  Li0  1  0.760549  0.500000  0.902967  1
  Li  Li1  1  0.248290  0.273613  0.725907  1
  Li  Li2  1  0.248290  0.726387  0.725907  1
  Li  Li3  1  0.750908  0.773355  0.273975  1
  Li  Li4  1  0.750908  0.226645  0.273975  1
  Li  Li5  1  0.238910  0.000000  0.093566  1
  Cr  Cr6  1  0.215512  0.500000  0.335304  1
  Fe  Fe7  1  0.786933  0.000000  0.666161  1
  P  P8  1  0.719227  0.500000  0.589658  1
  P  P9  1  0.282861  0.000000  0.412907  1
  C  C10  1  0.702177  0.000000  0.965546  1
  C  C11  1  0.293832  0.500000  0.031901  1
  O  O12  1  0.947554  0.000000  0.929530  1
  O  O13  1  0.362227  0.500000  0.889300  1
  O  O14  1  0.510051  0.000000  0.853743  1
  O  O15  1  0.829783  0.312944  0.689208  1
  O  O16  1  0.829783  0.687056  0.689208  1
  O  O17  1  0.182833  0.000000  0.577930  1
  O  O18  1  0.408428  0.500000  0.579329  1
  O  O19  1  0.595589  0.000000  0.428356  1
  O  O20  1  0.813685  0.500000  0.422698  1
  O  O21  1  0.175763  0.186213  0.311532  1
  O  O22  1  0.175763  0.813787  0.311532  1
  O  O23  1  0.481042  0.500000  0.147034  1
  O  O24  1  0.642724  0.000000  0.110206  1
  O  O25  1  0.046382  0.500000  0.062618  1
