# generated using pymatgen
data_Mn6OF11
_symmetry_space_group_name_H-M   'P 1'
_cell_length_a   4.95145318
_cell_length_b   5.91765212
_cell_length_c   16.18459214
_cell_angle_alpha   90.00000000
_cell_angle_beta   90.11145956
_cell_angle_gamma   90.00000000
_symmetry_Int_Tables_number   1
_chemical_formula_structural   Mn6OF11
_chemical_formula_sum   'Mn12 O2 F22'
_cell_volume   474.22347101
_cell_formula_units_Z   2
loop_
 _symmetry_equiv_pos_site_id
 _symmetry_equiv_pos_as_xyz
  1  'x, y, z'
loop_
 _atom_site_type_symbol
 _atom_site_label
 _atom_site_symmetry_multiplicity
 _atom_site_fract_x
 _atom_site_fract_y
 _atom_site_fract_z
 _atom_site_occupancy
  Mn  Mn0  1  0.000000  0.165526  0.000000  1
  Mn  Mn1  1  0.008950  0.832245  0.173003  1
  Mn  Mn2  1  0.971408  0.186231  0.341806  1
  Mn  Mn3  1  0.028592  0.186231  0.658194  1
  Mn  Mn4  1  0.991050  0.832245  0.826997  1
  Mn  Mn5  1  0.000000  0.841378  0.500000  1
  Mn  Mn6  1  0.501017  0.329355  0.831930  1
  Mn  Mn7  1  0.500000  0.350798  0.500000  1
  Mn  Mn8  1  0.498983  0.329355  0.168070  1
  Mn  Mn9  1  0.505931  0.644939  0.337762  1
  Mn  Mn10  1  0.500000  0.672109  0.000000  1
  Mn  Mn11  1  0.494069  0.644939  0.662238  1
  O  O12  1  0.306612  0.389082  0.602989  1
  O  O13  1  0.693388  0.389082  0.397011  1
  F  F14  1  0.233782  0.100884  0.110932  1
  F  F15  1  0.220495  0.110063  0.773433  1
  F  F16  1  0.228217  0.121544  0.447820  1
  F  F17  1  0.242296  0.882703  0.285624  1
  F  F18  1  0.226793  0.892961  0.939692  1
  F  F19  1  0.228304  0.886471  0.611042  1
  F  F20  1  0.253811  0.390891  0.277148  1
  F  F21  1  0.269244  0.605751  0.111037  1
  F  F22  1  0.271623  0.392755  0.942450  1
  F  F23  1  0.274234  0.605546  0.773369  1
  F  F24  1  0.264764  0.613676  0.445261  1
  F  F25  1  0.725766  0.605546  0.226631  1
  F  F26  1  0.728377  0.392755  0.057550  1
  F  F27  1  0.730756  0.605751  0.888963  1
  F  F28  1  0.735236  0.613676  0.554739  1
  F  F29  1  0.746189  0.390891  0.722852  1
  F  F30  1  0.779505  0.110063  0.226567  1
  F  F31  1  0.766218  0.100884  0.889068  1
  F  F32  1  0.773207  0.892961  0.060308  1
  F  F33  1  0.771696  0.886471  0.388958  1
  F  F34  1  0.771783  0.121544  0.552180  1
  F  F35  1  0.757704  0.882703  0.714376  1
