# generated using pymatgen
data_Li4V3Fe2Ni3O16
_symmetry_space_group_name_H-M   'P 1'
_cell_length_a   5.87215721
_cell_length_b   5.87260035
_cell_length_c   9.62342925
_cell_angle_alpha   90.42547036
_cell_angle_beta   92.20039612
_cell_angle_gamma   119.57666350
_symmetry_Int_Tables_number   1
_chemical_formula_structural   Li4V3Fe2Ni3O16
_chemical_formula_sum   'Li4 V3 Fe2 Ni3 O16'
_cell_volume   288.27368315
_cell_formula_units_Z   1
loop_
 _symmetry_equiv_pos_site_id
 _symmetry_equiv_pos_as_xyz
  1  'x, y, z'
loop_
 _atom_site_type_symbol
 _atom_site_label
 _atom_site_symmetry_multiplicity
 _atom_site_fract_x
 _atom_site_fract_y
 _atom_site_fract_z
 _atom_site_occupancy
  Li  Li0  1  0.325955  0.662198  0.890564  1
  Li  Li1  1  0.980538  0.982830  0.986493  1
  Li  Li2  1  0.007699  0.007265  0.498620  1
  Li  Li3  1  0.632437  0.311812  0.407471  1
  V  V4  1  0.126860  0.780462  0.239679  1
  V  V5  1  0.204495  0.329697  0.193700  1
  V  V6  1  0.349378  0.182633  0.721288  1
  Fe  Fe7  1  0.345731  0.678611  0.509526  1
  Fe  Fe8  1  0.705066  0.347160  0.977095  1
  Ni  Ni9  1  0.658921  0.838498  0.211279  1
  Ni  Ni10  1  0.839346  0.664230  0.709155  1
  Ni  Ni11  1  0.830586  0.167703  0.710927  1
  O  O12  1  0.187304  0.855071  0.602737  1
  O  O13  1  0.999198  0.519173  0.345531  1
  O  O14  1  0.290465  0.646998  0.111399  1
  O  O15  1  0.027498  0.015427  0.306875  1
  O  O16  1  0.017766  0.026192  0.802575  1
  O  O17  1  0.202938  0.337854  0.600945  1
  O  O18  1  0.448315  0.954122  0.328812  1
  O  O19  1  0.446851  0.499169  0.334125  1
  O  O20  1  0.343132  0.197457  0.091489  1
  O  O21  1  0.688609  0.857937  0.592532  1
  O  O22  1  0.511488  0.473755  0.840100  1
  O  O23  1  0.493269  0.034575  0.844336  1
  O  O24  1  0.647297  0.306558  0.609193  1
  O  O25  1  0.859906  0.680657  0.100734  1
  O  O26  1  0.964255  0.464484  0.836882  1
  O  O27  1  0.864695  0.177771  0.103775  1
