# generated using pymatgen
data_NbFe5(PO4)6
_symmetry_space_group_name_H-M   'P 1'
_cell_length_a   8.58612696
_cell_length_b   8.58612696
_cell_length_c   8.58612696
_cell_angle_alpha   61.01682349
_cell_angle_beta   61.01682349
_cell_angle_gamma   61.01682349
_symmetry_Int_Tables_number   1
_chemical_formula_structural   NbFe5(PO4)6
_chemical_formula_sum   'Nb1 Fe5 P6 O24'
_cell_volume   457.83671073
_cell_formula_units_Z   1
loop_
 _symmetry_equiv_pos_site_id
 _symmetry_equiv_pos_as_xyz
  1  'x, y, z'
loop_
 _atom_site_type_symbol
 _atom_site_label
 _atom_site_symmetry_multiplicity
 _atom_site_fract_x
 _atom_site_fract_y
 _atom_site_fract_z
 _atom_site_occupancy
  Nb  Nb0  1  0.142165  0.142165  0.142165  1
  Fe  Fe1  1  0.995565  0.995565  0.995565  1
  Fe  Fe2  1  0.643177  0.643177  0.643177  1
  Fe  Fe3  1  0.499245  0.499245  0.499245  1
  Fe  Fe4  1  0.854624  0.854624  0.854624  1
  Fe  Fe5  1  0.357190  0.357190  0.357190  1
  P  P6  1  0.954808  0.253224  0.549287  1
  P  P7  1  0.549287  0.954808  0.253224  1
  P  P8  1  0.253224  0.549287  0.954808  1
  P  P9  1  0.744379  0.461673  0.043272  1
  P  P10  1  0.461673  0.043272  0.744379  1
  P  P11  1  0.043272  0.744379  0.461673  1
  O  O12  1  0.503252  0.111403  0.318948  1
  O  O13  1  0.318948  0.503252  0.111403  1
  O  O14  1  0.111403  0.318948  0.503252  1
  O  O15  1  0.939722  0.090787  0.739792  1
  O  O16  1  0.007387  0.181927  0.385153  1
  O  O17  1  0.760109  0.408276  0.554140  1
  O  O18  1  0.739792  0.939722  0.090787  1
  O  O19  1  0.554140  0.760109  0.408276  1
  O  O20  1  0.819525  0.610513  0.002006  1
  O  O21  1  0.408276  0.554140  0.760109  1
  O  O22  1  0.906884  0.260588  0.062905  1
  O  O23  1  0.610513  0.002006  0.819525  1
  O  O24  1  0.385153  0.007387  0.181927  1
  O  O25  1  0.090787  0.739792  0.939722  1
  O  O26  1  0.590252  0.441764  0.240296  1
  O  O27  1  0.181927  0.385153  0.007387  1
  O  O28  1  0.441764  0.240296  0.590252  1
  O  O29  1  0.260588  0.062905  0.906884  1
  O  O30  1  0.240296  0.590252  0.441764  1
  O  O31  1  0.002006  0.819525  0.610513  1
  O  O32  1  0.062905  0.906884  0.260588  1
  O  O33  1  0.886670  0.684635  0.494458  1
  O  O34  1  0.684635  0.494458  0.886670  1
  O  O35  1  0.494458  0.886670  0.684635  1
