# generated using pymatgen
data_Li2MnFe(BO3)2
_symmetry_space_group_name_H-M   'P 1'
_cell_length_a   8.26431623
_cell_length_b   3.16191536
_cell_length_c   16.52996797
_cell_angle_alpha   90.00000000
_cell_angle_beta   120.01209780
_cell_angle_gamma   90.00000000
_symmetry_Int_Tables_number   1
_chemical_formula_structural   Li2MnFe(BO3)2
_chemical_formula_sum   'Li6 Mn3 Fe3 B6 O18'
_cell_volume   374.03036003
_cell_formula_units_Z   3
loop_
 _symmetry_equiv_pos_site_id
 _symmetry_equiv_pos_as_xyz
  1  'x, y, z'
loop_
 _atom_site_type_symbol
 _atom_site_label
 _atom_site_symmetry_multiplicity
 _atom_site_fract_x
 _atom_site_fract_y
 _atom_site_fract_z
 _atom_site_occupancy
  Li  Li0  1  0.696926  0.500000  0.989487  1
  Li  Li1  1  0.015997  0.500000  0.357981  1
  Li  Li2  1  0.284597  0.500000  0.651909  1
  Li  Li3  1  0.700494  0.500000  0.493446  1
  Li  Li4  1  0.017851  0.500000  0.857719  1
  Li  Li5  1  0.284031  0.500000  0.149497  1
  Mn  Mn6  1  0.372204  0.000000  0.506368  1
  Mn  Mn7  1  0.987862  0.000000  0.179840  1
  Mn  Mn8  1  0.639748  0.000000  0.314086  1
  Fe  Fe9  1  0.640569  0.000000  0.816302  1
  Fe  Fe10  1  0.366952  0.000000  0.003399  1
  Fe  Fe11  1  0.993020  0.000000  0.679942  1
  B  B12  1  0.668953  0.500000  0.668605  1
  B  B13  1  0.001400  0.000000  0.999442  1
  B  B14  1  0.333128  0.500000  0.333326  1
  B  B15  1  0.664297  0.500000  0.164612  1
  B  B16  1  0.998606  0.000000  0.500486  1
  B  B17  1  0.333566  0.500000  0.833531  1
  O  O18  1  0.421319  0.500000  0.430309  1
  O  O19  1  0.747364  0.500000  0.765337  1
  O  O20  1  0.474857  0.500000  0.611713  1
  O  O21  1  0.139200  0.500000  0.280519  1
  O  O22  1  0.806919  0.000000  0.957578  1
  O  O23  1  0.776750  0.500000  0.123963  1
  O  O24  1  0.444093  0.500000  0.791702  1
  O  O25  1  0.079151  0.000000  0.443810  1
  O  O26  1  0.111544  0.000000  0.597618  1
  O  O27  1  0.417492  0.500000  0.930441  1
  O  O28  1  0.747212  0.500000  0.261803  1
  O  O29  1  0.470680  0.500000  0.108407  1
  O  O30  1  0.139528  0.500000  0.778337  1
  O  O31  1  0.805118  0.000000  0.460460  1
  O  O32  1  0.782961  0.500000  0.628688  1
  O  O33  1  0.438489  0.500000  0.289104  1
  O  O34  1  0.084437  0.000000  0.943986  1
  O  O35  1  0.112686  0.000000  0.096248  1
