# generated using pymatgen
data_Ba2YI7
_symmetry_space_group_name_H-M   'P 1'
_cell_length_a   9.45408134
_cell_length_b   15.26648350
_cell_length_c   17.73307286
_cell_angle_alpha   90.00000000
_cell_angle_beta   120.78940001
_cell_angle_gamma   90.00000000
_symmetry_Int_Tables_number   1
_chemical_formula_structural   Ba2YI7
_chemical_formula_sum   'Ba8 Y4 I28'
_cell_volume   2198.68553700
_cell_formula_units_Z   4
loop_
 _symmetry_equiv_pos_site_id
 _symmetry_equiv_pos_as_xyz
  1  'x, y, z'
loop_
 _atom_site_type_symbol
 _atom_site_label
 _atom_site_symmetry_multiplicity
 _atom_site_fract_x
 _atom_site_fract_y
 _atom_site_fract_z
 _atom_site_occupancy
  Ba  Ba0  1  0.849111  0.269064  0.544277  1
  Ba  Ba1  1  0.438659  0.293453  0.251915  1
  Ba  Ba2  1  0.561341  0.793453  0.248085  1
  Ba  Ba3  1  0.849111  0.230936  0.044277  1
  Ba  Ba4  1  0.150889  0.769064  0.955723  1
  Ba  Ba5  1  0.438659  0.206547  0.751915  1
  Ba  Ba6  1  0.561341  0.706547  0.748085  1
  Ba  Ba7  1  0.150889  0.730936  0.455723  1
  Y  Y8  1  0.935560  0.695433  0.664900  1
  Y  Y9  1  0.935560  0.804567  0.164900  1
  Y  Y10  1  0.064440  0.195433  0.835100  1
  Y  Y11  1  0.064440  0.304567  0.335100  1
  I  I12  1  0.942960  0.587795  0.810787  1
  I  I13  1  0.844300  0.849646  0.740007  1
  I  I14  1  0.720588  0.262910  0.693149  1
  I  I15  1  0.841940  0.413304  0.381357  1
  I  I16  1  0.942960  0.912205  0.310787  1
  I  I17  1  0.653394  0.121885  0.388052  1
  I  I18  1  0.817932  0.782144  0.485551  1
  I  I19  1  0.428603  0.372237  0.432338  1
  I  I20  1  0.844300  0.650354  0.240007  1
  I  I21  1  0.720588  0.237090  0.193149  1
  I  I22  1  0.571397  0.872237  0.067662  1
  I  I23  1  0.182068  0.282144  0.014449  1
  I  I24  1  0.346606  0.621885  0.111948  1
  I  I25  1  0.841940  0.086696  0.881357  1
  I  I26  1  0.158060  0.913304  0.118643  1
  I  I27  1  0.653394  0.378115  0.888052  1
  I  I28  1  0.817932  0.717856  0.985551  1
  I  I29  1  0.428603  0.127763  0.932338  1
  I  I30  1  0.279412  0.762910  0.806851  1
  I  I31  1  0.155700  0.349646  0.759993  1
  I  I32  1  0.571397  0.627763  0.567662  1
  I  I33  1  0.182068  0.217856  0.514449  1
  I  I34  1  0.346606  0.878115  0.611948  1
  I  I35  1  0.057040  0.087795  0.689213  1
  I  I36  1  0.158060  0.586696  0.618643  1
  I  I37  1  0.279412  0.737090  0.306851  1
  I  I38  1  0.155700  0.150354  0.259993  1
  I  I39  1  0.057040  0.412205  0.189213  1
