# generated using pymatgen
data_Ba2Nd2Fe4O11
_symmetry_space_group_name_H-M   'P 1'
_cell_length_a   8.88909053
_cell_length_b   8.88909053
_cell_length_c   3.96157936
_cell_angle_alpha   90.00000000
_cell_angle_beta   90.00000000
_cell_angle_gamma   125.89137955
_symmetry_Int_Tables_number   1
_chemical_formula_structural   Ba2Nd2Fe4O11
_chemical_formula_sum   'Ba2 Nd2 Fe4 O11'
_cell_volume   253.59323010
_cell_formula_units_Z   1
loop_
 _symmetry_equiv_pos_site_id
 _symmetry_equiv_pos_as_xyz
  1  'x, y, z'
loop_
 _atom_site_type_symbol
 _atom_site_label
 _atom_site_symmetry_multiplicity
 _atom_site_fract_x
 _atom_site_fract_y
 _atom_site_fract_z
 _atom_site_occupancy
  Ba  Ba0  1  0.000000  0.500000  0.500000  1
  Ba  Ba1  1  0.500000  0.000000  0.500000  1
  Nd  Nd2  1  0.731936  0.731936  0.500000  1
  Nd  Nd3  1  0.268064  0.268064  0.500000  1
  Fe  Fe4  1  0.125531  0.874469  0.000000  1
  Fe  Fe5  1  0.874469  0.125531  0.000000  1
  Fe  Fe6  1  0.377218  0.622782  0.000000  1
  Fe  Fe7  1  0.622782  0.377218  0.000000  1
  O  O8  1  0.864125  0.655648  0.000000  1
  O  O9  1  0.344352  0.135875  0.000000  1
  O  O10  1  0.135875  0.344352  0.000000  1
  O  O11  1  0.655648  0.864125  0.000000  1
  O  O12  1  0.091336  0.908664  0.500000  1
  O  O13  1  0.908664  0.091336  0.500000  1
  O  O14  1  0.381516  0.618484  0.500000  1
  O  O15  1  0.618484  0.381516  0.500000  1
  O  O16  1  0.247580  0.752420  0.000000  1
  O  O17  1  0.752420  0.247580  0.000000  1
  O  O18  1  0.500000  0.500000  0.000000  1
