# generated using pymatgen
data_Li3Cr3FeO8
_symmetry_space_group_name_H-M   'P 1'
_cell_length_a   5.93695474
_cell_length_b   5.93695474
_cell_length_c   5.96188262
_cell_angle_alpha   60.32773613
_cell_angle_beta   119.67226387
_cell_angle_gamma   120.04871674
_symmetry_Int_Tables_number   1
_chemical_formula_structural   Li3Cr3FeO8
_chemical_formula_sum   'Li3 Cr3 Fe1 O8'
_cell_volume   149.26840584
_cell_formula_units_Z   1
loop_
 _symmetry_equiv_pos_site_id
 _symmetry_equiv_pos_as_xyz
  1  'x, y, z'
loop_
 _atom_site_type_symbol
 _atom_site_label
 _atom_site_symmetry_multiplicity
 _atom_site_fract_x
 _atom_site_fract_y
 _atom_site_fract_z
 _atom_site_occupancy
  Li  Li0  1  0.500000  0.000000  0.000000  1
  Li  Li1  1  0.500000  0.500000  0.000000  1
  Li  Li2  1  0.000000  0.500000  0.000000  1
  Cr  Cr3  1  0.500000  0.500000  0.500000  1
  Cr  Cr4  1  0.500000  1.000000  0.500000  1
  Cr  Cr5  1  0.000000  0.500000  0.500000  1
  Fe  Fe6  1  0.000000  1.000000  0.500000  1
  O  O7  1  0.266861  0.733139  0.284656  1
  O  O8  1  0.254562  0.272634  0.714128  1
  O  O9  1  0.727366  0.745438  0.714128  1
  O  O10  1  0.240048  0.759952  0.723468  1
  O  O11  1  0.759952  0.240048  0.276532  1
  O  O12  1  0.272634  0.254562  0.285872  1
  O  O13  1  0.745438  0.727366  0.285872  1
  O  O14  1  0.733139  0.266861  0.715344  1
