# generated using pymatgen
data_HoInO3
_symmetry_space_group_name_H-M   'P 1'
_cell_length_a   5.52586977
_cell_length_b   5.85997037
_cell_length_c   8.18810393
_cell_angle_alpha   90.00000000
_cell_angle_beta   90.00000000
_cell_angle_gamma   90.00000000
_symmetry_Int_Tables_number   1
_chemical_formula_structural   HoInO3
_chemical_formula_sum   'Ho4 In4 O12'
_cell_volume   265.14253979
_cell_formula_units_Z   4
loop_
 _symmetry_equiv_pos_site_id
 _symmetry_equiv_pos_as_xyz
  1  'x, y, z'
loop_
 _atom_site_type_symbol
 _atom_site_label
 _atom_site_symmetry_multiplicity
 _atom_site_fract_x
 _atom_site_fract_y
 _atom_site_fract_z
 _atom_site_occupancy
  Ho  Ho0  1  0.020056  0.935260  0.750000  1
  Ho  Ho1  1  0.479944  0.435260  0.750000  1
  Ho  Ho2  1  0.520056  0.564740  0.250000  1
  Ho  Ho3  1  0.979944  0.064740  0.250000  1
  In  In4  1  0.000000  0.500000  0.000000  1
  In  In5  1  0.000000  0.500000  0.500000  1
  In  In6  1  0.500000  0.000000  0.000000  1
  In  In7  1  0.500000  0.000000  0.500000  1
  O  O8  1  0.147292  0.426630  0.250000  1
  O  O9  1  0.181306  0.185208  0.574879  1
  O  O10  1  0.181306  0.185208  0.925121  1
  O  O11  1  0.318694  0.685208  0.574879  1
  O  O12  1  0.318694  0.685208  0.925121  1
  O  O13  1  0.352708  0.926630  0.250000  1
  O  O14  1  0.647292  0.073370  0.750000  1
  O  O15  1  0.681306  0.314792  0.074879  1
  O  O16  1  0.681306  0.314792  0.425121  1
  O  O17  1  0.818694  0.814792  0.074879  1
  O  O18  1  0.818694  0.814792  0.425121  1
  O  O19  1  0.852708  0.573370  0.750000  1
