# generated using pymatgen
data_LiCoPO4
_symmetry_space_group_name_H-M   'P 1'
_cell_length_a   5.20421907
_cell_length_b   5.20421907
_cell_length_c   8.47574359
_cell_angle_alpha   89.60980969
_cell_angle_beta   90.39019031
_cell_angle_gamma   58.38805503
_symmetry_Int_Tables_number   1
_chemical_formula_structural   LiCoPO4
_chemical_formula_sum   'Li2 Co2 P2 O8'
_cell_volume   195.47502774
_cell_formula_units_Z   2
loop_
 _symmetry_equiv_pos_site_id
 _symmetry_equiv_pos_as_xyz
  1  'x, y, z'
loop_
 _atom_site_type_symbol
 _atom_site_label
 _atom_site_symmetry_multiplicity
 _atom_site_fract_x
 _atom_site_fract_y
 _atom_site_fract_z
 _atom_site_occupancy
  Li  Li0  1  0.933688  0.820045  0.997739  1
  Li  Li1  1  0.179955  0.066312  0.497739  1
  Co  Co2  1  0.718596  0.639209  0.689636  1
  Co  Co3  1  0.360791  0.281404  0.189636  1
  P  P4  1  0.699538  0.634411  0.303847  1
  P  P5  1  0.365589  0.300462  0.803847  1
  O  O6  1  0.011474  0.333760  0.314545  1
  O  O7  1  0.608020  0.784767  0.468821  1
  O  O8  1  0.719058  0.860886  0.190362  1
  O  O9  1  0.450655  0.583401  0.243649  1
  O  O10  1  0.666240  0.988526  0.814545  1
  O  O11  1  0.215233  0.391980  0.968821  1
  O  O12  1  0.139114  0.280942  0.690362  1
  O  O13  1  0.416599  0.549345  0.743649  1
