# generated using pymatgen
data_Li3Mn3(FeO5)2
_symmetry_space_group_name_H-M   'P 1'
_cell_length_a   5.10228684
_cell_length_b   5.16359129
_cell_length_c   7.92285252
_cell_angle_alpha   71.97041857
_cell_angle_beta   72.14823594
_cell_angle_gamma   80.75393833
_symmetry_Int_Tables_number   1
_chemical_formula_structural   Li3Mn3(FeO5)2
_chemical_formula_sum   'Li3 Mn3 Fe2 O10'
_cell_volume   188.43044547
_cell_formula_units_Z   1
loop_
 _symmetry_equiv_pos_site_id
 _symmetry_equiv_pos_as_xyz
  1  'x, y, z'
loop_
 _atom_site_type_symbol
 _atom_site_label
 _atom_site_symmetry_multiplicity
 _atom_site_fract_x
 _atom_site_fract_y
 _atom_site_fract_z
 _atom_site_occupancy
  Li  Li0  1  0.209812  0.484016  0.585141  1
  Li  Li1  1  0.500000  0.000000  0.500000  1
  Li  Li2  1  0.790188  0.515984  0.414859  1
  Mn  Mn3  1  0.000000  0.500000  0.000000  1
  Mn  Mn4  1  0.694657  0.008797  0.101384  1
  Mn  Mn5  1  0.305343  0.991203  0.898616  1
  Fe  Fe6  1  0.116210  0.001588  0.314506  1
  Fe  Fe7  1  0.883790  0.998412  0.685494  1
  O  O8  1  0.033223  0.772538  0.128143  1
  O  O9  1  0.353844  0.203586  0.051679  1
  O  O10  1  0.115097  0.231211  0.469087  1
  O  O11  1  0.204548  0.758513  0.780455  1
  O  O12  1  0.478455  0.801934  0.325451  1
  O  O13  1  0.521545  0.198066  0.674549  1
  O  O14  1  0.795452  0.241487  0.219545  1
  O  O15  1  0.884903  0.768789  0.530913  1
  O  O16  1  0.646156  0.796414  0.948321  1
  O  O17  1  0.966777  0.227462  0.871857  1
