# generated using pymatgen
data_Li5Fe8(BO3)8
_symmetry_space_group_name_H-M   'P 1'
_cell_length_a   5.27166694
_cell_length_b   9.04378772
_cell_length_c   11.42009202
_cell_angle_alpha   113.07253879
_cell_angle_beta   102.26797238
_cell_angle_gamma   89.82328154
_symmetry_Int_Tables_number   1
_chemical_formula_structural   Li5Fe8(BO3)8
_chemical_formula_sum   'Li5 Fe8 B8 O24'
_cell_volume   487.52104298
_cell_formula_units_Z   1
loop_
 _symmetry_equiv_pos_site_id
 _symmetry_equiv_pos_as_xyz
  1  'x, y, z'
loop_
 _atom_site_type_symbol
 _atom_site_label
 _atom_site_symmetry_multiplicity
 _atom_site_fract_x
 _atom_site_fract_y
 _atom_site_fract_z
 _atom_site_occupancy
  Li  Li0  1  0.167855  0.848013  0.662580  1
  Li  Li1  1  0.354452  0.701871  0.399950  1
  Li  Li2  1  0.606954  0.945842  0.905194  1
  Li  Li3  1  0.920214  0.569248  0.159072  1
  Li  Li4  1  0.427241  0.073972  0.163462  1
  Fe  Fe5  1  0.404404  0.727358  0.129529  1
  Fe  Fe6  1  0.088084  0.768257  0.878083  1
  Fe  Fe7  1  0.842818  0.866837  0.388533  1
  Fe  Fe8  1  0.655632  0.635010  0.622903  1
  Fe  Fe9  1  0.353518  0.345673  0.381119  1
  Fe  Fe10  1  0.145781  0.169951  0.634299  1
  Fe  Fe11  1  0.909895  0.226200  0.133881  1
  Fe  Fe12  1  0.602840  0.273190  0.873147  1
  B  B13  1  0.648895  0.977091  0.636028  1
  B  B14  1  0.887163  0.889191  0.124033  1
  B  B15  1  0.143449  0.494038  0.628151  1
  B  B16  1  0.408106  0.395132  0.125533  1
  B  B17  1  0.858054  0.524914  0.374645  1
  B  B18  1  0.599540  0.606762  0.880116  1
  B  B19  1  0.340996  0.012834  0.373165  1
  B  B20  1  0.110560  0.107663  0.879963  1
  O  O21  1  0.132950  0.869247  0.095332  1
  O  O22  1  0.440247  0.855852  0.327077  1
  O  O23  1  0.228079  0.966357  0.867521  1
  O  O24  1  0.510238  0.834366  0.619587  1
  O  O25  1  0.886459  0.967026  0.602194  1
  O  O26  1  0.785967  0.780820  0.165186  1
  O  O27  1  0.284687  0.536076  0.143085  1
  O  O28  1  0.035971  0.647364  0.663449  1
  O  O29  1  0.687677  0.710459  0.827597  1
  O  O30  1  0.630551  0.546579  0.424315  1
  O  O31  1  0.977780  0.653719  0.364146  1
  O  O32  1  0.392042  0.654940  0.940137  1
  O  O33  1  0.641558  0.378138  0.082919  1
  O  O34  1  0.372103  0.484545  0.583681  1
  O  O35  1  0.307933  0.277664  0.156599  1
  O  O36  1  0.959932  0.378467  0.333261  1
  O  O37  1  0.719199  0.473798  0.877491  1
  O  O38  1  0.231010  0.224775  0.856516  1
  O  O39  1  0.144318  0.031598  0.436606  1
  O  O40  1  0.452350  0.127096  0.345484  1
  O  O41  1  0.021767  0.372676  0.638453  1
  O  O42  1  0.743630  0.008637  0.104219  1
  O  O43  1  0.540198  0.122222  0.683927  1
  O  O44  1  0.867449  0.128361  0.913791  1
