# generated using pymatgen
data_Fe4OF7
_symmetry_space_group_name_H-M   'P 1'
_cell_length_a   5.81029793
_cell_length_b   5.81029793
_cell_length_c   9.37469517
_cell_angle_alpha   86.00082777
_cell_angle_beta   93.99917223
_cell_angle_gamma   107.86046875
_symmetry_Int_Tables_number   1
_chemical_formula_structural   Fe4OF7
_chemical_formula_sum   'Fe8 O2 F14'
_cell_volume   300.10959147
_cell_formula_units_Z   2
loop_
 _symmetry_equiv_pos_site_id
 _symmetry_equiv_pos_as_xyz
  1  'x, y, z'
loop_
 _atom_site_type_symbol
 _atom_site_label
 _atom_site_symmetry_multiplicity
 _atom_site_fract_x
 _atom_site_fract_y
 _atom_site_fract_z
 _atom_site_occupancy
  Fe  Fe0  1  0.643485  0.872891  0.635127  1
  Fe  Fe1  1  0.356515  0.127109  0.364873  1
  Fe  Fe2  1  0.229541  0.229541  0.750000  1
  Fe  Fe3  1  0.500000  0.000000  0.000000  1
  Fe  Fe4  1  0.000000  0.500000  0.500000  1
  Fe  Fe5  1  0.127109  0.356515  0.135127  1
  Fe  Fe6  1  0.872891  0.643485  0.864873  1
  Fe  Fe7  1  0.770459  0.770459  0.250000  1
  O  O8  1  0.945486  0.945486  0.750000  1
  O  O9  1  0.054514  0.054514  0.250000  1
  F  F10  1  0.691085  0.191717  0.498118  1
  F  F11  1  0.534140  0.534140  0.750000  1
  F  F12  1  0.308915  0.808283  0.501882  1
  F  F13  1  0.715617  0.763508  0.019092  1
  F  F14  1  0.479836  0.018279  0.773800  1
  F  F15  1  0.236492  0.284383  0.519092  1
  F  F16  1  0.981721  0.520164  0.273800  1
  F  F17  1  0.284383  0.236492  0.980908  1
  F  F18  1  0.520164  0.981721  0.226200  1
  F  F19  1  0.018279  0.479836  0.726200  1
  F  F20  1  0.763508  0.715617  0.480908  1
  F  F21  1  0.191717  0.691085  0.001882  1
  F  F22  1  0.465860  0.465860  0.250000  1
  F  F23  1  0.808283  0.308915  0.998118  1
