# generated using pymatgen
data_LiVCrP2(HO5)2
_symmetry_space_group_name_H-M   'P 1'
_cell_length_a   5.20819842
_cell_length_b   7.36767127
_cell_length_c   10.47123543
_cell_angle_alpha   104.86732546
_cell_angle_beta   96.63281303
_cell_angle_gamma   109.77003178
_symmetry_Int_Tables_number   1
_chemical_formula_structural   LiVCrP2(HO5)2
_chemical_formula_sum   'Li2 V2 Cr2 P4 H4 O20'
_cell_volume   356.30981230
_cell_formula_units_Z   2
loop_
 _symmetry_equiv_pos_site_id
 _symmetry_equiv_pos_as_xyz
  1  'x, y, z'
loop_
 _atom_site_type_symbol
 _atom_site_label
 _atom_site_symmetry_multiplicity
 _atom_site_fract_x
 _atom_site_fract_y
 _atom_site_fract_z
 _atom_site_occupancy
  Li  Li0  1  0.575619  0.647651  0.792404  1
  Li  Li1  1  0.424381  0.352349  0.207596  1
  V  V2  1  0.000000  0.500000  0.000000  1
  V  V3  1  0.500000  0.000000  0.500000  1
  Cr  Cr4  1  0.000000  0.000000  0.000000  1
  Cr  Cr5  1  0.500000  0.500000  0.500000  1
  P  P6  1  0.498755  0.046423  0.823475  1
  P  P7  1  0.997221  0.445902  0.675277  1
  P  P8  1  0.002779  0.554098  0.324723  1
  P  P9  1  0.501245  0.953577  0.176525  1
  H  H10  1  0.323232  0.314835  0.968091  1
  H  H11  1  0.164322  0.175573  0.513222  1
  H  H12  1  0.835678  0.824427  0.486778  1
  H  H13  1  0.676768  0.685165  0.031909  1
  O  O14  1  0.822878  0.696395  0.978354  1
  O  O15  1  0.637917  0.282081  0.903934  1
  O  O16  1  0.116707  0.482189  0.828395  1
  O  O17  1  0.247084  0.950542  0.878782  1
  O  O18  1  0.711256  0.945325  0.837043  1
  O  O19  1  0.775802  0.539509  0.666250  1
  O  O20  1  0.256714  0.555194  0.626350  1
  O  O21  1  0.399656  0.020464  0.672468  1
  O  O22  1  0.877425  0.215225  0.594092  1
  O  O23  1  0.344186  0.203546  0.484699  1
  O  O24  1  0.655814  0.796454  0.515301  1
  O  O25  1  0.122575  0.784775  0.405908  1
  O  O26  1  0.600344  0.979536  0.327532  1
  O  O27  1  0.743286  0.444806  0.373650  1
  O  O28  1  0.224198  0.460491  0.333750  1
  O  O29  1  0.288744  0.054675  0.162957  1
  O  O30  1  0.752916  0.049458  0.121218  1
  O  O31  1  0.883293  0.517811  0.171605  1
  O  O32  1  0.362083  0.717919  0.096066  1
  O  O33  1  0.177122  0.303605  0.021646  1
