# generated using pymatgen
data_BiOF
_symmetry_space_group_name_H-M   'P 1'
_cell_length_a   5.67747067
_cell_length_b   11.62875046
_cell_length_c   11.80126835
_cell_angle_alpha   90.00000000
_cell_angle_beta   90.00000000
_cell_angle_gamma   90.00000000
_symmetry_Int_Tables_number   1
_chemical_formula_structural   BiOF
_chemical_formula_sum   'Bi16 O16 F16'
_cell_volume   779.14203692
_cell_formula_units_Z   16
loop_
 _symmetry_equiv_pos_site_id
 _symmetry_equiv_pos_as_xyz
  1  'x, y, z'
loop_
 _atom_site_type_symbol
 _atom_site_label
 _atom_site_symmetry_multiplicity
 _atom_site_fract_x
 _atom_site_fract_y
 _atom_site_fract_z
 _atom_site_occupancy
  Bi  Bi0  1  0.729913  0.861546  0.968881  1
  Bi  Bi1  1  0.770087  0.861546  0.468881  1
  Bi  Bi2  1  0.254513  0.883798  0.751974  1
  Bi  Bi3  1  0.245487  0.883798  0.251974  1
  Bi  Bi4  1  0.745487  0.616202  0.251974  1
  Bi  Bi5  1  0.754513  0.616202  0.751974  1
  Bi  Bi6  1  0.270087  0.638454  0.468881  1
  Bi  Bi7  1  0.229913  0.638454  0.968881  1
  Bi  Bi8  1  0.729913  0.361546  0.531119  1
  Bi  Bi9  1  0.770087  0.361546  0.031119  1
  Bi  Bi10  1  0.245487  0.383798  0.248026  1
  Bi  Bi11  1  0.254513  0.383798  0.748026  1
  Bi  Bi12  1  0.754513  0.116202  0.748026  1
  Bi  Bi13  1  0.745487  0.116202  0.248026  1
  Bi  Bi14  1  0.270087  0.138454  0.031119  1
  Bi  Bi15  1  0.229913  0.138454  0.531119  1
  O  O16  1  0.459061  0.021162  0.152151  1
  O  O17  1  0.040939  0.021162  0.652151  1
  O  O18  1  0.493690  0.766199  0.368651  1
  O  O19  1  0.006310  0.766199  0.868651  1
  O  O20  1  0.506310  0.733801  0.868651  1
  O  O21  1  0.993690  0.733801  0.368651  1
  O  O22  1  0.959061  0.478838  0.152151  1
  O  O23  1  0.540939  0.478838  0.652151  1
  O  O24  1  0.459061  0.521162  0.347849  1
  O  O25  1  0.040939  0.521162  0.847849  1
  O  O26  1  0.006310  0.266199  0.631349  1
  O  O27  1  0.493690  0.266199  0.131349  1
  O  O28  1  0.506310  0.233801  0.631349  1
  O  O29  1  0.993690  0.233801  0.131349  1
  O  O30  1  0.959061  0.978838  0.347849  1
  O  O31  1  0.540939  0.978838  0.847849  1
  F  F32  1  0.965264  0.004010  0.116942  1
  F  F33  1  0.534736  0.004010  0.616942  1
  F  F34  1  0.979689  0.743588  0.110543  1
  F  F35  1  0.520311  0.743588  0.610543  1
  F  F36  1  0.479689  0.756412  0.110543  1
  F  F37  1  0.020311  0.756412  0.610543  1
  F  F38  1  0.034736  0.495990  0.616942  1
  F  F39  1  0.465264  0.495990  0.116942  1
  F  F40  1  0.965264  0.504010  0.383058  1
  F  F41  1  0.534736  0.504010  0.883058  1
  F  F42  1  0.979689  0.243588  0.389457  1
  F  F43  1  0.520311  0.243588  0.889457  1
  F  F44  1  0.020311  0.256412  0.889457  1
  F  F45  1  0.479689  0.256412  0.389457  1
  F  F46  1  0.034736  0.995990  0.883058  1
  F  F47  1  0.465264  0.995990  0.383058  1
