# generated using pymatgen
data_LiFe2(BO3)2
_symmetry_space_group_name_H-M   'P 1'
_cell_length_a   5.25863295
_cell_length_b   9.11930646
_cell_length_c   10.09415945
_cell_angle_alpha   88.89722824
_cell_angle_beta   89.25333876
_cell_angle_gamma   89.04324228
_symmetry_Int_Tables_number   1
_chemical_formula_structural   LiFe2(BO3)2
_chemical_formula_sum   'Li4 Fe8 B8 O24'
_cell_volume   483.87003267
_cell_formula_units_Z   4
loop_
 _symmetry_equiv_pos_site_id
 _symmetry_equiv_pos_as_xyz
  1  'x, y, z'
loop_
 _atom_site_type_symbol
 _atom_site_label
 _atom_site_symmetry_multiplicity
 _atom_site_fract_x
 _atom_site_fract_y
 _atom_site_fract_z
 _atom_site_occupancy
  Li  Li0  1  0.181284  0.169101  0.155520  1
  Li  Li1  1  0.325999  0.328751  0.416943  1
  Li  Li2  1  0.328902  0.329357  0.905758  1
  Li  Li3  1  0.828768  0.827208  0.900050  1
  Fe  Fe4  1  0.167079  0.836423  0.631528  1
  Fe  Fe5  1  0.180651  0.507572  0.128303  1
  Fe  Fe6  1  0.314479  0.003284  0.874243  1
  Fe  Fe7  1  0.332511  0.669227  0.375772  1
  Fe  Fe8  1  0.679134  0.335190  0.633113  1
  Fe  Fe9  1  0.668540  0.996443  0.133054  1
  Fe  Fe10  1  0.839420  0.149141  0.384278  1
  Fe  Fe11  1  0.821781  0.503900  0.881067  1
  B  B12  1  0.166890  0.500594  0.622127  1
  B  B13  1  0.165679  0.839946  0.130694  1
  B  B14  1  0.344830  0.998433  0.375438  1
  B  B15  1  0.333170  0.666359  0.876407  1
  B  B16  1  0.661795  0.999566  0.633132  1
  B  B17  1  0.676088  0.324201  0.122619  1
  B  B18  1  0.829669  0.495864  0.379606  1
  B  B19  1  0.822588  0.167048  0.880703  1
  O  O20  1  0.094896  0.496368  0.349895  1
  O  O21  1  0.080757  0.175283  0.887921  1
  O  O22  1  0.183984  0.790269  0.836571  1
  O  O23  1  0.232813  0.872321  0.428095  1
  O  O24  1  0.214600  0.130423  0.363963  1
  O  O25  1  0.208057  0.538147  0.913838  1
  O  O26  1  0.325374  0.379735  0.615346  1
  O  O27  1  0.308904  0.964236  0.096161  1
  O  O28  1  0.254394  0.637183  0.578455  1
  O  O29  1  0.282041  0.715056  0.181935  1
  O  O30  1  0.412772  0.325636  0.115794  1
  O  O31  1  0.404580  0.990676  0.665731  1
  O  O32  1  0.594091  0.988698  0.328290  1
  O  O33  1  0.589997  0.675865  0.879945  1
  O  O34  1  0.675813  0.288150  0.833509  1
  O  O35  1  0.722197  0.362919  0.423855  1
  O  O36  1  0.680280  0.617608  0.367850  1
  O  O37  1  0.692184  0.041036  0.923464  1
  O  O38  1  0.820816  0.440747  0.084789  1
  O  O39  1  0.820336  0.881660  0.645965  1
  O  O40  1  0.754663  0.134130  0.588296  1
  O  O41  1  0.803802  0.192648  0.164303  1
  O  O42  1  0.910749  0.845254  0.106321  1
  O  O43  1  0.919017  0.487154  0.667446  1
