# generated using pymatgen
data_CaGeO3
_symmetry_space_group_name_H-M   'P 1'
_cell_length_a   6.89401880
_cell_length_b   6.95097453
_cell_length_c   9.56673516
_cell_angle_alpha   69.97294245
_cell_angle_beta   84.05837380
_cell_angle_gamma   76.43689068
_symmetry_Int_Tables_number   1
_chemical_formula_structural   CaGeO3
_chemical_formula_sum   'Ca6 Ge6 O18'
_cell_volume   418.57109994
_cell_formula_units_Z   6
loop_
 _symmetry_equiv_pos_site_id
 _symmetry_equiv_pos_as_xyz
  1  'x, y, z'
loop_
 _atom_site_type_symbol
 _atom_site_label
 _atom_site_symmetry_multiplicity
 _atom_site_fract_x
 _atom_site_fract_y
 _atom_site_fract_z
 _atom_site_occupancy
  Ca  Ca0  1  0.428122  0.077540  0.663955  1
  Ca  Ca1  1  0.908139  0.264931  0.358299  1
  Ca  Ca2  1  0.265114  0.243177  0.997799  1
  Ca  Ca3  1  0.734886  0.756823  0.002201  1
  Ca  Ca4  1  0.091861  0.735069  0.641701  1
  Ca  Ca5  1  0.571878  0.922460  0.336045  1
  Ge  Ge6  1  0.898122  0.157123  0.708251  1
  Ge  Ge7  1  0.457712  0.473786  0.304780  1
  Ge  Ge8  1  0.229711  0.728554  0.005765  1
  Ge  Ge9  1  0.770289  0.271446  0.994235  1
  Ge  Ge10  1  0.542288  0.526214  0.695220  1
  Ge  Ge11  1  0.101878  0.842877  0.291749  1
  O  O12  1  0.241505  0.034539  0.251636  1
  O  O13  1  0.619878  0.090491  0.065509  1
  O  O14  1  0.096569  0.103442  0.588996  1
  O  O15  1  0.557485  0.217271  0.411326  1
  O  O16  1  0.892725  0.347686  0.108209  1
  O  O17  1  0.361642  0.480405  0.133240  1
  O  O18  1  0.356800  0.379511  0.736702  1
  O  O19  1  0.972255  0.191722  0.871336  1
  O  O20  1  0.243138  0.587413  0.399231  1
  O  O21  1  0.756862  0.412587  0.600769  1
  O  O22  1  0.027745  0.808278  0.128664  1
  O  O23  1  0.643200  0.620489  0.263298  1
  O  O24  1  0.638358  0.519595  0.866760  1
  O  O25  1  0.107275  0.652314  0.891791  1
  O  O26  1  0.442515  0.782729  0.588674  1
  O  O27  1  0.903431  0.896558  0.411004  1
  O  O28  1  0.380122  0.909509  0.934491  1
  O  O29  1  0.758495  0.965461  0.748364  1
