# generated using pymatgen
data_Li3Sb2(PO4)3
_symmetry_space_group_name_H-M   'P 1'
_cell_length_a   8.83753281
_cell_length_b   8.83753281
_cell_length_c   9.07988011
_cell_angle_alpha   63.49713640
_cell_angle_beta   116.50286360
_cell_angle_gamma   116.69734405
_symmetry_Int_Tables_number   1
_chemical_formula_structural   Li3Sb2(PO4)3
_chemical_formula_sum   'Li6 Sb4 P6 O24'
_cell_volume   539.52623399
_cell_formula_units_Z   2
loop_
 _symmetry_equiv_pos_site_id
 _symmetry_equiv_pos_as_xyz
  1  'x, y, z'
loop_
 _atom_site_type_symbol
 _atom_site_label
 _atom_site_symmetry_multiplicity
 _atom_site_fract_x
 _atom_site_fract_y
 _atom_site_fract_z
 _atom_site_occupancy
  Li  Li0  1  0.179697  0.538227  0.714323  1
  Li  Li1  1  0.882567  0.882567  0.250000  1
  Li  Li2  1  0.538227  0.179697  0.785677  1
  Li  Li3  1  0.461773  0.820303  0.214323  1
  Li  Li4  1  0.117433  0.117433  0.750000  1
  Li  Li5  1  0.820303  0.461773  0.285677  1
  Sb  Sb6  1  0.657685  0.854378  0.855639  1
  Sb  Sb7  1  0.854378  0.657685  0.644361  1
  Sb  Sb8  1  0.145622  0.342315  0.355639  1
  Sb  Sb9  1  0.342315  0.145622  0.144361  1
  P  P10  1  0.952273  0.246107  0.926729  1
  P  P11  1  0.583315  0.583315  0.250000  1
  P  P12  1  0.753893  0.047727  0.426729  1
  P  P13  1  0.246107  0.952273  0.573271  1
  P  P14  1  0.416685  0.416685  0.750000  1
  P  P15  1  0.047727  0.753893  0.073271  1
  O  O16  1  0.755369  0.118486  0.883192  1
  O  O17  1  0.244729  0.012000  0.386312  1
  O  O18  1  0.560900  0.435842  0.189023  1
  O  O19  1  0.961651  0.436729  0.793152  1
  O  O20  1  0.075242  0.183828  0.902260  1
  O  O21  1  0.772017  0.599437  0.396412  1
  O  O22  1  0.599437  0.772017  0.103588  1
  O  O23  1  0.183828  0.075242  0.597740  1
  O  O24  1  0.881514  0.244631  0.383192  1
  O  O25  1  0.436729  0.961651  0.706848  1
  O  O26  1  0.435842  0.560900  0.310977  1
  O  O27  1  0.012000  0.244729  0.113688  1
  O  O28  1  0.988000  0.755271  0.886312  1
  O  O29  1  0.564158  0.439100  0.689023  1
  O  O30  1  0.563271  0.038349  0.293152  1
  O  O31  1  0.118486  0.755369  0.616808  1
  O  O32  1  0.816172  0.924758  0.402260  1
  O  O33  1  0.400563  0.227983  0.896412  1
  O  O34  1  0.227983  0.400563  0.603588  1
  O  O35  1  0.924758  0.816172  0.097740  1
  O  O36  1  0.038349  0.563271  0.206848  1
  O  O37  1  0.439100  0.564158  0.810977  1
  O  O38  1  0.755271  0.988000  0.613688  1
  O  O39  1  0.244631  0.881514  0.116808  1
