# generated using pymatgen
data_Li5Mn6(BO3)6
_symmetry_space_group_name_H-M   'P 1'
_cell_length_a   5.94256933
_cell_length_b   8.29135316
_cell_length_c   9.06754331
_cell_angle_alpha   112.19005905
_cell_angle_beta   102.75710549
_cell_angle_gamma   102.45854850
_symmetry_Int_Tables_number   1
_chemical_formula_structural   Li5Mn6(BO3)6
_chemical_formula_sum   'Li5 Mn6 B6 O18'
_cell_volume   380.69683301
_cell_formula_units_Z   1
loop_
 _symmetry_equiv_pos_site_id
 _symmetry_equiv_pos_as_xyz
  1  'x, y, z'
loop_
 _atom_site_type_symbol
 _atom_site_label
 _atom_site_symmetry_multiplicity
 _atom_site_fract_x
 _atom_site_fract_y
 _atom_site_fract_z
 _atom_site_occupancy
  Li  Li0  1  0.070290  0.388981  0.227291  1
  Li  Li1  1  0.407743  0.728321  0.892543  1
  Li  Li2  1  0.594248  0.273085  0.103446  1
  Li  Li3  1  0.921740  0.613090  0.771301  1
  Li  Li4  1  0.716578  0.058250  0.562867  1
  Mn  Mn5  1  0.218893  0.977940  0.770163  1
  Mn  Mn6  1  0.122086  0.369311  0.889874  1
  Mn  Mn7  1  0.441360  0.688619  0.538576  1
  Mn  Mn8  1  0.526146  0.288285  0.447258  1
  Mn  Mn9  1  0.895733  0.651470  0.133970  1
  Mn  Mn10  1  0.789650  0.030808  0.215790  1
  B  B11  1  0.099882  0.369516  0.552027  1
  B  B12  1  0.222538  0.964175  0.105407  1
  B  B13  1  0.451161  0.704364  0.222543  1
  B  B14  1  0.565649  0.308925  0.793675  1
  B  B15  1  0.780689  0.036424  0.879384  1
  B  B16  1  0.884527  0.616094  0.449013  1
  O  O17  1  0.157492  0.856835  0.933401  1
  O  O18  1  0.118742  0.747780  0.541304  1
  O  O19  1  0.079306  0.923377  0.196057  1
  O  O20  1  0.178041  0.482162  0.722539  1
  O  O21  1  0.237175  0.407575  0.452958  1
  O  O22  1  0.231116  0.557743  0.147675  1
  O  O23  1  0.568606  0.882485  0.796904  1
  O  O24  1  0.428972  0.262223  0.889090  1
  O  O25  1  0.549212  0.806687  0.395410  1
  O  O26  1  0.489594  0.197895  0.624328  1
  O  O27  1  0.573563  0.747687  0.120161  1
  O  O28  1  0.441775  0.113463  0.192263  1
  O  O29  1  0.780687  0.460820  0.876212  1
  O  O30  1  0.732216  0.583803  0.542186  1
  O  O31  1  0.814966  0.512298  0.278719  1
  O  O32  1  0.914388  0.083274  0.783365  1
  O  O33  1  0.879601  0.223715  0.469317  1
  O  O34  1  0.850573  0.148944  0.050563  1
