# generated using pymatgen
data_N2
_symmetry_space_group_name_H-M   'P 1'
_cell_length_a   4.37532794
_cell_length_b   4.37532794
_cell_length_c   4.37532794
_cell_angle_alpha   151.32069486
_cell_angle_beta   134.48619450
_cell_angle_gamma   54.68600574
_symmetry_Int_Tables_number   1
_chemical_formula_structural   N2
_chemical_formula_sum   N2
_cell_volume   28.51163083
_cell_formula_units_Z   1
loop_
 _symmetry_equiv_pos_site_id
 _symmetry_equiv_pos_as_xyz
  1  'x, y, z'
loop_
 _atom_site_type_symbol
 _atom_site_label
 _atom_site_symmetry_multiplicity
 _atom_site_fract_x
 _atom_site_fract_y
 _atom_site_fract_z
 _atom_site_occupancy
  N  N0  1  0.889191  0.750000  0.639191  1
  N  N1  1  0.110809  0.250000  0.360809  1
