# generated using pymatgen
data_Li4Cr(WO4)3
_symmetry_space_group_name_H-M   'P 1'
_cell_length_a   5.18212699
_cell_length_b   5.47844482
_cell_length_c   7.50870583
_cell_angle_alpha   94.15024010
_cell_angle_beta   90.41074030
_cell_angle_gamma   90.06824637
_symmetry_Int_Tables_number   1
_chemical_formula_structural   Li4Cr(WO4)3
_chemical_formula_sum   'Li4 Cr1 W3 O12'
_cell_volume   212.60735866
_cell_formula_units_Z   1
loop_
 _symmetry_equiv_pos_site_id
 _symmetry_equiv_pos_as_xyz
  1  'x, y, z'
loop_
 _atom_site_type_symbol
 _atom_site_label
 _atom_site_symmetry_multiplicity
 _atom_site_fract_x
 _atom_site_fract_y
 _atom_site_fract_z
 _atom_site_occupancy
  Li  Li0  1  0.997590  0.441140  0.303285  1
  Li  Li1  1  0.504011  0.921213  0.770365  1
  Li  Li2  1  0.004594  0.484935  0.746795  1
  Li  Li3  1  0.492154  0.927576  0.299960  1
  Cr  Cr4  1  0.500780  0.498782  0.497871  1
  W  W5  1  0.997102  0.001703  0.005740  1
  W  W6  1  0.004059  0.001945  0.505955  1
  W  W7  1  0.500866  0.497052  0.999336  1
  O  O8  1  0.293308  0.194312  0.435846  1
  O  O9  1  0.124093  0.007548  0.751786  1
  O  O10  1  0.305605  0.824397  0.057809  1
  O  O11  1  0.193546  0.709622  0.437628  1
  O  O12  1  0.817951  0.700221  0.929204  1
  O  O13  1  0.386786  0.518106  0.756430  1
  O  O14  1  0.616056  0.510502  0.240864  1
  O  O15  1  0.175820  0.309253  0.059404  1
  O  O16  1  0.818437  0.306461  0.547213  1
  O  O17  1  0.695005  0.180802  0.931120  1
  O  O18  1  0.873463  0.004732  0.244953  1
  O  O19  1  0.698773  0.817294  0.549637  1
