# generated using pymatgen
data_LiP4WO12
_symmetry_space_group_name_H-M   'P 1'
_cell_length_a   6.97315930
_cell_length_b   8.92632313
_cell_length_c   7.48051602
_cell_angle_alpha   90.00000000
_cell_angle_beta   96.29700813
_cell_angle_gamma   90.00000000
_symmetry_Int_Tables_number   1
_chemical_formula_structural   LiP4WO12
_chemical_formula_sum   'Li2 P8 W2 O24'
_cell_volume   462.81302831
_cell_formula_units_Z   2
loop_
 _symmetry_equiv_pos_site_id
 _symmetry_equiv_pos_as_xyz
  1  'x, y, z'
loop_
 _atom_site_type_symbol
 _atom_site_label
 _atom_site_symmetry_multiplicity
 _atom_site_fract_x
 _atom_site_fract_y
 _atom_site_fract_z
 _atom_site_occupancy
  Li  Li0  1  0.302677  0.482191  0.680568  1
  Li  Li1  1  0.697323  0.982191  0.319432  1
  P  P2  1  0.036631  0.884430  0.605044  1
  P  P3  1  0.073004  0.168542  0.089482  1
  P  P4  1  0.424548  0.019355  0.616600  1
  P  P5  1  0.424382  0.353061  0.053110  1
  P  P6  1  0.575618  0.853061  0.946890  1
  P  P7  1  0.575452  0.519355  0.383400  1
  P  P8  1  0.926996  0.668542  0.910518  1
  P  P9  1  0.963369  0.384430  0.394956  1
  W  W10  1  0.255388  0.819366  0.244002  1
  W  W11  1  0.744612  0.319366  0.755998  1
  O  O12  1  0.004412  0.797831  0.787536  1
  O  O13  1  0.963643  0.184730  0.906501  1
  O  O14  1  0.127959  0.774584  0.486011  1
  O  O15  1  0.073418  0.017942  0.179823  1
  O  O16  1  0.207091  0.007262  0.669906  1
  O  O17  1  0.141424  0.463854  0.464726  1
  O  O18  1  0.298642  0.203433  0.076427  1
  O  O19  1  0.317002  0.465695  0.936028  1
  O  O20  1  0.434718  0.977491  0.420280  1
  O  O21  1  0.378897  0.807759  0.993766  1
  O  O22  1  0.543351  0.895299  0.735158  1
  O  O23  1  0.498767  0.172676  0.667839  1
  O  O24  1  0.501233  0.672676  0.332161  1
  O  O25  1  0.456649  0.395299  0.264842  1
  O  O26  1  0.621103  0.307759  0.006234  1
  O  O27  1  0.565282  0.477491  0.579720  1
  O  O28  1  0.682998  0.965695  0.063972  1
  O  O29  1  0.701358  0.703433  0.923573  1
  O  O30  1  0.858576  0.963854  0.535274  1
  O  O31  1  0.792909  0.507262  0.330094  1
  O  O32  1  0.926582  0.517942  0.820177  1
  O  O33  1  0.872041  0.274584  0.513989  1
  O  O34  1  0.036357  0.684730  0.093499  1
  O  O35  1  0.995588  0.297831  0.212464  1
