# generated using pymatgen
data_Y2HfO5
_symmetry_space_group_name_H-M   'P 1'
_cell_length_a   3.77754042
_cell_length_b   7.54264133
_cell_length_c   15.77406413
_cell_angle_alpha   90.00000000
_cell_angle_beta   90.00000000
_cell_angle_gamma   90.00000000
_symmetry_Int_Tables_number   1
_chemical_formula_structural   Y2HfO5
_chemical_formula_sum   'Y8 Hf4 O20'
_cell_volume   449.44461225
_cell_formula_units_Z   4
loop_
 _symmetry_equiv_pos_site_id
 _symmetry_equiv_pos_as_xyz
  1  'x, y, z'
loop_
 _atom_site_type_symbol
 _atom_site_label
 _atom_site_symmetry_multiplicity
 _atom_site_fract_x
 _atom_site_fract_y
 _atom_site_fract_z
 _atom_site_occupancy
  Y  Y0  1  0.750000  0.912903  0.089973  1
  Y  Y1  1  0.750000  0.849657  0.737683  1
  Y  Y2  1  0.250000  0.650343  0.237683  1
  Y  Y3  1  0.250000  0.587097  0.589973  1
  Y  Y4  1  0.750000  0.412903  0.410027  1
  Y  Y5  1  0.750000  0.349657  0.762317  1
  Y  Y6  1  0.250000  0.150343  0.262317  1
  Y  Y7  1  0.250000  0.087097  0.910027  1
  Hf  Hf8  1  0.750000  0.881296  0.427330  1
  Hf  Hf9  1  0.250000  0.618704  0.927330  1
  Hf  Hf10  1  0.750000  0.381296  0.072670  1
  Hf  Hf11  1  0.250000  0.118704  0.572670  1
  O  O12  1  0.250000  0.915255  0.178430  1
  O  O13  1  0.250000  0.921446  0.461270  1
  O  O14  1  0.250000  0.890292  0.651427  1
  O  O15  1  0.250000  0.852837  0.002204  1
  O  O16  1  0.750000  0.713785  0.327014  1
  O  O17  1  0.250000  0.786215  0.827014  1
  O  O18  1  0.750000  0.647163  0.502204  1
  O  O19  1  0.750000  0.609708  0.151427  1
  O  O20  1  0.750000  0.578554  0.961270  1
  O  O21  1  0.750000  0.584745  0.678430  1
  O  O22  1  0.250000  0.415255  0.321570  1
  O  O23  1  0.250000  0.421446  0.038730  1
  O  O24  1  0.250000  0.390292  0.848573  1
  O  O25  1  0.250000  0.352837  0.497796  1
  O  O26  1  0.750000  0.213785  0.172986  1
  O  O27  1  0.250000  0.286215  0.672986  1
  O  O28  1  0.750000  0.147163  0.997796  1
  O  O29  1  0.750000  0.109708  0.348573  1
  O  O30  1  0.750000  0.078554  0.538730  1
  O  O31  1  0.750000  0.084745  0.821570  1
