# generated using pymatgen
data_Na5LiNi2P2(CO7)2
_symmetry_space_group_name_H-M   'P 1'
_cell_length_a   5.15387484
_cell_length_b   6.70781828
_cell_length_c   8.73191249
_cell_angle_alpha   90.00000000
_cell_angle_beta   92.23298369
_cell_angle_gamma   90.00000000
_symmetry_Int_Tables_number   1
_chemical_formula_structural   Na5LiNi2P2(CO7)2
_chemical_formula_sum   'Na5 Li1 Ni2 P2 C2 O14'
_cell_volume   301.64395418
_cell_formula_units_Z   1
loop_
 _symmetry_equiv_pos_site_id
 _symmetry_equiv_pos_as_xyz
  1  'x, y, z'
loop_
 _atom_site_type_symbol
 _atom_site_label
 _atom_site_symmetry_multiplicity
 _atom_site_fract_x
 _atom_site_fract_y
 _atom_site_fract_z
 _atom_site_occupancy
  Na  Na0  1  0.258532  0.259201  0.726905  1
  Na  Na1  1  0.258532  0.740799  0.726905  1
  Na  Na2  1  0.740807  0.757896  0.273905  1
  Na  Na3  1  0.740807  0.242104  0.273905  1
  Na  Na4  1  0.223934  0.000000  0.084298  1
  Li  Li5  1  0.769260  0.500000  0.904870  1
  Ni  Ni6  1  0.777703  0.000000  0.657794  1
  Ni  Ni7  1  0.220577  0.500000  0.344044  1
  P  P8  1  0.720384  0.500000  0.588226  1
  P  P9  1  0.278883  0.000000  0.416504  1
  C  C10  1  0.710899  0.000000  0.940069  1
  C  C11  1  0.291267  0.500000  0.055392  1
  O  O12  1  0.352168  0.500000  0.913883  1
  O  O13  1  0.939565  0.000000  0.882652  1
  O  O14  1  0.511567  0.000000  0.843564  1
  O  O15  1  0.792428  0.317485  0.691757  1
  O  O16  1  0.792428  0.682515  0.691757  1
  O  O17  1  0.138518  0.000000  0.568966  1
  O  O18  1  0.422580  0.500000  0.549569  1
  O  O19  1  0.578195  0.000000  0.451968  1
  O  O20  1  0.862594  0.500000  0.435979  1
  O  O21  1  0.205606  0.815015  0.316156  1
  O  O22  1  0.205606  0.184985  0.316156  1
  O  O23  1  0.474489  0.500000  0.162885  1
  O  O24  1  0.050940  0.500000  0.096416  1
  O  O25  1  0.681730  0.000000  0.085474  1
