# generated using pymatgen
data_LiV(Si2O5)3
_symmetry_space_group_name_H-M   'P 1'
_cell_length_a   11.17175312
_cell_length_b   11.17175312
_cell_length_c   9.99957866
_cell_angle_alpha   90.00000000
_cell_angle_beta   90.00000000
_cell_angle_gamma   100.04448231
_symmetry_Int_Tables_number   1
_chemical_formula_structural   LiV(Si2O5)3
_chemical_formula_sum   'Li4 V4 Si24 O60'
_cell_volume   1228.89911721
_cell_formula_units_Z   4
loop_
 _symmetry_equiv_pos_site_id
 _symmetry_equiv_pos_as_xyz
  1  'x, y, z'
loop_
 _atom_site_type_symbol
 _atom_site_label
 _atom_site_symmetry_multiplicity
 _atom_site_fract_x
 _atom_site_fract_y
 _atom_site_fract_z
 _atom_site_occupancy
  Li  Li0  1  0.248329  0.248329  0.000000  1
  Li  Li1  1  0.251671  0.251671  0.500000  1
  Li  Li2  1  0.748329  0.748329  0.500000  1
  Li  Li3  1  0.751671  0.751671  0.000000  1
  V  V4  1  0.343423  0.156577  0.250000  1
  V  V5  1  0.156577  0.343423  0.750000  1
  V  V6  1  0.843423  0.656577  0.250000  1
  V  V7  1  0.656577  0.843423  0.750000  1
  Si  Si8  1  0.759390  0.024353  0.490677  1
  Si  Si9  1  0.707872  0.076311  0.955524  1
  Si  Si10  1  0.175389  0.045863  0.803159  1
  Si  Si11  1  0.975647  0.240610  0.490677  1
  Si  Si12  1  0.576311  0.207872  0.455524  1
  Si  Si13  1  0.923689  0.292128  0.955524  1
  Si  Si14  1  0.524353  0.259390  0.990677  1
  Si  Si15  1  0.045863  0.175389  0.196841  1
  Si  Si16  1  0.454138  0.324611  0.696841  1
  Si  Si17  1  0.792128  0.423689  0.455524  1
  Si  Si18  1  0.740610  0.475647  0.990677  1
  Si  Si19  1  0.324611  0.454138  0.303159  1
  Si  Si20  1  0.675389  0.545862  0.696841  1
  Si  Si21  1  0.259390  0.524353  0.009323  1
  Si  Si22  1  0.207872  0.576311  0.544476  1
  Si  Si23  1  0.545862  0.675389  0.303159  1
  Si  Si24  1  0.954138  0.824611  0.803159  1
  Si  Si25  1  0.475647  0.740610  0.009323  1
  Si  Si26  1  0.076311  0.707872  0.044476  1
  Si  Si27  1  0.423689  0.792128  0.544476  1
  Si  Si28  1  0.024353  0.759390  0.509323  1
  Si  Si29  1  0.824611  0.954138  0.196841  1
  Si  Si30  1  0.292128  0.923689  0.044476  1
  Si  Si31  1  0.240610  0.975647  0.509323  1
  O  O32  1  0.659543  0.991739  0.826146  1
  O  O33  1  0.956851  0.043149  0.191070  1
  O  O34  1  0.890386  0.109614  0.522010  1
  O  O35  1  0.263578  0.009029  0.921205  1
  O  O36  1  0.240962  0.031358  0.660197  1
  O  O37  1  0.650745  0.103116  0.504429  1
  O  O38  1  0.829873  0.170127  0.910869  1
  O  O39  1  0.491739  0.159543  0.326146  1
  O  O40  1  0.261505  0.092024  0.408638  1
  O  O41  1  0.603116  0.150745  0.004429  1
  O  O42  1  0.186470  0.164451  0.168643  1
  O  O43  1  0.490971  0.236422  0.578795  1
  O  O44  1  0.164451  0.186470  0.831357  1
  O  O45  1  0.468642  0.259038  0.839803  1
  O  O46  1  0.407976  0.238495  0.091362  1
  O  O47  1  0.896884  0.349255  0.504429  1
  O  O48  1  0.008261  0.340457  0.826146  1
  O  O49  1  0.670127  0.329873  0.410869  1
  O  O50  1  0.092024  0.261505  0.591362  1
  O  O51  1  0.849255  0.396884  0.004429  1
  O  O52  1  0.031358  0.240962  0.339803  1
  O  O53  1  0.335549  0.313530  0.331357  1
  O  O54  1  0.009029  0.263578  0.078795  1
  O  O55  1  0.313530  0.335549  0.668643  1
  O  O56  1  0.609614  0.390386  0.022010  1
  O  O57  1  0.543149  0.456851  0.691070  1
  O  O58  1  0.840457  0.508261  0.326146  1
  O  O59  1  0.238495  0.407976  0.908638  1
  O  O60  1  0.763578  0.509029  0.578795  1
  O  O61  1  0.740962  0.531358  0.839803  1
  O  O62  1  0.259038  0.468642  0.160197  1
  O  O63  1  0.236422  0.490971  0.421205  1
  O  O64  1  0.761505  0.592024  0.091362  1
  O  O65  1  0.159543  0.491739  0.673854  1
  O  O66  1  0.456851  0.543149  0.308930  1
  O  O67  1  0.390386  0.609614  0.977990  1
  O  O68  1  0.686470  0.664451  0.331357  1
  O  O69  1  0.990971  0.736422  0.921205  1
  O  O70  1  0.664451  0.686470  0.668643  1
  O  O71  1  0.968642  0.759038  0.660197  1
  O  O72  1  0.150745  0.603116  0.995571  1
  O  O73  1  0.907976  0.738495  0.408638  1
  O  O74  1  0.329873  0.670127  0.589131  1
  O  O75  1  0.991739  0.659543  0.173854  1
  O  O76  1  0.103116  0.650745  0.495571  1
  O  O77  1  0.592024  0.761505  0.908638  1
  O  O78  1  0.531358  0.740962  0.160197  1
  O  O79  1  0.835549  0.813530  0.168643  1
  O  O80  1  0.509029  0.763578  0.421205  1
  O  O81  1  0.813530  0.835549  0.831357  1
  O  O82  1  0.396884  0.849255  0.995571  1
  O  O83  1  0.738495  0.907976  0.591362  1
  O  O84  1  0.508261  0.840457  0.673854  1
  O  O85  1  0.170127  0.829873  0.089131  1
  O  O86  1  0.349255  0.896884  0.495571  1
  O  O87  1  0.759038  0.968642  0.339803  1
  O  O88  1  0.736422  0.990971  0.078795  1
  O  O89  1  0.109614  0.890386  0.477990  1
  O  O90  1  0.043149  0.956851  0.808930  1
  O  O91  1  0.340457  0.008261  0.173854  1
