# generated using pymatgen
data_Li4Nb3Fe2Ni3O16
_symmetry_space_group_name_H-M   'P 1'
_cell_length_a   6.05225962
_cell_length_b   6.06092968
_cell_length_c   9.74961510
_cell_angle_alpha   91.25290143
_cell_angle_beta   90.36790543
_cell_angle_gamma   119.83920345
_symmetry_Int_Tables_number   1
_chemical_formula_structural   Li4Nb3Fe2Ni3O16
_chemical_formula_sum   'Li4 Nb3 Fe2 Ni3 O16'
_cell_volume   310.08875801
_cell_formula_units_Z   1
loop_
 _symmetry_equiv_pos_site_id
 _symmetry_equiv_pos_as_xyz
  1  'x, y, z'
loop_
 _atom_site_type_symbol
 _atom_site_label
 _atom_site_symmetry_multiplicity
 _atom_site_fract_x
 _atom_site_fract_y
 _atom_site_fract_z
 _atom_site_occupancy
  Li  Li0  1  0.658886  0.329342  0.883789  1
  Li  Li1  1  0.975222  0.946745  0.985596  1
  Li  Li2  1  0.995272  0.988985  0.503530  1
  Li  Li3  1  0.329624  0.663901  0.403958  1
  Nb  Nb4  1  0.338465  0.170776  0.215390  1
  Nb  Nb5  1  0.835524  0.171142  0.213212  1
  Nb  Nb6  1  0.176854  0.346818  0.717247  1
  Fe  Fe7  1  0.685679  0.357220  0.506415  1
  Fe  Fe8  1  0.345625  0.699097  0.974354  1
  Ni  Ni9  1  0.827944  0.657163  0.212757  1
  Ni  Ni10  1  0.168207  0.829046  0.712222  1
  Ni  Ni11  1  0.662594  0.837565  0.712915  1
  O  O12  1  0.344758  0.202029  0.595157  1
  O  O13  1  0.515874  0.027558  0.330999  1
  O  O14  1  0.653660  0.311299  0.099149  1
  O  O15  1  0.003449  0.005463  0.316128  1
  O  O16  1  0.019628  0.001432  0.804146  1
  O  O17  1  0.848981  0.183929  0.598430  1
  O  O18  1  0.511090  0.468634  0.341087  1
  O  O19  1  0.957605  0.466691  0.340072  1
  O  O20  1  0.157591  0.316001  0.104239  1
  O  O21  1  0.855411  0.682828  0.600779  1
  O  O22  1  0.032228  0.499741  0.848955  1
  O  O23  1  0.476532  0.517826  0.847352  1
  O  O24  1  0.317382  0.667181  0.606114  1
  O  O25  1  0.172230  0.843449  0.101009  1
  O  O26  1  0.462856  0.961693  0.835186  1
  O  O27  1  0.670525  0.846444  0.097654  1
