# generated using pymatgen
data_Li2Cu3(CO3)3
_symmetry_space_group_name_H-M   'P 1'
_cell_length_a   8.19034608
_cell_length_b   6.24190875
_cell_length_c   8.20562681
_cell_angle_alpha   90.00000000
_cell_angle_beta   119.78255644
_cell_angle_gamma   90.00000000
_symmetry_Int_Tables_number   1
_chemical_formula_structural   Li2Cu3(CO3)3
_chemical_formula_sum   'Li4 Cu6 C6 O18'
_cell_volume   364.09061370
_cell_formula_units_Z   2
loop_
 _symmetry_equiv_pos_site_id
 _symmetry_equiv_pos_as_xyz
  1  'x, y, z'
loop_
 _atom_site_type_symbol
 _atom_site_label
 _atom_site_symmetry_multiplicity
 _atom_site_fract_x
 _atom_site_fract_y
 _atom_site_fract_z
 _atom_site_occupancy
  Li  Li0  1  0.675136  0.000000  0.972851  1
  Li  Li1  1  0.027943  0.500000  0.703194  1
  Li  Li2  1  0.297631  0.500000  0.324907  1
  Li  Li3  1  0.295957  0.000000  0.323769  1
  Cu  Cu4  1  0.978049  0.248076  0.344563  1
  Cu  Cu5  1  0.978049  0.751924  0.344563  1
  Cu  Cu6  1  0.664041  0.752556  0.644684  1
  Cu  Cu7  1  0.664041  0.247444  0.644684  1
  Cu  Cu8  1  0.361586  0.254394  0.011970  1
  Cu  Cu9  1  0.361586  0.745606  0.011970  1
  C  C10  1  0.662330  0.000000  0.327982  1
  C  C11  1  0.663934  0.500000  0.335520  1
  C  C12  1  0.001687  0.250018  0.003081  1
  C  C13  1  0.001687  0.749982  0.003081  1
  C  C14  1  0.333858  0.249995  0.664993  1
  C  C15  1  0.333858  0.750005  0.664993  1
  O  O16  1  0.934095  0.731576  0.824780  1
  O  O17  1  0.934095  0.268424  0.824780  1
  O  O18  1  0.843419  0.000000  0.412667  1
  O  O19  1  0.848639  0.500000  0.424380  1
  O  O20  1  0.573534  0.000000  0.423954  1
  O  O21  1  0.578348  0.500000  0.435457  1
  O  O22  1  0.892843  0.772294  0.073740  1
  O  O23  1  0.892843  0.227706  0.073740  1
  O  O24  1  0.563723  0.000000  0.143732  1
  O  O25  1  0.568425  0.500000  0.155443  1
  O  O26  1  0.185466  0.253531  0.115741  1
  O  O27  1  0.185466  0.746469  0.115741  1
  O  O28  1  0.512766  0.230811  0.772683  1
  O  O29  1  0.512766  0.769189  0.772683  1
  O  O30  1  0.223403  0.266293  0.733753  1
  O  O31  1  0.223403  0.733707  0.733753  1
  O  O32  1  0.262342  0.252636  0.481822  1
  O  O33  1  0.262342  0.747364  0.481822  1
