# generated using pymatgen
data_Sm3Ta17O47
_symmetry_space_group_name_H-M   'P 1'
_cell_length_a   12.80890083
_cell_length_b   3.91321737
_cell_length_c   19.39584756
_cell_angle_alpha   90.00000000
_cell_angle_beta   103.07805338
_cell_angle_gamma   90.00000000
_symmetry_Int_Tables_number   1
_chemical_formula_structural   Sm3Ta17O47
_chemical_formula_sum   'Sm3 Ta17 O47'
_cell_volume   946.98154811
_cell_formula_units_Z   1
loop_
 _symmetry_equiv_pos_site_id
 _symmetry_equiv_pos_as_xyz
  1  'x, y, z'
loop_
 _atom_site_type_symbol
 _atom_site_label
 _atom_site_symmetry_multiplicity
 _atom_site_fract_x
 _atom_site_fract_y
 _atom_site_fract_z
 _atom_site_occupancy
  Sm  Sm0  1  0.000000  0.500000  0.000000  1
  Sm  Sm1  1  0.375723  0.500000  0.668840  1
  Sm  Sm2  1  0.624277  0.500000  0.331160  1
  Ta  Ta3  1  0.023979  0.000000  0.853273  1
  Ta  Ta4  1  0.189638  0.000000  0.716709  1
  Ta  Ta5  1  0.108056  0.000000  0.352672  1
  Ta  Ta6  1  0.279235  0.000000  0.529362  1
  Ta  Ta7  1  0.237684  0.000000  0.216730  1
  Ta  Ta8  1  0.227939  0.000000  0.042275  1
  Ta  Ta9  1  0.508323  0.000000  0.808887  1
  Ta  Ta10  1  0.413467  0.000000  0.375391  1
  Ta  Ta11  1  0.586533  0.000000  0.624609  1
  Ta  Ta12  1  0.491677  0.000000  0.191113  1
  Ta  Ta13  1  0.772061  0.000000  0.957725  1
  Ta  Ta14  1  0.762316  0.000000  0.783270  1
  Ta  Ta15  1  0.500000  0.000000  0.000000  1
  Ta  Ta16  1  0.720765  0.000000  0.470638  1
  Ta  Ta17  1  0.891944  0.000000  0.647328  1
  Ta  Ta18  1  0.810362  0.000000  0.283291  1
  Ta  Ta19  1  0.976021  0.000000  0.146727  1
  O  O20  1  0.024807  0.500000  0.871590  1
  O  O21  1  0.087237  0.000000  0.963734  1
  O  O22  1  0.046835  0.000000  0.664916  1
  O  O23  1  0.141664  0.000000  0.807108  1
  O  O24  1  0.217558  0.500000  0.720195  1
  O  O25  1  0.081860  0.000000  0.237492  1
  O  O26  1  0.153514  0.000000  0.456044  1
  O  O27  1  0.111530  0.500000  0.352333  1
  O  O28  1  0.340234  0.000000  0.996533  1
  O  O29  1  0.232725  0.000000  0.622065  1
  O  O30  1  0.124314  0.000000  0.116255  1
  O  O31  1  0.364631  0.000000  0.744846  1
  O  O32  1  0.291651  0.500000  0.544102  1
  O  O33  1  0.253832  0.000000  0.327558  1
  O  O34  1  0.235752  0.500000  0.215514  1
  O  O35  1  0.470455  0.000000  0.895605  1
  O  O36  1  0.198388  0.500000  0.038449  1
  O  O37  1  0.375837  0.000000  0.464800  1
  O  O38  1  0.427737  0.000000  0.611341  1
  O  O39  1  0.500164  0.500000  0.790453  1
  O  O40  1  0.328274  0.000000  0.137384  1
  O  O41  1  0.399812  0.000000  0.266881  1
  O  O42  1  0.433824  0.500000  0.372011  1
  O  O43  1  0.566176  0.500000  0.627989  1
  O  O44  1  0.600188  0.000000  0.733119  1
  O  O45  1  0.671726  0.000000  0.862616  1
  O  O46  1  0.499836  0.500000  0.209547  1
  O  O47  1  0.572263  0.000000  0.388659  1
  O  O48  1  0.624163  0.000000  0.535200  1
  O  O49  1  0.801612  0.500000  0.961551  1
  O  O50  1  0.529545  0.000000  0.104395  1
  O  O51  1  0.500000  0.500000  0.000000  1
  O  O52  1  0.764248  0.500000  0.784486  1
  O  O53  1  0.746168  0.000000  0.672442  1
  O  O54  1  0.708349  0.500000  0.455898  1
  O  O55  1  0.635369  0.000000  0.255154  1
  O  O56  1  0.875686  0.000000  0.883745  1
  O  O57  1  0.767275  0.000000  0.377935  1
  O  O58  1  0.659766  0.000000  0.003467  1
  O  O59  1  0.888470  0.500000  0.647667  1
  O  O60  1  0.846486  0.000000  0.543956  1
  O  O61  1  0.918140  0.000000  0.762508  1
  O  O62  1  0.782442  0.500000  0.279805  1
  O  O63  1  0.858336  0.000000  0.192892  1
  O  O64  1  0.953165  0.000000  0.335084  1
  O  O65  1  0.912763  0.000000  0.036266  1
  O  O66  1  0.975193  0.500000  0.128410  1
