# generated using pymatgen
data_LiAgF2
_symmetry_space_group_name_H-M   'P 1'
_cell_length_a   3.04454055
_cell_length_b   3.04454055
_cell_length_c   11.60233563
_cell_angle_alpha   90.00000000
_cell_angle_beta   90.00000000
_cell_angle_gamma   120.00000000
_symmetry_Int_Tables_number   1
_chemical_formula_structural   LiAgF2
_chemical_formula_sum   'Li2 Ag2 F4'
_cell_volume   93.13642879
_cell_formula_units_Z   2
loop_
 _symmetry_equiv_pos_site_id
 _symmetry_equiv_pos_as_xyz
  1  'x, y, z'
loop_
 _atom_site_type_symbol
 _atom_site_label
 _atom_site_symmetry_multiplicity
 _atom_site_fract_x
 _atom_site_fract_y
 _atom_site_fract_z
 _atom_site_occupancy
  Li  Li0  1  0.000000  0.000000  0.000000  1
  Li  Li1  1  0.000000  0.000000  0.500000  1
  Ag  Ag2  1  0.333333  0.666667  0.250000  1
  Ag  Ag3  1  0.666667  0.333333  0.750000  1
  F  F4  1  0.666667  0.333333  0.095630  1
  F  F5  1  0.333333  0.666667  0.595630  1
  F  F6  1  0.333333  0.666667  0.904370  1
  F  F7  1  0.666667  0.333333  0.404370  1
