# generated using pymatgen
data_LiV2PO7
_symmetry_space_group_name_H-M   'P 1'
_cell_length_a   5.13903367
_cell_length_b   9.61104165
_cell_length_c   5.39869557
_cell_angle_alpha   90.00000000
_cell_angle_beta   103.35177373
_cell_angle_gamma   90.00000000
_symmetry_Int_Tables_number   1
_chemical_formula_structural   LiV2PO7
_chemical_formula_sum   'Li2 V4 P2 O14'
_cell_volume   259.44211567
_cell_formula_units_Z   2
loop_
 _symmetry_equiv_pos_site_id
 _symmetry_equiv_pos_as_xyz
  1  'x, y, z'
loop_
 _atom_site_type_symbol
 _atom_site_label
 _atom_site_symmetry_multiplicity
 _atom_site_fract_x
 _atom_site_fract_y
 _atom_site_fract_z
 _atom_site_occupancy
  Li  Li0  1  0.046630  0.137150  0.630115  1
  Li  Li1  1  0.953370  0.637150  0.369885  1
  V  V2  1  0.349926  0.636540  0.963762  1
  V  V3  1  0.859558  0.825742  0.861524  1
  V  V4  1  0.650074  0.136540  0.036238  1
  V  V5  1  0.140442  0.325742  0.138476  1
  P  P6  1  0.613580  0.399517  0.625612  1
  P  P7  1  0.386420  0.899517  0.374388  1
  O  O8  1  0.317664  0.207009  0.950693  1
  O  O9  1  0.799622  0.296113  0.824140  1
  O  O10  1  0.439247  0.482661  0.774277  1
  O  O11  1  0.839370  0.010467  0.863075  1
  O  O12  1  0.577607  0.799356  0.558150  1
  O  O13  1  0.086872  0.715860  0.721665  1
  O  O14  1  0.777330  0.489587  0.493683  1
  O  O15  1  0.422393  0.299356  0.441850  1
  O  O16  1  0.222670  0.989587  0.506317  1
  O  O17  1  0.913128  0.215860  0.278335  1
  O  O18  1  0.560753  0.982661  0.225723  1
  O  O19  1  0.160630  0.510467  0.136925  1
  O  O20  1  0.682336  0.707009  0.049307  1
  O  O21  1  0.200378  0.796113  0.175860  1
