# generated using pymatgen
data_LiSnPO4
_symmetry_space_group_name_H-M   'P 1'
_cell_length_a   9.03547892
_cell_length_b   9.03547892
_cell_length_c   9.03547892
_cell_angle_alpha   107.28062506
_cell_angle_beta   107.28062506
_cell_angle_gamma   107.28062506
_symmetry_Int_Tables_number   1
_chemical_formula_structural   LiSnPO4
_chemical_formula_sum   'Li6 Sn6 P6 O24'
_cell_volume   609.56259060
_cell_formula_units_Z   6
loop_
 _symmetry_equiv_pos_site_id
 _symmetry_equiv_pos_as_xyz
  1  'x, y, z'
loop_
 _atom_site_type_symbol
 _atom_site_label
 _atom_site_symmetry_multiplicity
 _atom_site_fract_x
 _atom_site_fract_y
 _atom_site_fract_z
 _atom_site_occupancy
  Li  Li0  1  0.722028  0.887723  0.132492  1
  Li  Li1  1  0.611757  0.418776  0.216365  1
  Li  Li2  1  0.216365  0.611757  0.418776  1
  Li  Li3  1  0.887723  0.132492  0.722028  1
  Li  Li4  1  0.418776  0.216365  0.611757  1
  Li  Li5  1  0.132492  0.722028  0.887723  1
  Sn  Sn6  1  0.223076  0.445758  0.055199  1
  Sn  Sn7  1  0.938793  0.773922  0.541554  1
  Sn  Sn8  1  0.445758  0.055199  0.223076  1
  Sn  Sn9  1  0.541554  0.938793  0.773922  1
  Sn  Sn10  1  0.055199  0.223076  0.445758  1
  Sn  Sn11  1  0.773922  0.541554  0.938793  1
  P  P12  1  0.862316  0.278467  0.105790  1
  P  P13  1  0.582517  0.786383  0.381341  1
  P  P14  1  0.105790  0.862316  0.278467  1
  P  P15  1  0.786383  0.381341  0.582517  1
  P  P16  1  0.381341  0.582517  0.786383  1
  P  P17  1  0.278467  0.105790  0.862316  1
  O  O18  1  0.946259  0.901666  0.255981  1
  O  O19  1  0.758028  0.388605  0.105658  1
  O  O20  1  0.760231  0.103328  0.100115  1
  O  O21  1  0.590150  0.895123  0.274933  1
  O  O22  1  0.375097  0.273161  0.035974  1
  O  O23  1  0.100115  0.760231  0.103328  1
  O  O24  1  0.664317  0.660537  0.327578  1
  O  O25  1  0.394798  0.681741  0.342658  1
  O  O26  1  0.681741  0.342658  0.394798  1
  O  O27  1  0.690568  0.906284  0.575366  1
  O  O28  1  0.105658  0.758028  0.388605  1
  O  O29  1  0.906284  0.575366  0.690568  1
  O  O30  1  0.035974  0.375097  0.273161  1
  O  O31  1  0.895123  0.274933  0.590150  1
  O  O32  1  0.273161  0.035974  0.375097  1
  O  O33  1  0.327578  0.664317  0.660537  1
  O  O34  1  0.660537  0.327578  0.664317  1
  O  O35  1  0.342658  0.394798  0.681741  1
  O  O36  1  0.575366  0.690568  0.906284  1
  O  O37  1  0.901666  0.255981  0.946259  1
  O  O38  1  0.255981  0.946259  0.901666  1
  O  O39  1  0.388605  0.105658  0.758028  1
  O  O40  1  0.274933  0.590150  0.895123  1
  O  O41  1  0.103328  0.100115  0.760231  1
