# generated using pymatgen
data_Li4Cr3CoO8
_symmetry_space_group_name_H-M   'P 1'
_cell_length_a   5.07330974
_cell_length_b   5.11141770
_cell_length_c   5.86052214
_cell_angle_alpha   106.64392506
_cell_angle_beta   90.00831443
_cell_angle_gamma   99.52303911
_symmetry_Int_Tables_number   1
_chemical_formula_structural   Li4Cr3CoO8
_chemical_formula_sum   'Li4 Cr3 Co1 O8'
_cell_volume   143.41832125
_cell_formula_units_Z   1
loop_
 _symmetry_equiv_pos_site_id
 _symmetry_equiv_pos_as_xyz
  1  'x, y, z'
loop_
 _atom_site_type_symbol
 _atom_site_label
 _atom_site_symmetry_multiplicity
 _atom_site_fract_x
 _atom_site_fract_y
 _atom_site_fract_z
 _atom_site_occupancy
  Li  Li0  1  0.742263  0.497703  0.876878  1
  Li  Li1  1  0.249848  0.506381  0.629077  1
  Li  Li2  1  0.750152  0.493619  0.370923  1
  Li  Li3  1  0.257737  0.502297  0.123122  1
  Cr  Cr4  1  0.999596  0.999651  0.751913  1
  Cr  Cr5  1  0.500000  0.000000  0.500000  1
  Cr  Cr6  1  0.000404  0.000349  0.248087  1
  Co  Co7  1  0.500000  0.000000  0.000000  1
  O  O8  1  0.625877  0.776962  0.699385  1
  O  O9  1  0.372925  0.221619  0.810482  1
  O  O10  1  0.128101  0.773556  0.443221  1
  O  O11  1  0.871899  0.226444  0.556779  1
  O  O12  1  0.627075  0.778381  0.189518  1
  O  O13  1  0.374123  0.223038  0.300615  1
  O  O14  1  0.136690  0.776963  0.944509  1
  O  O15  1  0.863310  0.223037  0.055491  1
