# generated using pymatgen
data_Fe5(OF4)2
_symmetry_space_group_name_H-M   'P 1'
_cell_length_a   4.82949324
_cell_length_b   7.99048149
_cell_length_c   10.13046031
_cell_angle_alpha   71.55324981
_cell_angle_beta   88.92055390
_cell_angle_gamma   89.22670570
_symmetry_Int_Tables_number   1
_chemical_formula_structural   Fe5(OF4)2
_chemical_formula_sum   'Fe10 O4 F16'
_cell_volume   370.76978340
_cell_formula_units_Z   2
loop_
 _symmetry_equiv_pos_site_id
 _symmetry_equiv_pos_as_xyz
  1  'x, y, z'
loop_
 _atom_site_type_symbol
 _atom_site_label
 _atom_site_symmetry_multiplicity
 _atom_site_fract_x
 _atom_site_fract_y
 _atom_site_fract_z
 _atom_site_occupancy
  Fe  Fe0  1  0.500897  0.699512  0.899538  1
  Fe  Fe1  1  0.483525  0.890739  0.293798  1
  Fe  Fe2  1  0.503172  0.097986  0.704637  1
  Fe  Fe3  1  0.498916  0.316709  0.096907  1
  Fe  Fe4  1  0.480146  0.492097  0.511499  1
  Fe  Fe5  1  0.028867  0.390213  0.791852  1
  Fe  Fe6  1  0.962756  0.805122  0.612864  1
  Fe  Fe7  1  0.000358  0.200757  0.394723  1
  Fe  Fe8  1  0.047543  0.613660  0.185052  1
  Fe  Fe9  1  0.004710  0.996667  0.014546  1
  O  O10  1  0.176505  0.826385  0.190215  1
  O  O11  1  0.315983  0.341114  0.666328  1
  O  O12  1  0.306006  0.554629  0.059712  1
  O  O13  1  0.690317  0.849801  0.729624  1
  F  F14  1  0.200189  0.240316  0.981080  1
  F  F15  1  0.184444  0.024023  0.579926  1
  F  F16  1  0.207612  0.450243  0.371892  1
  F  F17  1  0.197127  0.651485  0.768217  1
  F  F18  1  0.293246  0.926853  0.883700  1
  F  F19  1  0.311364  0.142379  0.284655  1
  F  F20  1  0.291078  0.727366  0.492929  1
  F  F21  1  0.705422  0.271199  0.510766  1
  F  F22  1  0.686936  0.639074  0.335565  1
  F  F23  1  0.692266  0.071882  0.126113  1
  F  F24  1  0.711168  0.473797  0.904068  1
  F  F25  1  0.800381  0.572081  0.610047  1
  F  F26  1  0.802936  0.946412  0.428948  1
  F  F27  1  0.804067  0.155672  0.829787  1
  F  F28  1  0.786700  0.752319  0.026583  1
  F  F29  1  0.825362  0.379508  0.214425  1
