# generated using pymatgen
data_Li3Mn2(CoO4)2
_symmetry_space_group_name_H-M   'P 1'
_cell_length_a   2.91369768
_cell_length_b   4.99117095
_cell_length_c   10.06131592
_cell_angle_alpha   91.12704135
_cell_angle_beta   91.30901227
_cell_angle_gamma   90.70871802
_symmetry_Int_Tables_number   1
_chemical_formula_structural   Li3Mn2(CoO4)2
_chemical_formula_sum   'Li3 Mn2 Co2 O8'
_cell_volume   146.24082350
_cell_formula_units_Z   1
loop_
 _symmetry_equiv_pos_site_id
 _symmetry_equiv_pos_as_xyz
  1  'x, y, z'
loop_
 _atom_site_type_symbol
 _atom_site_label
 _atom_site_symmetry_multiplicity
 _atom_site_fract_x
 _atom_site_fract_y
 _atom_site_fract_z
 _atom_site_occupancy
  Li  Li0  1  0.509702  0.830782  0.229618  1
  Li  Li1  1  0.244833  0.918825  0.731731  1
  Li  Li2  1  0.019785  0.330351  0.226544  1
  Mn  Mn3  1  0.515015  0.491147  0.992953  1
  Mn  Mn4  1  0.240955  0.258619  0.502403  1
  Co  Co5  1  0.739473  0.756162  0.494921  1
  Co  Co6  1  0.005068  0.995586  0.005587  1
  O  O7  1  0.985506  0.666704  0.112241  1
  O  O8  1  0.753297  0.078975  0.604039  1
  O  O9  1  0.722170  0.421577  0.393015  1
  O  O10  1  0.491583  0.841788  0.904339  1
  O  O11  1  0.517382  0.157481  0.112924  1
  O  O12  1  0.245664  0.602056  0.594060  1
  O  O13  1  0.229249  0.925002  0.396364  1
  O  O14  1  0.031679  0.307823  0.899761  1
