# generated using pymatgen
data_Li2VO2F
_symmetry_space_group_name_H-M   'P 1'
_cell_length_a   7.97547205
_cell_length_b   7.97547205
_cell_length_c   10.39391371
_cell_angle_alpha   70.39897410
_cell_angle_beta   109.60102590
_cell_angle_gamma   158.14048743
_symmetry_Int_Tables_number   1
_chemical_formula_structural   Li2VO2F
_chemical_formula_sum   'Li8 V4 O8 F4'
_cell_volume   231.34900932
_cell_formula_units_Z   4
loop_
 _symmetry_equiv_pos_site_id
 _symmetry_equiv_pos_as_xyz
  1  'x, y, z'
loop_
 _atom_site_type_symbol
 _atom_site_label
 _atom_site_symmetry_multiplicity
 _atom_site_fract_x
 _atom_site_fract_y
 _atom_site_fract_z
 _atom_site_occupancy
  Li  Li0  1  0.923757  0.076243  0.301503  1
  Li  Li1  1  0.927236  0.072764  0.808290  1
  Li  Li2  1  0.562174  0.437826  0.961976  1
  Li  Li3  1  0.579167  0.420833  0.456792  1
  Li  Li4  1  0.074067  0.925933  0.703640  1
  Li  Li5  1  0.418571  0.581429  0.546571  1
  Li  Li6  1  0.436132  0.563868  0.029222  1
  Li  Li7  1  0.065122  0.934878  0.190522  1
  V  V8  1  0.748740  0.251260  0.868115  1
  V  V9  1  0.748129  0.251871  0.377483  1
  V  V10  1  0.248928  0.751072  0.622947  1
  V  V11  1  0.237942  0.762058  0.129215  1
  O  O12  1  0.671463  0.328537  0.173015  1
  O  O13  1  0.671717  0.328283  0.667410  1
  O  O14  1  0.824903  0.175097  0.577772  1
  O  O15  1  0.183998  0.816002  0.925559  1
  O  O16  1  0.323152  0.676848  0.825691  1
  O  O17  1  0.172898  0.827102  0.420698  1
  O  O18  1  0.322658  0.677342  0.325310  1
  O  O19  1  0.998485  0.001515  0.999293  1
  F  F20  1  0.825265  0.174735  0.088887  1
  F  F21  1  0.500328  0.499672  0.740835  1
  F  F22  1  0.496035  0.503965  0.259655  1
  F  F23  1  0.997629  0.002371  0.499602  1
