# generated using pymatgen
data_Ti17(NO4)6
_symmetry_space_group_name_H-M   'P 1'
_cell_length_a   7.50209543
_cell_length_b   7.50209543
_cell_length_c   20.06791852
_cell_angle_alpha   90.00000000
_cell_angle_beta   90.00000000
_cell_angle_gamma   99.65937731
_symmetry_Int_Tables_number   1
_chemical_formula_structural   Ti17(NO4)6
_chemical_formula_sum   'Ti34 N12 O48'
_cell_volume   1113.43867755
_cell_formula_units_Z   2
loop_
 _symmetry_equiv_pos_site_id
 _symmetry_equiv_pos_as_xyz
  1  'x, y, z'
loop_
 _atom_site_type_symbol
 _atom_site_label
 _atom_site_symmetry_multiplicity
 _atom_site_fract_x
 _atom_site_fract_y
 _atom_site_fract_z
 _atom_site_occupancy
  Ti  Ti0  1  0.305918  0.639372  0.096487  1
  Ti  Ti1  1  0.021208  0.362219  0.663590  1
  Ti  Ti2  1  0.021208  0.362219  0.836410  1
  Ti  Ti3  1  0.305197  0.639114  0.587784  1
  Ti  Ti4  1  0.305918  0.639372  0.403513  1
  Ti  Ti5  1  0.305197  0.639114  0.912216  1
  Ti  Ti6  1  0.031709  0.365482  0.158743  1
  Ti  Ti7  1  0.031709  0.365482  0.341257  1
  Ti  Ti8  1  0.032241  0.027538  0.750000  1
  Ti  Ti9  1  0.027538  0.032241  0.250000  1
  Ti  Ti10  1  0.637414  0.637414  0.000000  1
  Ti  Ti11  1  0.637414  0.637414  0.500000  1
  Ti  Ti12  1  0.365482  0.031709  0.841257  1
  Ti  Ti13  1  0.698693  0.360771  0.250000  1
  Ti  Ti14  1  0.639114  0.305197  0.087784  1
  Ti  Ti15  1  0.639372  0.305918  0.903513  1
  Ti  Ti16  1  0.639114  0.305197  0.412216  1
  Ti  Ti17  1  0.362219  0.021208  0.336410  1
  Ti  Ti18  1  0.362219  0.021208  0.163590  1
  Ti  Ti19  1  0.365482  0.031709  0.658743  1
  Ti  Ti20  1  0.639372  0.305918  0.596487  1
  Ti  Ti21  1  0.303766  0.967788  0.000512  1
  Ti  Ti22  1  0.303766  0.967788  0.499488  1
  Ti  Ti23  1  0.967788  0.303766  0.500512  1
  Ti  Ti24  1  0.967788  0.303766  0.999488  1
  Ti  Ti25  1  0.360771  0.698693  0.750000  1
  Ti  Ti26  1  0.972348  0.972413  0.411070  1
  Ti  Ti27  1  0.972413  0.972348  0.911070  1
  Ti  Ti28  1  0.687422  0.694461  0.163487  1
  Ti  Ti29  1  0.972348  0.972413  0.088930  1
  Ti  Ti30  1  0.687422  0.694461  0.336513  1
  Ti  Ti31  1  0.972413  0.972348  0.588930  1
  Ti  Ti32  1  0.694461  0.687422  0.836513  1
  Ti  Ti33  1  0.694461  0.687422  0.663487  1
  N  N34  1  0.063861  0.063861  0.000000  1
  N  N35  1  0.063861  0.063861  0.500000  1
  N  N36  1  0.625791  0.599802  0.250000  1
  N  N37  1  0.599802  0.625791  0.750000  1
  N  N38  1  0.728381  0.398147  0.999517  1
  N  N39  1  0.266317  0.959296  0.250000  1
  N  N40  1  0.728381  0.398147  0.500483  1
  N  N41  1  0.270355  0.937087  0.750000  1
  N  N42  1  0.937087  0.270355  0.250000  1
  N  N43  1  0.398147  0.728381  0.499517  1
  N  N44  1  0.959296  0.266317  0.750000  1
  N  N45  1  0.398147  0.728381  0.000483  1
  O  O46  1  0.210579  0.542937  0.320383  1
  O  O47  1  0.213613  0.548047  0.684299  1
  O  O48  1  0.121606  0.448865  0.565187  1
  O  O49  1  0.116084  0.450572  0.064000  1
  O  O50  1  0.121606  0.448865  0.934813  1
  O  O51  1  0.116084  0.450572  0.436000  1
  O  O52  1  0.210579  0.542937  0.179617  1
  O  O53  1  0.213613  0.548047  0.815701  1
  O  O54  1  0.140246  0.142950  0.156204  1
  O  O55  1  0.140246  0.142950  0.343796  1
  O  O56  1  0.142950  0.140246  0.843796  1
  O  O57  1  0.142950  0.140246  0.656204  1
  O  O58  1  0.522094  0.522407  0.906335  1
  O  O59  1  0.522407  0.522094  0.406335  1
  O  O60  1  0.522094  0.522407  0.593665  1
  O  O61  1  0.522407  0.522094  0.093665  1
  O  O62  1  0.809734  0.473712  0.156162  1
  O  O63  1  0.542937  0.210579  0.820383  1
  O  O64  1  0.809734  0.473712  0.343838  1
  O  O65  1  0.548047  0.213613  0.315701  1
  O  O66  1  0.548047  0.213613  0.184299  1
  O  O67  1  0.448865  0.121606  0.065187  1
  O  O68  1  0.448865  0.121606  0.434812  1
  O  O69  1  0.450572  0.116084  0.936000  1
  O  O70  1  0.184050  0.849790  0.909292  1
  O  O71  1  0.823103  0.489947  0.850263  1
  O  O72  1  0.542937  0.210579  0.679617  1
  O  O73  1  0.450572  0.116084  0.564000  1
  O  O74  1  0.188188  0.853959  0.093963  1
  O  O75  1  0.188188  0.853959  0.406037  1
  O  O76  1  0.823103  0.489947  0.649737  1
  O  O77  1  0.184050  0.849790  0.590708  1
  O  O78  1  0.473712  0.809734  0.843838  1
  O  O79  1  0.473712  0.809734  0.656162  1
  O  O80  1  0.853959  0.188188  0.593963  1
  O  O81  1  0.849790  0.184050  0.409292  1
  O  O82  1  0.853959  0.188188  0.906037  1
  O  O83  1  0.489947  0.823103  0.149737  1
  O  O84  1  0.489947  0.823103  0.350263  1
  O  O85  1  0.849790  0.184050  0.090708  1
  O  O86  1  0.881619  0.879978  0.684158  1
  O  O87  1  0.782471  0.789338  0.935102  1
  O  O88  1  0.879978  0.881619  0.315842  1
  O  O89  1  0.881619  0.879978  0.815842  1
  O  O90  1  0.879978  0.881619  0.184158  1
  O  O91  1  0.782471  0.789338  0.564898  1
  O  O92  1  0.789338  0.782471  0.435102  1
  O  O93  1  0.789338  0.782471  0.064898  1
