# generated using pymatgen
data_Ba4La6Mn5In5O30
_symmetry_space_group_name_H-M   'P 1'
_cell_length_a   5.77797243
_cell_length_b   5.77797243
_cell_length_c   23.85012886
_cell_angle_alpha   82.54173307
_cell_angle_beta   97.45826693
_cell_angle_gamma   120.42937162
_symmetry_Int_Tables_number   1
_chemical_formula_structural   Ba4La6Mn5In5O30
_chemical_formula_sum   'Ba4 La6 Mn5 In5 O30'
_cell_volume   678.83537092
_cell_formula_units_Z   1
loop_
 _symmetry_equiv_pos_site_id
 _symmetry_equiv_pos_as_xyz
  1  'x, y, z'
loop_
 _atom_site_type_symbol
 _atom_site_label
 _atom_site_symmetry_multiplicity
 _atom_site_fract_x
 _atom_site_fract_y
 _atom_site_fract_z
 _atom_site_occupancy
  Ba  Ba0  1  0.551737  0.448263  0.152689  1
  Ba  Ba1  1  0.851779  0.148221  0.056777  1
  Ba  Ba2  1  0.246368  0.753632  0.247024  1
  Ba  Ba3  1  0.647868  0.352132  0.443511  1
  La  La4  1  0.952127  0.047873  0.338223  1
  La  La5  1  0.358378  0.641622  0.544489  1
  La  La6  1  0.754189  0.245811  0.756973  1
  La  La7  1  0.041598  0.958402  0.636287  1
  La  La8  1  0.159768  0.840232  0.966517  1
  La  La9  1  0.443344  0.556656  0.858117  1
  Mn  Mn10  1  0.201837  0.798163  0.104681  1
  Mn  Mn11  1  0.493733  0.506267  0.005888  1
  Mn  Mn12  1  0.593700  0.406300  0.297923  1
  Mn  Mn13  1  0.902274  0.097726  0.198813  1
  Mn  Mn14  1  0.996401  0.003599  0.493867  1
  In  In15  1  0.298654  0.701346  0.397217  1
  In  In16  1  0.397418  0.602582  0.700399  1
  In  In17  1  0.702753  0.297247  0.596842  1
  In  In18  1  0.806209  0.193791  0.906056  1
  In  In19  1  0.097524  0.902476  0.801626  1
  O  O20  1  0.361802  0.638198  0.057534  1
  O  O21  1  0.043960  0.453839  0.152074  1
  O  O22  1  0.867972  0.651248  0.046886  1
  O  O23  1  0.752549  0.247451  0.260619  1
  O  O24  1  0.416584  0.081198  0.347440  1
  O  O25  1  0.235189  0.243980  0.250008  1
  O  O26  1  0.546161  0.956040  0.152074  1
  O  O27  1  0.348752  0.132028  0.046886  1
  O  O28  1  0.176323  0.823677  0.466022  1
  O  O29  1  0.051370  0.948630  0.148640  1
  O  O30  1  0.824170  0.689495  0.551637  1
  O  O31  1  0.696429  0.847516  0.439285  1
  O  O32  1  0.918802  0.583416  0.347440  1
  O  O33  1  0.756020  0.764811  0.250008  1
  O  O34  1  0.599314  0.400686  0.670293  1
  O  O35  1  0.437880  0.562120  0.338241  1
  O  O36  1  0.208342  0.306060  0.768581  1
  O  O37  1  0.104048  0.412798  0.630670  1
  O  O38  1  0.310505  0.175830  0.551637  1
  O  O39  1  0.152484  0.303571  0.439285  1
  O  O40  1  0.006624  0.993376  0.880515  1
  O  O41  1  0.840082  0.159918  0.530504  1
  O  O42  1  0.601289  0.842565  0.961310  1
  O  O43  1  0.494032  0.011745  0.840266  1
  O  O44  1  0.693940  0.791658  0.768581  1
  O  O45  1  0.587202  0.895952  0.630670  1
  O  O46  1  0.190800  0.809200  0.722816  1
  O  O47  1  0.157435  0.398711  0.961310  1
  O  O48  1  0.988255  0.505968  0.840266  1
  O  O49  1  0.618264  0.381736  0.944701  1
