# generated using pymatgen
data_TiNb3(PO4)6
_symmetry_space_group_name_H-M   'P 1'
_cell_length_a   8.98233735
_cell_length_b   8.98233735
_cell_length_c   8.98233735
_cell_angle_alpha   58.63905374
_cell_angle_beta   58.63905374
_cell_angle_gamma   58.63905374
_symmetry_Int_Tables_number   1
_chemical_formula_structural   TiNb3(PO4)6
_chemical_formula_sum   'Ti1 Nb3 P6 O24'
_cell_volume   496.51032220
_cell_formula_units_Z   1
loop_
 _symmetry_equiv_pos_site_id
 _symmetry_equiv_pos_as_xyz
  1  'x, y, z'
loop_
 _atom_site_type_symbol
 _atom_site_label
 _atom_site_symmetry_multiplicity
 _atom_site_fract_x
 _atom_site_fract_y
 _atom_site_fract_z
 _atom_site_occupancy
  Ti  Ti0  1  0.141545  0.141545  0.141545  1
  Nb  Nb1  1  0.858931  0.858931  0.858931  1
  Nb  Nb2  1  0.641492  0.641492  0.641492  1
  Nb  Nb3  1  0.359335  0.359335  0.359335  1
  P  P4  1  0.249374  0.530022  0.966737  1
  P  P5  1  0.966737  0.249374  0.530022  1
  P  P6  1  0.530022  0.966737  0.249374  1
  P  P7  1  0.460510  0.035581  0.755614  1
  P  P8  1  0.035581  0.755614  0.460510  1
  P  P9  1  0.755614  0.460510  0.035581  1
  O  O10  1  0.719367  0.495364  0.867752  1
  O  O11  1  0.495364  0.867752  0.719367  1
  O  O12  1  0.080692  0.710199  0.937810  1
  O  O13  1  0.867752  0.719367  0.495364  1
  O  O14  1  0.419338  0.562325  0.789566  1
  O  O15  1  0.218643  0.363648  0.997207  1
  O  O16  1  0.937810  0.080692  0.710199  1
  O  O17  1  0.789566  0.419338  0.562325  1
  O  O18  1  0.562325  0.789566  0.419338  1
  O  O19  1  0.633329  0.004347  0.780856  1
  O  O20  1  0.286172  0.063772  0.923481  1
  O  O21  1  0.004347  0.780856  0.633329  1
  O  O22  1  0.997207  0.218643  0.363648  1
  O  O23  1  0.710199  0.937810  0.080692  1
  O  O24  1  0.363648  0.997207  0.218643  1
  O  O25  1  0.436666  0.210957  0.581147  1
  O  O26  1  0.210957  0.581147  0.436666  1
  O  O27  1  0.063772  0.923481  0.286172  1
  O  O28  1  0.780856  0.633329  0.004347  1
  O  O29  1  0.581147  0.436666  0.210957  1
  O  O30  1  0.133870  0.281217  0.503132  1
  O  O31  1  0.923481  0.286172  0.063772  1
  O  O32  1  0.503132  0.133870  0.281217  1
  O  O33  1  0.281217  0.503132  0.133870  1
