# generated using pymatgen
data_LiCrSiO4
_symmetry_space_group_name_H-M   'P 1'
_cell_length_a   4.76750033
_cell_length_b   5.77941557
_cell_length_c   10.20002512
_cell_angle_alpha   90.00000000
_cell_angle_beta   90.00000000
_cell_angle_gamma   90.00000000
_symmetry_Int_Tables_number   1
_chemical_formula_structural   LiCrSiO4
_chemical_formula_sum   'Li4 Cr4 Si4 O16'
_cell_volume   281.04502164
_cell_formula_units_Z   4
loop_
 _symmetry_equiv_pos_site_id
 _symmetry_equiv_pos_as_xyz
  1  'x, y, z'
loop_
 _atom_site_type_symbol
 _atom_site_label
 _atom_site_symmetry_multiplicity
 _atom_site_fract_x
 _atom_site_fract_y
 _atom_site_fract_z
 _atom_site_occupancy
  Li  Li0  1  0.000000  0.000000  0.000000  1
  Li  Li1  1  0.500000  0.000000  0.500000  1
  Li  Li2  1  0.500000  0.500000  0.500000  1
  Li  Li3  1  0.000000  0.500000  0.000000  1
  Cr  Cr4  1  0.999922  0.750000  0.268876  1
  Cr  Cr5  1  0.500078  0.750000  0.768876  1
  Cr  Cr6  1  0.499922  0.250000  0.231124  1
  Cr  Cr7  1  0.000078  0.250000  0.731124  1
  Si  Si8  1  0.058747  0.250000  0.408348  1
  Si  Si9  1  0.441253  0.250000  0.908348  1
  Si  Si10  1  0.558747  0.750000  0.091652  1
  Si  Si11  1  0.941253  0.750000  0.591652  1
  O  O12  1  0.189560  0.250000  0.556413  1
  O  O13  1  0.220462  0.032816  0.329060  1
  O  O14  1  0.220462  0.467184  0.329060  1
  O  O15  1  0.219319  0.750000  0.099973  1
  O  O16  1  0.280681  0.750000  0.599973  1
  O  O17  1  0.279538  0.467184  0.829060  1
  O  O18  1  0.279538  0.032816  0.829060  1
  O  O19  1  0.310440  0.250000  0.056413  1
  O  O20  1  0.689560  0.750000  0.943587  1
  O  O21  1  0.720462  0.532816  0.170940  1
  O  O22  1  0.720462  0.967184  0.170940  1
  O  O23  1  0.719319  0.250000  0.400027  1
  O  O24  1  0.780681  0.250000  0.900027  1
  O  O25  1  0.779538  0.967184  0.670940  1
  O  O26  1  0.779538  0.532816  0.670940  1
  O  O27  1  0.810440  0.750000  0.443587  1
