# generated using pymatgen
data_Li3Ti2(PO4)3
_symmetry_space_group_name_H-M   'P 1'
_cell_length_a   8.70490714
_cell_length_b   8.70490714
_cell_length_c   8.58302886
_cell_angle_alpha   62.48561004
_cell_angle_beta   117.51438996
_cell_angle_gamma   118.85140585
_symmetry_Int_Tables_number   1
_chemical_formula_structural   Li3Ti2(PO4)3
_chemical_formula_sum   'Li6 Ti4 P6 O24'
_cell_volume   480.70493733
_cell_formula_units_Z   2
loop_
 _symmetry_equiv_pos_site_id
 _symmetry_equiv_pos_as_xyz
  1  'x, y, z'
loop_
 _atom_site_type_symbol
 _atom_site_label
 _atom_site_symmetry_multiplicity
 _atom_site_fract_x
 _atom_site_fract_y
 _atom_site_fract_z
 _atom_site_occupancy
  Li  Li0  1  0.557103  0.185094  0.791694  1
  Li  Li1  1  0.867873  0.867873  0.250000  1
  Li  Li2  1  0.185094  0.557103  0.708306  1
  Li  Li3  1  0.814906  0.442897  0.291694  1
  Li  Li4  1  0.132127  0.132127  0.750000  1
  Li  Li5  1  0.442897  0.814906  0.208306  1
  Ti  Ti6  1  0.857574  0.646617  0.640817  1
  Ti  Ti7  1  0.646617  0.857574  0.859183  1
  Ti  Ti8  1  0.353383  0.142426  0.140817  1
  Ti  Ti9  1  0.142426  0.353383  0.359183  1
  P  P10  1  0.253031  0.972611  0.545843  1
  P  P11  1  0.550553  0.550553  0.250000  1
  P  P12  1  0.027389  0.746969  0.045843  1
  P  P13  1  0.972611  0.253031  0.954157  1
  P  P14  1  0.449447  0.449447  0.750000  1
  P  P15  1  0.746969  0.027389  0.454157  1
  O  O16  1  0.104491  0.777324  0.577005  1
  O  O17  1  0.031083  0.262438  0.150088  1
  O  O18  1  0.395353  0.520888  0.311312  1
  O  O19  1  0.437887  0.966148  0.698408  1
  O  O20  1  0.205267  0.116383  0.557082  1
  O  O21  1  0.571649  0.744217  0.096589  1
  O  O22  1  0.744217  0.571649  0.403411  1
  O  O23  1  0.116383  0.205267  0.942918  1
  O  O24  1  0.222676  0.895509  0.077005  1
  O  O25  1  0.966148  0.437887  0.801592  1
  O  O26  1  0.520888  0.395353  0.188688  1
  O  O27  1  0.262438  0.031083  0.349912  1
  O  O28  1  0.737562  0.968917  0.650088  1
  O  O29  1  0.479112  0.604647  0.811312  1
  O  O30  1  0.033852  0.562113  0.198408  1
  O  O31  1  0.777324  0.104491  0.922995  1
  O  O32  1  0.883617  0.794733  0.057082  1
  O  O33  1  0.255783  0.428351  0.596589  1
  O  O34  1  0.428351  0.255783  0.903411  1
  O  O35  1  0.794733  0.883617  0.442918  1
  O  O36  1  0.562113  0.033852  0.301592  1
  O  O37  1  0.604647  0.479112  0.688688  1
  O  O38  1  0.968917  0.737562  0.849912  1
  O  O39  1  0.895509  0.222676  0.422995  1
