# generated using pymatgen
data_BaCaP2(HO4)2
_symmetry_space_group_name_H-M   'P 1'
_cell_length_a   9.66133312
_cell_length_b   8.03805952
_cell_length_c   9.97688787
_cell_angle_alpha   90.00000000
_cell_angle_beta   115.46858029
_cell_angle_gamma   90.00000000
_symmetry_Int_Tables_number   1
_chemical_formula_structural   BaCaP2(HO4)2
_chemical_formula_sum   'Ba4 Ca4 P8 H8 O32'
_cell_volume   699.49582935
_cell_formula_units_Z   4
loop_
 _symmetry_equiv_pos_site_id
 _symmetry_equiv_pos_as_xyz
  1  'x, y, z'
loop_
 _atom_site_type_symbol
 _atom_site_label
 _atom_site_symmetry_multiplicity
 _atom_site_fract_x
 _atom_site_fract_y
 _atom_site_fract_z
 _atom_site_occupancy
  Ba  Ba0  1  0.551524  0.354468  0.226628  1
  Ba  Ba1  1  0.948476  0.854468  0.773372  1
  Ba  Ba2  1  0.448476  0.645532  0.773372  1
  Ba  Ba3  1  0.051524  0.145532  0.226628  1
  Ca  Ca4  1  0.789379  0.358317  0.725539  1
  Ca  Ca5  1  0.710621  0.858317  0.274461  1
  Ca  Ca6  1  0.210621  0.641683  0.274461  1
  Ca  Ca7  1  0.289379  0.141683  0.725539  1
  P  P8  1  0.925770  0.237403  0.501019  1
  P  P9  1  0.574230  0.737403  0.498981  1
  P  P10  1  0.074230  0.762597  0.498981  1
  P  P11  1  0.425770  0.262597  0.501019  1
  P  P12  1  0.165867  0.437296  0.926683  1
  P  P13  1  0.334133  0.937296  0.073317  1
  P  P14  1  0.834133  0.562704  0.073317  1
  P  P15  1  0.665867  0.062704  0.926683  1
  H  H16  1  0.871540  0.521357  0.484130  1
  H  H17  1  0.628460  0.021357  0.515870  1
  H  H18  1  0.128460  0.478643  0.515870  1
  H  H19  1  0.371540  0.978643  0.484130  1
  H  H20  1  0.661738  0.331770  0.952600  1
  H  H21  1  0.838262  0.831770  0.047400  1
  H  H22  1  0.338262  0.668230  0.047400  1
  H  H23  1  0.161738  0.168230  0.952600  1
  O  O24  1  0.559897  0.660562  0.353053  1
  O  O25  1  0.940103  0.160562  0.646947  1
  O  O26  1  0.440103  0.339438  0.646947  1
  O  O27  1  0.059897  0.839438  0.353053  1
  O  O28  1  0.332203  0.365403  0.361187  1
  O  O29  1  0.167797  0.865403  0.638813  1
  O  O30  1  0.667797  0.634597  0.638813  1
  O  O31  1  0.832203  0.134597  0.361187  1
  O  O32  1  0.583484  0.213336  0.508679  1
  O  O33  1  0.916516  0.713336  0.491321  1
  O  O34  1  0.416516  0.786664  0.491321  1
  O  O35  1  0.083484  0.286664  0.508679  1
  O  O36  1  0.826113  0.406054  0.483265  1
  O  O37  1  0.673887  0.906054  0.516735  1
  O  O38  1  0.173887  0.593946  0.516735  1
  O  O39  1  0.326113  0.093946  0.483265  1
  O  O40  1  0.480021  0.027987  0.178202  1
  O  O41  1  0.019979  0.527987  0.821798  1
  O  O42  1  0.519979  0.972013  0.821798  1
  O  O43  1  0.980021  0.472013  0.178202  1
  O  O44  1  0.276225  0.391458  0.857609  1
  O  O45  1  0.223775  0.891458  0.142391  1
  O  O46  1  0.723775  0.608542  0.142391  1
  O  O47  1  0.776225  0.108542  0.857609  1
  O  O48  1  0.258425  0.535205  0.073528  1
  O  O49  1  0.241575  0.035205  0.926472  1
  O  O50  1  0.741575  0.464795  0.926472  1
  O  O51  1  0.758425  0.964795  0.073528  1
  O  O52  1  0.609306  0.228622  0.978025  1
  O  O53  1  0.890694  0.728622  0.021975  1
  O  O54  1  0.390694  0.771378  0.021975  1
  O  O55  1  0.109306  0.271378  0.978025  1
