# generated using pymatgen
data_VO2
_symmetry_space_group_name_H-M   'P 1'
_cell_length_a   5.83016844
_cell_length_b   5.83016844
_cell_length_c   5.83016844
_cell_angle_alpha   119.62526403
_cell_angle_beta   114.85875477
_cell_angle_gamma   94.89281799
_symmetry_Int_Tables_number   1
_chemical_formula_structural   VO2
_chemical_formula_sum   'V4 O8'
_cell_volume   145.11283743
_cell_formula_units_Z   4
loop_
 _symmetry_equiv_pos_site_id
 _symmetry_equiv_pos_as_xyz
  1  'x, y, z'
loop_
 _atom_site_type_symbol
 _atom_site_label
 _atom_site_symmetry_multiplicity
 _atom_site_fract_x
 _atom_site_fract_y
 _atom_site_fract_z
 _atom_site_occupancy
  V  V0  1  1.000000  0.500000  0.500000  1
  V  V1  1  0.500000  0.500000  0.000000  1
  V  V2  1  0.363334  0.113334  0.250000  1
  V  V3  1  0.636666  0.886666  0.750000  1
  O  O4  1  0.248228  0.727432  0.979204  1
  O  O5  1  0.275729  0.241706  0.034023  1
  O  O6  1  0.707683  0.241706  0.465977  1
  O  O7  1  0.751772  0.730976  0.479204  1
  O  O8  1  0.248228  0.269024  0.520796  1
  O  O9  1  0.292317  0.758294  0.534023  1
  O  O10  1  0.724271  0.758294  0.965977  1
  O  O11  1  0.751772  0.272568  0.020796  1
