# generated using pymatgen
data_Na8FeO6
_symmetry_space_group_name_H-M   'P 1'
_cell_length_a   6.31017769
_cell_length_b   6.31017769
_cell_length_c   12.74320308
_cell_angle_alpha   88.74591145
_cell_angle_beta   91.25408855
_cell_angle_gamma   119.28521997
_symmetry_Int_Tables_number   1
_chemical_formula_structural   Na8FeO6
_chemical_formula_sum   'Na16 Fe2 O12'
_cell_volume   442.42114329
_cell_formula_units_Z   2
loop_
 _symmetry_equiv_pos_site_id
 _symmetry_equiv_pos_as_xyz
  1  'x, y, z'
loop_
 _atom_site_type_symbol
 _atom_site_label
 _atom_site_symmetry_multiplicity
 _atom_site_fract_x
 _atom_site_fract_y
 _atom_site_fract_z
 _atom_site_occupancy
  Na  Na0  1  0.710528  0.706638  0.771647  1
  Na  Na1  1  0.606428  0.611074  0.123416  1
  Na  Na2  1  0.388926  0.393572  0.623416  1
  Na  Na3  1  0.293362  0.289472  0.271647  1
  Na  Na4  1  0.331780  0.663904  0.412401  1
  Na  Na5  1  0.336096  0.668220  0.912401  1
  Na  Na6  1  0.007593  0.298194  0.772028  1
  Na  Na7  1  0.996589  0.388194  0.123325  1
  Na  Na8  1  0.998383  0.614118  0.622716  1
  Na  Na9  1  0.701806  0.992407  0.272028  1
  Na  Na10  1  0.996362  0.703000  0.267379  1
  Na  Na11  1  0.611806  0.003411  0.623325  1
  Na  Na12  1  0.666369  0.329466  0.912337  1
  Na  Na13  1  0.670534  0.333631  0.412337  1
  Na  Na14  1  0.385882  0.001617  0.122716  1
  Na  Na15  1  0.297000  0.003638  0.767379  1
  Fe  Fe16  1  0.997094  0.999386  0.995658  1
  Fe  Fe17  1  0.000614  0.002906  0.495658  1
  O  O18  1  0.726973  0.713992  0.952925  1
  O  O19  1  0.286008  0.273027  0.452925  1
  O  O20  1  0.330340  0.664435  0.221416  1
  O  O21  1  0.989426  0.997311  0.147703  1
  O  O22  1  0.002689  0.010574  0.647703  1
  O  O23  1  0.335565  0.669660  0.721416  1
  O  O24  1  0.013453  0.288990  0.953199  1
  O  O25  1  0.711010  0.986547  0.453199  1
  O  O26  1  0.999316  0.726869  0.447545  1
  O  O27  1  0.671517  0.336656  0.721647  1
  O  O28  1  0.663344  0.328483  0.221647  1
  O  O29  1  0.273131  0.000684  0.947545  1
