# generated using pymatgen
data_SrLiLa15(CoO8)4
_symmetry_space_group_name_H-M   'P 1'
_cell_length_a   8.76855455
_cell_length_b   8.77426025
_cell_length_c   10.64053937
_cell_angle_alpha   107.90056157
_cell_angle_beta   107.81415724
_cell_angle_gamma   93.90114979
_symmetry_Int_Tables_number   1
_chemical_formula_structural   SrLiLa15(CoO8)4
_chemical_formula_sum   'Sr1 Li1 La15 Co4 O32'
_cell_volume   729.71204489
_cell_formula_units_Z   1
loop_
 _symmetry_equiv_pos_site_id
 _symmetry_equiv_pos_as_xyz
  1  'x, y, z'
loop_
 _atom_site_type_symbol
 _atom_site_label
 _atom_site_symmetry_multiplicity
 _atom_site_fract_x
 _atom_site_fract_y
 _atom_site_fract_z
 _atom_site_occupancy
  Sr  Sr0  1  0.887001  0.607258  0.122114  1
  Li  Li1  1  0.000843  0.997805  0.249261  1
  La  La2  1  0.386869  0.118361  0.876947  1
  La  La3  1  0.120528  0.389780  0.377245  1
  La  La4  1  0.117792  0.384487  0.876248  1
  La  La5  1  0.389978  0.119515  0.376853  1
  La  La6  1  0.134444  0.864019  0.994699  1
  La  La7  1  0.638797  0.361327  0.249443  1
  La  La8  1  0.634612  0.367827  0.753860  1
  La  La9  1  0.136498  0.863016  0.502700  1
  La  La10  1  0.862558  0.137678  0.504369  1
  La  La11  1  0.361117  0.639772  0.251953  1
  La  La12  1  0.365320  0.634047  0.750140  1
  La  La13  1  0.863705  0.134875  0.993548  1
  La  La14  1  0.882011  0.610351  0.623887  1
  La  La15  1  0.611467  0.881756  0.623867  1
  La  La16  1  0.613764  0.879182  0.121689  1
  Co  Co17  1  0.250781  0.250981  0.124991  1
  Co  Co18  1  0.249116  0.249538  0.625353  1
  Co  Co19  1  0.750511  0.749157  0.374697  1
  Co  Co20  1  0.749223  0.750605  0.874165  1
  O  O21  1  0.131505  0.130568  0.940772  1
  O  O22  1  0.129673  0.129305  0.187709  1
  O  O23  1  0.128358  0.129496  0.440922  1
  O  O24  1  0.129979  0.130347  0.688844  1
  O  O25  1  0.410698  0.088806  0.626672  1
  O  O26  1  0.094574  0.407427  0.124183  1
  O  O27  1  0.089424  0.410432  0.626896  1
  O  O28  1  0.414109  0.087646  0.123641  1
  O  O29  1  0.372184  0.371306  0.307721  1
  O  O30  1  0.369816  0.369860  0.062140  1
  O  O31  1  0.370432  0.370425  0.563898  1
  O  O32  1  0.367935  0.369134  0.808516  1
  O  O33  1  0.316036  0.689827  0.499832  1
  O  O34  1  0.811449  0.188589  0.749726  1
  O  O35  1  0.312084  0.687359  0.001189  1
  O  O36  1  0.816939  0.180317  0.249624  1
  O  O37  1  0.676221  0.300159  0.995059  1
  O  O38  1  0.188315  0.825419  0.254686  1
  O  O39  1  0.186718  0.810435  0.748502  1
  O  O40  1  0.690471  0.317243  0.500706  1
  O  O41  1  0.630437  0.630482  0.439293  1
  O  O42  1  0.629990  0.630774  0.691487  1
  O  O43  1  0.628613  0.634194  0.198153  1
  O  O44  1  0.626787  0.632835  0.936624  1
  O  O45  1  0.927502  0.572778  0.382038  1
  O  O46  1  0.911311  0.588086  0.869841  1
  O  O47  1  0.587232  0.910420  0.872650  1
  O  O48  1  0.573269  0.928263  0.377689  1
  O  O49  1  0.865348  0.866735  0.554011  1
  O  O50  1  0.868756  0.875484  0.313116  1
  O  O51  1  0.867656  0.868628  0.808329  1
  O  O52  1  0.869246  0.875887  0.057503  1
