# generated using pymatgen
data_LiV2(CO3)4
_symmetry_space_group_name_H-M   'P 1'
_cell_length_a   7.87205255
_cell_length_b   7.98394987
_cell_length_c   8.58904779
_cell_angle_alpha   102.69827096
_cell_angle_beta   102.02219822
_cell_angle_gamma   106.94923835
_symmetry_Int_Tables_number   1
_chemical_formula_structural   LiV2(CO3)4
_chemical_formula_sum   'Li2 V4 C8 O24'
_cell_volume   481.80879499
_cell_formula_units_Z   2
loop_
 _symmetry_equiv_pos_site_id
 _symmetry_equiv_pos_as_xyz
  1  'x, y, z'
loop_
 _atom_site_type_symbol
 _atom_site_label
 _atom_site_symmetry_multiplicity
 _atom_site_fract_x
 _atom_site_fract_y
 _atom_site_fract_z
 _atom_site_occupancy
  Li  Li0  1  0.205393  0.017453  0.816386  1
  Li  Li1  1  0.794607  0.982547  0.183614  1
  V  V2  1  0.286547  0.741806  0.551278  1
  V  V3  1  0.205665  0.463863  0.061141  1
  V  V4  1  0.794335  0.536137  0.938859  1
  V  V5  1  0.713453  0.258194  0.448722  1
  C  C6  1  0.005554  0.733355  0.233093  1
  C  C7  1  0.055754  0.335011  0.313243  1
  C  C8  1  0.467865  0.632229  0.756947  1
  C  C9  1  0.462000  0.849019  0.279871  1
  C  C10  1  0.538000  0.150981  0.720129  1
  C  C11  1  0.532135  0.367771  0.243053  1
  C  C12  1  0.944246  0.664989  0.686757  1
  C  C13  1  0.994446  0.266645  0.766907  1
  O  O14  1  0.075056  0.776928  0.649872  1
  O  O15  1  0.113077  0.824937  0.376041  1
  O  O16  1  0.010623  0.577857  0.142340  1
  O  O17  1  0.128176  0.224461  0.847354  1
  O  O18  1  0.156392  0.492500  0.417946  1
  O  O19  1  0.084439  0.280585  0.171606  1
  O  O20  1  0.305860  0.644238  0.756760  1
  O  O21  1  0.360473  0.732487  0.139247  1
  O  O22  1  0.449450  0.819835  0.419677  1
  O  O23  1  0.526800  0.688938  0.641238  1
  O  O24  1  0.550569  0.569763  0.860852  1
  O  O25  1  0.411591  0.002875  0.719822  1
  O  O26  1  0.588409  0.997125  0.280178  1
  O  O27  1  0.449431  0.430237  0.139148  1
  O  O28  1  0.473200  0.311062  0.358762  1
  O  O29  1  0.550550  0.180165  0.580323  1
  O  O30  1  0.639527  0.267513  0.860753  1
  O  O31  1  0.694140  0.355762  0.243240  1
  O  O32  1  0.915561  0.719415  0.828394  1
  O  O33  1  0.843608  0.507500  0.582054  1
  O  O34  1  0.871824  0.775539  0.152646  1
  O  O35  1  0.989377  0.422143  0.857660  1
  O  O36  1  0.886923  0.175063  0.623959  1
  O  O37  1  0.924944  0.223072  0.350128  1
