# generated using pymatgen
data_Na2MnPCO7
_symmetry_space_group_name_H-M   'P 1'
_cell_length_a   5.23438407
_cell_length_b   6.64082067
_cell_length_c   9.00514745
_cell_angle_alpha   90.00000000
_cell_angle_beta   91.26035351
_cell_angle_gamma   90.00000000
_symmetry_Int_Tables_number   1
_chemical_formula_structural   Na2MnPCO7
_chemical_formula_sum   'Na4 Mn2 P2 C2 O14'
_cell_volume   312.94865121
_cell_formula_units_Z   2
loop_
 _symmetry_equiv_pos_site_id
 _symmetry_equiv_pos_as_xyz
  1  'x, y, z'
loop_
 _atom_site_type_symbol
 _atom_site_label
 _atom_site_symmetry_multiplicity
 _atom_site_fract_x
 _atom_site_fract_y
 _atom_site_fract_z
 _atom_site_occupancy
  Na  Na0  1  0.767625  0.506103  0.234519  1
  Na  Na1  1  0.767625  0.993897  0.234519  1
  Na  Na2  1  0.232375  0.493897  0.765481  1
  Na  Na3  1  0.232375  0.006103  0.765481  1
  Mn  Mn4  1  0.223733  0.250000  0.358068  1
  Mn  Mn5  1  0.776267  0.750000  0.641932  1
  P  P6  1  0.293414  0.750000  0.425136  1
  P  P7  1  0.706586  0.250000  0.574864  1
  C  C8  1  0.280071  0.250000  0.078923  1
  C  C9  1  0.719929  0.750000  0.921077  1
  O  O10  1  0.724745  0.750000  0.060111  1
  O  O11  1  0.064519  0.250000  0.154999  1
  O  O12  1  0.483183  0.250000  0.163945  1
  O  O13  1  0.216142  0.938635  0.334309  1
  O  O14  1  0.216142  0.561365  0.334309  1
  O  O15  1  0.830502  0.250000  0.420634  1
  O  O16  1  0.595272  0.750000  0.448190  1
  O  O17  1  0.404728  0.250000  0.551810  1
  O  O18  1  0.169498  0.750000  0.579366  1
  O  O19  1  0.783858  0.438635  0.665691  1
  O  O20  1  0.783858  0.061365  0.665691  1
  O  O21  1  0.516817  0.750000  0.836055  1
  O  O22  1  0.935481  0.750000  0.845001  1
  O  O23  1  0.275255  0.250000  0.939889  1
