# generated using pymatgen
data_Li2Fe3F8
_symmetry_space_group_name_H-M   'P 1'
_cell_length_a   9.24911260
_cell_length_b   9.24911260
_cell_length_c   9.24911260
_cell_angle_alpha   107.27835208
_cell_angle_beta   107.27835208
_cell_angle_gamma   113.95203721
_symmetry_Int_Tables_number   1
_chemical_formula_structural   Li2Fe3F8
_chemical_formula_sum   'Li8 Fe12 F32'
_cell_volume   606.26897700
_cell_formula_units_Z   4
loop_
 _symmetry_equiv_pos_site_id
 _symmetry_equiv_pos_as_xyz
  1  'x, y, z'
loop_
 _atom_site_type_symbol
 _atom_site_label
 _atom_site_symmetry_multiplicity
 _atom_site_fract_x
 _atom_site_fract_y
 _atom_site_fract_z
 _atom_site_occupancy
  Li  Li0  1  0.336736  0.438783  0.285675  1
  Li  Li1  1  0.096892  0.698939  0.785675  1
  Li  Li2  1  0.948939  0.663264  0.102047  1
  Li  Li3  1  0.688783  0.903108  0.602047  1
  Li  Li4  1  0.301061  0.086736  0.397953  1
  Li  Li5  1  0.561217  0.846892  0.897953  1
  Li  Li6  1  0.913264  0.311217  0.214325  1
  Li  Li7  1  0.153108  0.051061  0.714325  1
  Fe  Fe8  1  0.784238  0.613383  0.440381  1
  Fe  Fe9  1  0.750000  0.250000  0.500000  1
  Fe  Fe10  1  0.250000  0.750000  0.500000  1
  Fe  Fe11  1  0.656143  0.215762  0.829145  1
  Fe  Fe12  1  0.863383  0.923002  0.329145  1
  Fe  Fe13  1  0.173002  0.343857  0.559619  1
  Fe  Fe14  1  0.076998  0.406143  0.940381  1
  Fe  Fe15  1  0.386617  0.826998  0.170855  1
  Fe  Fe16  1  0.593857  0.534238  0.670855  1
  Fe  Fe17  1  0.500000  0.500000  0.000000  1
  Fe  Fe18  1  0.000000  0.000000  0.000000  1
  Fe  Fe19  1  0.465762  0.136617  0.059619  1
  F  F20  1  0.814479  0.661020  0.245244  1
  F  F21  1  0.245475  0.835113  0.328033  1
  F  F22  1  0.742919  0.832558  0.828033  1
  F  F23  1  0.764865  0.366217  0.336451  1
  F  F24  1  0.819235  0.564479  0.653459  1
  F  F25  1  0.082558  0.754525  0.589639  1
  F  F26  1  0.164887  0.492919  0.410361  1
  F  F27  1  0.678414  0.514865  0.898648  1
  F  F28  1  0.633783  0.970233  0.398648  1
  F  F29  1  0.911020  0.165776  0.346541  1
  F  F30  1  0.029767  0.428414  0.663549  1
  F  F31  1  0.572711  0.629971  0.483701  1
  F  F32  1  0.103730  0.660990  0.983701  1
  F  F33  1  0.834224  0.180765  0.745244  1
  F  F34  1  0.339010  0.322711  0.442740  1
  F  F35  1  0.370029  0.853730  0.942740  1
  F  F36  1  0.879971  0.896270  0.557260  1
  F  F37  1  0.910990  0.427289  0.057260  1
  F  F38  1  0.415776  0.569235  0.754756  1
  F  F39  1  0.146270  0.089010  0.516299  1
  F  F40  1  0.677289  0.120029  0.016299  1
  F  F41  1  0.220233  0.321586  0.836451  1
  F  F42  1  0.338980  0.584224  0.153459  1
  F  F43  1  0.571586  0.235135  0.601352  1
  F  F44  1  0.616217  0.779767  0.101352  1
  F  F45  1  0.085113  0.257081  0.089639  1
  F  F46  1  0.167442  0.995475  0.910361  1
  F  F47  1  0.430765  0.185521  0.846541  1
  F  F48  1  0.485135  0.383783  0.163549  1
  F  F49  1  0.507081  0.917442  0.671967  1
  F  F50  1  0.004525  0.914887  0.171967  1
  F  F51  1  0.435521  0.088980  0.254756  1
