# generated using pymatgen
data_Sr4Mn2CoO9
_symmetry_space_group_name_H-M   'P 1'
_cell_length_a   9.69705018
_cell_length_b   9.69705018
_cell_length_c   7.88733435
_cell_angle_alpha   90.00000000
_cell_angle_beta   90.00000000
_cell_angle_gamma   120.00000000
_symmetry_Int_Tables_number   1
_chemical_formula_structural   Sr4Mn2CoO9
_chemical_formula_sum   'Sr12 Mn6 Co3 O27'
_cell_volume   642.30332257
_cell_formula_units_Z   3
loop_
 _symmetry_equiv_pos_site_id
 _symmetry_equiv_pos_as_xyz
  1  'x, y, z'
loop_
 _atom_site_type_symbol
 _atom_site_label
 _atom_site_symmetry_multiplicity
 _atom_site_fract_x
 _atom_site_fract_y
 _atom_site_fract_z
 _atom_site_occupancy
  Sr  Sr0  1  0.333451  0.309550  0.750201  1
  Sr  Sr1  1  0.666549  0.976099  0.249799  1
  Sr  Sr2  1  0.000000  0.357512  0.500000  1
  Sr  Sr3  1  0.642488  0.642488  0.500000  1
  Sr  Sr4  1  0.309550  0.333451  0.249799  1
  Sr  Sr5  1  0.000000  0.327598  0.000000  1
  Sr  Sr6  1  0.672402  0.672402  0.000000  1
  Sr  Sr7  1  0.976099  0.666549  0.750201  1
  Sr  Sr8  1  0.357512  0.000000  0.500000  1
  Sr  Sr9  1  0.023901  0.690450  0.249799  1
  Sr  Sr10  1  0.327598  0.000000  0.000000  1
  Sr  Sr11  1  0.690450  0.023901  0.750201  1
  Mn  Mn12  1  0.000000  0.000000  0.835360  1
  Mn  Mn13  1  0.666667  0.333333  0.927751  1
  Mn  Mn14  1  0.333333  0.666667  0.072249  1
  Mn  Mn15  1  0.333333  0.666667  0.405386  1
  Mn  Mn16  1  0.000000  0.000000  0.164640  1
  Mn  Mn17  1  0.666667  0.333333  0.594614  1
  Co  Co18  1  0.666667  0.333333  0.258974  1
  Co  Co19  1  0.000000  0.000000  0.500000  1
  Co  Co20  1  0.333333  0.666667  0.741026  1
  O  O21  1  0.682196  0.181527  0.455651  1
  O  O22  1  0.835074  0.842921  0.697857  1
  O  O23  1  0.348718  0.829648  0.240441  1
  O  O24  1  0.317804  0.499330  0.544349  1
  O  O25  1  0.499330  0.317804  0.455651  1
  O  O26  1  0.000000  0.847735  0.000000  1
  O  O27  1  0.170352  0.519070  0.240441  1
  O  O28  1  0.182953  0.679442  0.934127  1
  O  O29  1  0.679442  0.182953  0.065873  1
  O  O30  1  0.829648  0.348718  0.759559  1
  O  O31  1  0.320558  0.503512  0.934127  1
  O  O32  1  0.164926  0.007847  0.302143  1
  O  O33  1  0.181527  0.682196  0.544349  1
  O  O34  1  0.818473  0.500670  0.455651  1
  O  O35  1  0.847735  0.000000  0.000000  1
  O  O36  1  0.152265  0.152265  0.000000  1
  O  O37  1  0.651282  0.480930  0.759559  1
  O  O38  1  0.496488  0.817047  0.934127  1
  O  O39  1  0.992153  0.157079  0.302143  1
  O  O40  1  0.007847  0.164926  0.697857  1
  O  O41  1  0.503512  0.320558  0.065873  1
  O  O42  1  0.480930  0.651282  0.240441  1
  O  O43  1  0.500670  0.818473  0.544349  1
  O  O44  1  0.842921  0.835074  0.302143  1
  O  O45  1  0.157079  0.992153  0.697857  1
  O  O46  1  0.519070  0.170352  0.759559  1
  O  O47  1  0.817047  0.496488  0.065873  1
