# generated using pymatgen
data_Na2UO4
_symmetry_space_group_name_H-M   'P 1'
_cell_length_a   6.69060828
_cell_length_b   6.69060828
_cell_length_c   6.69060828
_cell_angle_alpha   142.05399912
_cell_angle_beta   142.05399912
_cell_angle_gamma   54.74746769
_symmetry_Int_Tables_number   1
_chemical_formula_structural   Na2UO4
_chemical_formula_sum   'Na2 U1 O4'
_cell_volume   112.45449627
_cell_formula_units_Z   1
loop_
 _symmetry_equiv_pos_site_id
 _symmetry_equiv_pos_as_xyz
  1  'x, y, z'
loop_
 _atom_site_type_symbol
 _atom_site_label
 _atom_site_symmetry_multiplicity
 _atom_site_fract_x
 _atom_site_fract_y
 _atom_site_fract_z
 _atom_site_occupancy
  Na  Na0  1  0.647177  0.647177  0.000000  1
  Na  Na1  1  0.352823  0.352823  0.000000  1
  U  U2  1  0.000000  0.000000  0.000000  1
  O  O3  1  0.500000  1.000000  0.500000  1
  O  O4  1  0.000000  0.500000  0.500000  1
  O  O5  1  0.837536  0.837536  0.000000  1
  O  O6  1  0.162464  0.162464  0.000000  1
