# generated using pymatgen
data_Na2Ga11O17
_symmetry_space_group_name_H-M   'P 1'
_cell_length_a   5.96015682
_cell_length_b   22.98938052
_cell_length_c   5.97368016
_cell_angle_alpha   90.00000000
_cell_angle_beta   119.82337056
_cell_angle_gamma   90.00000000
_symmetry_Int_Tables_number   1
_chemical_formula_structural   Na2Ga11O17
_chemical_formula_sum   'Na4 Ga22 O34'
_cell_volume   710.11351456
_cell_formula_units_Z   2
loop_
 _symmetry_equiv_pos_site_id
 _symmetry_equiv_pos_as_xyz
  1  'x, y, z'
loop_
 _atom_site_type_symbol
 _atom_site_label
 _atom_site_symmetry_multiplicity
 _atom_site_fract_x
 _atom_site_fract_y
 _atom_site_fract_z
 _atom_site_occupancy
  Na  Na0  1  0.292624  0.250000  0.860911  1
  Na  Na1  1  0.619743  0.250000  0.497414  1
  Na  Na2  1  0.380257  0.750000  0.502586  1
  Na  Na3  1  0.707376  0.750000  0.139089  1
  Ga  Ga4  1  0.335051  0.109018  0.667909  1
  Ga  Ga5  1  0.335051  0.390982  0.667909  1
  Ga  Ga6  1  0.166378  0.974335  0.832967  1
  Ga  Ga7  1  0.164229  0.824761  0.827964  1
  Ga  Ga8  1  0.500000  0.000000  0.500000  1
  Ga  Ga9  1  0.500000  0.500000  0.500000  1
  Ga  Ga10  1  0.164229  0.675239  0.827964  1
  Ga  Ga11  1  0.837645  0.389931  0.670585  1
  Ga  Ga12  1  0.166378  0.525665  0.832967  1
  Ga  Ga13  1  0.837645  0.110069  0.670585  1
  Ga  Ga14  1  0.333258  0.389420  0.166579  1
  Ga  Ga15  1  0.333258  0.110580  0.166579  1
  Ga  Ga16  1  0.666742  0.889420  0.833421  1
  Ga  Ga17  1  0.666742  0.610580  0.833421  1
  Ga  Ga18  1  0.162355  0.889931  0.329415  1
  Ga  Ga19  1  0.162355  0.610069  0.329415  1
  Ga  Ga20  1  0.835771  0.324761  0.172036  1
  Ga  Ga21  1  0.835771  0.175239  0.172036  1
  Ga  Ga22  1  0.833622  0.025665  0.167033  1
  Ga  Ga23  1  0.833622  0.474335  0.167033  1
  Ga  Ga24  1  0.664949  0.890982  0.332091  1
  Ga  Ga25  1  0.664949  0.609018  0.332091  1
  O  O26  1  0.343224  0.553510  0.654352  1
  O  O27  1  0.343224  0.946490  0.654352  1
  O  O28  1  0.013718  0.347214  0.519834  1
  O  O29  1  0.013718  0.152786  0.519834  1
  O  O30  1  0.249808  0.750000  0.803458  1
  O  O31  1  0.496559  0.849205  0.498300  1
  O  O32  1  0.496559  0.650795  0.498300  1
  O  O33  1  0.810675  0.945924  0.655856  1
  O  O34  1  0.503441  0.349205  0.501700  1
  O  O35  1  0.503441  0.150795  0.501700  1
  O  O36  1  0.810675  0.554076  0.655856  1
  O  O37  1  0.165313  0.441817  0.836033  1
  O  O38  1  0.165313  0.058183  0.836033  1
  O  O39  1  0.485913  0.348831  0.990185  1
  O  O40  1  0.485913  0.151169  0.990185  1
  O  O41  1  0.657447  0.446440  0.811683  1
  O  O42  1  0.657447  0.053560  0.811683  1
  O  O43  1  0.009364  0.343585  0.993860  1
  O  O44  1  0.009364  0.156415  0.993860  1
  O  O45  1  0.990636  0.843585  0.006140  1
  O  O46  1  0.990636  0.656415  0.006140  1
  O  O47  1  0.342553  0.946440  0.188317  1
  O  O48  1  0.342553  0.553560  0.188317  1
  O  O49  1  0.514087  0.651169  0.009815  1
  O  O50  1  0.514087  0.848831  0.009815  1
  O  O51  1  0.834687  0.558183  0.163967  1
  O  O52  1  0.189325  0.445924  0.344144  1
  O  O53  1  0.189325  0.054076  0.344144  1
  O  O54  1  0.834687  0.941817  0.163967  1
  O  O55  1  0.750192  0.250000  0.196542  1
  O  O56  1  0.986282  0.847214  0.480166  1
  O  O57  1  0.986282  0.652786  0.480166  1
  O  O58  1  0.656776  0.446490  0.345648  1
  O  O59  1  0.656776  0.053510  0.345648  1
