# generated using pymatgen
data_NaAl11O17
_symmetry_space_group_name_H-M   'P 1'
_cell_length_a   11.79235987
_cell_length_b   11.79235987
_cell_length_c   11.79235987
_cell_angle_alpha   27.73417813
_cell_angle_beta   27.73417813
_cell_angle_gamma   27.73417813
_symmetry_Int_Tables_number   1
_chemical_formula_structural   NaAl11O17
_chemical_formula_sum   'Na1 Al11 O17'
_cell_volume   313.55890484
_cell_formula_units_Z   1
loop_
 _symmetry_equiv_pos_site_id
 _symmetry_equiv_pos_as_xyz
  1  'x, y, z'
loop_
 _atom_site_type_symbol
 _atom_site_label
 _atom_site_symmetry_multiplicity
 _atom_site_fract_x
 _atom_site_fract_y
 _atom_site_fract_z
 _atom_site_occupancy
  Na  Na0  1  0.827898  0.827898  0.827898  1
  Al  Al1  1  0.096206  0.096206  0.591620  1
  Al  Al2  1  0.999863  0.999863  0.999863  1
  Al  Al3  1  0.096206  0.591620  0.096206  1
  Al  Al4  1  0.591620  0.096206  0.096206  1
  Al  Al5  1  0.450417  0.450417  0.450417  1
  Al  Al6  1  0.549871  0.549871  0.549871  1
  Al  Al7  1  0.349975  0.349975  0.349975  1
  Al  Al8  1  0.649407  0.649407  0.649407  1
  Al  Al9  1  0.405732  0.904471  0.904471  1
  Al  Al10  1  0.904471  0.405732  0.904471  1
  Al  Al11  1  0.904471  0.904471  0.405732  1
  O  O12  1  0.296463  0.296463  0.296463  1
  O  O13  1  0.095325  0.095325  0.095325  1
  O  O14  1  0.278481  0.810331  0.810331  1
  O  O15  1  0.190775  0.190775  0.719540  1
  O  O16  1  0.089925  0.602114  0.602114  1
  O  O17  1  0.401100  0.401100  0.906747  1
  O  O18  1  0.602114  0.089925  0.602114  1
  O  O19  1  0.500251  0.500251  0.500251  1
  O  O20  1  0.190775  0.719540  0.190775  1
  O  O21  1  0.810331  0.278481  0.810331  1
  O  O22  1  0.401100  0.906747  0.401100  1
  O  O23  1  0.602114  0.602114  0.089925  1
  O  O24  1  0.906747  0.401100  0.401100  1
  O  O25  1  0.810331  0.810331  0.278481  1
  O  O26  1  0.719540  0.190775  0.190775  1
  O  O27  1  0.703538  0.703538  0.703538  1
  O  O28  1  0.903271  0.903271  0.903271  1
