# generated using pymatgen
data_Co5BiO12
_symmetry_space_group_name_H-M   'P 1'
_cell_length_a   5.08605984
_cell_length_b   5.08605984
_cell_length_c   9.44287920
_cell_angle_alpha   89.84537208
_cell_angle_beta   90.15462792
_cell_angle_gamma   59.86391700
_symmetry_Int_Tables_number   1
_chemical_formula_structural   Co5BiO12
_chemical_formula_sum   'Co5 Bi1 O12'
_cell_volume   211.24891055
_cell_formula_units_Z   1
loop_
 _symmetry_equiv_pos_site_id
 _symmetry_equiv_pos_as_xyz
  1  'x, y, z'
loop_
 _atom_site_type_symbol
 _atom_site_label
 _atom_site_symmetry_multiplicity
 _atom_site_fract_x
 _atom_site_fract_y
 _atom_site_fract_z
 _atom_site_occupancy
  Co  Co0  1  0.166542  0.166542  0.500000  1
  Co  Co1  1  0.666772  0.666772  0.000000  1
  Co  Co2  1  0.333228  0.333228  0.000000  1
  Co  Co3  1  0.833458  0.833458  0.500000  1
  Co  Co4  1  0.500000  0.500000  0.500000  1
  Bi  Bi5  1  0.000000  0.000000  0.000000  1
  O  O6  1  0.367886  0.001110  0.893071  1
  O  O7  1  0.001110  0.367886  0.106929  1
  O  O8  1  0.501581  0.165751  0.594346  1
  O  O9  1  0.834249  0.498419  0.594346  1
  O  O10  1  0.165751  0.501581  0.405654  1
  O  O11  1  0.833310  0.166690  0.404804  1
  O  O12  1  0.498419  0.834249  0.405654  1
  O  O13  1  0.998890  0.632114  0.893071  1
  O  O14  1  0.629528  0.370472  0.892671  1
  O  O15  1  0.632114  0.998890  0.106929  1
  O  O16  1  0.370472  0.629528  0.107329  1
  O  O17  1  0.166690  0.833310  0.595196  1
