# generated using pymatgen
data_Li8MnFe7(BO3)8
_symmetry_space_group_name_H-M   'P 1'
_cell_length_a   5.97356998
_cell_length_b   9.08444245
_cell_length_c   9.71304647
_cell_angle_alpha   81.39135229
_cell_angle_beta   79.05392216
_cell_angle_gamma   75.85212590
_symmetry_Int_Tables_number   1
_chemical_formula_structural   Li8MnFe7(BO3)8
_chemical_formula_sum   'Li8 Mn1 Fe7 B8 O24'
_cell_volume   498.84579715
_cell_formula_units_Z   1
loop_
 _symmetry_equiv_pos_site_id
 _symmetry_equiv_pos_as_xyz
  1  'x, y, z'
loop_
 _atom_site_type_symbol
 _atom_site_label
 _atom_site_symmetry_multiplicity
 _atom_site_fract_x
 _atom_site_fract_y
 _atom_site_fract_z
 _atom_site_occupancy
  Li  Li0  1  0.199372  0.689224  0.120692  1
  Li  Li1  1  0.297940  0.314496  0.377500  1
  Li  Li2  1  0.049604  0.812042  0.628414  1
  Li  Li3  1  0.449368  0.186659  0.873295  1
  Li  Li4  1  0.550922  0.812892  0.128509  1
  Li  Li5  1  0.949553  0.187311  0.371295  1
  Li  Li6  1  0.697828  0.688135  0.620508  1
  Li  Li7  1  0.803422  0.310279  0.879070  1
  Mn  Mn8  1  0.631554  0.375832  0.606673  1
  Fe  Fe9  1  0.129852  0.379007  0.101783  1
  Fe  Fe10  1  0.122577  0.116871  0.642391  1
  Fe  Fe11  1  0.616518  0.127074  0.148215  1
  Fe  Fe12  1  0.370181  0.625865  0.387682  1
  Fe  Fe13  1  0.381067  0.872583  0.861219  1
  Fe  Fe14  1  0.880992  0.870678  0.359066  1
  Fe  Fe15  1  0.867469  0.628861  0.889217  1
  B  B16  1  0.145135  0.040255  0.112953  1
  B  B17  1  0.101299  0.459824  0.637586  1
  B  B18  1  0.605597  0.460819  0.137693  1
  B  B19  1  0.352234  0.961233  0.388139  1
  B  B20  1  0.648828  0.037800  0.612388  1
  B  B21  1  0.397384  0.539253  0.863520  1
  B  B22  1  0.898217  0.539821  0.359918  1
  B  B23  1  0.851258  0.961003  0.889293  1
  O  O24  1  0.256116  0.159312  0.058590  1
  O  O25  1  0.010384  0.659009  0.303028  1
  O  O26  1  0.271866  0.104641  0.434529  1
  O  O27  1  0.017129  0.601857  0.687090  1
  O  O28  1  0.230611  0.898178  0.063782  1
  O  O29  1  0.291772  0.440099  0.527789  1
  O  O30  1  0.044084  0.936804  0.780152  1
  O  O31  1  0.494869  0.342131  0.194444  1
  O  O32  1  0.241405  0.842067  0.445284  1
  O  O33  1  0.457797  0.061196  0.722004  1
  O  O34  1  0.204496  0.564848  0.972362  1
  O  O35  1  0.519566  0.603161  0.185556  1
  O  O36  1  0.480765  0.396635  0.818443  1
  O  O37  1  0.795051  0.438932  0.027520  1
  O  O38  1  0.543549  0.936502  0.278526  1
  O  O39  1  0.762925  0.154762  0.556077  1
  O  O40  1  0.506357  0.659272  0.805711  1
  O  O41  1  0.954316  0.061220  0.222361  1
  O  O42  1  0.705923  0.566941  0.468021  1
  O  O43  1  0.767028  0.101716  0.937642  1
  O  O44  1  0.980676  0.397385  0.313224  1
  O  O45  1  0.730715  0.895347  0.564379  1
  O  O46  1  0.992041  0.340008  0.691552  1
  O  O47  1  0.742389  0.840162  0.944912  1
