# generated using pymatgen
data_Li2Mn2O3
_symmetry_space_group_name_H-M   'P 1'
_cell_length_a   5.43957417
_cell_length_b   5.48621873
_cell_length_c   6.03579581
_cell_angle_alpha   90.00000000
_cell_angle_beta   113.95098802
_cell_angle_gamma   90.00000000
_symmetry_Int_Tables_number   1
_chemical_formula_structural   Li2Mn2O3
_chemical_formula_sum   'Li4 Mn4 O6'
_cell_volume   164.61444321
_cell_formula_units_Z   2
loop_
 _symmetry_equiv_pos_site_id
 _symmetry_equiv_pos_as_xyz
  1  'x, y, z'
loop_
 _atom_site_type_symbol
 _atom_site_label
 _atom_site_symmetry_multiplicity
 _atom_site_fract_x
 _atom_site_fract_y
 _atom_site_fract_z
 _atom_site_occupancy
  Li  Li0  1  0.184175  0.654605  0.063062  1
  Li  Li1  1  0.684175  0.845395  0.063062  1
  Li  Li2  1  0.315825  0.154605  0.936938  1
  Li  Li3  1  0.815825  0.345395  0.936938  1
  Mn  Mn4  1  0.728223  0.403171  0.348539  1
  Mn  Mn5  1  0.771777  0.903171  0.651461  1
  Mn  Mn6  1  0.228223  0.096829  0.348539  1
  Mn  Mn7  1  0.271777  0.596829  0.651461  1
  O  O8  1  0.500000  0.500000  0.000000  1
  O  O9  1  0.000000  0.000000  0.000000  1
  O  O10  1  0.604763  0.037014  0.302865  1
  O  O11  1  0.895237  0.537014  0.697135  1
  O  O12  1  0.104763  0.462986  0.302865  1
  O  O13  1  0.395237  0.962986  0.697135  1
