# generated using pymatgen
data_KSmH4(N2O7)2
_symmetry_space_group_name_H-M   'P 1'
_cell_length_a   8.04395337
_cell_length_b   11.74866970
_cell_length_c   13.01281545
_cell_angle_alpha   90.00000000
_cell_angle_beta   90.00000000
_cell_angle_gamma   90.00000000
_symmetry_Int_Tables_number   1
_chemical_formula_structural   KSmH4(N2O7)2
_chemical_formula_sum   'K4 Sm4 H16 N16 O56'
_cell_volume   1229.78589967
_cell_formula_units_Z   4
loop_
 _symmetry_equiv_pos_site_id
 _symmetry_equiv_pos_as_xyz
  1  'x, y, z'
loop_
 _atom_site_type_symbol
 _atom_site_label
 _atom_site_symmetry_multiplicity
 _atom_site_fract_x
 _atom_site_fract_y
 _atom_site_fract_z
 _atom_site_occupancy
  K  K0  1  0.587956  0.666805  0.022450  1
  K  K1  1  0.087956  0.166805  0.477550  1
  K  K2  1  0.587956  0.833195  0.522450  1
  K  K3  1  0.087956  0.333195  0.977550  1
  Sm  Sm4  1  0.124991  0.832620  0.205815  1
  Sm  Sm5  1  0.624991  0.332620  0.294185  1
  Sm  Sm6  1  0.124991  0.667380  0.705815  1
  Sm  Sm7  1  0.624991  0.167380  0.794185  1
  H  H8  1  0.650539  0.067479  0.016894  1
  H  H9  1  0.663696  0.200195  0.032693  1
  H  H10  1  0.208542  0.081977  0.186617  1
  H  H11  1  0.390622  0.035957  0.193155  1
  H  H12  1  0.890622  0.535957  0.306845  1
  H  H13  1  0.708542  0.581977  0.313383  1
  H  H14  1  0.163696  0.700195  0.467307  1
  H  H15  1  0.150539  0.567479  0.483106  1
  H  H16  1  0.650539  0.432521  0.516894  1
  H  H17  1  0.663696  0.299805  0.532693  1
  H  H18  1  0.208542  0.418023  0.686617  1
  H  H19  1  0.390622  0.464043  0.693155  1
  H  H20  1  0.890622  0.964043  0.806845  1
  H  H21  1  0.708542  0.918023  0.813383  1
  H  H22  1  0.163696  0.799805  0.967307  1
  H  H23  1  0.150539  0.932521  0.983106  1
  N  N24  1  0.467232  0.411928  0.099193  1
  N  N25  1  0.803756  0.891046  0.111911  1
  N  N26  1  0.115624  0.578842  0.175914  1
  N  N27  1  0.946167  0.254798  0.204965  1
  N  N28  1  0.446167  0.754798  0.295035  1
  N  N29  1  0.615624  0.078842  0.324086  1
  N  N30  1  0.303756  0.391046  0.388089  1
  N  N31  1  0.967232  0.911928  0.400807  1
  N  N32  1  0.467232  0.088072  0.599193  1
  N  N33  1  0.803756  0.608954  0.611911  1
  N  N34  1  0.115624  0.921158  0.675914  1
  N  N35  1  0.946167  0.245202  0.704965  1
  N  N36  1  0.446167  0.745202  0.795035  1
  N  N37  1  0.615624  0.421158  0.824086  1
  N  N38  1  0.303756  0.108954  0.888089  1
  N  N39  1  0.967232  0.588072  0.900807  1
  O  O40  1  0.156626  0.859098  0.019618  1
  O  O41  1  0.395717  0.447757  0.021353  1
  O  O42  1  0.673502  0.913186  0.064001  1
  O  O43  1  0.163749  0.644568  0.104308  1
  O  O44  1  0.845242  0.787455  0.130836  1
  O  O45  1  0.448840  0.309700  0.132032  1
  O  O46  1  0.902272  0.968748  0.143629  1
  O  O47  1  0.830791  0.295563  0.147159  1
  O  O48  1  0.564609  0.476062  0.152091  1
  O  O49  1  0.075141  0.214347  0.167693  1
  O  O50  1  0.109541  0.473975  0.167256  1
  O  O51  1  0.275166  0.011878  0.180736  1
  O  O52  1  0.420948  0.759600  0.198115  1
  O  O53  1  0.571063  0.127905  0.238846  1
  O  O54  1  0.071063  0.627905  0.261154  1
  O  O55  1  0.920948  0.259600  0.301885  1
  O  O56  1  0.775166  0.511878  0.319264  1
  O  O57  1  0.609541  0.973975  0.332744  1
  O  O58  1  0.575141  0.714347  0.332307  1
  O  O59  1  0.064609  0.976062  0.347909  1
  O  O60  1  0.330791  0.795563  0.352841  1
  O  O61  1  0.402272  0.468748  0.356371  1
  O  O62  1  0.948840  0.809700  0.367968  1
  O  O63  1  0.345242  0.287455  0.369164  1
  O  O64  1  0.663749  0.144568  0.395692  1
  O  O65  1  0.173502  0.413186  0.435999  1
  O  O66  1  0.895717  0.947757  0.478647  1
  O  O67  1  0.656626  0.359098  0.480382  1
  O  O68  1  0.156626  0.640902  0.519618  1
  O  O69  1  0.395717  0.052243  0.521353  1
  O  O70  1  0.673502  0.586814  0.564001  1
  O  O71  1  0.163749  0.855432  0.604308  1
  O  O72  1  0.845242  0.712545  0.630836  1
  O  O73  1  0.448840  0.190300  0.632032  1
  O  O74  1  0.902272  0.531252  0.643629  1
  O  O75  1  0.830791  0.204437  0.647159  1
  O  O76  1  0.564609  0.023938  0.652091  1
  O  O77  1  0.075141  0.285653  0.667693  1
  O  O78  1  0.109541  0.026025  0.667256  1
  O  O79  1  0.275166  0.488122  0.680736  1
  O  O80  1  0.420948  0.740400  0.698115  1
  O  O81  1  0.571063  0.372095  0.738846  1
  O  O82  1  0.071063  0.872095  0.761154  1
  O  O83  1  0.920948  0.240400  0.801885  1
  O  O84  1  0.775166  0.988122  0.819264  1
  O  O85  1  0.609541  0.526025  0.832744  1
  O  O86  1  0.575141  0.785653  0.832307  1
  O  O87  1  0.064609  0.523938  0.847909  1
  O  O88  1  0.330791  0.704437  0.852841  1
  O  O89  1  0.402272  0.031252  0.856371  1
  O  O90  1  0.948840  0.690300  0.867968  1
  O  O91  1  0.345242  0.212545  0.869164  1
  O  O92  1  0.663749  0.355432  0.895692  1
  O  O93  1  0.173502  0.086814  0.935999  1
  O  O94  1  0.895717  0.552243  0.978647  1
  O  O95  1  0.656626  0.140902  0.980382  1
