# generated using pymatgen
data_Ta2O5
_symmetry_space_group_name_H-M   'P 1'
_cell_length_a   7.29828492
_cell_length_b   7.29828492
_cell_length_c   7.23191061
_cell_angle_alpha   62.54917694
_cell_angle_beta   117.45082306
_cell_angle_gamma   122.02365066
_symmetry_Int_Tables_number   1
_chemical_formula_structural   Ta2O5
_chemical_formula_sum   'Ta6 O15'
_cell_volume   277.55536304
_cell_formula_units_Z   3
loop_
 _symmetry_equiv_pos_site_id
 _symmetry_equiv_pos_as_xyz
  1  'x, y, z'
loop_
 _atom_site_type_symbol
 _atom_site_label
 _atom_site_symmetry_multiplicity
 _atom_site_fract_x
 _atom_site_fract_y
 _atom_site_fract_z
 _atom_site_occupancy
  Ta  Ta0  1  0.766946  0.761141  0.995220  1
  Ta  Ta1  1  0.301778  0.698222  0.582121  1
  Ta  Ta2  1  0.238859  0.233054  0.995220  1
  Ta  Ta3  1  0.234478  0.765522  0.987931  1
  Ta  Ta4  1  0.772300  0.227700  0.023788  1
  Ta  Ta5  1  0.733465  0.266535  0.478743  1
  O  O6  1  0.623817  0.915001  0.657313  1
  O  O7  1  0.862555  0.558138  0.967422  1
  O  O8  1  0.463838  0.536162  0.872525  1
  O  O9  1  0.703491  0.296509  0.708668  1
  O  O10  1  0.273774  0.726226  0.296244  1
  O  O11  1  0.441862  0.137445  0.967422  1
  O  O12  1  0.084999  0.376183  0.657313  1
  O  O13  1  0.186275  0.813725  0.668187  1
  O  O14  1  0.051283  0.948717  0.898140  1
  O  O15  1  0.820981  0.179019  0.322937  1
  O  O16  1  0.947640  0.052360  0.084083  1
  O  O17  1  0.553848  0.844376  0.037945  1
  O  O18  1  0.809459  0.578563  0.294705  1
  O  O19  1  0.421437  0.190541  0.294705  1
  O  O20  1  0.155624  0.446152  0.037945  1
