# generated using pymatgen
data_Li3HfO3
_symmetry_space_group_name_H-M   'P 1'
_cell_length_a   9.59988502
_cell_length_b   9.59988502
_cell_length_c   3.45527594
_cell_angle_alpha   90.00000000
_cell_angle_beta   90.00000000
_cell_angle_gamma   90.00000000
_symmetry_Int_Tables_number   1
_chemical_formula_structural   Li3HfO3
_chemical_formula_sum   'Li12 Hf4 O12'
_cell_volume   318.43060275
_cell_formula_units_Z   4
loop_
 _symmetry_equiv_pos_site_id
 _symmetry_equiv_pos_as_xyz
  1  'x, y, z'
loop_
 _atom_site_type_symbol
 _atom_site_label
 _atom_site_symmetry_multiplicity
 _atom_site_fract_x
 _atom_site_fract_y
 _atom_site_fract_z
 _atom_site_occupancy
  Li  Li0  1  0.356493  0.086368  0.500000  1
  Li  Li1  1  0.586368  0.143507  0.000000  1
  Li  Li2  1  0.173589  0.173589  0.000000  1
  Li  Li3  1  0.673589  0.326411  0.500000  1
  Li  Li4  1  0.086368  0.356493  0.500000  1
  Li  Li5  1  0.856493  0.413632  0.000000  1
  Li  Li6  1  0.143507  0.586368  0.000000  1
  Li  Li7  1  0.913632  0.643507  0.500000  1
  Li  Li8  1  0.326411  0.673589  0.500000  1
  Li  Li9  1  0.826411  0.826411  0.000000  1
  Li  Li10  1  0.413632  0.856493  0.000000  1
  Li  Li11  1  0.643507  0.913632  0.500000  1
  Hf  Hf12  1  0.880692  0.119308  0.500000  1
  Hf  Hf13  1  0.380692  0.380692  0.000000  1
  Hf  Hf14  1  0.619308  0.619308  0.000000  1
  Hf  Hf15  1  0.119308  0.880692  0.500000  1
  O  O16  1  0.102474  0.102474  0.500000  1
  O  O17  1  0.672829  0.114713  0.500000  1
  O  O18  1  0.385287  0.172829  0.000000  1
  O  O19  1  0.885287  0.327171  0.500000  1
  O  O20  1  0.172829  0.385287  0.000000  1
  O  O21  1  0.602474  0.397526  0.000000  1
  O  O22  1  0.397526  0.602474  0.000000  1
  O  O23  1  0.827171  0.614713  0.000000  1
  O  O24  1  0.114713  0.672829  0.500000  1
  O  O25  1  0.614713  0.827171  0.000000  1
  O  O26  1  0.327171  0.885287  0.500000  1
  O  O27  1  0.897526  0.897526  0.500000  1
