# generated using pymatgen
data_LiVP2HO8
_symmetry_space_group_name_H-M   'P 1'
_cell_length_a   4.86069874
_cell_length_b   7.47356367
_cell_length_c   7.99234263
_cell_angle_alpha   89.86596827
_cell_angle_beta   89.93406662
_cell_angle_gamma   74.43596800
_symmetry_Int_Tables_number   1
_chemical_formula_structural   LiVP2HO8
_chemical_formula_sum   'Li2 V2 P4 H2 O16'
_cell_volume   279.68869239
_cell_formula_units_Z   2
loop_
 _symmetry_equiv_pos_site_id
 _symmetry_equiv_pos_as_xyz
  1  'x, y, z'
loop_
 _atom_site_type_symbol
 _atom_site_label
 _atom_site_symmetry_multiplicity
 _atom_site_fract_x
 _atom_site_fract_y
 _atom_site_fract_z
 _atom_site_occupancy
  Li  Li0  1  0.396838  0.148896  0.869492  1
  Li  Li1  1  0.907676  0.647152  0.632557  1
  V  V2  1  0.491644  0.001685  0.490913  1
  V  V3  1  0.989192  0.507496  0.010210  1
  P  P4  1  0.135120  0.732594  0.349241  1
  P  P5  1  0.368539  0.768648  0.847690  1
  P  P6  1  0.627784  0.238343  0.155501  1
  P  P7  1  0.870219  0.263885  0.654486  1
  H  H8  1  0.513559  0.494990  0.504238  1
  H  H9  1  0.964771  0.010436  0.010042  1
  O  O10  1  0.132910  0.142997  0.555392  1
  O  O11  1  0.045100  0.682922  0.174842  1
  O  O12  1  0.157464  0.646260  0.829529  1
  O  O13  1  0.260745  0.560343  0.455789  1
  O  O14  1  0.359587  0.344703  0.052165  1
  O  O15  1  0.541355  0.184151  0.328252  1
  O  O16  1  0.239346  0.948825  0.940181  1
  O  O17  1  0.331023  0.863827  0.328859  1
  O  O18  1  0.653177  0.146949  0.673459  1
  O  O19  1  0.747989  0.060725  0.048187  1
  O  O20  1  0.489119  0.809374  0.676652  1
  O  O21  1  0.634281  0.645706  0.946449  1
  O  O22  1  0.742024  0.446669  0.559734  1
  O  O23  1  0.832260  0.362157  0.171941  1
  O  O24  1  0.986988  0.312590  0.822892  1
  O  O25  1  0.861477  0.843814  0.449155  1
