# generated using pymatgen
data_Mn5Cr(PO4)6
_symmetry_space_group_name_H-M   'P 1'
_cell_length_a   8.61114504
_cell_length_b   8.61114504
_cell_length_c   8.61114504
_cell_angle_alpha   59.63399021
_cell_angle_beta   59.63399021
_cell_angle_gamma   59.63399021
_symmetry_Int_Tables_number   1
_chemical_formula_structural   Mn5Cr(PO4)6
_chemical_formula_sum   'Mn5 Cr1 P6 O24'
_cell_volume   447.75503169
_cell_formula_units_Z   1
loop_
 _symmetry_equiv_pos_site_id
 _symmetry_equiv_pos_as_xyz
  1  'x, y, z'
loop_
 _atom_site_type_symbol
 _atom_site_label
 _atom_site_symmetry_multiplicity
 _atom_site_fract_x
 _atom_site_fract_y
 _atom_site_fract_z
 _atom_site_occupancy
  Mn  Mn0  1  0.000352  0.000352  0.000352  1
  Mn  Mn1  1  0.643611  0.643611  0.643611  1
  Mn  Mn2  1  0.499441  0.499441  0.499441  1
  Mn  Mn3  1  0.856411  0.856411  0.856411  1
  Mn  Mn4  1  0.356052  0.356052  0.356052  1
  Cr  Cr5  1  0.142246  0.142246  0.142246  1
  P  P6  1  0.250124  0.540606  0.960011  1
  P  P7  1  0.960011  0.250124  0.540606  1
  P  P8  1  0.540606  0.960011  0.250124  1
  P  P9  1  0.460613  0.038618  0.749631  1
  P  P10  1  0.038618  0.749631  0.460613  1
  P  P11  1  0.749631  0.460613  0.038618  1
  O  O12  1  0.120037  0.301530  0.513125  1
  O  O13  1  0.513125  0.120037  0.301530  1
  O  O14  1  0.301530  0.513125  0.120037  1
  O  O15  1  0.085234  0.737915  0.940595  1
  O  O16  1  0.196867  0.382107  0.990013  1
  O  O17  1  0.420044  0.556306  0.763195  1
  O  O18  1  0.940595  0.085234  0.737915  1
  O  O19  1  0.763195  0.420044  0.556306  1
  O  O20  1  0.620739  0.010535  0.801308  1
  O  O21  1  0.556306  0.763195  0.420044  1
  O  O22  1  0.265138  0.055628  0.914696  1
  O  O23  1  0.010535  0.801308  0.620739  1
  O  O24  1  0.990013  0.196867  0.382107  1
  O  O25  1  0.737915  0.940595  0.085234  1
  O  O26  1  0.444912  0.234702  0.582128  1
  O  O27  1  0.382107  0.990013  0.196867  1
  O  O28  1  0.234702  0.582128  0.444912  1
  O  O29  1  0.055628  0.914696  0.265138  1
  O  O30  1  0.582128  0.444912  0.234702  1
  O  O31  1  0.801308  0.620739  0.010535  1
  O  O32  1  0.914696  0.265138  0.055628  1
  O  O33  1  0.694487  0.493264  0.877779  1
  O  O34  1  0.493264  0.877779  0.694487  1
  O  O35  1  0.877779  0.694487  0.493264  1
