# generated using pymatgen
data_Li3Ti(BO3)2
_symmetry_space_group_name_H-M   'P 1'
_cell_length_a   5.08429557
_cell_length_b   6.41213110
_cell_length_c   7.97233267
_cell_angle_alpha   105.05871371
_cell_angle_beta   90.02941285
_cell_angle_gamma   90.68413908
_symmetry_Int_Tables_number   1
_chemical_formula_structural   Li3Ti(BO3)2
_chemical_formula_sum   'Li6 Ti2 B4 O12'
_cell_volume   250.96252525
_cell_formula_units_Z   2
loop_
 _symmetry_equiv_pos_site_id
 _symmetry_equiv_pos_as_xyz
  1  'x, y, z'
loop_
 _atom_site_type_symbol
 _atom_site_label
 _atom_site_symmetry_multiplicity
 _atom_site_fract_x
 _atom_site_fract_y
 _atom_site_fract_z
 _atom_site_occupancy
  Li  Li0  1  0.825722  0.900881  0.074490  1
  Li  Li1  1  0.673186  0.027728  0.741964  1
  Li  Li2  1  0.667420  0.744058  0.390198  1
  Li  Li3  1  0.332580  0.255942  0.609802  1
  Li  Li4  1  0.326814  0.972272  0.258036  1
  Li  Li5  1  0.174278  0.099119  0.925510  1
  Ti  Ti6  1  0.846186  0.548107  0.732809  1
  Ti  Ti7  1  0.153814  0.451893  0.267191  1
  B  B8  1  0.837582  0.162901  0.424815  1
  B  B9  1  0.666475  0.321944  0.089660  1
  B  B10  1  0.333525  0.678056  0.910340  1
  B  B11  1  0.162418  0.837099  0.575185  1
  O  O12  1  0.899299  0.775807  0.602853  1
  O  O13  1  0.784836  0.485530  0.220436  1
  O  O14  1  0.808046  0.174531  0.971675  1
  O  O15  1  0.725573  0.269116  0.586555  1
  O  O16  1  0.705770  0.005420  0.310106  1
  O  O17  1  0.609825  0.688127  0.908961  1
  O  O18  1  0.390175  0.311873  0.091039  1
  O  O19  1  0.294230  0.994580  0.689894  1
  O  O20  1  0.274427  0.730884  0.413445  1
  O  O21  1  0.191954  0.825469  0.028325  1
  O  O22  1  0.215164  0.514470  0.779564  1
  O  O23  1  0.100701  0.224193  0.397147  1
