# generated using pymatgen
data_CaH12S2(NO5)2
_symmetry_space_group_name_H-M   'P 1'
_cell_length_a   7.02620560
_cell_length_b   7.02620560
_cell_length_c   11.79250865
_cell_angle_alpha   82.28537667
_cell_angle_beta   97.71462333
_cell_angle_gamma   113.93097372
_symmetry_Int_Tables_number   1
_chemical_formula_structural   CaH12S2(NO5)2
_chemical_formula_sum   'Ca2 H24 S4 N4 O20'
_cell_volume   525.25525223
_cell_formula_units_Z   2
loop_
 _symmetry_equiv_pos_site_id
 _symmetry_equiv_pos_as_xyz
  1  'x, y, z'
loop_
 _atom_site_type_symbol
 _atom_site_label
 _atom_site_symmetry_multiplicity
 _atom_site_fract_x
 _atom_site_fract_y
 _atom_site_fract_z
 _atom_site_occupancy
  Ca  Ca0  1  0.074260  0.074260  0.250000  1
  Ca  Ca1  1  0.925740  0.925740  0.750000  1
  H  H2  1  0.807002  0.984062  0.011360  1
  H  H3  1  0.015938  0.192998  0.511360  1
  H  H4  1  0.799613  0.185324  0.056588  1
  H  H5  1  0.814676  0.200387  0.556588  1
  H  H6  1  0.656522  0.314147  0.307400  1
  H  H7  1  0.827649  0.555392  0.356990  1
  H  H8  1  0.442795  0.298827  0.101208  1
  H  H9  1  0.685853  0.343478  0.807400  1
  H  H10  1  0.444608  0.172351  0.856990  1
  H  H11  1  0.701173  0.557205  0.601208  1
  H  H12  1  0.355791  0.262423  0.464648  1
  H  H13  1  0.262423  0.355791  0.035352  1
  H  H14  1  0.737577  0.644209  0.964648  1
  H  H15  1  0.644209  0.737577  0.535352  1
  H  H16  1  0.298827  0.442795  0.398792  1
  H  H17  1  0.555392  0.827649  0.143010  1
  H  H18  1  0.314147  0.656522  0.192600  1
  H  H19  1  0.557205  0.701173  0.898792  1
  H  H20  1  0.172351  0.444608  0.643010  1
  H  H21  1  0.343478  0.685853  0.692600  1
  H  H22  1  0.185324  0.799613  0.443412  1
  H  H23  1  0.200387  0.814676  0.943412  1
  H  H24  1  0.984062  0.807002  0.488640  1
  H  H25  1  0.192998  0.015938  0.988640  1
  S  S26  1  0.887507  0.517870  0.183421  1
  S  S27  1  0.482130  0.112493  0.683421  1
  S  S28  1  0.517870  0.887507  0.316579  1
  S  S29  1  0.112493  0.482130  0.816579  1
  N  N30  1  0.744714  0.470307  0.289283  1
  N  N31  1  0.529693  0.255286  0.789283  1
  N  N32  1  0.470307  0.744714  0.210717  1
  N  N33  1  0.255286  0.529693  0.710717  1
  O  O34  1  0.813568  0.051857  0.080580  1
  O  O35  1  0.948143  0.186432  0.580580  1
  O  O36  1  0.422459  0.043607  0.291606  1
  O  O37  1  0.739275  0.425420  0.083774  1
  O  O38  1  0.991523  0.746768  0.166777  1
  O  O39  1  0.956393  0.577541  0.791606  1
  O  O40  1  0.574580  0.260725  0.583774  1
  O  O41  1  0.253232  0.008477  0.666777  1
  O  O42  1  0.289339  0.243692  0.085704  1
  O  O43  1  0.756308  0.710661  0.585704  1
  O  O44  1  0.243692  0.289339  0.414296  1
  O  O45  1  0.710661  0.756308  0.914296  1
  O  O46  1  0.746768  0.991523  0.333223  1
  O  O47  1  0.425420  0.739275  0.416226  1
  O  O48  1  0.043607  0.422459  0.208394  1
  O  O49  1  0.008477  0.253232  0.833223  1
  O  O50  1  0.260725  0.574580  0.916226  1
  O  O51  1  0.577541  0.956393  0.708394  1
  O  O52  1  0.051857  0.813568  0.419420  1
  O  O53  1  0.186432  0.948143  0.919420  1
