# generated using pymatgen
data_VCr(P2O7)2
_symmetry_space_group_name_H-M   'P 1'
_cell_length_a   4.84691288
_cell_length_b   6.98577489
_cell_length_c   7.98981370
_cell_angle_alpha   89.39757362
_cell_angle_beta   89.34196482
_cell_angle_gamma   72.35530365
_symmetry_Int_Tables_number   1
_chemical_formula_structural   VCr(P2O7)2
_chemical_formula_sum   'V1 Cr1 P4 O14'
_cell_volume   257.77936266
_cell_formula_units_Z   1
loop_
 _symmetry_equiv_pos_site_id
 _symmetry_equiv_pos_as_xyz
  1  'x, y, z'
loop_
 _atom_site_type_symbol
 _atom_site_label
 _atom_site_symmetry_multiplicity
 _atom_site_fract_x
 _atom_site_fract_y
 _atom_site_fract_z
 _atom_site_occupancy
  V  V0  1  0.210133  0.278798  0.505280  1
  Cr  Cr1  1  0.787360  0.726307  0.005781  1
  P  P2  1  0.402074  0.478866  0.174954  1
  P  P3  1  0.222358  0.910289  0.781758  1
  P  P4  1  0.779967  0.088315  0.279096  1
  P  P5  1  0.600465  0.523746  0.683526  1
  O  O6  1  0.041797  0.150319  0.338100  1
  O  O7  1  0.153714  0.106670  0.673376  1
  O  O8  1  0.173146  0.522275  0.042661  1
  O  O9  1  0.264985  0.465328  0.352623  1
  O  O10  1  0.397126  0.391026  0.670699  1
  O  O11  1  0.573027  0.099064  0.432972  1
  O  O12  1  0.602521  0.249278  0.144726  1
  O  O13  1  0.409058  0.749687  0.643088  1
  O  O14  1  0.405472  0.916146  0.932306  1
  O  O15  1  0.593361  0.611923  0.185651  1
  O  O16  1  0.728309  0.513788  0.855123  1
  O  O17  1  0.835521  0.466484  0.544911  1
  O  O18  1  0.873567  0.890183  0.192468  1
  O  O19  1  0.945920  0.861881  0.819977  1
