# generated using pymatgen
data_Co2As2O5
_symmetry_space_group_name_H-M   'P 1'
_cell_length_a   6.32406035
_cell_length_b   9.44969107
_cell_length_c   9.49379260
_cell_angle_alpha   65.81801199
_cell_angle_beta   81.97636825
_cell_angle_gamma   79.14531920
_symmetry_Int_Tables_number   1
_chemical_formula_structural   Co2As2O5
_chemical_formula_sum   'Co8 As8 O20'
_cell_volume   507.07091144
_cell_formula_units_Z   4
loop_
 _symmetry_equiv_pos_site_id
 _symmetry_equiv_pos_as_xyz
  1  'x, y, z'
loop_
 _atom_site_type_symbol
 _atom_site_label
 _atom_site_symmetry_multiplicity
 _atom_site_fract_x
 _atom_site_fract_y
 _atom_site_fract_z
 _atom_site_occupancy
  Co  Co0  1  0.325198  0.264882  0.455632  1
  Co  Co1  1  0.145621  0.938899  0.629287  1
  Co  Co2  1  0.599303  0.410854  0.155762  1
  Co  Co3  1  0.902773  0.608764  0.847801  1
  Co  Co4  1  0.097227  0.391236  0.152199  1
  Co  Co5  1  0.400697  0.589146  0.844238  1
  Co  Co6  1  0.854379  0.061101  0.370713  1
  Co  Co7  1  0.674802  0.735118  0.544368  1
  As  As8  1  0.786924  0.390424  0.486058  1
  As  As9  1  0.261274  0.281078  0.833861  1
  As  As10  1  0.385529  0.032889  0.255718  1
  As  As11  1  0.738726  0.718922  0.166139  1
  As  As12  1  0.213076  0.609576  0.513942  1
  As  As13  1  0.769365  0.225584  0.990249  1
  As  As14  1  0.614471  0.967111  0.744282  1
  As  As15  1  0.230635  0.774416  0.009751  1
  O  O16  1  0.829562  0.030287  0.592597  1
  O  O17  1  0.404895  0.641931  0.618356  1
  O  O18  1  0.970790  0.659449  0.615566  1
  O  O19  1  0.760606  0.609457  0.377172  1
  O  O20  1  0.824091  0.568948  0.091417  1
  O  O21  1  0.625840  0.943098  0.364454  1
  O  O22  1  0.374160  0.056902  0.635546  1
  O  O23  1  0.876571  0.234413  0.157936  1
  O  O24  1  0.029210  0.340551  0.384434  1
  O  O25  1  0.123429  0.765587  0.842064  1
  O  O26  1  0.170438  0.969713  0.407403  1
  O  O27  1  0.010023  0.198992  0.872224  1
  O  O28  1  0.685320  0.438771  0.910634  1
  O  O29  1  0.378589  0.231510  0.242092  1
  O  O30  1  0.175909  0.431052  0.908583  1
  O  O31  1  0.595105  0.358069  0.381644  1
  O  O32  1  0.621411  0.768490  0.757908  1
  O  O33  1  0.314680  0.561229  0.089366  1
  O  O34  1  0.239394  0.390543  0.622828  1
  O  O35  1  0.989977  0.801008  0.127776  1
