# generated using pymatgen
data_Li2Mn3(BO3)3
_symmetry_space_group_name_H-M   'P 1'
_cell_length_a   6.30120894
_cell_length_b   8.16399267
_cell_length_c   8.72027543
_cell_angle_alpha   117.53234419
_cell_angle_beta   108.88942665
_cell_angle_gamma   90.89181903
_symmetry_Int_Tables_number   1
_chemical_formula_structural   Li2Mn3(BO3)3
_chemical_formula_sum   'Li4 Mn6 B6 O18'
_cell_volume   369.00109340
_cell_formula_units_Z   2
loop_
 _symmetry_equiv_pos_site_id
 _symmetry_equiv_pos_as_xyz
  1  'x, y, z'
loop_
 _atom_site_type_symbol
 _atom_site_label
 _atom_site_symmetry_multiplicity
 _atom_site_fract_x
 _atom_site_fract_y
 _atom_site_fract_z
 _atom_site_occupancy
  Li  Li0  1  0.587620  0.020013  0.719591  1
  Li  Li1  1  0.878978  0.279832  0.301511  1
  Li  Li2  1  0.740290  0.691669  0.982363  1
  Li  Li3  1  0.254152  0.692603  0.978965  1
  Mn  Mn4  1  0.858413  0.694125  0.654844  1
  Mn  Mn5  1  0.326432  0.618234  0.597227  1
  Mn  Mn6  1  0.490671  0.366665  0.017906  1
  Mn  Mn7  1  0.994775  0.335382  0.003004  1
  Mn  Mn8  1  0.677445  0.997982  0.376805  1
  Mn  Mn9  1  0.168927  0.003207  0.354811  1
  B  B10  1  0.587840  0.343493  0.679508  1
  B  B11  1  0.079587  0.343612  0.663909  1
  B  B12  1  0.990812  0.991143  0.000692  1
  B  B13  1  0.503494  0.982456  0.994852  1
  B  B14  1  0.926010  0.661584  0.330938  1
  B  B15  1  0.415158  0.675215  0.330292  1
  O  O16  1  0.909211  0.042401  0.864036  1
  O  O17  1  0.457739  0.084971  0.904827  1
  O  O18  1  0.516288  0.148139  0.559909  1
  O  O19  1  0.980139  0.155633  0.534458  1
  O  O20  1  0.687173  0.410185  0.868426  1
  O  O21  1  0.177723  0.407924  0.850527  1
  O  O22  1  0.070513  0.121655  0.186519  1
  O  O23  1  0.604498  0.078536  0.188977  1
  O  O24  1  0.072334  0.463957  0.589231  1
  O  O25  1  0.563893  0.469059  0.611734  1
  O  O26  1  0.983664  0.798434  0.940495  1
  O  O27  1  0.459073  0.786255  0.895125  1
  O  O28  1  0.831888  0.472379  0.225343  1
  O  O29  1  0.318303  0.490949  0.214264  1
  O  O30  1  0.077887  0.739407  0.517412  1
  O  O31  1  0.525859  0.747059  0.523300  1
  O  O32  1  0.871804  0.785464  0.262463  1
  O  O33  1  0.403243  0.800368  0.259405  1
