# generated using pymatgen
data_Li4VO4F
_symmetry_space_group_name_H-M   'P 1'
_cell_length_a   5.13342635
_cell_length_b   9.41238849
_cell_length_c   5.54866730
_cell_angle_alpha   90.00000000
_cell_angle_beta   116.69267407
_cell_angle_gamma   90.00000000
_symmetry_Int_Tables_number   1
_chemical_formula_structural   Li4VO4F
_chemical_formula_sum   'Li8 V2 O8 F2'
_cell_volume   239.52774611
_cell_formula_units_Z   2
loop_
 _symmetry_equiv_pos_site_id
 _symmetry_equiv_pos_as_xyz
  1  'x, y, z'
loop_
 _atom_site_type_symbol
 _atom_site_label
 _atom_site_symmetry_multiplicity
 _atom_site_fract_x
 _atom_site_fract_y
 _atom_site_fract_z
 _atom_site_occupancy
  Li  Li0  1  0.570226  0.522458  0.882466  1
  Li  Li1  1  0.398779  0.751277  0.535565  1
  Li  Li2  1  0.192217  0.495929  0.348480  1
  Li  Li3  1  0.258859  0.042222  0.570105  1
  Li  Li4  1  0.741141  0.542222  0.429895  1
  Li  Li5  1  0.807783  0.995929  0.651520  1
  Li  Li6  1  0.601221  0.251277  0.464435  1
  Li  Li7  1  0.429774  0.022458  0.117534  1
  V  V8  1  0.875738  0.217977  0.114970  1
  V  V9  1  0.124262  0.717977  0.885030  1
  O  O10  1  0.633752  0.145752  0.802283  1
  O  O11  1  0.774096  0.700732  0.846905  1
  O  O12  1  0.151296  0.612891  0.636112  1
  O  O13  1  0.185947  0.894975  0.818388  1
  O  O14  1  0.814053  0.394975  0.181612  1
  O  O15  1  0.848704  0.112891  0.363888  1
  O  O16  1  0.225904  0.200732  0.153095  1
  O  O17  1  0.366248  0.645752  0.197717  1
  F  F18  1  0.562513  0.427525  0.581794  1
  F  F19  1  0.437487  0.927525  0.418206  1
