# generated using pymatgen
data_Li4Ti3Cr2Co3O16
_symmetry_space_group_name_H-M   'P 1'
_cell_length_a   5.85483194
_cell_length_b   5.85483194
_cell_length_c   9.57533431
_cell_angle_alpha   89.54772737
_cell_angle_beta   90.45227263
_cell_angle_gamma   119.53884913
_symmetry_Int_Tables_number   1
_chemical_formula_structural   Li4Ti3Cr2Co3O16
_chemical_formula_sum   'Li4 Ti3 Cr2 Co3 O16'
_cell_volume   285.55826013
_cell_formula_units_Z   1
loop_
 _symmetry_equiv_pos_site_id
 _symmetry_equiv_pos_as_xyz
  1  'x, y, z'
loop_
 _atom_site_type_symbol
 _atom_site_label
 _atom_site_symmetry_multiplicity
 _atom_site_fract_x
 _atom_site_fract_y
 _atom_site_fract_z
 _atom_site_occupancy
  Li  Li0  1  0.330742  0.669258  0.109584  1
  Li  Li1  1  0.010977  0.989023  0.005874  1
  Li  Li2  1  0.006661  0.993339  0.501616  1
  Li  Li3  1  0.663712  0.336288  0.603251  1
  Ti  Ti4  1  0.165385  0.338465  0.785513  1
  Ti  Ti5  1  0.661535  0.834615  0.785513  1
  Ti  Ti6  1  0.827969  0.172031  0.283183  1
  Cr  Cr7  1  0.332302  0.667698  0.514539  1
  Cr  Cr8  1  0.664146  0.335854  0.017536  1
  Co  Co9  1  0.169263  0.830737  0.787993  1
  Co  Co10  1  0.336236  0.172379  0.290631  1
  Co  Co11  1  0.827621  0.663764  0.290631  1
  O  O12  1  0.161244  0.329337  0.399074  1
  O  O13  1  0.480144  0.519856  0.663066  1
  O  O14  1  0.332535  0.667465  0.894614  1
  O  O15  1  0.003920  0.996080  0.689587  1
  O  O16  1  0.001395  0.998605  0.192229  1
  O  O17  1  0.670663  0.838756  0.399074  1
  O  O18  1  0.038567  0.515460  0.658057  1
  O  O19  1  0.484540  0.961433  0.658057  1
  O  O20  1  0.835157  0.164843  0.895237  1
  O  O21  1  0.166966  0.833034  0.393783  1
  O  O22  1  0.524240  0.038448  0.158512  1
  O  O23  1  0.961552  0.475760  0.158512  1
  O  O24  1  0.669386  0.330614  0.398519  1
  O  O25  1  0.328482  0.171071  0.897077  1
  O  O26  1  0.518950  0.481050  0.163476  1
  O  O27  1  0.828929  0.671518  0.897077  1
