# generated using pymatgen
data_Na2CuH20C12(N2O3)6
_symmetry_space_group_name_H-M   'P 1'
_cell_length_a   6.86170255
_cell_length_b   10.49860757
_cell_length_c   10.54435234
_cell_angle_alpha   117.14777549
_cell_angle_beta   83.99385196
_cell_angle_gamma   108.82543282
_symmetry_Int_Tables_number   1
_chemical_formula_structural   Na2CuH20C12(N2O3)6
_chemical_formula_sum   'Na2 Cu1 H20 C12 N12 O18'
_cell_volume   638.93835001
_cell_formula_units_Z   1
loop_
 _symmetry_equiv_pos_site_id
 _symmetry_equiv_pos_as_xyz
  1  'x, y, z'
loop_
 _atom_site_type_symbol
 _atom_site_label
 _atom_site_symmetry_multiplicity
 _atom_site_fract_x
 _atom_site_fract_y
 _atom_site_fract_z
 _atom_site_occupancy
  Na  Na0  1  0.757345  0.463866  0.397086  1
  Na  Na1  1  0.242655  0.536134  0.602914  1
  Cu  Cu2  1  0.000000  0.000000  0.000000  1
  H  H3  1  0.122254  0.863155  0.367323  1
  H  H4  1  0.877746  0.136845  0.632677  1
  H  H5  1  0.773249  0.508011  0.012856  1
  H  H6  1  0.226751  0.491989  0.987144  1
  H  H7  1  0.697718  0.881873  0.560302  1
  H  H8  1  0.302282  0.118127  0.439698  1
  H  H9  1  0.336846  0.532987  0.212277  1
  H  H10  1  0.663154  0.467013  0.787723  1
  H  H11  1  0.698251  0.114357  0.127407  1
  H  H12  1  0.301749  0.885643  0.872593  1
  H  H13  1  0.683529  0.974546  0.165494  1
  H  H14  1  0.316471  0.025454  0.834506  1
  H  H15  1  0.082686  0.294908  0.322940  1
  H  H16  1  0.917314  0.705092  0.677060  1
  H  H17  1  0.928600  0.240767  0.419971  1
  H  H18  1  0.071400  0.759233  0.580029  1
  H  H19  1  0.428181  0.182678  0.180461  1
  H  H20  1  0.571819  0.817322  0.819539  1
  H  H21  1  0.560674  0.269013  0.096572  1
  H  H22  1  0.439326  0.730987  0.903428  1
  C  C23  1  0.099098  0.914561  0.199633  1
  C  C24  1  0.900902  0.085439  0.800367  1
  C  C25  1  0.945814  0.670512  0.198586  1
  C  C26  1  0.054186  0.329488  0.801414  1
  C  C27  1  0.895126  0.710219  0.995750  1
  C  C28  1  0.104874  0.289781  0.004250  1
  C  C29  1  0.675478  0.934858  0.392428  1
  C  C30  1  0.324522  0.065142  0.607572  1
  C  C31  1  0.513414  0.693814  0.395507  1
  C  C32  1  0.486586  0.306186  0.604493  1
  C  C33  1  0.471100  0.734347  0.191910  1
  C  C34  1  0.528900  0.265653  0.808090  1
  N  N35  1  0.008199  0.857884  0.068446  1
  N  N36  1  0.991801  0.142116  0.931554  1
  N  N37  1  0.063105  0.819636  0.262906  1
  N  N38  1  0.936895  0.180364  0.737094  1
  N  N39  1  0.870334  0.619322  0.062522  1
  N  N40  1  0.129666  0.380678  0.937478  1
  N  N41  1  0.594737  0.879042  0.258750  1
  N  N42  1  0.405263  0.120958  0.741250  1
  N  N43  1  0.636844  0.840407  0.457275  1
  N  N44  1  0.363156  0.159593  0.542725  1
  N  N45  1  0.428774  0.645489  0.263229  1
  N  N46  1  0.571226  0.354511  0.736771  1
  O  O47  1  0.209215  0.049540  0.263716  1
  O  O48  1  0.790785  0.950460  0.736284  1
  O  O49  1  0.910157  0.588394  0.258714  1
  O  O50  1  0.089843  0.411606  0.741286  1
  O  O51  1  0.813788  0.657818  0.874166  1
  O  O52  1  0.186212  0.342182  0.125834  1
  O  O53  1  0.786893  0.069511  0.460364  1
  O  O54  1  0.213107  0.930489  0.539636  1
  O  O55  1  0.482506  0.610365  0.454434  1
  O  O56  1  0.517494  0.389635  0.545566  1
  O  O57  1  0.392730  0.676686  0.067545  1
  O  O58  1  0.607270  0.323314  0.932455  1
  O  O59  1  0.745352  0.025257  0.101459  1
  O  O60  1  0.254648  0.974743  0.898541  1
  O  O61  1  0.003819  0.331264  0.407483  1
  O  O62  1  0.996181  0.668736  0.592517  1
  O  O63  1  0.568120  0.244955  0.175741  1
  O  O64  1  0.431880  0.755045  0.824259  1
