# generated using pymatgen
data_Fe5O3F7
_symmetry_space_group_name_H-M   'P 1'
_cell_length_a   4.79913711
_cell_length_b   4.80318134
_cell_length_c   15.56764570
_cell_angle_alpha   89.53963771
_cell_angle_beta   89.96590835
_cell_angle_gamma   88.57138936
_symmetry_Int_Tables_number   1
_chemical_formula_structural   Fe5O3F7
_chemical_formula_sum   'Fe10 O6 F14'
_cell_volume   358.72860822
_cell_formula_units_Z   2
loop_
 _symmetry_equiv_pos_site_id
 _symmetry_equiv_pos_as_xyz
  1  'x, y, z'
loop_
 _atom_site_type_symbol
 _atom_site_label
 _atom_site_symmetry_multiplicity
 _atom_site_fract_x
 _atom_site_fract_y
 _atom_site_fract_z
 _atom_site_occupancy
  Fe  Fe0  1  0.977863  0.039322  0.807535  1
  Fe  Fe1  1  0.000000  0.000000  0.000000  1
  Fe  Fe2  1  0.022137  0.960678  0.192465  1
  Fe  Fe3  1  0.962285  0.037152  0.398872  1
  Fe  Fe4  1  0.037715  0.962848  0.601128  1
  Fe  Fe5  1  0.473399  0.462361  0.896856  1
  Fe  Fe6  1  0.494041  0.496245  0.300184  1
  Fe  Fe7  1  0.526601  0.537639  0.103144  1
  Fe  Fe8  1  0.500000  0.500000  0.500000  1
  Fe  Fe9  1  0.505959  0.503755  0.699816  1
  O  O10  1  0.833207  0.823183  0.094298  1
  O  O11  1  0.312433  0.692731  0.208716  1
  O  O12  1  0.331309  0.671504  0.599929  1
  O  O13  1  0.687567  0.307269  0.791284  1
  O  O14  1  0.668691  0.328496  0.400071  1
  O  O15  1  0.166793  0.176817  0.905702  1
  F  F16  1  0.793226  0.802381  0.900552  1
  F  F17  1  0.801394  0.799506  0.295172  1
  F  F18  1  0.794771  0.793917  0.500099  1
  F  F19  1  0.804347  0.803054  0.705842  1
  F  F20  1  0.284341  0.711938  0.792009  1
  F  F21  1  0.294183  0.705221  0.998349  1
  F  F22  1  0.284744  0.712929  0.401196  1
  F  F23  1  0.705817  0.294779  0.001651  1
  F  F24  1  0.715659  0.288062  0.207991  1
  F  F25  1  0.715256  0.287071  0.598804  1
  F  F26  1  0.195653  0.196946  0.294158  1
  F  F27  1  0.206774  0.197619  0.099448  1
  F  F28  1  0.198606  0.200494  0.704828  1
  F  F29  1  0.205229  0.206083  0.499901  1
