# generated using pymatgen
data_Mg3Fe3O8
_symmetry_space_group_name_H-M   'P 1'
_cell_length_a   6.00920927
_cell_length_b   6.00920927
_cell_length_c   6.00920927
_cell_angle_alpha   59.78115118
_cell_angle_beta   59.78115118
_cell_angle_gamma   59.78115118
_symmetry_Int_Tables_number   1
_chemical_formula_structural   Mg3Fe3O8
_chemical_formula_sum   'Mg3 Fe3 O8'
_cell_volume   152.67704952
_cell_formula_units_Z   1
loop_
 _symmetry_equiv_pos_site_id
 _symmetry_equiv_pos_as_xyz
  1  'x, y, z'
loop_
 _atom_site_type_symbol
 _atom_site_label
 _atom_site_symmetry_multiplicity
 _atom_site_fract_x
 _atom_site_fract_y
 _atom_site_fract_z
 _atom_site_occupancy
  Mg  Mg0  1  0.500000  0.000000  0.000000  1
  Mg  Mg1  1  0.000000  0.500000  0.000000  1
  Mg  Mg2  1  0.000000  0.000000  0.500000  1
  Fe  Fe3  1  0.631818  0.631818  0.631818  1
  Fe  Fe4  1  0.368182  0.368182  0.368182  1
  Fe  Fe5  1  0.000000  1.000000  0.000000  1
  O  O6  1  0.237870  0.237870  0.766763  1
  O  O7  1  0.242244  0.242244  0.242244  1
  O  O8  1  0.766763  0.237870  0.237870  1
  O  O9  1  0.237870  0.766763  0.237870  1
  O  O10  1  0.233237  0.762130  0.762130  1
  O  O11  1  0.762130  0.233237  0.762130  1
  O  O12  1  0.762130  0.762130  0.233237  1
  O  O13  1  0.757756  0.757756  0.757756  1
