# generated using pymatgen
data_AgGeO3
_symmetry_space_group_name_H-M   'P 1'
_cell_length_a   3.17289292
_cell_length_b   8.85007555
_cell_length_c   10.40786126
_cell_angle_alpha   90.00000000
_cell_angle_beta   90.00000000
_cell_angle_gamma   90.00000000
_symmetry_Int_Tables_number   1
_chemical_formula_structural   AgGeO3
_chemical_formula_sum   'Ag4 Ge4 O12'
_cell_volume   292.25630447
_cell_formula_units_Z   4
loop_
 _symmetry_equiv_pos_site_id
 _symmetry_equiv_pos_as_xyz
  1  'x, y, z'
loop_
 _atom_site_type_symbol
 _atom_site_label
 _atom_site_symmetry_multiplicity
 _atom_site_fract_x
 _atom_site_fract_y
 _atom_site_fract_z
 _atom_site_occupancy
  Ag  Ag0  1  0.501954  0.000000  0.000000  1
  Ag  Ag1  1  0.503255  0.500000  0.000000  1
  Ag  Ag2  1  0.496745  0.000000  0.500000  1
  Ag  Ag3  1  0.498046  0.500000  0.500000  1
  Ge  Ge4  1  0.994304  0.245915  0.787548  1
  Ge  Ge5  1  0.005696  0.745915  0.712452  1
  Ge  Ge6  1  0.005696  0.254085  0.287548  1
  Ge  Ge7  1  0.994304  0.754085  0.212452  1
  O  O8  1  0.001329  0.407768  0.888764  1
  O  O9  1  0.999932  0.077638  0.880201  1
  O  O10  1  0.487585  0.748932  0.800623  1
  O  O11  1  0.512415  0.248932  0.699377  1
  O  O12  1  0.000068  0.577638  0.619799  1
  O  O13  1  0.998671  0.907768  0.611236  1
  O  O14  1  0.998671  0.092232  0.388764  1
  O  O15  1  0.000068  0.422362  0.380201  1
  O  O16  1  0.512415  0.751068  0.300623  1
  O  O17  1  0.487585  0.251068  0.199377  1
  O  O18  1  0.999932  0.922362  0.119799  1
  O  O19  1  0.001329  0.592232  0.111236  1
