# generated using pymatgen
data_Er2GeO5
_symmetry_space_group_name_H-M   'P 1'
_cell_length_a   8.00020452
_cell_length_b   8.00020452
_cell_length_c   11.27475729
_cell_angle_alpha   86.72893910
_cell_angle_beta   93.27106090
_cell_angle_gamma   91.15377985
_symmetry_Int_Tables_number   1
_chemical_formula_structural   Er2GeO5
_chemical_formula_sum   'Er12 Ge6 O30'
_cell_volume   719.16874237
_cell_formula_units_Z   6
loop_
 _symmetry_equiv_pos_site_id
 _symmetry_equiv_pos_as_xyz
  1  'x, y, z'
loop_
 _atom_site_type_symbol
 _atom_site_label
 _atom_site_symmetry_multiplicity
 _atom_site_fract_x
 _atom_site_fract_y
 _atom_site_fract_z
 _atom_site_occupancy
  Er  Er0  1  0.005766  0.701615  0.936680  1
  Er  Er1  1  0.997752  0.360298  0.751666  1
  Er  Er2  1  0.298385  0.994234  0.436680  1
  Er  Er3  1  0.345870  0.372040  0.571710  1
  Er  Er4  1  0.372040  0.345870  0.928290  1
  Er  Er5  1  0.360298  0.997752  0.748334  1
  Er  Er6  1  0.639702  0.002248  0.251666  1
  Er  Er7  1  0.627960  0.654130  0.071710  1
  Er  Er8  1  0.654130  0.627960  0.428290  1
  Er  Er9  1  0.701615  0.005766  0.563320  1
  Er  Er10  1  0.002248  0.639702  0.248334  1
  Er  Er11  1  0.994234  0.298385  0.063320  1
  Ge  Ge12  1  0.064099  0.725187  0.546089  1
  Ge  Ge13  1  0.274813  0.935901  0.046089  1
  Ge  Ge14  1  0.359319  0.359319  0.250000  1
  Ge  Ge15  1  0.640681  0.640681  0.750000  1
  Ge  Ge16  1  0.725187  0.064099  0.953911  1
  Ge  Ge17  1  0.935901  0.274813  0.453911  1
  O  O18  1  0.122355  0.457401  0.923143  1
  O  O19  1  0.122084  0.525506  0.607793  1
  O  O20  1  0.116752  0.813007  0.115928  1
  O  O21  1  0.142186  0.401093  0.221317  1
  O  O22  1  0.186993  0.883248  0.615928  1
  O  O23  1  0.151437  0.227719  0.460693  1
  O  O24  1  0.142110  0.762604  0.399082  1
  O  O25  1  0.258932  0.258932  0.750000  1
  O  O26  1  0.227719  0.151437  0.039307  1
  O  O27  1  0.237396  0.857890  0.899082  1
  O  O28  1  0.401093  0.142186  0.278683  1
  O  O29  1  0.440372  0.456680  0.381718  1
  O  O30  1  0.457401  0.122355  0.576857  1
  O  O31  1  0.474494  0.877916  0.107793  1
  O  O32  1  0.456680  0.440372  0.118282  1
  O  O33  1  0.543320  0.559628  0.881718  1
  O  O34  1  0.525506  0.122084  0.892207  1
  O  O35  1  0.542599  0.877645  0.423143  1
  O  O36  1  0.559628  0.543320  0.618282  1
  O  O37  1  0.598907  0.857814  0.721317  1
  O  O38  1  0.762604  0.142110  0.100918  1
  O  O39  1  0.772281  0.848563  0.960693  1
  O  O40  1  0.741068  0.741068  0.250000  1
  O  O41  1  0.857890  0.237396  0.600918  1
  O  O42  1  0.848563  0.772281  0.539307  1
  O  O43  1  0.813007  0.116752  0.384072  1
  O  O44  1  0.857814  0.598907  0.778683  1
  O  O45  1  0.883248  0.186993  0.884072  1
  O  O46  1  0.877916  0.474494  0.392207  1
  O  O47  1  0.877645  0.542599  0.076857  1
