# generated using pymatgen
data_TmTlO2
_symmetry_space_group_name_H-M   'P 1'
_cell_length_a   6.81045347
_cell_length_b   6.81045347
_cell_length_c   6.81045347
_cell_angle_alpha   29.29582972
_cell_angle_beta   29.29582972
_cell_angle_gamma   29.29582972
_symmetry_Int_Tables_number   1
_chemical_formula_structural   TmTlO2
_chemical_formula_sum   'Tm1 Tl1 O2'
_cell_volume   66.92535520
_cell_formula_units_Z   1
loop_
 _symmetry_equiv_pos_site_id
 _symmetry_equiv_pos_as_xyz
  1  'x, y, z'
loop_
 _atom_site_type_symbol
 _atom_site_label
 _atom_site_symmetry_multiplicity
 _atom_site_fract_x
 _atom_site_fract_y
 _atom_site_fract_z
 _atom_site_occupancy
  Tm  Tm0  1  0.500000  0.500000  0.500000  1
  Tl  Tl1  1  0.000000  0.000000  0.000000  1
  O  O2  1  0.222863  0.222863  0.222863  1
  O  O3  1  0.777137  0.777137  0.777137  1
