# generated using pymatgen
data_LiVFe(P2O7)2
_symmetry_space_group_name_H-M   'P 1'
_cell_length_a   4.89279101
_cell_length_b   6.98672988
_cell_length_c   8.17001346
_cell_angle_alpha   90.15258761
_cell_angle_beta   90.80796004
_cell_angle_gamma   106.93199391
_symmetry_Int_Tables_number   1
_chemical_formula_structural   LiVFe(P2O7)2
_chemical_formula_sum   'Li1 V1 Fe1 P4 O14'
_cell_volume   267.14860458
_cell_formula_units_Z   1
loop_
 _symmetry_equiv_pos_site_id
 _symmetry_equiv_pos_as_xyz
  1  'x, y, z'
loop_
 _atom_site_type_symbol
 _atom_site_label
 _atom_site_symmetry_multiplicity
 _atom_site_fract_x
 _atom_site_fract_y
 _atom_site_fract_z
 _atom_site_occupancy
  Li  Li0  1  0.155377  0.677315  0.627825  1
  V  V1  1  0.777635  0.276197  0.487377  1
  Fe  Fe2  1  0.202023  0.732658  0.997254  1
  P  P3  1  0.598252  0.489602  0.812488  1
  P  P4  1  0.767920  0.910514  0.217971  1
  P  P5  1  0.232880  0.101162  0.712718  1
  P  P6  1  0.382833  0.522695  0.308639  1
  O  O7  1  0.982222  0.175855  0.653409  1
  O  O8  1  0.849842  0.103852  0.320750  1
  O  O9  1  0.818639  0.542528  0.948310  1
  O  O10  1  0.741032  0.489452  0.643328  1
  O  O11  1  0.567408  0.378713  0.333264  1
  O  O12  1  0.425614  0.086435  0.567692  1
  O  O13  1  0.414256  0.258711  0.844508  1
  O  O14  1  0.587780  0.743991  0.349227  1
  O  O15  1  0.575813  0.915939  0.071279  1
  O  O16  1  0.389078  0.614765  0.804749  1
  O  O17  1  0.270447  0.513163  0.135298  1
  O  O18  1  0.150939  0.490399  0.440465  1
  O  O19  1  0.130494  0.900516  0.797716  1
  O  O20  1  0.035022  0.853465  0.175830  1
