# generated using pymatgen
data_Li4V3Co(PO4)4
_symmetry_space_group_name_H-M   'P 1'
_cell_length_a   4.74765333
_cell_length_b   6.05938970
_cell_length_c   10.43804495
_cell_angle_alpha   90.00000000
_cell_angle_beta   90.15639831
_cell_angle_gamma   90.00000000
_symmetry_Int_Tables_number   1
_chemical_formula_structural   Li4V3Co(PO4)4
_chemical_formula_sum   'Li4 V3 Co1 P4 O16'
_cell_volume   300.27932329
_cell_formula_units_Z   1
loop_
 _symmetry_equiv_pos_site_id
 _symmetry_equiv_pos_as_xyz
  1  'x, y, z'
loop_
 _atom_site_type_symbol
 _atom_site_label
 _atom_site_symmetry_multiplicity
 _atom_site_fract_x
 _atom_site_fract_y
 _atom_site_fract_z
 _atom_site_occupancy
  Li  Li0  1  0.998560  0.251701  0.997912  1
  Li  Li1  1  0.998560  0.748299  0.997912  1
  Li  Li2  1  0.500042  0.749911  0.500817  1
  Li  Li3  1  0.500042  0.250089  0.500817  1
  V  V4  1  0.514928  0.500000  0.225135  1
  V  V5  1  0.482926  0.000000  0.774795  1
  V  V6  1  0.016805  0.000000  0.276114  1
  Co  Co7  1  0.988139  0.500000  0.725061  1
  P  P8  1  0.918203  0.000000  0.593549  1
  P  P9  1  0.585501  0.000000  0.092357  1
  P  P10  1  0.411406  0.500000  0.905496  1
  P  P11  1  0.084497  0.500000  0.409382  1
  O  O12  1  0.793557  0.000000  0.456198  1
  O  O13  1  0.783395  0.203950  0.664597  1
  O  O14  1  0.783395  0.796050  0.664597  1
  O  O15  1  0.761737  0.500000  0.403515  1
  O  O16  1  0.734130  0.500000  0.901610  1
  O  O17  1  0.722380  0.203532  0.162066  1
  O  O18  1  0.722380  0.796468  0.162066  1
  O  O19  1  0.706305  0.000000  0.953989  1
  O  O20  1  0.292848  0.500000  0.043948  1
  O  O21  1  0.272720  0.703942  0.834980  1
  O  O22  1  0.272720  0.296058  0.834980  1
  O  O23  1  0.262980  0.000000  0.096309  1
  O  O24  1  0.241840  0.000000  0.596017  1
  O  O25  1  0.222306  0.702786  0.338982  1
  O  O26  1  0.222306  0.297214  0.338982  1
  O  O27  1  0.205396  0.500000  0.547818  1
