# generated using pymatgen
data_LiFeP(H6O5)2
_symmetry_space_group_name_H-M   'P 1'
_cell_length_a   6.09562567
_cell_length_b   6.94341090
_cell_length_c   10.79784329
_cell_angle_alpha   90.00000000
_cell_angle_beta   90.00000000
_cell_angle_gamma   90.00000000
_symmetry_Int_Tables_number   1
_chemical_formula_structural   LiFeP(H6O5)2
_chemical_formula_sum   'Li2 Fe2 P2 H24 O20'
_cell_volume   457.01260283
_cell_formula_units_Z   2
loop_
 _symmetry_equiv_pos_site_id
 _symmetry_equiv_pos_as_xyz
  1  'x, y, z'
loop_
 _atom_site_type_symbol
 _atom_site_label
 _atom_site_symmetry_multiplicity
 _atom_site_fract_x
 _atom_site_fract_y
 _atom_site_fract_z
 _atom_site_occupancy
  Li  Li0  1  0.037990  0.000000  0.938937  1
  Li  Li1  1  0.962010  0.500000  0.438937  1
  Fe  Fe2  1  0.112730  0.000000  0.644459  1
  Fe  Fe3  1  0.887270  0.500000  0.144459  1
  P  P4  1  0.486702  0.000000  0.264328  1
  P  P5  1  0.513298  0.500000  0.764328  1
  H  H6  1  0.761910  0.000000  0.471768  1
  H  H7  1  0.660835  0.000000  0.611291  1
  H  H8  1  0.512230  0.881763  0.767796  1
  H  H9  1  0.275054  0.788923  0.454579  1
  H  H10  1  0.673389  0.836149  0.074034  1
  H  H11  1  0.869859  0.815289  0.299970  1
  H  H12  1  0.122543  0.748884  0.289830  1
  H  H13  1  0.877457  0.751116  0.789830  1
  H  H14  1  0.130141  0.684711  0.799970  1
  H  H15  1  0.326611  0.663851  0.574034  1
  H  H16  1  0.724946  0.711077  0.954579  1
  H  H17  1  0.487770  0.618237  0.267796  1
  H  H18  1  0.339165  0.500000  0.111291  1
  H  H19  1  0.238090  0.500000  0.971768  1
  H  H20  1  0.487770  0.381763  0.267796  1
  H  H21  1  0.724946  0.288923  0.954579  1
  H  H22  1  0.326611  0.336149  0.574034  1
  H  H23  1  0.130141  0.315289  0.799970  1
  H  H24  1  0.877457  0.248884  0.789830  1
  H  H25  1  0.122543  0.251116  0.289830  1
  H  H26  1  0.869859  0.184711  0.299970  1
  H  H27  1  0.673389  0.163851  0.074034  1
  H  H28  1  0.275054  0.211077  0.454579  1
  H  H29  1  0.512230  0.118237  0.767796  1
  O  O30  1  0.493551  0.000000  0.121709  1
  O  O31  1  0.727413  0.000000  0.316948  1
  O  O32  1  0.453806  0.000000  0.724161  1
  O  O33  1  0.799263  0.000000  0.561907  1
  O  O34  1  0.369599  0.816462  0.314965  1
  O  O35  1  0.032433  0.803864  0.794675  1
  O  O36  1  0.207568  0.747528  0.535882  1
  O  O37  1  0.792432  0.752472  0.035882  1
  O  O38  1  0.967567  0.696136  0.294675  1
  O  O39  1  0.630401  0.683538  0.814965  1
  O  O40  1  0.506449  0.500000  0.621709  1
  O  O41  1  0.272587  0.500000  0.816948  1
  O  O42  1  0.200737  0.500000  0.061907  1
  O  O43  1  0.546194  0.500000  0.224161  1
  O  O44  1  0.630401  0.316462  0.814965  1
  O  O45  1  0.967567  0.303864  0.294675  1
  O  O46  1  0.792432  0.247528  0.035882  1
  O  O47  1  0.207568  0.252472  0.535882  1
  O  O48  1  0.032433  0.196136  0.794675  1
  O  O49  1  0.369599  0.183538  0.314965  1
