# generated using pymatgen
data_LiSbPO5
_symmetry_space_group_name_H-M   'P 1'
_cell_length_a   5.54287606
_cell_length_b   5.54287606
_cell_length_c   7.49339825
_cell_angle_alpha   73.82451363
_cell_angle_beta   106.17548637
_cell_angle_gamma   81.71113063
_symmetry_Int_Tables_number   1
_chemical_formula_structural   LiSbPO5
_chemical_formula_sum   'Li2 Sb2 P2 O10'
_cell_volume   206.12715789
_cell_formula_units_Z   2
loop_
 _symmetry_equiv_pos_site_id
 _symmetry_equiv_pos_as_xyz
  1  'x, y, z'
loop_
 _atom_site_type_symbol
 _atom_site_label
 _atom_site_symmetry_multiplicity
 _atom_site_fract_x
 _atom_site_fract_y
 _atom_site_fract_z
 _atom_site_occupancy
  Li  Li0  1  0.791813  0.587405  0.355798  1
  Li  Li1  1  0.412595  0.208187  0.855798  1
  Sb  Sb2  1  0.013850  0.990564  0.510252  1
  Sb  Sb3  1  0.009436  0.986150  0.010252  1
  P  P4  1  0.652560  0.659658  0.747543  1
  P  P5  1  0.340342  0.347440  0.247543  1
  O  O6  1  0.913588  0.900297  0.259475  1
  O  O7  1  0.847177  0.669613  0.629989  1
  O  O8  1  0.618795  0.297139  0.393182  1
  O  O9  1  0.673450  0.861680  0.857786  1
  O  O10  1  0.702861  0.381205  0.893182  1
  O  O11  1  0.274700  0.626263  0.097303  1
  O  O12  1  0.330387  0.152823  0.129989  1
  O  O13  1  0.373737  0.725300  0.597303  1
  O  O14  1  0.138320  0.326550  0.357786  1
  O  O15  1  0.099703  0.086412  0.759475  1
