# generated using pymatgen
data_Ge2N2O
_symmetry_space_group_name_H-M   'P 1'
_cell_length_a   5.86309106
_cell_length_b   5.86309106
_cell_length_c   14.37925266
_cell_angle_alpha   90.00000000
_cell_angle_beta   90.00000000
_cell_angle_gamma   120.00000000
_symmetry_Int_Tables_number   1
_chemical_formula_structural   Ge2N2O
_chemical_formula_sum   'Ge16 N16 O8'
_cell_volume   428.07535470
_cell_formula_units_Z   8
loop_
 _symmetry_equiv_pos_site_id
 _symmetry_equiv_pos_as_xyz
  1  'x, y, z'
loop_
 _atom_site_type_symbol
 _atom_site_label
 _atom_site_symmetry_multiplicity
 _atom_site_fract_x
 _atom_site_fract_y
 _atom_site_fract_z
 _atom_site_occupancy
  Ge  Ge0  1  0.666667  0.333333  0.954936  1
  Ge  Ge1  1  0.666667  0.333333  0.330574  1
  Ge  Ge2  1  0.500000  0.000000  0.500000  1
  Ge  Ge3  1  0.831549  0.168451  0.164923  1
  Ge  Ge4  1  0.663098  0.831549  0.835077  1
  Ge  Ge5  1  0.168451  0.336902  0.835077  1
  Ge  Ge6  1  0.000000  0.000000  0.629240  1
  Ge  Ge7  1  0.500000  0.500000  0.500000  1
  Ge  Ge8  1  0.000000  0.000000  0.370760  1
  Ge  Ge9  1  0.000000  0.000000  0.000000  1
  Ge  Ge10  1  0.336902  0.168451  0.164923  1
  Ge  Ge11  1  0.831549  0.663098  0.164923  1
  Ge  Ge12  1  0.168451  0.831549  0.835077  1
  Ge  Ge13  1  0.000000  0.500000  0.500000  1
  Ge  Ge14  1  0.333333  0.666667  0.669426  1
  Ge  Ge15  1  0.333333  0.666667  0.045064  1
  N  N16  1  0.666667  0.333333  0.087198  1
  N  N17  1  0.822681  0.177319  0.416523  1
  N  N18  1  0.843939  0.156061  0.912604  1
  N  N19  1  0.177319  0.354639  0.583477  1
  N  N20  1  0.645361  0.822681  0.583477  1
  N  N21  1  0.687878  0.843939  0.087396  1
  N  N22  1  0.156061  0.312122  0.087396  1
  N  N23  1  0.000000  0.000000  0.760538  1
  N  N24  1  0.000000  0.000000  0.239462  1
  N  N25  1  0.843939  0.687878  0.912604  1
  N  N26  1  0.312122  0.156061  0.912604  1
  N  N27  1  0.822681  0.645361  0.416523  1
  N  N28  1  0.354639  0.177319  0.416523  1
  N  N29  1  0.156061  0.843939  0.087396  1
  N  N30  1  0.177319  0.822681  0.583477  1
  N  N31  1  0.333333  0.666667  0.912802  1
  O  O32  1  0.520820  0.479180  0.242443  1
  O  O33  1  0.666667  0.333333  0.564419  1
  O  O34  1  0.958359  0.479180  0.242443  1
  O  O35  1  0.520820  0.041641  0.242443  1
  O  O36  1  0.041641  0.520820  0.757557  1
  O  O37  1  0.479180  0.958359  0.757557  1
  O  O38  1  0.333333  0.666667  0.435581  1
  O  O39  1  0.479180  0.520820  0.757557  1
