# generated using pymatgen
data_VH5Se2NO7
_symmetry_space_group_name_H-M   'P 1'
_cell_length_a   4.05603935
_cell_length_b   10.67105189
_cell_length_c   8.06411775
_cell_angle_alpha   90.00000000
_cell_angle_beta   98.54454489
_cell_angle_gamma   90.00000000
_symmetry_Int_Tables_number   1
_chemical_formula_structural   VH5Se2NO7
_chemical_formula_sum   'V2 H10 Se4 N2 O14'
_cell_volume   345.15877148
_cell_formula_units_Z   2
loop_
 _symmetry_equiv_pos_site_id
 _symmetry_equiv_pos_as_xyz
  1  'x, y, z'
loop_
 _atom_site_type_symbol
 _atom_site_label
 _atom_site_symmetry_multiplicity
 _atom_site_fract_x
 _atom_site_fract_y
 _atom_site_fract_z
 _atom_site_occupancy
  V  V0  1  0.567642  0.750000  0.545626  1
  V  V1  1  0.432358  0.250000  0.454374  1
  H  H2  1  0.500000  0.000000  0.000000  1
  H  H3  1  0.500000  0.500000  0.000000  1
  H  H4  1  0.021844  0.170588  0.988987  1
  H  H5  1  0.978156  0.670588  0.011013  1
  H  H6  1  0.978156  0.829412  0.011013  1
  H  H7  1  0.021844  0.329412  0.988987  1
  H  H8  1  0.687726  0.250000  0.897734  1
  H  H9  1  0.312274  0.750000  0.102266  1
  H  H10  1  0.773444  0.250000  0.108078  1
  H  H11  1  0.226556  0.750000  0.891922  1
  Se  Se12  1  0.298256  0.009782  0.689964  1
  Se  Se13  1  0.701744  0.509782  0.310036  1
  Se  Se14  1  0.701744  0.990218  0.310036  1
  Se  Se15  1  0.298256  0.490218  0.689964  1
  N  N16  1  0.876387  0.250000  0.997779  1
  N  N17  1  0.123613  0.750000  0.002221  1
  O  O18  1  0.581736  0.116952  0.629639  1
  O  O19  1  0.418264  0.616952  0.370361  1
  O  O20  1  0.418264  0.883048  0.370361  1
  O  O21  1  0.581736  0.383048  0.629639  1
  O  O22  1  0.543052  0.875833  0.729383  1
  O  O23  1  0.456948  0.375833  0.270617  1
  O  O24  1  0.456948  0.124167  0.270617  1
  O  O25  1  0.543052  0.624167  0.729383  1
  O  O26  1  0.299850  0.054598  0.897735  1
  O  O27  1  0.700150  0.554598  0.102265  1
  O  O28  1  0.700150  0.945402  0.102265  1
  O  O29  1  0.299850  0.445402  0.897735  1
  O  O30  1  0.978920  0.750000  0.538579  1
  O  O31  1  0.021080  0.250000  0.461421  1
