# generated using pymatgen
data_Li24TiCr11O36
_symmetry_space_group_name_H-M   'P 1'
_cell_length_a   8.74595356
_cell_length_b   8.74595356
_cell_length_c   9.75834019
_cell_angle_alpha   81.81706371
_cell_angle_beta   98.18293629
_cell_angle_gamma   120.23132326
_symmetry_Int_Tables_number   1
_chemical_formula_structural   Li24TiCr11O36
_chemical_formula_sum   'Li24 Ti1 Cr11 O36'
_cell_volume   636.16768965
_cell_formula_units_Z   1
loop_
 _symmetry_equiv_pos_site_id
 _symmetry_equiv_pos_as_xyz
  1  'x, y, z'
loop_
 _atom_site_type_symbol
 _atom_site_label
 _atom_site_symmetry_multiplicity
 _atom_site_fract_x
 _atom_site_fract_y
 _atom_site_fract_z
 _atom_site_occupancy
  Li  Li0  1  0.993020  0.828470  0.250667  1
  Li  Li1  1  0.749921  0.749921  0.000000  1
  Li  Li2  1  0.835561  0.667969  0.750163  1
  Li  Li3  1  0.916528  0.584144  0.499978  1
  Li  Li4  1  0.672775  0.503550  0.250219  1
  Li  Li5  1  0.000621  0.499358  0.249729  1
  Li  Li6  1  0.836430  0.339653  0.749384  1
  Li  Li7  1  0.494142  0.325028  0.750485  1
  Li  Li8  1  0.249503  0.249503  0.500000  1
  Li  Li9  1  0.662166  0.161699  0.248607  1
  Li  Li10  1  0.334457  0.169352  0.250785  1
  Li  Li11  1  0.417077  0.083050  0.000259  1
  Li  Li12  1  0.172845  0.005374  0.749483  1
  Li  Li13  1  0.499358  0.000621  0.750271  1
  Li  Li14  1  0.828470  0.993020  0.749333  1
  Li  Li15  1  0.584144  0.916528  0.500022  1
  Li  Li16  1  0.339653  0.836430  0.250616  1
  Li  Li17  1  0.667969  0.835561  0.249837  1
  Li  Li18  1  0.503550  0.672775  0.749781  1
  Li  Li19  1  0.161699  0.662166  0.751393  1
  Li  Li20  1  0.325028  0.494142  0.249515  1
  Li  Li21  1  0.083050  0.417077  0.999741  1
  Li  Li22  1  0.169352  0.334457  0.749215  1
  Li  Li23  1  0.005374  0.172845  0.250517  1
  Ti  Ti24  1  0.582680  0.582680  0.500000  1
  Cr  Cr25  1  0.921954  0.921954  0.500000  1
  Cr  Cr26  1  0.424093  0.424093  0.000000  1
  Cr  Cr27  1  0.748174  0.409795  0.998636  1
  Cr  Cr28  1  0.581560  0.246913  0.501511  1
  Cr  Cr29  1  0.911145  0.249414  0.494717  1
  Cr  Cr30  1  0.089090  0.089090  0.000000  1
  Cr  Cr31  1  0.752341  0.079082  0.000612  1
  Cr  Cr32  1  0.249414  0.911145  0.505283  1
  Cr  Cr33  1  0.079082  0.752341  0.999388  1
  Cr  Cr34  1  0.409795  0.748174  0.001364  1
  Cr  Cr35  1  0.246913  0.581560  0.498489  1
  O  O36  1  0.977494  0.879270  0.888037  1
  O  O37  1  0.786684  0.717409  0.384635  1
  O  O38  1  0.885495  0.619122  0.113483  1
  O  O39  1  0.947147  0.545373  0.884757  1
  O  O40  1  0.613958  0.522447  0.886843  1
  O  O41  1  0.691950  0.450474  0.612791  1
  O  O42  1  0.554964  0.312475  0.112530  1
  O  O43  1  0.476406  0.378266  0.387331  1
  O  O44  1  0.854989  0.281182  0.111105  1
  O  O45  1  0.788504  0.358855  0.386807  1
  O  O46  1  0.286261  0.217693  0.886382  1
  O  O47  1  0.644199  0.215095  0.887876  1
  O  O48  1  0.955187  0.187226  0.886977  1
  O  O49  1  0.711528  0.145035  0.611240  1
  O  O50  1  0.379871  0.118006  0.617239  1
  O  O51  1  0.879270  0.977494  0.111963  1
  O  O52  1  0.449785  0.049821  0.387855  1
  O  O53  1  0.809971  0.052271  0.386372  1
  O  O54  1  0.187226  0.955187  0.113023  1
  O  O55  1  0.545373  0.947147  0.115243  1
  O  O56  1  0.115139  0.021513  0.389050  1
  O  O57  1  0.619122  0.885495  0.886517  1
  O  O58  1  0.281182  0.854989  0.888895  1
  O  O59  1  0.052271  0.809971  0.613628  1
  O  O60  1  0.358855  0.788504  0.613193  1
  O  O61  1  0.717409  0.786684  0.615365  1
  O  O62  1  0.215095  0.644199  0.112124  1
  O  O63  1  0.145035  0.711528  0.388760  1
  O  O64  1  0.522447  0.613958  0.113157  1
  O  O65  1  0.450474  0.691950  0.387209  1
  O  O66  1  0.312475  0.554964  0.887470  1
  O  O67  1  0.378266  0.476406  0.612669  1
  O  O68  1  0.049821  0.449785  0.612145  1
  O  O69  1  0.118006  0.379871  0.382761  1
  O  O70  1  0.217693  0.286261  0.113618  1
  O  O71  1  0.021513  0.115139  0.610950  1
