# generated using pymatgen
data_Fe5O3F7
_symmetry_space_group_name_H-M   'P 1'
_cell_length_a   4.78920636
_cell_length_b   4.80168129
_cell_length_c   15.44140053
_cell_angle_alpha   89.83813373
_cell_angle_beta   89.84317291
_cell_angle_gamma   88.49531581
_symmetry_Int_Tables_number   1
_chemical_formula_structural   Fe5O3F7
_chemical_formula_sum   'Fe10 O6 F14'
_cell_volume   354.96907292
_cell_formula_units_Z   2
loop_
 _symmetry_equiv_pos_site_id
 _symmetry_equiv_pos_as_xyz
  1  'x, y, z'
loop_
 _atom_site_type_symbol
 _atom_site_label
 _atom_site_symmetry_multiplicity
 _atom_site_fract_x
 _atom_site_fract_y
 _atom_site_fract_z
 _atom_site_occupancy
  Fe  Fe0  1  0.000000  0.000000  0.000000  1
  Fe  Fe1  1  0.032424  0.992551  0.806489  1
  Fe  Fe2  1  0.021163  0.977925  0.600047  1
  Fe  Fe3  1  0.978837  0.022075  0.399953  1
  Fe  Fe4  1  0.967576  0.007449  0.193511  1
  Fe  Fe5  1  0.462534  0.479273  0.896227  1
  Fe  Fe6  1  0.500000  0.500000  0.500000  1
  Fe  Fe7  1  0.481323  0.528695  0.699359  1
  Fe  Fe8  1  0.518677  0.471305  0.300641  1
  Fe  Fe9  1  0.537466  0.520727  0.103773  1
  O  O10  1  0.823450  0.826712  0.097418  1
  O  O11  1  0.680679  0.317625  0.403031  1
  O  O12  1  0.698930  0.307703  0.204294  1
  O  O13  1  0.301070  0.692297  0.795706  1
  O  O14  1  0.319321  0.682375  0.596969  1
  O  O15  1  0.176550  0.173288  0.902582  1
  F  F16  1  0.797973  0.797641  0.900563  1
  F  F17  1  0.807041  0.799824  0.703360  1
  F  F18  1  0.799968  0.798938  0.500278  1
  F  F19  1  0.797273  0.805663  0.297837  1
  F  F20  1  0.698586  0.304079  0.998284  1
  F  F21  1  0.699840  0.288299  0.792086  1
  F  F22  1  0.704816  0.295933  0.601364  1
  F  F23  1  0.301414  0.695921  0.001716  1
  F  F24  1  0.295184  0.704067  0.398636  1
  F  F25  1  0.300160  0.711701  0.207914  1
  F  F26  1  0.200032  0.201062  0.499722  1
  F  F27  1  0.202727  0.194337  0.702163  1
  F  F28  1  0.202027  0.202359  0.099437  1
  F  F29  1  0.192959  0.200176  0.296640  1
