# generated using pymatgen
data_RbLiMn3O4
_symmetry_space_group_name_H-M   'P 1'
_cell_length_a   6.29675657
_cell_length_b   8.11884716
_cell_length_c   8.12093237
_cell_angle_alpha   96.73893120
_cell_angle_beta   100.57292774
_cell_angle_gamma   101.20970108
_symmetry_Int_Tables_number   1
_chemical_formula_structural   RbLiMn3O4
_chemical_formula_sum   'Rb3 Li3 Mn9 O12'
_cell_volume   395.25468293
_cell_formula_units_Z   3
loop_
 _symmetry_equiv_pos_site_id
 _symmetry_equiv_pos_as_xyz
  1  'x, y, z'
loop_
 _atom_site_type_symbol
 _atom_site_label
 _atom_site_symmetry_multiplicity
 _atom_site_fract_x
 _atom_site_fract_y
 _atom_site_fract_z
 _atom_site_occupancy
  Rb  Rb0  1  0.003630  0.330240  0.333844  1
  Rb  Rb1  1  0.000453  0.991707  0.000832  1
  Rb  Rb2  1  0.993959  0.670239  0.672822  1
  Li  Li3  1  0.438137  0.148522  0.329720  1
  Li  Li4  1  0.559098  0.848978  0.669483  1
  Li  Li5  1  0.816250  0.581171  0.027180  1
  Mn  Mn6  1  0.553864  0.189754  0.006589  1
  Mn  Mn7  1  0.795417  0.233979  0.687734  1
  Mn  Mn8  1  0.197121  0.085302  0.636545  1
  Mn  Mn9  1  0.175196  0.424808  0.974068  1
  Mn  Mn10  1  0.454136  0.491729  0.672577  1
  Mn  Mn11  1  0.556234  0.513235  0.329485  1
  Mn  Mn12  1  0.800302  0.911142  0.361551  1
  Mn  Mn13  1  0.188546  0.757532  0.308629  1
  Mn  Mn14  1  0.461203  0.813591  0.995104  1
  O  O15  1  0.829315  0.329894  0.946438  1
  O  O16  1  0.616157  0.022554  0.188341  1
  O  O17  1  0.613579  0.349890  0.518268  1
  O  O18  1  0.633521  0.683241  0.859158  1
  O  O19  1  0.161264  0.007602  0.378656  1
  O  O20  1  0.164625  0.338408  0.714903  1
  O  O21  1  0.834744  0.662164  0.282360  1
  O  O22  1  0.837564  0.990744  0.620572  1
  O  O23  1  0.366778  0.314232  0.143080  1
  O  O24  1  0.384048  0.648535  0.478743  1
  O  O25  1  0.389030  0.983488  0.812451  1
  O  O26  1  0.175831  0.677323  0.050868  1
