# generated using pymatgen
data_Li3VF6
_symmetry_space_group_name_H-M   'P 1'
_cell_length_a   5.54950293
_cell_length_b   5.54950293
_cell_length_c   10.09357903
_cell_angle_alpha   83.93344308
_cell_angle_beta   96.06655692
_cell_angle_gamma   121.47188288
_symmetry_Int_Tables_number   1
_chemical_formula_structural   Li3VF6
_chemical_formula_sum   'Li6 V2 F12'
_cell_volume   263.17170983
_cell_formula_units_Z   2
loop_
 _symmetry_equiv_pos_site_id
 _symmetry_equiv_pos_as_xyz
  1  'x, y, z'
loop_
 _atom_site_type_symbol
 _atom_site_label
 _atom_site_symmetry_multiplicity
 _atom_site_fract_x
 _atom_site_fract_y
 _atom_site_fract_z
 _atom_site_occupancy
  Li  Li0  1  0.678823  0.889970  0.949213  1
  Li  Li1  1  0.110030  0.321177  0.449213  1
  Li  Li2  1  0.466252  0.284797  0.052527  1
  Li  Li3  1  0.004848  0.633985  0.821574  1
  Li  Li4  1  0.366015  0.995152  0.321574  1
  Li  Li5  1  0.715203  0.533748  0.552527  1
  V  V6  1  0.041708  0.362524  0.149119  1
  V  V7  1  0.637476  0.958292  0.649119  1
  F  F8  1  0.424984  0.603254  0.069934  1
  F  F9  1  0.564908  0.151157  0.486349  1
  F  F10  1  0.105686  0.614330  0.289237  1
  F  F11  1  0.385670  0.894314  0.789237  1
  F  F12  1  0.175469  0.196069  0.297010  1
  F  F13  1  0.043553  0.078486  0.046027  1
  F  F14  1  0.921514  0.956447  0.546027  1
  F  F15  1  0.803931  0.824531  0.797010  1
  F  F16  1  0.632434  0.139161  0.193563  1
  F  F17  1  0.860839  0.367566  0.693563  1
  F  F18  1  0.848843  0.435092  0.986349  1
  F  F19  1  0.396746  0.575016  0.569934  1
