# generated using pymatgen
data_LiNi(CO3)2
_symmetry_space_group_name_H-M   'P 1'
_cell_length_a   5.20611393
_cell_length_b   7.65313996
_cell_length_c   6.46711048
_cell_angle_alpha   90.00000000
_cell_angle_beta   113.64976218
_cell_angle_gamma   90.00000000
_symmetry_Int_Tables_number   1
_chemical_formula_structural   LiNi(CO3)2
_chemical_formula_sum   'Li2 Ni2 C4 O12'
_cell_volume   236.02936371
_cell_formula_units_Z   2
loop_
 _symmetry_equiv_pos_site_id
 _symmetry_equiv_pos_as_xyz
  1  'x, y, z'
loop_
 _atom_site_type_symbol
 _atom_site_label
 _atom_site_symmetry_multiplicity
 _atom_site_fract_x
 _atom_site_fract_y
 _atom_site_fract_z
 _atom_site_occupancy
  Li  Li0  1  0.621081  0.057932  0.576359  1
  Li  Li1  1  0.378919  0.557932  0.423641  1
  Ni  Ni2  1  0.993134  0.997292  0.241397  1
  Ni  Ni3  1  0.006866  0.497292  0.758603  1
  C  C4  1  0.130297  0.261066  0.135036  1
  C  C5  1  0.143625  0.241349  0.624181  1
  C  C6  1  0.869703  0.761066  0.864964  1
  C  C7  1  0.856375  0.741349  0.375819  1
  O  O8  1  0.283376  0.120130  0.178431  1
  O  O9  1  0.213502  0.408878  0.097839  1
  O  O10  1  0.112478  0.734608  0.856940  1
  O  O11  1  0.887522  0.234608  0.143060  1
  O  O12  1  0.786498  0.908878  0.902161  1
  O  O13  1  0.716624  0.620130  0.821569  1
  O  O14  1  0.279191  0.389646  0.656487  1
  O  O15  1  0.231784  0.101092  0.572232  1
  O  O16  1  0.089969  0.752787  0.344733  1
  O  O17  1  0.910031  0.252787  0.655267  1
  O  O18  1  0.768216  0.601092  0.427768  1
  O  O19  1  0.720809  0.889646  0.343513  1
