# generated using pymatgen
data_Li5MnHO4
_symmetry_space_group_name_H-M   'P 1'
_cell_length_a   8.81467338
_cell_length_b   9.16164476
_cell_length_c   10.92114211
_cell_angle_alpha   90.00000000
_cell_angle_beta   90.00000000
_cell_angle_gamma   90.00000000
_symmetry_Int_Tables_number   1
_chemical_formula_structural   Li5MnHO4
_chemical_formula_sum   'Li40 Mn8 H8 O32'
_cell_volume   881.95764879
_cell_formula_units_Z   8
loop_
 _symmetry_equiv_pos_site_id
 _symmetry_equiv_pos_as_xyz
  1  'x, y, z'
loop_
 _atom_site_type_symbol
 _atom_site_label
 _atom_site_symmetry_multiplicity
 _atom_site_fract_x
 _atom_site_fract_y
 _atom_site_fract_z
 _atom_site_occupancy
  Li  Li0  1  0.978945  0.580208  0.695448  1
  Li  Li1  1  0.978945  0.919792  0.695448  1
  Li  Li2  1  0.067263  0.073257  0.934413  1
  Li  Li3  1  0.067263  0.426743  0.934413  1
  Li  Li4  1  0.071045  0.750000  0.938878  1
  Li  Li5  1  0.119852  0.250000  0.481017  1
  Li  Li6  1  0.110068  0.568249  0.490423  1
  Li  Li7  1  0.110068  0.931751  0.490423  1
  Li  Li8  1  0.203125  0.576785  0.139764  1
  Li  Li9  1  0.203125  0.923215  0.139764  1
  Li  Li10  1  0.296875  0.076785  0.639764  1
  Li  Li11  1  0.296875  0.423215  0.639764  1
  Li  Li12  1  0.389932  0.068249  0.990423  1
  Li  Li13  1  0.389932  0.431751  0.990423  1
  Li  Li14  1  0.380148  0.750000  0.981017  1
  Li  Li15  1  0.428955  0.250000  0.438878  1
  Li  Li16  1  0.432737  0.573257  0.434413  1
  Li  Li17  1  0.432737  0.926743  0.434413  1
  Li  Li18  1  0.521055  0.080208  0.195448  1
  Li  Li19  1  0.521055  0.419792  0.195448  1
  Li  Li20  1  0.478945  0.580208  0.804552  1
  Li  Li21  1  0.478945  0.919792  0.804552  1
  Li  Li22  1  0.567263  0.073257  0.565587  1
  Li  Li23  1  0.567263  0.426743  0.565587  1
  Li  Li24  1  0.571045  0.750000  0.561122  1
  Li  Li25  1  0.619852  0.250000  0.018983  1
  Li  Li26  1  0.610068  0.568249  0.009577  1
  Li  Li27  1  0.610068  0.931751  0.009577  1
  Li  Li28  1  0.703125  0.576785  0.360236  1
  Li  Li29  1  0.703125  0.923215  0.360236  1
  Li  Li30  1  0.796875  0.076785  0.860236  1
  Li  Li31  1  0.796875  0.423215  0.860236  1
  Li  Li32  1  0.889932  0.068249  0.509577  1
  Li  Li33  1  0.889932  0.431751  0.509577  1
  Li  Li34  1  0.880148  0.750000  0.518983  1
  Li  Li35  1  0.928955  0.250000  0.061122  1
  Li  Li36  1  0.932737  0.926743  0.065587  1
  Li  Li37  1  0.932737  0.573257  0.065587  1
  Li  Li38  1  0.021055  0.080208  0.304552  1
  Li  Li39  1  0.021055  0.419792  0.304552  1
  Mn  Mn40  1  0.018931  0.250000  0.714939  1
  Mn  Mn41  1  0.209415  0.250000  0.156149  1
  Mn  Mn42  1  0.290585  0.750000  0.656149  1
  Mn  Mn43  1  0.481069  0.750000  0.214939  1
  Mn  Mn44  1  0.518931  0.250000  0.785061  1
  Mn  Mn45  1  0.709415  0.250000  0.343851  1
  Mn  Mn46  1  0.790585  0.750000  0.843851  1
  Mn  Mn47  1  0.981069  0.750000  0.285061  1
  H  H48  1  0.172490  0.578610  0.831444  1
  H  H49  1  0.172490  0.921390  0.831444  1
  H  H50  1  0.327510  0.078610  0.331444  1
  H  H51  1  0.327510  0.421390  0.331444  1
  H  H52  1  0.672490  0.578610  0.668556  1
  H  H53  1  0.672490  0.921390  0.668556  1
  H  H54  1  0.827510  0.078610  0.168556  1
  H  H55  1  0.827510  0.421390  0.168556  1
  O  O56  1  0.062435  0.750000  0.116512  1
  O  O57  1  0.079375  0.418107  0.613533  1
  O  O58  1  0.079375  0.081893  0.613533  1
  O  O59  1  0.062207  0.414690  0.118319  1
  O  O60  1  0.062207  0.085310  0.118319  1
  O  O61  1  0.077063  0.750000  0.603097  1
  O  O62  1  0.232682  0.063677  0.377417  1
  O  O63  1  0.232682  0.436323  0.377417  1
  O  O64  1  0.267318  0.563677  0.877417  1
  O  O65  1  0.267318  0.936323  0.877417  1
  O  O66  1  0.422937  0.250000  0.103097  1
  O  O67  1  0.437793  0.585310  0.618319  1
  O  O68  1  0.437793  0.914690  0.618319  1
  O  O69  1  0.420625  0.581893  0.113533  1
  O  O70  1  0.420625  0.918107  0.113533  1
  O  O71  1  0.437565  0.250000  0.616512  1
  O  O72  1  0.562435  0.750000  0.383488  1
  O  O73  1  0.579375  0.081893  0.886467  1
  O  O74  1  0.579375  0.418107  0.886467  1
  O  O75  1  0.562207  0.085310  0.381681  1
  O  O76  1  0.562207  0.414690  0.381681  1
  O  O77  1  0.577063  0.750000  0.896903  1
  O  O78  1  0.732682  0.063677  0.122583  1
  O  O79  1  0.732682  0.436323  0.122583  1
  O  O80  1  0.767318  0.563677  0.622583  1
  O  O81  1  0.767318  0.936323  0.622583  1
  O  O82  1  0.922937  0.250000  0.396903  1
  O  O83  1  0.937793  0.914690  0.881681  1
  O  O84  1  0.937793  0.585310  0.881681  1
  O  O85  1  0.920625  0.918107  0.386467  1
  O  O86  1  0.920625  0.581893  0.386467  1
  O  O87  1  0.937565  0.250000  0.883488  1
