# generated using pymatgen
data_Mn6O7F5
_symmetry_space_group_name_H-M   'P 1'
_cell_length_a   4.69303799
_cell_length_b   5.64089959
_cell_length_c   7.67017445
_cell_angle_alpha   85.29747577
_cell_angle_beta   87.79214476
_cell_angle_gamma   85.93169898
_symmetry_Int_Tables_number   1
_chemical_formula_structural   Mn6O7F5
_chemical_formula_sum   'Mn6 O7 F5'
_cell_volume   201.74945155
_cell_formula_units_Z   1
loop_
 _symmetry_equiv_pos_site_id
 _symmetry_equiv_pos_as_xyz
  1  'x, y, z'
loop_
 _atom_site_type_symbol
 _atom_site_label
 _atom_site_symmetry_multiplicity
 _atom_site_fract_x
 _atom_site_fract_y
 _atom_site_fract_z
 _atom_site_occupancy
  Mn  Mn0  1  0.505249  0.492253  0.003051  1
  Mn  Mn1  1  0.512456  0.831546  0.653932  1
  Mn  Mn2  1  0.497186  0.167564  0.337919  1
  Mn  Mn3  1  0.020769  0.337464  0.682149  1
  Mn  Mn4  1  0.981279  0.658704  0.316658  1
  Mn  Mn5  1  0.983463  0.011355  0.006782  1
  O  O6  1  0.812235  0.718571  0.094652  1
  O  O7  1  0.693338  0.207186  0.109443  1
  O  O8  1  0.688597  0.531818  0.768263  1
  O  O9  1  0.701812  0.872945  0.427125  1
  O  O10  1  0.305105  0.123406  0.567622  1
  O  O11  1  0.312667  0.468910  0.232268  1
  O  O12  1  0.186077  0.282607  0.905136  1
  F  F13  1  0.814092  0.361148  0.452354  1
  F  F14  1  0.799769  0.024238  0.778487  1
  F  F15  1  0.298652  0.798665  0.892917  1
  F  F16  1  0.187154  0.638603  0.549597  1
  F  F17  1  0.200100  0.973019  0.221644  1
