# generated using pymatgen
data_ThH10N4O17
_symmetry_space_group_name_H-M   'P 1'
_cell_length_a   12.74360964
_cell_length_b   12.61875863
_cell_length_c   7.71562122
_cell_angle_alpha   73.17445069
_cell_angle_beta   71.40797234
_cell_angle_gamma   35.41757697
_symmetry_Int_Tables_number   1
_chemical_formula_structural   ThH10N4O17
_chemical_formula_sum   'Th2 H20 N8 O34'
_cell_volume   680.52893046
_cell_formula_units_Z   2
loop_
 _symmetry_equiv_pos_site_id
 _symmetry_equiv_pos_as_xyz
  1  'x, y, z'
loop_
 _atom_site_type_symbol
 _atom_site_label
 _atom_site_symmetry_multiplicity
 _atom_site_fract_x
 _atom_site_fract_y
 _atom_site_fract_z
 _atom_site_occupancy
  Th  Th0  1  0.253591  0.246409  0.246409  1
  Th  Th1  1  0.003591  0.996409  0.996409  1
  H  H2  1  0.117107  0.119873  0.263087  1
  H  H3  1  0.499933  0.263087  0.119873  1
  H  H4  1  0.297126  0.950550  0.364626  1
  H  H5  1  0.471880  0.660348  0.401323  1
  H  H6  1  0.130127  0.132893  0.750067  1
  H  H7  1  0.271008  0.505776  0.677185  1
  H  H8  1  0.303166  0.765803  0.659964  1
  H  H9  1  0.271067  0.659964  0.765803  1
  H  H10  1  0.546032  0.677185  0.505776  1
  H  H11  1  0.986913  0.750067  0.132893  1
  H  H12  1  0.466449  0.401323  0.660348  1
  H  H13  1  0.299450  0.952874  0.862301  1
  H  H14  1  0.387699  0.364626  0.950550  1
  H  H15  1  0.589652  0.778120  0.783551  1
  H  H16  1  0.744224  0.978992  0.703968  1
  H  H17  1  0.484197  0.946834  0.978933  1
  H  H18  1  0.590036  0.978933  0.946834  1
  H  H19  1  0.572815  0.703968  0.978992  1
  H  H20  1  0.848677  0.783551  0.778120  1
  H  H21  1  0.885374  0.862301  0.952874  1
  N  N22  1  0.312354  0.676981  0.220524  1
  N  N23  1  0.146696  0.506970  0.451027  1
  N  N24  1  0.798973  0.354693  0.103304  1
  N  N25  1  0.029476  0.459859  0.937646  1
  N  N26  1  0.573019  0.937646  0.459859  1
  N  N27  1  0.743030  0.103304  0.354693  1
  N  N28  1  0.895307  0.451027  0.506970  1
  N  N29  1  0.790141  0.220524  0.676981  1
  O  O30  1  0.097373  0.310886  0.004328  1
  O  O31  1  0.061426  0.565830  0.322204  1
  O  O32  1  0.245672  0.662586  0.152627  1
  O  O33  1  0.258198  0.821989  0.165928  1
  O  O34  1  0.412511  0.295506  0.072543  1
  O  O35  1  0.481626  0.018374  0.018375  1
  O  O36  1  0.219440  0.072543  0.295506  1
  O  O37  1  0.050539  0.322204  0.565830  1
  O  O38  1  0.104741  0.611285  0.532089  1
  O  O39  1  0.420731  0.562776  0.332450  1
  O  O40  1  0.276428  0.334339  0.489344  1
  O  O41  1  0.717911  0.498114  0.145259  1
  O  O42  1  0.684170  0.188574  0.199461  1
  O  O43  1  0.587414  0.004328  0.310886  1
  O  O44  1  0.432986  0.743119  0.474060  1
  O  O45  1  0.428011  0.991802  0.496115  1
  O  O46  1  0.954494  0.837489  0.030560  1
  O  O47  1  0.231626  0.768374  0.768374  1
  O  O48  1  0.177457  0.030560  0.837489  1
  O  O49  1  0.084072  0.496115  0.991802  1
  O  O50  1  0.349835  0.474060  0.743119  1
  O  O51  1  0.927796  0.199461  0.188574  1
  O  O52  1  0.638715  0.145259  0.498114  1
  O  O53  1  0.899889  0.489344  0.334339  1
  O  O54  1  0.687224  0.829269  0.565958  1
  O  O55  1  0.684042  0.332450  0.562776  1
  O  O56  1  0.915661  0.973572  0.350111  1
  O  O57  1  0.751886  0.532089  0.611285  1
  O  O58  1  0.506881  0.817014  0.900165  1
  O  O59  1  0.753885  0.165928  0.821989  1
  O  O60  1  0.775940  0.900165  0.817014  1
  O  O61  1  0.939114  0.152627  0.662586  1
  O  O62  1  0.760656  0.350111  0.973572  1
  O  O63  1  0.917550  0.565958  0.829269  1
