# generated using pymatgen
data_Ba2SrI6
_symmetry_space_group_name_H-M   'P 1'
_cell_length_a   10.87627640
_cell_length_b   9.77497890
_cell_length_c   18.55454910
_cell_angle_alpha   90.00000000
_cell_angle_beta   123.75479150
_cell_angle_gamma   90.00000000
_symmetry_Int_Tables_number   1
_chemical_formula_structural   Ba2SrI6
_chemical_formula_sum   'Ba8 Sr4 I24'
_cell_volume   1640.09340083
_cell_formula_units_Z   4
loop_
 _symmetry_equiv_pos_site_id
 _symmetry_equiv_pos_as_xyz
  1  'x, y, z'
loop_
 _atom_site_type_symbol
 _atom_site_label
 _atom_site_symmetry_multiplicity
 _atom_site_fract_x
 _atom_site_fract_y
 _atom_site_fract_z
 _atom_site_occupancy
  Ba  Ba0  1  0.703476  0.211235  0.591175  1
  Ba  Ba1  1  0.357653  0.398508  0.213393  1
  Ba  Ba2  1  0.642347  0.898508  0.286607  1
  Ba  Ba3  1  0.296524  0.711235  0.908825  1
  Ba  Ba4  1  0.703476  0.288765  0.091175  1
  Ba  Ba5  1  0.357653  0.101492  0.713393  1
  Ba  Ba6  1  0.642347  0.601492  0.786607  1
  Ba  Ba7  1  0.296524  0.788765  0.408825  1
  Sr  Sr8  1  0.070900  0.150345  0.926712  1
  Sr  Sr9  1  0.929100  0.650345  0.573288  1
  Sr  Sr10  1  0.070900  0.349655  0.426712  1
  Sr  Sr11  1  0.929100  0.849655  0.073288  1
  I  I12  1  0.972363  0.828843  0.910901  1
  I  I13  1  0.281320  0.762668  0.207294  1
  I  I14  1  0.423632  0.111603  0.364286  1
  I  I15  1  0.175655  0.456328  0.988825  1
  I  I16  1  0.584059  0.556121  0.425813  1
  I  I17  1  0.898754  0.540349  0.726684  1
  I  I18  1  0.101246  0.040349  0.773316  1
  I  I19  1  0.824345  0.956328  0.511175  1
  I  I20  1  0.415941  0.056121  0.074187  1
  I  I21  1  0.576368  0.611603  0.135714  1
  I  I22  1  0.718680  0.262668  0.292706  1
  I  I23  1  0.027637  0.328843  0.589099  1
  I  I24  1  0.972363  0.671157  0.410901  1
  I  I25  1  0.281320  0.737332  0.707294  1
  I  I26  1  0.423632  0.388397  0.864286  1
  I  I27  1  0.584059  0.943879  0.925813  1
  I  I28  1  0.175655  0.043672  0.488825  1
  I  I29  1  0.898754  0.959651  0.226684  1
  I  I30  1  0.101246  0.459651  0.273316  1
  I  I31  1  0.415941  0.443879  0.574187  1
  I  I32  1  0.824345  0.543672  0.011175  1
  I  I33  1  0.576368  0.888397  0.635714  1
  I  I34  1  0.718680  0.237332  0.792706  1
  I  I35  1  0.027637  0.171157  0.089099  1
