# generated using pymatgen
data_Yb(Bi3O5)4
_symmetry_space_group_name_H-M   'P 1'
_cell_length_a   8.90630433
_cell_length_b   8.90630433
_cell_length_c   8.90630433
_cell_angle_alpha   109.47122063
_cell_angle_beta   109.47122063
_cell_angle_gamma   109.47122063
_symmetry_Int_Tables_number   1
_chemical_formula_structural   Yb(Bi3O5)4
_chemical_formula_sum   'Yb1 Bi12 O20'
_cell_volume   543.83944264
_cell_formula_units_Z   1
loop_
 _symmetry_equiv_pos_site_id
 _symmetry_equiv_pos_as_xyz
  1  'x, y, z'
loop_
 _atom_site_type_symbol
 _atom_site_label
 _atom_site_symmetry_multiplicity
 _atom_site_fract_x
 _atom_site_fract_y
 _atom_site_fract_z
 _atom_site_occupancy
  Yb  Yb0  1  1.000000  1.000000  0.000000  1
  Bi  Bi1  1  0.826453  0.144657  0.314853  1
  Bi  Bi2  1  0.855343  0.681796  0.170196  1
  Bi  Bi3  1  0.488401  0.318204  0.173547  1
  Bi  Bi4  1  0.318204  0.173547  0.488401  1
  Bi  Bi5  1  0.681796  0.170196  0.855343  1
  Bi  Bi6  1  0.829804  0.511599  0.685147  1
  Bi  Bi7  1  0.173547  0.488401  0.318204  1
  Bi  Bi8  1  0.685147  0.829804  0.511599  1
  Bi  Bi9  1  0.314853  0.826453  0.144657  1
  Bi  Bi10  1  0.144657  0.314853  0.826453  1
  Bi  Bi11  1  0.511599  0.685147  0.829804  1
  Bi  Bi12  1  0.170196  0.855343  0.681796  1
  O  O13  1  0.673096  1.000000  1.000000  1
  O  O14  1  0.751499  0.376363  0.110841  1
  O  O15  1  0.259805  1.000000  1.000000  1
  O  O16  1  0.624863  0.248501  0.359341  1
  O  O17  1  0.889159  0.265522  0.640659  1
  O  O18  1  0.000000  0.259805  0.000000  1
  O  O19  1  0.000000  0.000000  0.259805  1
  O  O20  1  0.734478  0.623637  0.375137  1
  O  O21  1  0.326904  0.326904  0.326904  1
  O  O22  1  0.359341  0.624863  0.248501  1
  O  O23  1  0.640659  0.889159  0.265522  1
  O  O24  1  0.376363  0.110841  0.751499  1
  O  O25  1  0.623637  0.375137  0.734478  1
  O  O26  1  1.000000  0.673096  1.000000  1
  O  O27  1  1.000000  1.000000  0.673096  1
  O  O28  1  0.248501  0.359341  0.624863  1
  O  O29  1  0.740195  0.740195  0.740195  1
  O  O30  1  0.375137  0.734478  0.623637  1
  O  O31  1  0.110841  0.751499  0.376363  1
  O  O32  1  0.265522  0.640659  0.889159  1
