# generated using pymatgen
data_Li4Ti3Cr2Fe3O16
_symmetry_space_group_name_H-M   'P 1'
_cell_length_a   5.93577079
_cell_length_b   5.93577079
_cell_length_c   9.60517361
_cell_angle_alpha   89.62241820
_cell_angle_beta   90.37758180
_cell_angle_gamma   120.10772955
_symmetry_Int_Tables_number   1
_chemical_formula_structural   Li4Ti3Cr2Fe3O16
_chemical_formula_sum   'Li4 Ti3 Cr2 Fe3 O16'
_cell_volume   292.75549814
_cell_formula_units_Z   1
loop_
 _symmetry_equiv_pos_site_id
 _symmetry_equiv_pos_as_xyz
  1  'x, y, z'
loop_
 _atom_site_type_symbol
 _atom_site_label
 _atom_site_symmetry_multiplicity
 _atom_site_fract_x
 _atom_site_fract_y
 _atom_site_fract_z
 _atom_site_occupancy
  Li  Li0  1  0.668721  0.331279  0.891871  1
  Li  Li1  1  0.996158  0.003842  0.994872  1
  Li  Li2  1  0.996528  0.003472  0.496662  1
  Li  Li3  1  0.332795  0.667205  0.395510  1
  Ti  Ti4  1  0.336639  0.167619  0.213515  1
  Ti  Ti5  1  0.832381  0.663361  0.213515  1
  Ti  Ti6  1  0.169113  0.830887  0.714199  1
  Cr  Cr7  1  0.665529  0.334471  0.486253  1
  Cr  Cr8  1  0.336300  0.663700  0.982544  1
  Fe  Fe9  1  0.830743  0.169257  0.213667  1
  Fe  Fe10  1  0.169939  0.339387  0.712639  1
  Fe  Fe11  1  0.660613  0.830061  0.712639  1
  O  O12  1  0.330059  0.158622  0.600525  1
  O  O13  1  0.519187  0.480813  0.336912  1
  O  O14  1  0.662768  0.337232  0.104132  1
  O  O15  1  0.002305  0.997695  0.311012  1
  O  O16  1  0.000526  0.999474  0.809072  1
  O  O17  1  0.841378  0.669941  0.600525  1
  O  O18  1  0.513371  0.042931  0.341809  1
  O  O19  1  0.957069  0.486629  0.341809  1
  O  O20  1  0.165047  0.834953  0.105538  1
  O  O21  1  0.833848  0.166152  0.599529  1
  O  O22  1  0.040828  0.527271  0.840960  1
  O  O23  1  0.472729  0.959172  0.840960  1
  O  O24  1  0.330049  0.669951  0.603036  1
  O  O25  1  0.173199  0.327763  0.101535  1
  O  O26  1  0.480791  0.519209  0.841245  1
  O  O27  1  0.672237  0.826801  0.101535  1
