# generated using pymatgen
data_Li3Co4NiO8
_symmetry_space_group_name_H-M   'P 1'
_cell_length_a   5.77141919
_cell_length_b   5.77141919
_cell_length_c   5.75061380
_cell_angle_alpha   60.67994295
_cell_angle_beta   119.32005705
_cell_angle_gamma   120.49772786
_symmetry_Int_Tables_number   1
_chemical_formula_structural   Li3Co4NiO8
_chemical_formula_sum   'Li3 Co4 Ni1 O8'
_cell_volume   136.28860434
_cell_formula_units_Z   1
loop_
 _symmetry_equiv_pos_site_id
 _symmetry_equiv_pos_as_xyz
  1  'x, y, z'
loop_
 _atom_site_type_symbol
 _atom_site_label
 _atom_site_symmetry_multiplicity
 _atom_site_fract_x
 _atom_site_fract_y
 _atom_site_fract_z
 _atom_site_occupancy
  Li  Li0  1  0.500000  0.000000  0.500000  1
  Li  Li1  1  1.000000  0.000000  0.500000  1
  Li  Li2  1  1.000000  0.500000  0.500000  1
  Co  Co3  1  0.500000  0.500000  0.500000  1
  Co  Co4  1  0.000000  0.000000  0.000000  1
  Co  Co5  1  0.500000  0.000000  0.000000  1
  Co  Co6  1  0.000000  0.500000  0.000000  1
  Ni  Ni7  1  0.500000  0.500000  0.000000  1
  O  O8  1  0.253544  0.746456  0.774333  1
  O  O9  1  0.772861  0.744040  0.769735  1
  O  O10  1  0.255960  0.227139  0.769735  1
  O  O11  1  0.761768  0.238232  0.784737  1
  O  O12  1  0.238232  0.761768  0.215263  1
  O  O13  1  0.744040  0.772861  0.230265  1
  O  O14  1  0.227139  0.255960  0.230265  1
  O  O15  1  0.746456  0.253544  0.225667  1
