# generated using pymatgen
data_VOF3
_symmetry_space_group_name_H-M   'P 1'
_cell_length_a   5.83082495
_cell_length_b   5.83082495
_cell_length_c   8.17584999
_cell_angle_alpha   90.00000000
_cell_angle_beta   90.00000000
_cell_angle_gamma   90.00000000
_symmetry_Int_Tables_number   1
_chemical_formula_structural   VOF3
_chemical_formula_sum   'V4 O4 F12'
_cell_volume   277.96679611
_cell_formula_units_Z   4
loop_
 _symmetry_equiv_pos_site_id
 _symmetry_equiv_pos_as_xyz
  1  'x, y, z'
loop_
 _atom_site_type_symbol
 _atom_site_label
 _atom_site_symmetry_multiplicity
 _atom_site_fract_x
 _atom_site_fract_y
 _atom_site_fract_z
 _atom_site_occupancy
  V  V0  1  0.001095  0.274035  0.020406  1
  V  V1  1  0.274035  0.998905  0.770406  1
  V  V2  1  0.725965  0.001095  0.270406  1
  V  V3  1  0.998905  0.725965  0.520406  1
  O  O4  1  0.022215  0.769241  0.723789  1
  O  O5  1  0.230759  0.022215  0.973789  1
  O  O6  1  0.769241  0.977785  0.473789  1
  O  O7  1  0.977785  0.230759  0.223789  1
  F  F8  1  0.015654  0.219401  0.769043  1
  F  F9  1  0.224424  0.534244  0.480123  1
  F  F10  1  0.225507  0.472927  0.008965  1
  F  F11  1  0.219401  0.984346  0.519043  1
  F  F12  1  0.465756  0.224424  0.730123  1
  F  F13  1  0.472927  0.774493  0.758965  1
  F  F14  1  0.527073  0.225507  0.258965  1
  F  F15  1  0.534244  0.775576  0.230123  1
  F  F16  1  0.780599  0.015654  0.019043  1
  F  F17  1  0.774493  0.527073  0.508965  1
  F  F18  1  0.775576  0.465756  0.980123  1
  F  F19  1  0.984346  0.780599  0.269043  1
