# generated using pymatgen
data_LiMnPH2O5
_symmetry_space_group_name_H-M   'P 1'
_cell_length_a   5.14006605
_cell_length_b   10.21377404
_cell_length_c   17.14230467
_cell_angle_alpha   90.00000000
_cell_angle_beta   90.00000000
_cell_angle_gamma   90.00000000
_symmetry_Int_Tables_number   1
_chemical_formula_structural   LiMnPH2O5
_chemical_formula_sum   'Li8 Mn8 P8 H16 O40'
_cell_volume   899.96196436
_cell_formula_units_Z   8
loop_
 _symmetry_equiv_pos_site_id
 _symmetry_equiv_pos_as_xyz
  1  'x, y, z'
loop_
 _atom_site_type_symbol
 _atom_site_label
 _atom_site_symmetry_multiplicity
 _atom_site_fract_x
 _atom_site_fract_y
 _atom_site_fract_z
 _atom_site_occupancy
  Li  Li0  1  0.528466  0.149517  0.193358  1
  Li  Li1  1  0.471534  0.149517  0.693358  1
  Li  Li2  1  0.098062  0.420045  0.945791  1
  Li  Li3  1  0.901938  0.420045  0.445791  1
  Li  Li4  1  0.471534  0.649517  0.806642  1
  Li  Li5  1  0.528466  0.649517  0.306642  1
  Li  Li6  1  0.098062  0.920045  0.554209  1
  Li  Li7  1  0.901938  0.920045  0.054209  1
  Mn  Mn8  1  0.465407  0.182934  0.500188  1
  Mn  Mn9  1  0.534593  0.182934  0.000188  1
  Mn  Mn10  1  0.907600  0.391231  0.251099  1
  Mn  Mn11  1  0.092400  0.391231  0.751099  1
  Mn  Mn12  1  0.465407  0.682934  0.999812  1
  Mn  Mn13  1  0.534593  0.682934  0.499812  1
  Mn  Mn14  1  0.092400  0.891231  0.748901  1
  Mn  Mn15  1  0.907600  0.891231  0.248901  1
  P  P16  1  0.010369  0.226067  0.092528  1
  P  P17  1  0.989631  0.226067  0.592528  1
  P  P18  1  0.410351  0.345284  0.342425  1
  P  P19  1  0.589649  0.345284  0.842425  1
  P  P20  1  0.989631  0.726067  0.907472  1
  P  P21  1  0.010369  0.726067  0.407472  1
  P  P22  1  0.589649  0.845284  0.657575  1
  P  P23  1  0.410351  0.845284  0.157575  1
  H  H24  1  0.090914  0.003642  0.375761  1
  H  H25  1  0.909086  0.003642  0.875761  1
  H  H26  1  0.630407  0.053911  0.376810  1
  H  H27  1  0.369593  0.053911  0.876810  1
  H  H28  1  0.165503  0.111157  0.311345  1
  H  H29  1  0.834497  0.111157  0.811345  1
  H  H30  1  0.659927  0.449402  0.056591  1
  H  H31  1  0.340073  0.449402  0.556591  1
  H  H32  1  0.090914  0.503642  0.124239  1
  H  H33  1  0.909086  0.503642  0.624239  1
  H  H34  1  0.369593  0.553911  0.623190  1
  H  H35  1  0.630407  0.553911  0.123190  1
  H  H36  1  0.834497  0.611157  0.688655  1
  H  H37  1  0.165503  0.611157  0.188655  1
  H  H38  1  0.659927  0.949402  0.443409  1
  H  H39  1  0.340073  0.949402  0.943409  1
  O  O40  1  0.543052  0.020319  0.423951  1
  O  O41  1  0.456948  0.020319  0.923951  1
  O  O42  1  0.029837  0.044093  0.326619  1
  O  O43  1  0.970163  0.044093  0.826619  1
  O  O44  1  0.875711  0.111556  0.047501  1
  O  O45  1  0.124289  0.111556  0.547501  1
  O  O46  1  0.692772  0.198207  0.599660  1
  O  O47  1  0.307228  0.198207  0.099660  1
  O  O48  1  0.576969  0.214271  0.796991  1
  O  O49  1  0.423031  0.214271  0.296991  1
  O  O50  1  0.886758  0.234651  0.175653  1
  O  O51  1  0.113242  0.234651  0.675653  1
  O  O52  1  0.456429  0.333252  0.924189  1
  O  O53  1  0.543571  0.333252  0.424189  1
  O  O54  1  0.957672  0.354783  0.046676  1
  O  O55  1  0.042328  0.354783  0.546676  1
  O  O56  1  0.120068  0.385291  0.353141  1
  O  O57  1  0.879932  0.385291  0.853141  1
  O  O58  1  0.555962  0.454794  0.296037  1
  O  O59  1  0.444038  0.454794  0.796037  1
  O  O60  1  0.543052  0.520319  0.076049  1
  O  O61  1  0.456948  0.520319  0.576049  1
  O  O62  1  0.029837  0.544093  0.173381  1
  O  O63  1  0.970163  0.544093  0.673381  1
  O  O64  1  0.124289  0.611556  0.952499  1
  O  O65  1  0.875711  0.611556  0.452499  1
  O  O66  1  0.692772  0.698207  0.900340  1
  O  O67  1  0.307228  0.698207  0.400340  1
  O  O68  1  0.576969  0.714271  0.703009  1
  O  O69  1  0.423031  0.714271  0.203009  1
  O  O70  1  0.886758  0.734651  0.324347  1
  O  O71  1  0.113242  0.734651  0.824347  1
  O  O72  1  0.456429  0.833252  0.575811  1
  O  O73  1  0.543571  0.833252  0.075811  1
  O  O74  1  0.957672  0.854783  0.453324  1
  O  O75  1  0.042328  0.854783  0.953324  1
  O  O76  1  0.879932  0.885291  0.646859  1
  O  O77  1  0.120068  0.885291  0.146859  1
  O  O78  1  0.444038  0.954794  0.703963  1
  O  O79  1  0.555962  0.954794  0.203963  1
