# generated using pymatgen
data_Zn(CoO2)2
_symmetry_space_group_name_H-M   'P 1'
_cell_length_a   5.96780460
_cell_length_b   5.96780460
_cell_length_c   5.96780460
_cell_angle_alpha   60.00000000
_cell_angle_beta   60.00000000
_cell_angle_gamma   60.00000000
_symmetry_Int_Tables_number   1
_chemical_formula_structural   Zn(CoO2)2
_chemical_formula_sum   'Zn2 Co4 O8'
_cell_volume   150.28955127
_cell_formula_units_Z   2
loop_
 _symmetry_equiv_pos_site_id
 _symmetry_equiv_pos_as_xyz
  1  'x, y, z'
loop_
 _atom_site_type_symbol
 _atom_site_label
 _atom_site_symmetry_multiplicity
 _atom_site_fract_x
 _atom_site_fract_y
 _atom_site_fract_z
 _atom_site_occupancy
  Zn  Zn0  1  1.000000  1.000000  1.000000  1
  Zn  Zn1  1  0.250000  0.250000  0.250000  1
  Co  Co2  1  0.625000  0.625000  0.625000  1
  Co  Co3  1  0.625000  0.125000  0.625000  1
  Co  Co4  1  0.625000  0.625000  0.125000  1
  Co  Co5  1  0.125000  0.625000  0.625000  1
  O  O6  1  0.384968  0.845097  0.384968  1
  O  O7  1  0.384968  0.384968  0.845097  1
  O  O8  1  0.845097  0.384968  0.384968  1
  O  O9  1  0.865032  0.865032  0.865032  1
  O  O10  1  0.404903  0.865032  0.865032  1
  O  O11  1  0.865032  0.865032  0.404903  1
  O  O12  1  0.384968  0.384968  0.384968  1
  O  O13  1  0.865032  0.404903  0.865032  1
