# generated using pymatgen
data_Li4V3Fe5O16
_symmetry_space_group_name_H-M   'P 1'
_cell_length_a   5.92311390
_cell_length_b   5.92311390
_cell_length_c   9.58991929
_cell_angle_alpha   88.90980424
_cell_angle_beta   91.09019576
_cell_angle_gamma   119.70104072
_symmetry_Int_Tables_number   1
_chemical_formula_structural   Li4V3Fe5O16
_chemical_formula_sum   'Li4 V3 Fe5 O16'
_cell_volume   292.17365223
_cell_formula_units_Z   1
loop_
 _symmetry_equiv_pos_site_id
 _symmetry_equiv_pos_as_xyz
  1  'x, y, z'
loop_
 _atom_site_type_symbol
 _atom_site_label
 _atom_site_symmetry_multiplicity
 _atom_site_fract_x
 _atom_site_fract_y
 _atom_site_fract_z
 _atom_site_occupancy
  Li  Li0  1  0.332328  0.667672  0.891997  1
  Li  Li1  1  0.998589  0.001411  0.996828  1
  Li  Li2  1  0.002244  0.997756  0.495682  1
  Li  Li3  1  0.660466  0.339534  0.394853  1
  V  V4  1  0.169399  0.830601  0.214360  1
  V  V5  1  0.833559  0.663026  0.714935  1
  V  V6  1  0.336974  0.166441  0.714935  1
  Fe  Fe7  1  0.660562  0.833367  0.214693  1
  Fe  Fe8  1  0.334468  0.665532  0.490683  1
  Fe  Fe9  1  0.166633  0.339438  0.214693  1
  Fe  Fe10  1  0.830133  0.169867  0.712252  1
  Fe  Fe11  1  0.667575  0.332425  0.991114  1
  O  O12  1  0.678697  0.829592  0.600899  1
  O  O13  1  0.476558  0.523442  0.339604  1
  O  O14  1  0.319504  0.680496  0.103371  1
  O  O15  1  0.007581  0.992419  0.309812  1
  O  O16  1  0.002568  0.997432  0.811014  1
  O  O17  1  0.170408  0.321303  0.600899  1
  O  O18  1  0.464998  0.965350  0.336426  1
  O  O19  1  0.034650  0.535002  0.336426  1
  O  O20  1  0.837155  0.162845  0.098449  1
  O  O21  1  0.165259  0.834741  0.604272  1
  O  O22  1  0.960223  0.492377  0.835813  1
  O  O23  1  0.507623  0.039777  0.835813  1
  O  O24  1  0.660182  0.339818  0.603246  1
  O  O25  1  0.850628  0.673748  0.103391  1
  O  O26  1  0.518725  0.481275  0.838109  1
  O  O27  1  0.326252  0.149372  0.103391  1
