# generated using pymatgen
data_Li2FeF4
_symmetry_space_group_name_H-M   'P 1'
_cell_length_a   7.05621822
_cell_length_b   8.81868820
_cell_length_c   10.55423774
_cell_angle_alpha   90.00000000
_cell_angle_beta   90.77490216
_cell_angle_gamma   90.00000000
_symmetry_Int_Tables_number   1
_chemical_formula_structural   Li2FeF4
_chemical_formula_sum   'Li16 Fe8 F32'
_cell_volume   656.69414343
_cell_formula_units_Z   8
loop_
 _symmetry_equiv_pos_site_id
 _symmetry_equiv_pos_as_xyz
  1  'x, y, z'
loop_
 _atom_site_type_symbol
 _atom_site_label
 _atom_site_symmetry_multiplicity
 _atom_site_fract_x
 _atom_site_fract_y
 _atom_site_fract_z
 _atom_site_occupancy
  Li  Li0  1  0.822925  0.558378  0.350678  1
  Li  Li1  1  0.744791  0.063349  0.133558  1
  Li  Li2  1  0.822925  0.941622  0.850678  1
  Li  Li3  1  0.744791  0.436651  0.633558  1
  Li  Li4  1  0.707474  0.417288  0.111685  1
  Li  Li5  1  0.738246  0.889056  0.371743  1
  Li  Li6  1  0.707474  0.082712  0.611685  1
  Li  Li7  1  0.738246  0.610944  0.871743  1
  Li  Li8  1  0.261754  0.389056  0.128257  1
  Li  Li9  1  0.292526  0.917288  0.388315  1
  Li  Li10  1  0.261754  0.110944  0.628257  1
  Li  Li11  1  0.292526  0.582712  0.888315  1
  Li  Li12  1  0.255209  0.563349  0.366442  1
  Li  Li13  1  0.177075  0.058378  0.149322  1
  Li  Li14  1  0.255209  0.936651  0.866442  1
  Li  Li15  1  0.177075  0.441622  0.649322  1
  Fe  Fe16  1  0.980617  0.245362  0.386927  1
  Fe  Fe17  1  0.980617  0.254638  0.886927  1
  Fe  Fe18  1  0.526108  0.248697  0.368529  1
  Fe  Fe19  1  0.473892  0.748697  0.131471  1
  Fe  Fe20  1  0.526108  0.251303  0.868529  1
  Fe  Fe21  1  0.473892  0.751303  0.631471  1
  Fe  Fe22  1  0.019383  0.745362  0.113073  1
  Fe  Fe23  1  0.019383  0.754638  0.613073  1
  F  F24  1  0.953429  0.944051  0.189886  1
  F  F25  1  0.953429  0.555949  0.689886  1
  F  F26  1  0.886289  0.730118  0.440267  1
  F  F27  1  0.886289  0.769882  0.940267  1
  F  F28  1  0.742017  0.244870  0.231601  1
  F  F29  1  0.819997  0.074692  0.444946  1
  F  F30  1  0.747162  0.625544  0.183591  1
  F  F31  1  0.742017  0.255130  0.731601  1
  F  F32  1  0.819997  0.425308  0.944946  1
  F  F33  1  0.736976  0.395407  0.457128  1
  F  F34  1  0.747162  0.874456  0.683591  1
  F  F35  1  0.736976  0.104593  0.957128  1
  F  F36  1  0.580329  0.929578  0.220893  1
  F  F37  1  0.580329  0.570422  0.720893  1
  F  F38  1  0.482333  0.338519  0.035003  1
  F  F39  1  0.517667  0.838519  0.464997  1
  F  F40  1  0.482333  0.161481  0.535003  1
  F  F41  1  0.517667  0.661481  0.964997  1
  F  F42  1  0.419671  0.429578  0.279107  1
  F  F43  1  0.419671  0.070422  0.779107  1
  F  F44  1  0.263024  0.895407  0.042872  1
  F  F45  1  0.252838  0.125544  0.316409  1
  F  F46  1  0.263024  0.604593  0.542872  1
  F  F47  1  0.180003  0.574692  0.055054  1
  F  F48  1  0.257983  0.744870  0.268399  1
  F  F49  1  0.252838  0.374456  0.816409  1
  F  F50  1  0.180003  0.925308  0.555054  1
  F  F51  1  0.257983  0.755130  0.768399  1
  F  F52  1  0.113711  0.230118  0.059733  1
  F  F53  1  0.113711  0.269882  0.559733  1
  F  F54  1  0.046571  0.444051  0.310114  1
  F  F55  1  0.046571  0.055949  0.810114  1
