# generated using pymatgen
data_MnSb3(PO4)4
_symmetry_space_group_name_H-M   'P 1'
_cell_length_a   4.99013430
_cell_length_b   6.70251396
_cell_length_c   10.29671101
_cell_angle_alpha   90.00000000
_cell_angle_beta   91.30730880
_cell_angle_gamma   90.00000000
_symmetry_Int_Tables_number   1
_chemical_formula_structural   MnSb3(PO4)4
_chemical_formula_sum   'Mn1 Sb3 P4 O16'
_cell_volume   344.29873503
_cell_formula_units_Z   1
loop_
 _symmetry_equiv_pos_site_id
 _symmetry_equiv_pos_as_xyz
  1  'x, y, z'
loop_
 _atom_site_type_symbol
 _atom_site_label
 _atom_site_symmetry_multiplicity
 _atom_site_fract_x
 _atom_site_fract_y
 _atom_site_fract_z
 _atom_site_occupancy
  Mn  Mn0  1  0.930559  0.500000  0.279512  1
  Sb  Sb1  1  0.061051  0.000000  0.718165  1
  Sb  Sb2  1  0.444264  0.000000  0.213679  1
  Sb  Sb3  1  0.545026  0.500000  0.783837  1
  P  P4  1  0.100774  0.500000  0.590513  1
  P  P5  1  0.383630  0.500000  0.104226  1
  P  P6  1  0.633845  0.000000  0.909447  1
  P  P7  1  0.884612  0.000000  0.395769  1
  O  O8  1  0.161290  0.500000  0.447120  1
  O  O9  1  0.247262  0.322072  0.667508  1
  O  O10  1  0.247262  0.677928  0.667508  1
  O  O11  1  0.192910  0.000000  0.384123  1
  O  O12  1  0.328188  0.000000  0.901346  1
  O  O13  1  0.253495  0.317159  0.177668  1
  O  O14  1  0.253495  0.682841  0.177668  1
  O  O15  1  0.293132  0.500000  0.959232  1
  O  O16  1  0.730365  0.000000  0.052864  1
  O  O17  1  0.762499  0.821619  0.830284  1
  O  O18  1  0.762499  0.178381  0.830284  1
  O  O19  1  0.687306  0.500000  0.118750  1
  O  O20  1  0.797577  0.500000  0.611314  1
  O  O21  1  0.744923  0.820501  0.319995  1
  O  O22  1  0.744923  0.179499  0.319995  1
  O  O23  1  0.809113  0.000000  0.539197  1
