# generated using pymatgen
data_Li2Co(CO3)2
_symmetry_space_group_name_H-M   'P 1'
_cell_length_a   7.68941865
_cell_length_b   9.59659479
_cell_length_c   7.82624793
_cell_angle_alpha   90.00000000
_cell_angle_beta   110.87463948
_cell_angle_gamma   90.00000000
_symmetry_Int_Tables_number   1
_chemical_formula_structural   Li2Co(CO3)2
_chemical_formula_sum   'Li8 Co4 C8 O24'
_cell_volume   539.60947339
_cell_formula_units_Z   4
loop_
 _symmetry_equiv_pos_site_id
 _symmetry_equiv_pos_as_xyz
  1  'x, y, z'
loop_
 _atom_site_type_symbol
 _atom_site_label
 _atom_site_symmetry_multiplicity
 _atom_site_fract_x
 _atom_site_fract_y
 _atom_site_fract_z
 _atom_site_occupancy
  Li  Li0  1  0.547145  0.132302  0.244477  1
  Li  Li1  1  0.195427  0.639617  0.923914  1
  Li  Li2  1  0.804573  0.139617  0.076086  1
  Li  Li3  1  0.452855  0.632302  0.755523  1
  Li  Li4  1  0.984720  0.365761  0.712120  1
  Li  Li5  1  0.713829  0.863680  0.420165  1
  Li  Li6  1  0.286171  0.363680  0.579835  1
  Li  Li7  1  0.015280  0.865761  0.287880  1
  Co  Co8  1  0.674253  0.625137  0.183526  1
  Co  Co9  1  0.325747  0.125137  0.816474  1
  Co  Co10  1  0.178348  0.882166  0.688860  1
  Co  Co11  1  0.821652  0.382166  0.311140  1
  C  C12  1  0.551780  0.894071  0.012710  1
  C  C13  1  0.448220  0.394071  0.987290  1
  C  C14  1  0.915861  0.494350  0.012276  1
  C  C15  1  0.084139  0.994350  0.987724  1
  C  C16  1  0.406811  0.997963  0.501432  1
  C  C17  1  0.593189  0.497963  0.498568  1
  C  C18  1  0.048774  0.615197  0.518514  1
  C  C19  1  0.951226  0.115197  0.481486  1
  O  O20  1  0.663590  0.835642  0.159052  1
  O  O21  1  0.549352  0.320363  0.124019  1
  O  O22  1  0.454022  0.530778  0.989573  1
  O  O23  1  0.545978  0.030778  0.010427  1
  O  O24  1  0.450648  0.820363  0.875981  1
  O  O25  1  0.895044  0.378103  0.092020  1
  O  O26  1  0.336410  0.335642  0.840948  1
  O  O27  1  0.839158  0.608875  0.038371  1
  O  O28  1  0.986137  0.995297  0.090753  1
  O  O29  1  0.013863  0.495297  0.909247  1
  O  O30  1  0.160842  0.108875  0.961629  1
  O  O31  1  0.418878  0.104121  0.609079  1
  O  O32  1  0.104956  0.878103  0.907980  1
  O  O33  1  0.488620  0.491618  0.594986  1
  O  O34  1  0.288545  0.897087  0.490431  1
  O  O35  1  0.711455  0.397087  0.509569  1
  O  O36  1  0.511380  0.991618  0.405014  1
  O  O37  1  0.172620  0.667147  0.664096  1
  O  O38  1  0.581122  0.604121  0.390921  1
  O  O39  1  0.949120  0.980773  0.505383  1
  O  O40  1  0.070002  0.196452  0.595381  1
  O  O41  1  0.929998  0.696452  0.404619  1
  O  O42  1  0.050880  0.480773  0.494617  1
  O  O43  1  0.827380  0.167147  0.335904  1
