# generated using pymatgen
data_Al2CoCl8
_symmetry_space_group_name_H-M   'P 1'
_cell_length_a   8.05772613
_cell_length_b   8.05772613
_cell_length_c   11.65856336
_cell_angle_alpha   87.11215997
_cell_angle_beta   92.88784003
_cell_angle_gamma   120.23761637
_symmetry_Int_Tables_number   1
_chemical_formula_structural   Al2CoCl8
_chemical_formula_sum   'Al4 Co2 Cl16'
_cell_volume   652.86206767
_cell_formula_units_Z   2
loop_
 _symmetry_equiv_pos_site_id
 _symmetry_equiv_pos_as_xyz
  1  'x, y, z'
loop_
 _atom_site_type_symbol
 _atom_site_label
 _atom_site_symmetry_multiplicity
 _atom_site_fract_x
 _atom_site_fract_y
 _atom_site_fract_z
 _atom_site_occupancy
  Al  Al0  1  0.676680  0.838648  0.944699  1
  Al  Al1  1  0.838648  0.676680  0.555301  1
  Al  Al2  1  0.161352  0.323320  0.444699  1
  Al  Al3  1  0.323320  0.161352  0.055301  1
  Co  Co4  1  0.001876  0.001876  0.250000  1
  Co  Co5  1  0.998124  0.998124  0.750000  1
  Cl  Cl6  1  0.124196  0.838269  0.637774  1
  Cl  Cl7  1  0.161731  0.875804  0.137774  1
  Cl  Cl8  1  0.383374  0.689765  0.898266  1
  Cl  Cl9  1  0.714621  0.840338  0.618310  1
  Cl  Cl10  1  0.700123  0.853404  0.132260  1
  Cl  Cl11  1  0.310235  0.616626  0.398266  1
  Cl  Cl12  1  0.840338  0.714621  0.881690  1
  Cl  Cl13  1  0.853404  0.700123  0.367740  1
  Cl  Cl14  1  0.146596  0.299877  0.632260  1
  Cl  Cl15  1  0.159662  0.285379  0.118310  1
  Cl  Cl16  1  0.689765  0.383374  0.601734  1
  Cl  Cl17  1  0.299877  0.146596  0.867740  1
  Cl  Cl18  1  0.285379  0.159662  0.381690  1
  Cl  Cl19  1  0.616626  0.310235  0.101734  1
  Cl  Cl20  1  0.838269  0.124196  0.862226  1
  Cl  Cl21  1  0.875804  0.161731  0.362226  1
