# generated using pymatgen
data_Ba4(PtO3)3
_symmetry_space_group_name_H-M   'P 1'
_cell_length_a   8.76169565
_cell_length_b   10.19561688
_cell_length_c   10.24044008
_cell_angle_alpha   119.43524625
_cell_angle_beta   89.94473689
_cell_angle_gamma   90.18576195
_symmetry_Int_Tables_number   1
_chemical_formula_structural   Ba4(PtO3)3
_chemical_formula_sum   'Ba12 Pt9 O27'
_cell_volume   796.69483433
_cell_formula_units_Z   3
loop_
 _symmetry_equiv_pos_site_id
 _symmetry_equiv_pos_as_xyz
  1  'x, y, z'
loop_
 _atom_site_type_symbol
 _atom_site_label
 _atom_site_symmetry_multiplicity
 _atom_site_fract_x
 _atom_site_fract_y
 _atom_site_fract_z
 _atom_site_occupancy
  Ba  Ba0  1  0.252224  0.322111  0.996067  1
  Ba  Ba1  1  0.001019  0.640491  0.007102  1
  Ba  Ba2  1  0.505483  0.659514  0.007825  1
  Ba  Ba3  1  0.249730  0.678369  0.697464  1
  Ba  Ba4  1  0.251519  0.024383  0.339114  1
  Ba  Ba5  1  0.750468  0.702106  0.674425  1
  Ba  Ba6  1  0.999799  0.354119  0.356849  1
  Ba  Ba7  1  0.503130  0.334695  0.340745  1
  Ba  Ba8  1  0.496928  0.006785  0.670510  1
  Ba  Ba9  1  0.002107  0.006648  0.659460  1
  Ba  Ba10  1  0.748272  0.327421  0.020931  1
  Ba  Ba11  1  0.747922  0.996865  0.333052  1
  Pt  Pt12  1  0.754253  0.411446  0.741258  1
  Pt  Pt13  1  0.336886  0.999214  0.996900  1
  Pt  Pt14  1  0.659025  0.999853  0.997946  1
  Pt  Pt15  1  0.093122  0.334618  0.663361  1
  Pt  Pt16  1  0.415939  0.337071  0.664797  1
  Pt  Pt17  1  0.247547  0.734669  0.406956  1
  Pt  Pt18  1  0.908270  0.656344  0.329563  1
  Pt  Pt19  1  0.585431  0.659702  0.330898  1
  Pt  Pt20  1  0.996917  0.999907  0.076132  1
  O  O21  1  0.497605  0.149021  0.003964  1
  O  O22  1  0.771766  0.009265  0.827504  1
  O  O23  1  0.571710  0.332709  0.809695  1
  O  O24  1  0.936070  0.327111  0.807328  1
  O  O25  1  0.255879  0.490002  0.829605  1
  O  O26  1  0.254586  0.188146  0.662754  1
  O  O27  1  0.815283  0.850561  0.999939  1
  O  O28  1  0.939554  0.492422  0.673887  1
  O  O29  1  0.498575  0.851595  0.852256  1
  O  O30  1  0.571453  0.491694  0.673267  1
  O  O31  1  0.977930  0.166068  0.490117  1
  O  O32  1  0.226524  0.000690  0.823474  1
  O  O33  1  0.528573  0.171573  0.490678  1
  O  O34  1  0.254786  0.350176  0.521902  1
  O  O35  1  0.432671  0.665230  0.484707  1
  O  O36  1  0.060555  0.667240  0.487533  1
  O  O37  1  0.744199  0.514624  0.343671  1
  O  O38  1  0.749798  0.820609  0.481568  1
  O  O39  1  0.811078  0.146195  0.155584  1
  O  O40  1  0.182960  0.148543  0.148337  1
  O  O41  1  0.021547  0.477858  0.161801  1
  O  O42  1  0.470002  0.489787  0.162376  1
  O  O43  1  0.066529  0.801644  0.325373  1
  O  O44  1  0.428915  0.805948  0.329181  1
  O  O45  1  0.747395  0.659636  0.182545  1
  O  O46  1  0.499484  0.994364  0.150791  1
  O  O47  1  0.178579  0.852060  0.001511  1
