# generated using pymatgen
data_LiV2P4(HO8)2
_symmetry_space_group_name_H-M   'P 1'
_cell_length_a   7.35948439
_cell_length_b   7.90623293
_cell_length_c   9.76170511
_cell_angle_alpha   90.00000000
_cell_angle_beta   104.43688065
_cell_angle_gamma   90.00000000
_symmetry_Int_Tables_number   1
_chemical_formula_structural   LiV2P4(HO8)2
_chemical_formula_sum   'Li2 V4 P8 H4 O32'
_cell_volume   550.05703031
_cell_formula_units_Z   2
loop_
 _symmetry_equiv_pos_site_id
 _symmetry_equiv_pos_as_xyz
  1  'x, y, z'
loop_
 _atom_site_type_symbol
 _atom_site_label
 _atom_site_symmetry_multiplicity
 _atom_site_fract_x
 _atom_site_fract_y
 _atom_site_fract_z
 _atom_site_occupancy
  Li  Li0  1  0.899419  0.370171  0.175372  1
  Li  Li1  1  0.100581  0.870171  0.824628  1
  V  V2  1  0.260574  0.506117  0.379267  1
  V  V3  1  0.739426  0.006117  0.620733  1
  V  V4  1  0.257176  0.495166  0.875158  1
  V  V5  1  0.742824  0.995166  0.124842  1
  P  P6  1  0.516423  0.349009  0.187732  1
  P  P7  1  0.476025  0.855694  0.307458  1
  P  P8  1  0.017792  0.149867  0.435636  1
  P  P9  1  0.982208  0.649867  0.564364  1
  P  P10  1  0.523975  0.355694  0.692542  1
  P  P11  1  0.483577  0.849009  0.812268  1
  P  P12  1  0.011605  0.156473  0.937971  1
  P  P13  1  0.988395  0.656473  0.062029  1
  H  H14  1  0.759402  0.509962  0.392014  1
  H  H15  1  0.240598  0.009962  0.607986  1
  H  H16  1  0.765035  0.507903  0.893509  1
  H  H17  1  0.234965  0.007903  0.106491  1
  O  O18  1  0.096656  0.554814  0.195274  1
  O  O19  1  0.558863  0.169573  0.146433  1
  O  O20  1  0.611750  0.826194  0.212911  1
  O  O21  1  0.695421  0.443281  0.254744  1
  O  O22  1  0.902931  0.056762  0.303302  1
  O  O23  1  0.064637  0.328182  0.386028  1
  O  O24  1  0.301072  0.952415  0.244382  1
  O  O25  1  0.383019  0.343378  0.291428  1
  O  O26  1  0.111503  0.660880  0.459386  1
  O  O27  1  0.201101  0.057903  0.503234  1
  O  O28  1  0.421559  0.675139  0.357210  1
  O  O29  1  0.597352  0.941017  0.447115  1
  O  O30  1  0.798899  0.557903  0.496766  1
  O  O31  1  0.888497  0.160880  0.540614  1
  O  O32  1  0.935363  0.828182  0.613972  1
  O  O33  1  0.097069  0.556762  0.696698  1
  O  O34  1  0.402648  0.441017  0.552885  1
  O  O35  1  0.578441  0.175139  0.642790  1
  O  O36  1  0.616981  0.843378  0.708572  1
  O  O37  1  0.698928  0.452415  0.755618  1
  O  O38  1  0.903344  0.054814  0.804726  1
  O  O39  1  0.068603  0.329177  0.895666  1
  O  O40  1  0.304579  0.943281  0.745256  1
  O  O41  1  0.388250  0.326194  0.787089  1
  O  O42  1  0.112714  0.675773  0.956459  1
  O  O43  1  0.186391  0.044020  0.997399  1
  O  O44  1  0.441137  0.669573  0.853567  1
  O  O45  1  0.597803  0.943867  0.946335  1
  O  O46  1  0.813609  0.544020  0.002601  1
  O  O47  1  0.887286  0.175773  0.043541  1
  O  O48  1  0.931397  0.829177  0.104334  1
  O  O49  1  0.402197  0.443867  0.053665  1
