# generated using pymatgen
data_Hf2N2O
_symmetry_space_group_name_H-M   'P 1'
_cell_length_a   8.71071908
_cell_length_b   8.72468330
_cell_length_c   8.72992534
_cell_angle_alpha   109.27055419
_cell_angle_beta   109.55878022
_cell_angle_gamma   109.37628581
_symmetry_Int_Tables_number   1
_chemical_formula_structural   Hf2N2O
_chemical_formula_sum   'Hf16 N16 O8'
_cell_volume   512.03573776
_cell_formula_units_Z   8
loop_
 _symmetry_equiv_pos_site_id
 _symmetry_equiv_pos_as_xyz
  1  'x, y, z'
loop_
 _atom_site_type_symbol
 _atom_site_label
 _atom_site_symmetry_multiplicity
 _atom_site_fract_x
 _atom_site_fract_y
 _atom_site_fract_z
 _atom_site_occupancy
  Hf  Hf0  1  0.970907  0.748756  0.725549  1
  Hf  Hf1  1  0.501247  0.508792  0.510758  1
  Hf  Hf2  1  0.781234  0.531673  0.244186  1
  Hf  Hf3  1  0.712659  0.963417  0.748680  1
  Hf  Hf4  1  0.259488  0.217910  0.961241  1
  Hf  Hf5  1  0.249681  0.706321  0.463664  1
  Hf  Hf6  1  0.995923  0.007856  0.497361  1
  Hf  Hf7  1  0.535139  0.251330  0.783922  1
  Hf  Hf8  1  0.472693  0.747466  0.213906  1
  Hf  Hf9  1  0.002871  0.488927  0.992564  1
  Hf  Hf10  1  0.741762  0.789155  0.028763  1
  Hf  Hf11  1  0.748569  0.282004  0.539947  1
  Hf  Hf12  1  0.293552  0.038570  0.252307  1
  Hf  Hf13  1  0.214584  0.462986  0.750262  1
  Hf  Hf14  1  0.502217  0.000379  0.012084  1
  Hf  Hf15  1  0.030666  0.256859  0.286747  1
  N  N16  1  0.538210  0.276341  0.047198  1
  N  N17  1  0.990398  0.462201  0.230240  1
  N  N18  1  0.507322  0.741003  0.466702  1
  N  N19  1  0.742208  0.723846  0.771975  1
  N  N20  1  0.225377  0.959762  0.967608  1
  N  N21  1  0.267731  0.229671  0.723603  1
  N  N22  1  0.008746  0.542924  0.771494  1
  N  N23  1  0.489251  0.265067  0.533542  1
  N  N24  1  0.732382  0.760026  0.271093  1
  N  N25  1  0.465493  0.726603  0.949874  1
  N  N26  1  0.773859  0.226022  0.764739  1
  N  N27  1  0.239096  0.464175  0.016922  1
  N  N28  1  0.950023  0.222076  0.482430  1
  N  N29  1  0.542623  0.030641  0.272446  1
  N  N30  1  0.273929  0.512204  0.544605  1
  N  N31  1  0.773678  0.045116  0.032864  1
  O  O32  1  0.449718  0.966137  0.723673  1
  O  O33  1  0.050493  0.775653  0.520821  1
  O  O34  1  0.040789  0.990925  0.267363  1
  O  O35  1  0.729339  0.492078  0.451644  1
  O  O36  1  0.258321  0.269439  0.227790  1
  O  O37  1  0.958871  0.006867  0.728724  1
  O  O38  1  0.219095  0.775489  0.235747  1
  O  O39  1  0.759858  0.533331  0.984962  1
