# generated using pymatgen
data_K2P2H2O7
_symmetry_space_group_name_H-M   'P 1'
_cell_length_a   8.24622765
_cell_length_b   8.31573096
_cell_length_c   11.28488741
_cell_angle_alpha   82.78484075
_cell_angle_beta   84.64635505
_cell_angle_gamma   88.89999453
_symmetry_Int_Tables_number   1
_chemical_formula_structural   K2P2H2O7
_chemical_formula_sum   'K8 P8 H8 O28'
_cell_volume   764.34468578
_cell_formula_units_Z   4
loop_
 _symmetry_equiv_pos_site_id
 _symmetry_equiv_pos_as_xyz
  1  'x, y, z'
loop_
 _atom_site_type_symbol
 _atom_site_label
 _atom_site_symmetry_multiplicity
 _atom_site_fract_x
 _atom_site_fract_y
 _atom_site_fract_z
 _atom_site_occupancy
  K  K0  1  0.246069  0.705676  0.947657  1
  K  K1  1  0.753931  0.294324  0.052343  1
  K  K2  1  0.713302  0.881101  0.925181  1
  K  K3  1  0.286698  0.118899  0.074819  1
  K  K4  1  0.608909  0.701449  0.570551  1
  K  K5  1  0.391091  0.298551  0.429449  1
  K  K6  1  0.819876  0.222420  0.548835  1
  K  K7  1  0.180124  0.777580  0.451165  1
  P  P8  1  0.372447  0.996043  0.703784  1
  P  P9  1  0.627553  0.003957  0.296216  1
  P  P10  1  0.057531  0.138838  0.801662  1
  P  P11  1  0.942469  0.861162  0.198338  1
  P  P12  1  0.213941  0.454884  0.714256  1
  P  P13  1  0.786059  0.545116  0.285744  1
  P  P14  1  0.518030  0.286950  0.782854  1
  P  P15  1  0.481970  0.713050  0.217146  1
  H  H16  1  0.725419  0.522155  0.826524  1
  H  H17  1  0.274581  0.477845  0.173476  1
  H  H18  1  0.896657  0.555892  0.861568  1
  H  H19  1  0.103343  0.444108  0.138432  1
  H  H20  1  0.937850  0.881101  0.657204  1
  H  H21  1  0.062150  0.118899  0.342796  1
  H  H22  1  0.971848  0.699772  0.675530  1
  H  H23  1  0.028152  0.300228  0.324470  1
  O  O24  1  0.226171  0.030374  0.806598  1
  O  O25  1  0.773829  0.969626  0.193402  1
  O  O26  1  0.311298  0.983254  0.585070  1
  O  O27  1  0.688702  0.016746  0.414930  1
  O  O28  1  0.472807  0.862090  0.763158  1
  O  O29  1  0.527193  0.137910  0.236842  1
  O  O30  1  0.932613  0.049320  0.747137  1
  O  O31  1  0.067387  0.950680  0.252863  1
  O  O32  1  0.021359  0.189319  0.923877  1
  O  O33  1  0.978641  0.810681  0.076123  1
  O  O34  1  0.112754  0.292119  0.700900  1
  O  O35  1  0.887246  0.707881  0.299100  1
  O  O36  1  0.296055  0.512927  0.592911  1
  O  O37  1  0.703945  0.487073  0.407089  1
  O  O38  1  0.103361  0.569883  0.777607  1
  O  O39  1  0.896639  0.430117  0.222393  1
  O  O40  1  0.643933  0.402595  0.718663  1
  O  O41  1  0.356067  0.597405  0.281337  1
  O  O42  1  0.548536  0.190780  0.900386  1
  O  O43  1  0.451464  0.809220  0.099614  1
  O  O44  1  0.474682  0.168249  0.685333  1
  O  O45  1  0.525318  0.831751  0.314667  1
  O  O46  1  0.346147  0.385600  0.807318  1
  O  O47  1  0.653853  0.614400  0.192682  1
  O  O48  1  0.780644  0.567050  0.889305  1
  O  O49  1  0.219356  0.432950  0.110695  1
  O  O50  1  0.919178  0.781711  0.620750  1
  O  O51  1  0.080822  0.218289  0.379250  1
