# generated using pymatgen
data_Li2CuF4
_symmetry_space_group_name_H-M   'P 1'
_cell_length_a   5.15100127
_cell_length_b   5.15100127
_cell_length_c   5.87196031
_cell_angle_alpha   90.00000000
_cell_angle_beta   90.00000000
_cell_angle_gamma   110.48758669
_symmetry_Int_Tables_number   1
_chemical_formula_structural   Li2CuF4
_chemical_formula_sum   'Li4 Cu2 F8'
_cell_volume   145.94499925
_cell_formula_units_Z   2
loop_
 _symmetry_equiv_pos_site_id
 _symmetry_equiv_pos_as_xyz
  1  'x, y, z'
loop_
 _atom_site_type_symbol
 _atom_site_label
 _atom_site_symmetry_multiplicity
 _atom_site_fract_x
 _atom_site_fract_y
 _atom_site_fract_z
 _atom_site_occupancy
  Li  Li0  1  0.502286  0.002286  0.250000  1
  Li  Li1  1  0.997714  0.497714  0.750000  1
  Li  Li2  1  0.002286  0.502286  0.250000  1
  Li  Li3  1  0.497714  0.997714  0.750000  1
  Cu  Cu4  1  0.000000  0.000000  0.000000  1
  Cu  Cu5  1  0.500000  0.500000  0.500000  1
  F  F6  1  0.768014  0.231986  1.000000  1
  F  F7  1  0.731986  0.268014  0.500000  1
  F  F8  1  0.234049  0.234049  0.767015  1
  F  F9  1  0.265951  0.265951  0.267015  1
  F  F10  1  0.734049  0.734049  0.732985  1
  F  F11  1  0.765951  0.765951  0.232985  1
  F  F12  1  0.268014  0.731986  0.500000  1
  F  F13  1  0.231986  0.768014  0.000000  1
