# generated using pymatgen
data_Sr2Li2NiO4
_symmetry_space_group_name_H-M   'P 1'
_cell_length_a   5.44246776
_cell_length_b   5.58388485
_cell_length_c   8.31710602
_cell_angle_alpha   106.18087924
_cell_angle_beta   96.57968204
_cell_angle_gamma   98.08812173
_symmetry_Int_Tables_number   1
_chemical_formula_structural   Sr2Li2NiO4
_chemical_formula_sum   'Sr4 Li4 Ni2 O8'
_cell_volume   237.16607160
_cell_formula_units_Z   2
loop_
 _symmetry_equiv_pos_site_id
 _symmetry_equiv_pos_as_xyz
  1  'x, y, z'
loop_
 _atom_site_type_symbol
 _atom_site_label
 _atom_site_symmetry_multiplicity
 _atom_site_fract_x
 _atom_site_fract_y
 _atom_site_fract_z
 _atom_site_occupancy
  Sr  Sr0  1  0.275057  0.779183  0.025134  1
  Sr  Sr1  1  0.833940  0.855978  0.306209  1
  Sr  Sr2  1  0.166060  0.144022  0.693791  1
  Sr  Sr3  1  0.724943  0.220817  0.974866  1
  Li  Li4  1  0.802431  0.378896  0.453834  1
  Li  Li5  1  0.415261  0.115134  0.412910  1
  Li  Li6  1  0.584739  0.884866  0.587090  1
  Li  Li7  1  0.197569  0.621104  0.546166  1
  Ni  Ni8  1  0.293783  0.389121  0.245216  1
  Ni  Ni9  1  0.706217  0.610879  0.754784  1
  O  O10  1  0.577892  0.191452  0.237202  1
  O  O11  1  0.201439  0.301372  0.995924  1
  O  O12  1  0.125608  0.265681  0.422904  1
  O  O13  1  0.331909  0.756424  0.359912  1
  O  O14  1  0.668091  0.243576  0.640088  1
  O  O15  1  0.874392  0.734319  0.577096  1
  O  O16  1  0.798561  0.698628  0.004076  1
  O  O17  1  0.422108  0.808548  0.762798  1
