# generated using pymatgen
data_LiAg2F6
_symmetry_space_group_name_H-M   'P 1'
_cell_length_a   5.60953328
_cell_length_b   5.48718029
_cell_length_c   16.08450181
_cell_angle_alpha   90.00000000
_cell_angle_beta   93.81268270
_cell_angle_gamma   90.00000000
_symmetry_Int_Tables_number   1
_chemical_formula_structural   LiAg2F6
_chemical_formula_sum   'Li4 Ag8 F24'
_cell_volume   493.99359266
_cell_formula_units_Z   4
loop_
 _symmetry_equiv_pos_site_id
 _symmetry_equiv_pos_as_xyz
  1  'x, y, z'
loop_
 _atom_site_type_symbol
 _atom_site_label
 _atom_site_symmetry_multiplicity
 _atom_site_fract_x
 _atom_site_fract_y
 _atom_site_fract_z
 _atom_site_occupancy
  Li  Li0  1  0.156763  0.462200  0.932589  1
  Li  Li1  1  0.156763  0.037800  0.432589  1
  Li  Li2  1  0.843237  0.962200  0.567411  1
  Li  Li3  1  0.843237  0.537800  0.067411  1
  Ag  Ag4  1  0.241844  0.985812  0.754944  1
  Ag  Ag5  1  0.299110  0.528246  0.576915  1
  Ag  Ag6  1  0.241844  0.514188  0.254944  1
  Ag  Ag7  1  0.299110  0.971754  0.076915  1
  Ag  Ag8  1  0.700890  0.028246  0.923085  1
  Ag  Ag9  1  0.758156  0.485812  0.745056  1
  Ag  Ag10  1  0.700890  0.471754  0.423085  1
  Ag  Ag11  1  0.758156  0.014188  0.245056  1
  F  F12  1  0.009207  0.146515  0.826756  1
  F  F13  1  0.009207  0.353485  0.326756  1
  F  F14  1  0.075647  0.143423  0.655101  1
  F  F15  1  0.079533  0.763189  0.506066  1
  F  F16  1  0.075647  0.356577  0.155101  1
  F  F17  1  0.079533  0.736811  0.006066  1
  F  F18  1  0.393543  0.239449  0.978423  1
  F  F19  1  0.424486  0.828810  0.853052  1
  F  F20  1  0.393543  0.260551  0.478423  1
  F  F21  1  0.469329  0.825128  0.683115  1
  F  F22  1  0.424486  0.671190  0.353052  1
  F  F23  1  0.530671  0.325128  0.816885  1
  F  F24  1  0.469329  0.674872  0.183115  1
  F  F25  1  0.575514  0.328810  0.646948  1
  F  F26  1  0.530671  0.174872  0.316885  1
  F  F27  1  0.606457  0.739449  0.521577  1
  F  F28  1  0.575514  0.171190  0.146948  1
  F  F29  1  0.606457  0.760551  0.021577  1
  F  F30  1  0.920467  0.263189  0.993934  1
  F  F31  1  0.924353  0.643423  0.844899  1
  F  F32  1  0.920467  0.236811  0.493934  1
  F  F33  1  0.924353  0.856577  0.344899  1
  F  F34  1  0.990793  0.646515  0.673244  1
  F  F35  1  0.990793  0.853485  0.173244  1
