# generated using pymatgen
data_Ba(HO)2
_symmetry_space_group_name_H-M   'P 1'
_cell_length_a   7.30199502
_cell_length_b   11.38269610
_cell_length_c   16.71623909
_cell_angle_alpha   90.00000000
_cell_angle_beta   90.00000000
_cell_angle_gamma   90.00000000
_symmetry_Int_Tables_number   1
_chemical_formula_structural   Ba(HO)2
_chemical_formula_sum   'Ba20 H40 O40'
_cell_volume   1389.39345149
_cell_formula_units_Z   20
loop_
 _symmetry_equiv_pos_site_id
 _symmetry_equiv_pos_as_xyz
  1  'x, y, z'
loop_
 _atom_site_type_symbol
 _atom_site_label
 _atom_site_symmetry_multiplicity
 _atom_site_fract_x
 _atom_site_fract_y
 _atom_site_fract_z
 _atom_site_occupancy
  Ba  Ba0  1  0.041591  0.813278  0.250000  1
  Ba  Ba1  1  0.458409  0.313278  0.250000  1
  Ba  Ba2  1  0.958409  0.186722  0.750000  1
  Ba  Ba3  1  0.541591  0.686722  0.750000  1
  Ba  Ba4  1  0.581994  0.977873  0.375458  1
  Ba  Ba5  1  0.918006  0.477873  0.124542  1
  Ba  Ba6  1  0.418006  0.022127  0.875458  1
  Ba  Ba7  1  0.081994  0.522127  0.624542  1
  Ba  Ba8  1  0.418006  0.022127  0.624542  1
  Ba  Ba9  1  0.081994  0.522127  0.875458  1
  Ba  Ba10  1  0.581994  0.977873  0.124542  1
  Ba  Ba11  1  0.918006  0.477873  0.375458  1
  Ba  Ba12  1  0.073980  0.834436  0.487727  1
  Ba  Ba13  1  0.426020  0.334436  0.012273  1
  Ba  Ba14  1  0.926020  0.165564  0.987727  1
  Ba  Ba15  1  0.573980  0.665564  0.512273  1
  Ba  Ba16  1  0.926020  0.165564  0.512273  1
  Ba  Ba17  1  0.573980  0.665564  0.987727  1
  Ba  Ba18  1  0.073980  0.834436  0.012273  1
  Ba  Ba19  1  0.426020  0.334436  0.487727  1
  H  H20  1  0.249518  0.561057  0.250000  1
  H  H21  1  0.250482  0.061057  0.250000  1
  H  H22  1  0.750482  0.438943  0.750000  1
  H  H23  1  0.749518  0.938943  0.750000  1
  H  H24  1  0.594598  0.751122  0.250000  1
  H  H25  1  0.905402  0.251122  0.250000  1
  H  H26  1  0.405402  0.248878  0.750000  1
  H  H27  1  0.094598  0.748878  0.750000  1
  H  H28  1  0.039497  0.048226  0.338832  1
  H  H29  1  0.460503  0.548226  0.161168  1
  H  H30  1  0.960503  0.951774  0.838832  1
  H  H31  1  0.539497  0.451774  0.661168  1
  H  H32  1  0.960503  0.951774  0.661168  1
  H  H33  1  0.539497  0.451774  0.838832  1
  H  H34  1  0.039497  0.048226  0.161168  1
  H  H35  1  0.460503  0.548226  0.338832  1
  H  H36  1  0.372581  0.723072  0.349363  1
  H  H37  1  0.127419  0.223072  0.150637  1
  H  H38  1  0.627419  0.276928  0.849363  1
  H  H39  1  0.872581  0.776928  0.650637  1
  H  H40  1  0.627419  0.276928  0.650637  1
  H  H41  1  0.872581  0.776928  0.849363  1
  H  H42  1  0.372581  0.723072  0.150637  1
  H  H43  1  0.127419  0.223072  0.349363  1
  H  H44  1  0.759646  0.740949  0.354213  1
  H  H45  1  0.740354  0.240949  0.145787  1
  H  H46  1  0.240354  0.259051  0.854213  1
  H  H47  1  0.259646  0.759051  0.645787  1
  H  H48  1  0.240354  0.259051  0.645787  1
  H  H49  1  0.259646  0.759051  0.854213  1
  H  H50  1  0.759646  0.740949  0.145787  1
  H  H51  1  0.740354  0.240949  0.354213  1
  H  H52  1  0.250054  0.585115  0.428432  1
  H  H53  1  0.249946  0.085115  0.071568  1
  H  H54  1  0.749946  0.414885  0.928432  1
  H  H55  1  0.750054  0.914885  0.571568  1
  H  H56  1  0.749946  0.414885  0.571568  1
  H  H57  1  0.750054  0.914885  0.928432  1
  H  H58  1  0.250054  0.585115  0.071568  1
  H  H59  1  0.249946  0.085115  0.428432  1
  O  O60  1  0.119600  0.578870  0.250000  1
  O  O61  1  0.380400  0.078870  0.250000  1
  O  O62  1  0.880400  0.421130  0.750000  1
  O  O63  1  0.619600  0.921130  0.750000  1
  O  O64  1  0.681061  0.816106  0.250000  1
  O  O65  1  0.818939  0.316106  0.250000  1
  O  O66  1  0.318939  0.183894  0.750000  1
  O  O67  1  0.181061  0.683894  0.750000  1
  O  O68  1  0.966986  0.987897  0.364488  1
  O  O69  1  0.533014  0.487897  0.135512  1
  O  O70  1  0.033014  0.012103  0.864488  1
  O  O71  1  0.466986  0.512103  0.635512  1
  O  O72  1  0.033014  0.012103  0.635512  1
  O  O73  1  0.466986  0.512103  0.864488  1
  O  O74  1  0.966986  0.987897  0.135512  1
  O  O75  1  0.533014  0.487897  0.364488  1
  O  O76  1  0.339094  0.789260  0.382975  1
  O  O77  1  0.160906  0.289260  0.117025  1
  O  O78  1  0.660906  0.210740  0.882975  1
  O  O79  1  0.839094  0.710740  0.617025  1
  O  O80  1  0.660906  0.210740  0.617025  1
  O  O81  1  0.839094  0.710740  0.882975  1
  O  O82  1  0.339094  0.789260  0.117025  1
  O  O83  1  0.160906  0.289260  0.382975  1
  O  O84  1  0.841503  0.713948  0.397243  1
  O  O85  1  0.658497  0.213948  0.102757  1
  O  O86  1  0.158497  0.286052  0.897243  1
  O  O87  1  0.341503  0.786052  0.602757  1
  O  O88  1  0.158497  0.286052  0.602757  1
  O  O89  1  0.341503  0.786052  0.897243  1
  O  O90  1  0.841503  0.713948  0.102757  1
  O  O91  1  0.658497  0.213948  0.397243  1
  O  O92  1  0.202473  0.556256  0.479173  1
  O  O93  1  0.297527  0.056256  0.020827  1
  O  O94  1  0.797527  0.443744  0.979173  1
  O  O95  1  0.702473  0.943744  0.520827  1
  O  O96  1  0.797527  0.443744  0.520827  1
  O  O97  1  0.702473  0.943744  0.979173  1
  O  O98  1  0.202473  0.556256  0.020827  1
  O  O99  1  0.297527  0.056256  0.479173  1
