# generated using pymatgen
data_NbOF3
_symmetry_space_group_name_H-M   'P 1'
_cell_length_a   5.51524807
_cell_length_b   5.58613344
_cell_length_c   9.63139387
_cell_angle_alpha   90.00000000
_cell_angle_beta   90.00000000
_cell_angle_gamma   90.00000000
_symmetry_Int_Tables_number   1
_chemical_formula_structural   NbOF3
_chemical_formula_sum   'Nb4 O4 F12'
_cell_volume   296.73276304
_cell_formula_units_Z   4
loop_
 _symmetry_equiv_pos_site_id
 _symmetry_equiv_pos_as_xyz
  1  'x, y, z'
loop_
 _atom_site_type_symbol
 _atom_site_label
 _atom_site_symmetry_multiplicity
 _atom_site_fract_x
 _atom_site_fract_y
 _atom_site_fract_z
 _atom_site_occupancy
  Nb  Nb0  1  0.625357  0.580348  0.639037  1
  Nb  Nb1  1  0.874643  0.419652  0.139037  1
  Nb  Nb2  1  0.374643  0.080348  0.860963  1
  Nb  Nb3  1  0.125357  0.919652  0.360963  1
  O  O4  1  0.052751  0.603499  0.258343  1
  O  O5  1  0.447249  0.396501  0.758343  1
  O  O6  1  0.947249  0.103499  0.241657  1
  O  O7  1  0.552751  0.896501  0.741657  1
  F  F8  1  0.362737  0.695931  0.506164  1
  F  F9  1  0.800418  0.666832  0.010137  1
  F  F10  1  0.572178  0.448908  0.230505  1
  F  F11  1  0.927822  0.551092  0.730505  1
  F  F12  1  0.699582  0.333168  0.510137  1
  F  F13  1  0.137263  0.304069  0.006164  1
  F  F14  1  0.637263  0.195931  0.993836  1
  F  F15  1  0.199582  0.166832  0.489863  1
  F  F16  1  0.427822  0.948908  0.269495  1
  F  F17  1  0.072178  0.051092  0.769495  1
  F  F18  1  0.300418  0.833168  0.989863  1
  F  F19  1  0.862737  0.804069  0.493836  1
