# generated using pymatgen
data_Mn6O5F7
_symmetry_space_group_name_H-M   'P 1'
_cell_length_a   4.72227545
_cell_length_b   5.72789151
_cell_length_c   15.59270735
_cell_angle_alpha   89.69658988
_cell_angle_beta   88.96354424
_cell_angle_gamma   88.32646491
_symmetry_Int_Tables_number   1
_chemical_formula_structural   Mn6O5F7
_chemical_formula_sum   'Mn12 O10 F14'
_cell_volume   421.50850343
_cell_formula_units_Z   2
loop_
 _symmetry_equiv_pos_site_id
 _symmetry_equiv_pos_as_xyz
  1  'x, y, z'
loop_
 _atom_site_type_symbol
 _atom_site_label
 _atom_site_symmetry_multiplicity
 _atom_site_fract_x
 _atom_site_fract_y
 _atom_site_fract_z
 _atom_site_occupancy
  Mn  Mn0  1  0.950938  0.162329  0.585937  1
  Mn  Mn1  1  0.021421  0.845458  0.750500  1
  Mn  Mn2  1  0.958800  0.159753  0.920572  1
  Mn  Mn3  1  0.013643  0.156110  0.254818  1
  Mn  Mn4  1  0.977635  0.859883  0.421660  1
  Mn  Mn5  1  0.935333  0.833576  0.084258  1
  Mn  Mn6  1  0.506181  0.334856  0.411510  1
  Mn  Mn7  1  0.510346  0.348508  0.077803  1
  Mn  Mn8  1  0.522792  0.350297  0.753365  1
  Mn  Mn9  1  0.488131  0.636290  0.912468  1
  Mn  Mn10  1  0.527257  0.651745  0.575453  1
  Mn  Mn11  1  0.513344  0.655191  0.249666  1
  O  O12  1  0.784121  0.113984  0.699116  1
  O  O13  1  0.786912  0.113755  0.363299  1
  O  O14  1  0.755179  0.115478  0.025770  1
  O  O15  1  0.766810  0.884187  0.526299  1
  O  O16  1  0.780344  0.893042  0.199875  1
  O  O17  1  0.715963  0.379630  0.861442  1
  O  O18  1  0.709925  0.390693  0.519232  1
  O  O19  1  0.690420  0.602167  0.020637  1
  O  O20  1  0.292006  0.615190  0.803701  1
  O  O21  1  0.303881  0.378672  0.303717  1
  F  F22  1  0.763174  0.880555  0.859286  1
  F  F23  1  0.769918  0.611915  0.688173  1
  F  F24  1  0.748011  0.612628  0.357929  1
  F  F25  1  0.760573  0.403313  0.188395  1
  F  F26  1  0.231422  0.380510  0.974848  1
  F  F27  1  0.293233  0.391651  0.642506  1
  F  F28  1  0.250801  0.618431  0.466232  1
  F  F29  1  0.265452  0.613265  0.137106  1
  F  F30  1  0.219442  0.116100  0.816805  1
  F  F31  1  0.222403  0.132672  0.482487  1
  F  F32  1  0.259420  0.882234  0.635345  1
  F  F33  1  0.207110  0.874287  0.970837  1
  F  F34  1  0.250967  0.124872  0.140260  1
  F  F35  1  0.246692  0.876771  0.318695  1
