# generated using pymatgen
data_LiFe2(PO4)2
_symmetry_space_group_name_H-M   'P 1'
_cell_length_a   5.17391465
_cell_length_b   10.23043344
_cell_length_c   6.93386744
_cell_angle_alpha   90.00000000
_cell_angle_beta   90.38935087
_cell_angle_gamma   90.00000000
_symmetry_Int_Tables_number   1
_chemical_formula_structural   LiFe2(PO4)2
_chemical_formula_sum   'Li2 Fe4 P4 O16'
_cell_volume   367.01076392
_cell_formula_units_Z   2
loop_
 _symmetry_equiv_pos_site_id
 _symmetry_equiv_pos_as_xyz
  1  'x, y, z'
loop_
 _atom_site_type_symbol
 _atom_site_label
 _atom_site_symmetry_multiplicity
 _atom_site_fract_x
 _atom_site_fract_y
 _atom_site_fract_z
 _atom_site_occupancy
  Li  Li0  1  0.950215  0.371085  0.249311  1
  Li  Li1  1  0.049785  0.871085  0.750689  1
  Fe  Fe2  1  0.452288  0.167054  0.232486  1
  Fe  Fe3  1  0.547712  0.667054  0.767514  1
  Fe  Fe4  1  0.945500  0.322600  0.756444  1
  Fe  Fe5  1  0.054500  0.822600  0.243556  1
  P  P6  1  0.444793  0.407013  0.981626  1
  P  P7  1  0.555207  0.907013  0.018374  1
  P  P8  1  0.955132  0.091212  0.483259  1
  P  P9  1  0.044868  0.591212  0.516741  1
  O  O10  1  0.335671  0.620348  0.559742  1
  O  O11  1  0.427047  0.842826  0.832436  1
  O  O12  1  0.436466  0.849895  0.201115  1
  O  O13  1  0.507235  0.057802  0.014735  1
  O  O14  1  0.492765  0.557802  0.985265  1
  O  O15  1  0.563534  0.349895  0.798885  1
  O  O16  1  0.572953  0.342826  0.167564  1
  O  O17  1  0.664329  0.120348  0.440258  1
  O  O18  1  0.848270  0.876555  0.003347  1
  O  O19  1  0.970558  0.640963  0.316544  1
  O  O20  1  0.897297  0.668582  0.681051  1
  O  O21  1  0.990657  0.443436  0.523574  1
  O  O22  1  0.009343  0.943436  0.476426  1
  O  O23  1  0.102703  0.168582  0.318949  1
  O  O24  1  0.029442  0.140963  0.683456  1
  O  O25  1  0.151730  0.376555  0.996653  1
