# generated using pymatgen
data_SnBO3
_symmetry_space_group_name_H-M   'P 1'
_cell_length_a   5.20115046
_cell_length_b   5.20115046
_cell_length_c   12.49287553
_cell_angle_alpha   83.76979896
_cell_angle_beta   96.23020104
_cell_angle_gamma   62.18260311
_symmetry_Int_Tables_number   1
_chemical_formula_structural   SnBO3
_chemical_formula_sum   'Sn4 B4 O12'
_cell_volume   292.22743223
_cell_formula_units_Z   4
loop_
 _symmetry_equiv_pos_site_id
 _symmetry_equiv_pos_as_xyz
  1  'x, y, z'
loop_
 _atom_site_type_symbol
 _atom_site_label
 _atom_site_symmetry_multiplicity
 _atom_site_fract_x
 _atom_site_fract_y
 _atom_site_fract_z
 _atom_site_occupancy
  Sn  Sn0  1  0.860234  0.384032  0.625786  1
  Sn  Sn1  1  0.507199  0.851431  0.870013  1
  Sn  Sn2  1  0.615968  0.139766  0.125786  1
  Sn  Sn3  1  0.148569  0.492801  0.370013  1
  B  B4  1  0.882780  0.527229  0.122147  1
  B  B5  1  0.477749  0.842038  0.371647  1
  B  B6  1  0.472771  0.117220  0.622147  1
  B  B7  1  0.157962  0.522251  0.871647  1
  O  O8  1  0.891764  0.522130  0.845423  1
  O  O9  1  0.740594  0.576600  0.393815  1
  O  O10  1  0.975013  0.236712  0.127779  1
  O  O11  1  0.670191  0.754099  0.038411  1
  O  O12  1  0.342724  0.030431  0.702548  1
  O  O13  1  0.763288  0.024987  0.627779  1
  O  O14  1  0.217516  0.837981  0.378682  1
  O  O15  1  0.477870  0.108236  0.345423  1
  O  O16  1  0.423400  0.259406  0.893815  1
  O  O17  1  0.162019  0.782484  0.878682  1
  O  O18  1  0.245901  0.329809  0.538411  1
  O  O19  1  0.969569  0.657276  0.202548  1
