# generated using pymatgen
data_Li3AlNiO4
_symmetry_space_group_name_H-M   'P 1'
_cell_length_a   9.99287846
_cell_length_b   9.99287846
_cell_length_c   9.99287846
_cell_angle_alpha   118.87515755
_cell_angle_beta   118.87515755
_cell_angle_gamma   91.95958234
_symmetry_Int_Tables_number   1
_chemical_formula_structural   Li3AlNiO4
_chemical_formula_sum   'Li24 Al8 Ni8 O32'
_cell_volume   717.13988767
_cell_formula_units_Z   8
loop_
 _symmetry_equiv_pos_site_id
 _symmetry_equiv_pos_as_xyz
  1  'x, y, z'
loop_
 _atom_site_type_symbol
 _atom_site_label
 _atom_site_symmetry_multiplicity
 _atom_site_fract_x
 _atom_site_fract_y
 _atom_site_fract_z
 _atom_site_occupancy
  Li  Li0  1  0.937966  0.110254  0.165001  1
  Li  Li1  1  0.812034  0.139746  0.334999  1
  Li  Li2  1  0.889746  0.054747  0.827713  1
  Li  Li3  1  0.522966  0.187966  0.327713  1
  Li  Li4  1  0.443828  0.286391  0.127562  1
  Li  Li5  1  0.717639  0.554703  0.130487  1
  Li  Li6  1  0.860254  0.195253  0.672287  1
  Li  Li7  1  0.227034  0.062034  0.172287  1
  Li  Li8  1  0.713609  0.841170  0.157436  1
  Li  Li9  1  0.445297  0.575784  0.162936  1
  Li  Li10  1  0.804747  0.477034  0.665001  1
  Li  Li11  1  0.945253  0.772966  0.834999  1
  Li  Li12  1  0.412848  0.282361  0.837064  1
  Li  Li13  1  0.304703  0.674216  0.337064  1
  Li  Li14  1  0.036391  0.408830  0.342564  1
  Li  Li15  1  0.683734  0.556172  0.842564  1
  Li  Li16  1  0.032361  0.695297  0.369513  1
  Li  Li17  1  0.424216  0.587152  0.869513  1
  Li  Li18  1  0.591170  0.933734  0.627562  1
  Li  Li19  1  0.158830  0.316266  0.872438  1
  Li  Li20  1  0.306172  0.963609  0.372438  1
  Li  Li21  1  0.325784  0.662848  0.630487  1
  Li  Li22  1  0.066266  0.693828  0.657436  1
  Li  Li23  1  0.337152  0.967639  0.662936  1
  Al  Al24  1  0.747861  0.424160  0.309961  1
  Al  Al25  1  0.562100  0.252139  0.676299  1
  Al  Al26  1  0.174160  0.364199  0.176299  1
  Al  Al27  1  0.575840  0.885801  0.323701  1
  Al  Al28  1  0.635801  0.812100  0.809961  1
  Al  Al29  1  0.002139  0.825840  0.190039  1
  Al  Al30  1  0.114199  0.437900  0.690039  1
  Al  Al31  1  0.187900  0.997861  0.823701  1
  Ni  Ni32  1  0.442053  0.925079  0.992533  1
  Ni  Ni33  1  0.675079  0.182546  0.983026  1
  Ni  Ni34  1  0.550480  0.557947  0.483026  1
  Ni  Ni35  1  0.817454  0.800480  0.492533  1
  Ni  Ni36  1  0.307947  0.324921  0.507467  1
  Ni  Ni37  1  0.074921  0.067454  0.516974  1
  Ni  Ni38  1  0.199520  0.692053  0.016974  1
  Ni  Ni39  1  0.932546  0.449520  0.007467  1
  O  O40  1  0.830721  0.268419  0.243810  1
  O  O41  1  0.336911  0.080721  0.062302  1
  O  O42  1  0.593450  0.354308  0.075835  1
  O  O43  1  0.866307  0.636551  0.090297  1
  O  O44  1  0.883693  0.613449  0.409703  1
  O  O45  1  0.647123  0.399062  0.403671  1
  O  O46  1  0.413089  0.169279  0.437698  1
  O  O47  1  0.363449  0.453746  0.229757  1
  O  O48  1  0.526010  0.116307  0.729757  1
  O  O49  1  0.919279  0.981581  0.256190  1
  O  O50  1  0.149062  0.245391  0.251939  1
  O  O51  1  0.756548  0.352877  0.751939  1
  O  O52  1  0.645692  0.721527  0.239143  1
  O  O53  1  0.104308  0.528473  0.260857  1
  O  O54  1  0.482384  0.406550  0.760857  1
  O  O55  1  0.600938  0.004609  0.248061  1
  O  O56  1  0.725391  0.663089  0.743810  1
  O  O57  1  0.386551  0.796254  0.270243  1
  O  O58  1  0.223990  0.133693  0.770243  1
  O  O59  1  0.731581  0.975391  0.562302  1
  O  O60  1  0.471527  0.732384  0.575835  1
  O  O61  1  0.102877  0.850938  0.096329  1
  O  O62  1  0.995391  0.243452  0.596329  1
  O  O63  1  0.203746  0.473990  0.590297  1
  O  O64  1  0.546254  0.776010  0.909703  1
  O  O65  1  0.754609  0.006548  0.903671  1
  O  O66  1  0.278473  0.517616  0.924165  1
  O  O67  1  0.156550  0.895692  0.424165  1
  O  O68  1  0.018419  0.274609  0.937698  1
  O  O69  1  0.024609  0.586911  0.756190  1
  O  O70  1  0.267616  0.843450  0.739143  1
  O  O71  1  0.993452  0.897123  0.748061  1
