# generated using pymatgen
data_LiMn2OF5
_symmetry_space_group_name_H-M   'P 1'
_cell_length_a   4.67435343
_cell_length_b   5.02323210
_cell_length_c   17.46189716
_cell_angle_alpha   90.00000000
_cell_angle_beta   90.00000000
_cell_angle_gamma   90.00000000
_symmetry_Int_Tables_number   1
_chemical_formula_structural   LiMn2OF5
_chemical_formula_sum   'Li4 Mn8 O4 F20'
_cell_volume   410.01166995
_cell_formula_units_Z   4
loop_
 _symmetry_equiv_pos_site_id
 _symmetry_equiv_pos_as_xyz
  1  'x, y, z'
loop_
 _atom_site_type_symbol
 _atom_site_label
 _atom_site_symmetry_multiplicity
 _atom_site_fract_x
 _atom_site_fract_y
 _atom_site_fract_z
 _atom_site_occupancy
  Li  Li0  1  0.746005  0.754435  0.365551  1
  Li  Li1  1  0.746005  0.254435  0.134449  1
  Li  Li2  1  0.253995  0.754435  0.865551  1
  Li  Li3  1  0.253995  0.254435  0.634449  1
  Mn  Mn4  1  0.722439  0.244455  0.471766  1
  Mn  Mn5  1  0.755822  0.748257  0.694480  1
  Mn  Mn6  1  0.722439  0.744455  0.028234  1
  Mn  Mn7  1  0.755822  0.248257  0.805520  1
  Mn  Mn8  1  0.244178  0.748257  0.194480  1
  Mn  Mn9  1  0.277561  0.244455  0.971766  1
  Mn  Mn10  1  0.244178  0.248257  0.305520  1
  Mn  Mn11  1  0.277561  0.744455  0.528234  1
  O  O12  1  0.504990  0.934110  0.460366  1
  O  O13  1  0.504990  0.434110  0.039634  1
  O  O14  1  0.495010  0.434110  0.539634  1
  O  O15  1  0.495010  0.934110  0.960366  1
  F  F16  1  0.516757  0.917034  0.121046  1
  F  F17  1  0.516757  0.417034  0.378954  1
  F  F18  1  0.526377  0.427372  0.709847  1
  F  F19  1  0.526377  0.927372  0.790153  1
  F  F20  1  0.473623  0.927372  0.290153  1
  F  F21  1  0.473623  0.427372  0.209847  1
  F  F22  1  0.483243  0.417034  0.878954  1
  F  F23  1  0.483243  0.917034  0.621046  1
  F  F24  1  0.014266  0.559831  0.958641  1
  F  F25  1  0.014266  0.059831  0.541359  1
  F  F26  1  0.037659  0.087578  0.883932  1
  F  F27  1  0.037659  0.587578  0.616068  1
  F  F28  1  0.023406  0.576930  0.287487  1
  F  F29  1  0.023406  0.076930  0.212513  1
  F  F30  1  0.976594  0.076930  0.712513  1
  F  F31  1  0.976594  0.576930  0.787487  1
  F  F32  1  0.962341  0.087578  0.383932  1
  F  F33  1  0.962341  0.587578  0.116068  1
  F  F34  1  0.985734  0.559831  0.458641  1
  F  F35  1  0.985734  0.059831  0.041359  1
