# generated using pymatgen
data_Li2MgCo13O28
_symmetry_space_group_name_H-M   'P 1'
_cell_length_a   7.54469339
_cell_length_b   8.17537043
_cell_length_c   8.65398789
_cell_angle_alpha   100.90736612
_cell_angle_beta   104.66572236
_cell_angle_gamma   105.64676189
_symmetry_Int_Tables_number   1
_chemical_formula_structural   Li2MgCo13O28
_chemical_formula_sum   'Li2 Mg1 Co13 O28'
_cell_volume   477.88180958
_cell_formula_units_Z   1
loop_
 _symmetry_equiv_pos_site_id
 _symmetry_equiv_pos_as_xyz
  1  'x, y, z'
loop_
 _atom_site_type_symbol
 _atom_site_label
 _atom_site_symmetry_multiplicity
 _atom_site_fract_x
 _atom_site_fract_y
 _atom_site_fract_z
 _atom_site_occupancy
  Li  Li0  1  0.579279  0.215788  0.291930  1
  Li  Li1  1  0.420721  0.784212  0.708070  1
  Mg  Mg2  1  0.500000  0.500000  0.500000  1
  Co  Co3  1  0.928219  0.787851  0.215570  1
  Co  Co4  1  0.642853  0.928826  0.071080  1
  Co  Co5  1  0.862358  0.578209  0.434488  1
  Co  Co6  1  0.788400  0.361611  0.647370  1
  Co  Co7  1  0.572278  0.716443  0.287009  1
  Co  Co8  1  0.280841  0.848526  0.135870  1
  Co  Co9  1  0.719159  0.151474  0.864130  1
  Co  Co10  1  0.211600  0.638389  0.352630  1
  Co  Co11  1  0.427722  0.283557  0.712991  1
  Co  Co12  1  0.000000  0.000000  0.000000  1
  Co  Co13  1  0.137642  0.421791  0.565512  1
  Co  Co14  1  0.357147  0.071174  0.928920  1
  Co  Co15  1  0.071781  0.212149  0.784430  1
  O  O16  1  0.912343  0.008653  0.186108  1
  O  O17  1  0.942392  0.569968  0.242350  1
  O  O18  1  0.864209  0.349106  0.452363  1
  O  O19  1  0.658251  0.710979  0.099811  1
  O  O20  1  0.844683  0.799222  0.403426  1
  O  O21  1  0.626541  0.152483  0.052827  1
  O  O22  1  0.795141  0.582520  0.625502  1
  O  O23  1  0.987989  0.221320  0.975313  1
  O  O24  1  0.800714  0.137993  0.676366  1
  O  O25  1  0.552464  0.938238  0.256169  1
  O  O26  1  0.602462  0.499792  0.305435  1
  O  O27  1  0.273595  0.077087  0.117611  1
  O  O28  1  0.523606  0.266788  0.531322  1
  O  O29  1  0.699858  0.366049  0.835532  1
  O  O30  1  0.476394  0.733212  0.468678  1
  O  O31  1  0.726405  0.922913  0.882389  1
  O  O32  1  0.300142  0.633951  0.164468  1
  O  O33  1  0.397538  0.500208  0.694565  1
  O  O34  1  0.012011  0.778680  0.024687  1
  O  O35  1  0.447536  0.061762  0.743831  1
  O  O36  1  0.199286  0.862007  0.323634  1
  O  O37  1  0.204859  0.417480  0.374498  1
  O  O38  1  0.341749  0.289021  0.900189  1
  O  O39  1  0.373459  0.847517  0.947172  1
  O  O40  1  0.135791  0.650894  0.547637  1
  O  O41  1  0.155317  0.200778  0.596574  1
  O  O42  1  0.057608  0.430032  0.757650  1
  O  O43  1  0.087657  0.991347  0.813892  1
