# generated using pymatgen
data_Li2Ti7Nb6O30
_symmetry_space_group_name_H-M   'P 1'
_cell_length_a   5.19335616
_cell_length_b   5.19335616
_cell_length_c   23.75020894
_cell_angle_alpha   90.00000000
_cell_angle_beta   90.00000000
_cell_angle_gamma   120.00000000
_symmetry_Int_Tables_number   1
_chemical_formula_structural   Li2Ti7Nb6O30
_chemical_formula_sum   'Li2 Ti7 Nb6 O30'
_cell_volume   554.74612950
_cell_formula_units_Z   1
loop_
 _symmetry_equiv_pos_site_id
 _symmetry_equiv_pos_as_xyz
  1  'x, y, z'
loop_
 _atom_site_type_symbol
 _atom_site_label
 _atom_site_symmetry_multiplicity
 _atom_site_fract_x
 _atom_site_fract_y
 _atom_site_fract_z
 _atom_site_occupancy
  Li  Li0  1  0.666667  0.333333  0.924387  1
  Li  Li1  1  0.000000  0.000000  0.530982  1
  Ti  Ti2  1  0.333333  0.666667  0.983173  1
  Ti  Ti3  1  0.333333  0.666667  0.306809  1
  Ti  Ti4  1  0.333333  0.666667  0.716057  1
  Ti  Ti5  1  0.000000  0.000000  0.693302  1
  Ti  Ti6  1  0.000000  0.000000  0.283126  1
  Ti  Ti7  1  0.000000  0.000000  0.012266  1
  Ti  Ti8  1  0.000000  0.000000  0.886609  1
  Nb  Nb9  1  0.666667  0.333333  0.199561  1
  Nb  Nb10  1  0.666667  0.333333  0.800057  1
  Nb  Nb11  1  0.666667  0.333333  0.499065  1
  Nb  Nb12  1  0.333333  0.666667  0.109381  1
  Nb  Nb13  1  0.333333  0.666667  0.591837  1
  Nb  Nb14  1  0.000000  0.000000  0.406664  1
  O  O15  1  0.997534  0.633983  0.550146  1
  O  O16  1  0.995668  0.611900  0.153316  1
  O  O17  1  0.258335  0.910226  0.654071  1
  O  O18  1  0.274012  0.919654  0.047376  1
  O  O19  1  0.996033  0.334581  0.252856  1
  O  O20  1  0.338549  0.003967  0.252856  1
  O  O21  1  0.089774  0.348109  0.654071  1
  O  O22  1  0.080346  0.354358  0.047376  1
  O  O23  1  0.616232  0.004332  0.153316  1
  O  O24  1  0.636449  0.002466  0.550146  1
  O  O25  1  0.667667  0.004090  0.746943  1
  O  O26  1  0.366017  0.363551  0.550146  1
  O  O27  1  0.681657  0.928475  0.345203  1
  O  O28  1  0.688373  0.962780  0.950002  1
  O  O29  1  0.388100  0.383768  0.153316  1
  O  O30  1  0.930631  0.270802  0.848531  1
  O  O31  1  0.645642  0.725988  0.047376  1
  O  O32  1  0.651891  0.741665  0.654071  1
  O  O33  1  0.948542  0.277906  0.452620  1
  O  O34  1  0.665419  0.661451  0.252856  1
  O  O35  1  0.722094  0.670636  0.452620  1
  O  O36  1  0.729198  0.659829  0.848531  1
  O  O37  1  0.274407  0.311627  0.950002  1
  O  O38  1  0.246818  0.318343  0.345203  1
  O  O39  1  0.995910  0.663577  0.746943  1
  O  O40  1  0.336423  0.332333  0.746943  1
  O  O41  1  0.037220  0.725593  0.950002  1
  O  O42  1  0.071525  0.753182  0.345203  1
  O  O43  1  0.340171  0.069369  0.848531  1
  O  O44  1  0.329364  0.051458  0.452620  1
