# generated using pymatgen
data_LiB2SbO5
_symmetry_space_group_name_H-M   'P 1'
_cell_length_a   7.44964014
_cell_length_b   7.44964014
_cell_length_c   10.14781072
_cell_angle_alpha   71.07528672
_cell_angle_beta   108.92471328
_cell_angle_gamma   86.60313031
_symmetry_Int_Tables_number   1
_chemical_formula_structural   LiB2SbO5
_chemical_formula_sum   'Li4 B8 Sb4 O20'
_cell_volume   495.35352479
_cell_formula_units_Z   4
loop_
 _symmetry_equiv_pos_site_id
 _symmetry_equiv_pos_as_xyz
  1  'x, y, z'
loop_
 _atom_site_type_symbol
 _atom_site_label
 _atom_site_symmetry_multiplicity
 _atom_site_fract_x
 _atom_site_fract_y
 _atom_site_fract_z
 _atom_site_occupancy
  Li  Li0  1  0.863701  0.863701  0.750000  1
  Li  Li1  1  0.377991  0.377991  0.750000  1
  Li  Li2  1  0.622009  0.622009  0.250000  1
  Li  Li3  1  0.136299  0.136299  0.250000  1
  B  B4  1  0.254531  0.797343  0.894674  1
  B  B5  1  0.622057  0.735929  0.989306  1
  B  B6  1  0.202657  0.745469  0.394674  1
  B  B7  1  0.264071  0.377943  0.489306  1
  B  B8  1  0.735929  0.622057  0.510694  1
  B  B9  1  0.797343  0.254531  0.605326  1
  B  B10  1  0.377943  0.264071  0.010694  1
  B  B11  1  0.745469  0.202657  0.105326  1
  Sb  Sb12  1  0.407754  0.939863  0.638204  1
  Sb  Sb13  1  0.060137  0.592246  0.138204  1
  Sb  Sb14  1  0.939863  0.407754  0.861796  1
  Sb  Sb15  1  0.592246  0.060137  0.361796  1
  O  O16  1  0.095524  0.791171  0.931725  1
  O  O17  1  0.228308  0.854856  0.744188  1
  O  O18  1  0.208829  0.904476  0.431725  1
  O  O19  1  0.645176  0.804450  0.855793  1
  O  O20  1  0.224387  0.345307  0.874444  1
  O  O21  1  0.145144  0.771692  0.244188  1
  O  O22  1  0.262708  0.557933  0.508634  1
  O  O23  1  0.557933  0.262708  0.991366  1
  O  O24  1  0.195550  0.354824  0.355793  1
  O  O25  1  0.654693  0.775613  0.374444  1
  O  O26  1  0.345307  0.224387  0.625556  1
  O  O27  1  0.804450  0.645176  0.644207  1
  O  O28  1  0.442067  0.737292  0.008634  1
  O  O29  1  0.737292  0.442067  0.491366  1
  O  O30  1  0.854856  0.228308  0.755812  1
  O  O31  1  0.775613  0.654693  0.125556  1
  O  O32  1  0.354824  0.195550  0.144207  1
  O  O33  1  0.791171  0.095524  0.568275  1
  O  O34  1  0.771692  0.145144  0.255812  1
  O  O35  1  0.904476  0.208829  0.068275  1
