# generated using pymatgen
data_CsCoH18N6(ClO2)4
_symmetry_space_group_name_H-M   'P 1'
_cell_length_a   8.07877246
_cell_length_b   8.07877246
_cell_length_c   10.28508830
_cell_angle_alpha   66.67585817
_cell_angle_beta   113.32414183
_cell_angle_gamma   119.97578695
_symmetry_Int_Tables_number   1
_chemical_formula_structural   CsCoH18N6(ClO2)4
_chemical_formula_sum   'Cs1 Co1 H18 N6 Cl4 O8'
_cell_volume   517.13624211
_cell_formula_units_Z   1
loop_
 _symmetry_equiv_pos_site_id
 _symmetry_equiv_pos_as_xyz
  1  'x, y, z'
loop_
 _atom_site_type_symbol
 _atom_site_label
 _atom_site_symmetry_multiplicity
 _atom_site_fract_x
 _atom_site_fract_y
 _atom_site_fract_z
 _atom_site_occupancy
  Cs  Cs0  1  0.496852  0.503148  0.490880  1
  Co  Co1  1  0.046314  0.953686  0.139388  1
  H  H2  1  0.386503  0.203002  0.176265  1
  H  H3  1  0.988352  0.212215  0.167564  1
  H  H4  1  0.986846  0.607995  0.163502  1
  H  H5  1  0.796998  0.613497  0.176265  1
  H  H6  1  0.392005  0.013154  0.163502  1
  H  H7  1  0.787785  0.011648  0.167564  1
  H  H8  1  0.203825  0.495278  0.911858  1
  H  H9  1  0.204504  0.295041  0.903104  1
  H  H10  1  0.993216  0.296231  0.899986  1
  H  H11  1  0.088887  0.424246  0.750527  1
  H  H12  1  0.203578  0.796422  0.912698  1
  H  H13  1  0.504722  0.796175  0.911858  1
  H  H14  1  0.704959  0.795496  0.903104  1
  H  H15  1  0.992640  0.796869  0.900422  1
  H  H16  1  0.203131  0.007360  0.900422  1
  H  H17  1  0.703769  0.006784  0.899986  1
  H  H18  1  0.575754  0.911113  0.750527  1
  H  H19  1  0.086971  0.913029  0.750658  1
  N  N20  1  0.305292  0.091462  0.124609  1
  N  N21  1  0.909786  0.090214  0.126295  1
  N  N22  1  0.908538  0.694708  0.124609  1
  N  N23  1  0.120059  0.376061  0.862615  1
  N  N24  1  0.623939  0.879941  0.862615  1
  N  N25  1  0.118908  0.881092  0.862699  1
  Cl  Cl26  1  0.815891  0.184109  0.447492  1
  Cl  Cl27  1  0.618363  0.381637  0.847336  1
  Cl  Cl28  1  0.358723  0.641277  0.077825  1
  Cl  Cl29  1  0.190054  0.809946  0.570376  1
  O  O30  1  0.870125  0.129875  0.609001  1
  O  O31  1  0.307578  0.988358  0.626627  1
  O  O32  1  0.011642  0.692422  0.626627  1
  O  O33  1  0.307595  0.692405  0.626871  1
  O  O34  1  0.699496  0.300504  0.394871  1
  O  O35  1  0.995444  0.300306  0.395148  1
  O  O36  1  0.699694  0.004556  0.395148  1
  O  O37  1  0.137448  0.862552  0.413157  1
