# generated using pymatgen
data_Ba5Nb5O14
_symmetry_space_group_name_H-M   'P 1'
_cell_length_a   9.29845629
_cell_length_b   4.14074273
_cell_length_c   9.31474883
_cell_angle_alpha   90.00000000
_cell_angle_beta   90.13340288
_cell_angle_gamma   90.00000000
_symmetry_Int_Tables_number   1
_chemical_formula_structural   Ba5Nb5O14
_chemical_formula_sum   'Ba5 Nb5 O14'
_cell_volume   358.64028700
_cell_formula_units_Z   1
loop_
 _symmetry_equiv_pos_site_id
 _symmetry_equiv_pos_as_xyz
  1  'x, y, z'
loop_
 _atom_site_type_symbol
 _atom_site_label
 _atom_site_symmetry_multiplicity
 _atom_site_fract_x
 _atom_site_fract_y
 _atom_site_fract_z
 _atom_site_occupancy
  Ba  Ba0  1  0.900700  0.500000  0.700551  1
  Ba  Ba1  1  0.099300  0.500000  0.299449  1
  Ba  Ba2  1  0.500000  0.500000  0.500000  1
  Ba  Ba3  1  0.699173  0.500000  0.099694  1
  Ba  Ba4  1  0.300827  0.500000  0.900306  1
  Nb  Nb5  1  0.800452  0.000000  0.399851  1
  Nb  Nb6  1  0.600768  0.000000  0.798472  1
  Nb  Nb7  1  0.000000  0.000000  0.000000  1
  Nb  Nb8  1  0.199548  0.000000  0.600149  1
  Nb  Nb9  1  0.399232  0.000000  0.201528  1
  O  O10  1  0.597781  0.500000  0.804147  1
  O  O11  1  0.800032  0.500000  0.399734  1
  O  O12  1  0.000000  0.500000  0.000000  1
  O  O13  1  0.402219  0.500000  0.195853  1
  O  O14  1  0.199968  0.500000  0.600266  1
  O  O15  1  0.599895  0.000000  0.296857  1
  O  O16  1  0.699568  0.000000  0.597695  1
  O  O17  1  0.797495  0.000000  0.902080  1
  O  O18  1  0.096331  0.000000  0.799107  1
  O  O19  1  0.903669  0.000000  0.200893  1
  O  O20  1  0.000000  0.000000  0.500000  1
  O  O21  1  0.202505  0.000000  0.097920  1
  O  O22  1  0.400105  0.000000  0.703143  1
  O  O23  1  0.300432  0.000000  0.402305  1
