# generated using pymatgen
data_LiV2OF5
_symmetry_space_group_name_H-M   'P 1'
_cell_length_a   5.24771739
_cell_length_b   5.51938620
_cell_length_c   17.28994399
_cell_angle_alpha   84.51449378
_cell_angle_beta   82.37694296
_cell_angle_gamma   61.91889283
_symmetry_Int_Tables_number   1
_chemical_formula_structural   LiV2OF5
_chemical_formula_sum   'Li4 V8 O4 F20'
_cell_volume   437.61758332
_cell_formula_units_Z   4
loop_
 _symmetry_equiv_pos_site_id
 _symmetry_equiv_pos_as_xyz
  1  'x, y, z'
loop_
 _atom_site_type_symbol
 _atom_site_label
 _atom_site_symmetry_multiplicity
 _atom_site_fract_x
 _atom_site_fract_y
 _atom_site_fract_z
 _atom_site_occupancy
  Li  Li0  1  0.505335  0.662136  0.315539  1
  Li  Li1  1  0.626882  0.785577  0.923653  1
  Li  Li2  1  0.284243  0.397856  0.060906  1
  Li  Li3  1  0.353675  0.567659  0.669678  1
  V  V4  1  0.658723  0.601505  0.128764  1
  V  V5  1  0.761219  0.736412  0.745733  1
  V  V6  1  0.236621  0.255156  0.245368  1
  V  V7  1  0.105029  0.159962  0.627596  1
  V  V8  1  0.886661  0.867573  0.380014  1
  V  V9  1  0.472556  0.519121  0.494267  1
  V  V10  1  0.024843  0.974081  0.997504  1
  V  V11  1  0.374027  0.391949  0.876379  1
  O  O12  1  0.034399  0.406514  0.155939  1
  O  O13  1  0.043466  0.447921  0.688804  1
  O  O14  1  0.260672  0.666391  0.408880  1
  O  O15  1  0.305525  0.683940  0.937795  1
  F  F16  1  0.244585  0.792407  0.089753  1
  F  F17  1  0.200355  0.812748  0.572718  1
  F  F18  1  0.696723  0.292704  0.062634  1
  F  F19  1  0.550184  0.942705  0.179042  1
  F  F20  1  0.508375  0.531775  0.776342  1
  F  F21  1  0.693269  0.359997  0.594406  1
  F  F22  1  0.068449  0.006468  0.282311  1
  F  F23  1  0.794716  0.755430  0.023717  1
  F  F24  1  0.507331  0.923853  0.663801  1
  F  F25  1  0.695005  0.730292  0.467182  1
  F  F26  1  0.922050  0.555976  0.312961  1
  F  F27  1  0.958663  0.582980  0.848690  1
  F  F28  1  0.274036  0.289236  0.534860  1
  F  F29  1  0.496735  0.060154  0.331038  1
  F  F30  1  0.252054  0.200519  0.974397  1
  F  F31  1  0.985000  0.952902  0.715864  1
  F  F32  1  0.472230  0.470801  0.225768  1
  F  F33  1  0.474147  0.039461  0.825268  1
  F  F34  1  0.786244  0.204859  0.432192  1
  F  F35  1  0.776841  0.162310  0.910450  1
