# generated using pymatgen
data_Li3Mn2Fe(BO3)3
_symmetry_space_group_name_H-M   'P 1'
_cell_length_a   8.26180855
_cell_length_b   3.17449406
_cell_length_c   14.29065174
_cell_angle_alpha   90.00000000
_cell_angle_beta   90.04467735
_cell_angle_gamma   90.00000000
_symmetry_Int_Tables_number   1
_chemical_formula_structural   Li3Mn2Fe(BO3)3
_chemical_formula_sum   'Li6 Mn4 Fe2 B6 O18'
_cell_volume   374.80169787
_cell_formula_units_Z   2
loop_
 _symmetry_equiv_pos_site_id
 _symmetry_equiv_pos_as_xyz
  1  'x, y, z'
loop_
 _atom_site_type_symbol
 _atom_site_label
 _atom_site_symmetry_multiplicity
 _atom_site_fract_x
 _atom_site_fract_y
 _atom_site_fract_z
 _atom_site_occupancy
  Li  Li0  1  0.707261  0.500000  0.009573  1
  Li  Li1  1  0.658914  0.500000  0.642105  1
  Li  Li2  1  0.633326  0.500000  0.348901  1
  Li  Li3  1  0.207247  0.500000  0.508332  1
  Li  Li4  1  0.159845  0.500000  0.142208  1
  Li  Li5  1  0.134304  0.500000  0.849941  1
  Mn  Mn6  1  0.864826  0.000000  0.493793  1
  Mn  Mn7  1  0.807297  0.000000  0.819903  1
  Mn  Mn8  1  0.326658  0.000000  0.685649  1
  Mn  Mn9  1  0.308557  0.000000  0.320282  1
  Fe  Fe10  1  0.824285  0.000000  0.183414  1
  Fe  Fe11  1  0.363433  0.000000  0.996202  1
  B  B12  1  0.998331  0.500000  0.331956  1
  B  B13  1  0.001784  0.000000  0.000189  1
  B  B14  1  0.000124  0.500000  0.666678  1
  B  B15  1  0.499213  0.500000  0.835067  1
  B  B16  1  0.499990  0.000000  0.499985  1
  B  B17  1  0.501010  0.500000  0.165647  1
  O  O18  1  0.990018  0.500000  0.569779  1
  O  O19  1  0.982375  0.500000  0.235042  1
  O  O20  1  0.860870  0.500000  0.388393  1
  O  O21  1  0.859694  0.500000  0.720135  1
  O  O22  1  0.848965  0.000000  0.041952  1
  O  O23  1  0.652846  0.500000  0.875733  1
  O  O24  1  0.652799  0.500000  0.208064  1
  O  O25  1  0.635631  0.000000  0.558089  1
  O  O26  1  0.519071  0.000000  0.403054  1
  O  O27  1  0.488289  0.500000  0.068578  1
  O  O28  1  0.485429  0.500000  0.737770  1
  O  O29  1  0.362107  0.500000  0.891281  1
  O  O30  1  0.362002  0.500000  0.220108  1
  O  O31  1  0.345175  0.000000  0.538820  1
  O  O32  1  0.151168  0.500000  0.373512  1
  O  O33  1  0.150332  0.500000  0.710307  1
  O  O34  1  0.140247  0.000000  0.056128  1
  O  O35  1  0.016575  0.000000  0.903426  1
