# generated using pymatgen
data_Ti2Sn(PO4)3
_symmetry_space_group_name_H-M   'P 1'
_cell_length_a   9.04861586
_cell_length_b   9.04861586
_cell_length_c   9.04861586
_cell_angle_alpha   57.23965488
_cell_angle_beta   57.23965488
_cell_angle_gamma   57.23965488
_symmetry_Int_Tables_number   1
_chemical_formula_structural   Ti2Sn(PO4)3
_chemical_formula_sum   'Ti4 Sn2 P6 O24'
_cell_volume   490.57602014
_cell_formula_units_Z   2
loop_
 _symmetry_equiv_pos_site_id
 _symmetry_equiv_pos_as_xyz
  1  'x, y, z'
loop_
 _atom_site_type_symbol
 _atom_site_label
 _atom_site_symmetry_multiplicity
 _atom_site_fract_x
 _atom_site_fract_y
 _atom_site_fract_z
 _atom_site_occupancy
  Ti  Ti0  1  0.851370  0.851370  0.851370  1
  Ti  Ti1  1  0.648630  0.648630  0.648630  1
  Ti  Ti2  1  0.351370  0.351370  0.351370  1
  Ti  Ti3  1  0.148630  0.148630  0.148630  1
  Sn  Sn4  1  0.000000  0.000000  0.000000  1
  Sn  Sn5  1  0.500000  0.500000  0.500000  1
  P  P6  1  0.250000  0.538067  0.961933  1
  P  P7  1  0.961933  0.250000  0.538067  1
  P  P8  1  0.538067  0.961933  0.250000  1
  P  P9  1  0.461933  0.038067  0.750000  1
  P  P10  1  0.038067  0.750000  0.461933  1
  P  P11  1  0.750000  0.461933  0.038067  1
  O  O12  1  0.712761  0.494082  0.873664  1
  O  O13  1  0.494082  0.873664  0.712761  1
  O  O14  1  0.077303  0.721452  0.938289  1
  O  O15  1  0.873664  0.712761  0.494082  1
  O  O16  1  0.212761  0.373664  0.994082  1
  O  O17  1  0.422697  0.561711  0.778548  1
  O  O18  1  0.938289  0.077303  0.721452  1
  O  O19  1  0.778548  0.422697  0.561711  1
  O  O20  1  0.626336  0.005918  0.787239  1
  O  O21  1  0.561711  0.778548  0.422697  1
  O  O22  1  0.278548  0.061711  0.922697  1
  O  O23  1  0.005918  0.787239  0.626336  1
  O  O24  1  0.994082  0.212761  0.373664  1
  O  O25  1  0.721452  0.938289  0.077303  1
  O  O26  1  0.438289  0.221452  0.577303  1
  O  O27  1  0.373664  0.994082  0.212761  1
  O  O28  1  0.221452  0.577303  0.438289  1
  O  O29  1  0.061711  0.922697  0.278548  1
  O  O30  1  0.577303  0.438289  0.221452  1
  O  O31  1  0.787239  0.626336  0.005918  1
  O  O32  1  0.126336  0.287239  0.505918  1
  O  O33  1  0.922697  0.278548  0.061711  1
  O  O34  1  0.505918  0.126336  0.287239  1
  O  O35  1  0.287239  0.505918  0.126336  1
