# generated using pymatgen
data_Na2V6O15
_symmetry_space_group_name_H-M   'P 1'
_cell_length_a   8.10235473
_cell_length_b   8.10235473
_cell_length_c   10.61821327
_cell_angle_alpha   77.25207123
_cell_angle_beta   102.74792877
_cell_angle_gamma   153.84791334
_symmetry_Int_Tables_number   1
_chemical_formula_structural   Na2V6O15
_chemical_formula_sum   'Na2 V6 O15'
_cell_volume   299.24834243
_cell_formula_units_Z   1
loop_
 _symmetry_equiv_pos_site_id
 _symmetry_equiv_pos_as_xyz
  1  'x, y, z'
loop_
 _atom_site_type_symbol
 _atom_site_label
 _atom_site_symmetry_multiplicity
 _atom_site_fract_x
 _atom_site_fract_y
 _atom_site_fract_z
 _atom_site_occupancy
  Na  Na0  1  0.545209  0.454791  0.346591  1
  Na  Na1  1  0.460136  0.539864  0.654130  1
  V  V2  1  0.677694  0.322306  0.904134  1
  V  V3  1  0.106470  0.893530  0.098641  1
  V  V4  1  0.718925  0.281075  0.593903  1
  V  V5  1  0.286468  0.713532  0.405249  1
  V  V6  1  0.883898  0.116102  0.889990  1
  V  V7  1  0.327828  0.672172  0.102220  1
  O  O8  1  0.582268  0.417732  0.806225  1
  O  O9  1  0.190488  0.809512  0.959345  1
  O  O10  1  0.611134  0.388866  0.557071  1
  O  O11  1  0.095784  0.904216  0.251458  1
  O  O12  1  0.749179  0.250821  0.791519  1
  O  O13  1  0.635261  0.364739  0.073915  1
  O  O14  1  0.258894  0.741106  0.578146  1
  O  O15  1  0.750834  0.249166  0.416677  1
  O  O16  1  0.373136  0.626864  0.929772  1
  O  O17  1  0.261453  0.738547  0.219225  1
  O  O18  1  0.907678  0.092322  0.745127  1
  O  O19  1  0.393678  0.606322  0.441259  1
  O  O20  1  0.812646  0.187354  0.046764  1
  O  O21  1  0.424767  0.575233  0.195760  1
  O  O22  1  0.002786  0.997214  0.001749  1
