# generated using pymatgen
data_Li3Co11O14
_symmetry_space_group_name_H-M   'P 1'
_cell_length_a   10.77228548
_cell_length_b   10.77228548
_cell_length_c   5.13299822
_cell_angle_alpha   85.60996575
_cell_angle_beta   94.39003425
_cell_angle_gamma   27.52538806
_symmetry_Int_Tables_number   1
_chemical_formula_structural   Li3Co11O14
_chemical_formula_sum   'Li3 Co11 O14'
_cell_volume   260.63386494
_cell_formula_units_Z   1
loop_
 _symmetry_equiv_pos_site_id
 _symmetry_equiv_pos_as_xyz
  1  'x, y, z'
loop_
 _atom_site_type_symbol
 _atom_site_label
 _atom_site_symmetry_multiplicity
 _atom_site_fract_x
 _atom_site_fract_y
 _atom_site_fract_z
 _atom_site_occupancy
  Li  Li0  1  0.500000  0.500000  0.000000  1
  Li  Li1  1  0.858496  0.858496  0.500000  1
  Li  Li2  1  0.141504  0.141504  0.500000  1
  Co  Co3  1  0.428593  0.428593  0.500000  1
  Co  Co4  1  0.714651  0.714651  0.500000  1
  Co  Co5  1  0.571407  0.571407  0.500000  1
  Co  Co6  1  0.285349  0.285349  0.500000  1
  Co  Co7  1  0.786106  0.786106  0.000000  1
  Co  Co8  1  0.360702  0.360702  0.000000  1
  Co  Co9  1  0.000000  1.000000  0.500000  1
  Co  Co10  1  0.639298  0.639298  0.000000  1
  Co  Co11  1  0.213894  0.213894  0.000000  1
  Co  Co12  1  0.070825  0.070825  0.000000  1
  Co  Co13  1  0.929175  0.929175  0.000000  1
  O  O14  1  0.602935  0.113580  0.751170  1
  O  O15  1  0.767580  0.232420  0.730803  1
  O  O16  1  0.470851  0.958806  0.748052  1
  O  O17  1  0.695502  0.169712  0.258340  1
  O  O18  1  0.830288  0.304498  0.258340  1
  O  O19  1  0.169712  0.695502  0.741660  1
  O  O20  1  0.304498  0.830288  0.741660  1
  O  O21  1  0.113580  0.602935  0.248830  1
  O  O22  1  0.397065  0.886420  0.248830  1
  O  O23  1  0.041194  0.529149  0.748052  1
  O  O24  1  0.232420  0.767580  0.269197  1
  O  O25  1  0.886420  0.397065  0.751170  1
  O  O26  1  0.529149  0.041194  0.251948  1
  O  O27  1  0.958806  0.470851  0.251948  1
