# generated using pymatgen
data_SmAsO4
_symmetry_space_group_name_H-M   'P 1'
_cell_length_a   6.71668095
_cell_length_b   7.11763662
_cell_length_c   8.29091791
_cell_angle_alpha   90.00000000
_cell_angle_beta   126.13830027
_cell_angle_gamma   90.00000000
_symmetry_Int_Tables_number   1
_chemical_formula_structural   SmAsO4
_chemical_formula_sum   'Sm4 As4 O16'
_cell_volume   320.10114158
_cell_formula_units_Z   4
loop_
 _symmetry_equiv_pos_site_id
 _symmetry_equiv_pos_as_xyz
  1  'x, y, z'
loop_
 _atom_site_type_symbol
 _atom_site_label
 _atom_site_symmetry_multiplicity
 _atom_site_fract_x
 _atom_site_fract_y
 _atom_site_fract_z
 _atom_site_occupancy
  Sm  Sm0  1  0.810951  0.850166  0.217080  1
  Sm  Sm1  1  0.189049  0.350166  0.282920  1
  Sm  Sm2  1  0.810951  0.649834  0.717080  1
  Sm  Sm3  1  0.189049  0.149834  0.782920  1
  As  As4  1  0.310181  0.837774  0.197681  1
  As  As5  1  0.689819  0.337774  0.302319  1
  As  As6  1  0.310181  0.662226  0.697681  1
  As  As7  1  0.689819  0.162226  0.802319  1
  O  O8  1  0.351938  0.893672  0.017326  1
  O  O9  1  0.387998  0.285866  0.115414  1
  O  O10  1  0.103971  0.654378  0.105407  1
  O  O11  1  0.830976  0.505322  0.252444  1
  O  O12  1  0.612002  0.785866  0.384586  1
  O  O13  1  0.169024  0.005322  0.247556  1
  O  O14  1  0.896029  0.154378  0.394593  1
  O  O15  1  0.648062  0.393672  0.482674  1
  O  O16  1  0.351938  0.606328  0.517326  1
  O  O17  1  0.103971  0.845622  0.605407  1
  O  O18  1  0.830976  0.994678  0.752444  1
  O  O19  1  0.387998  0.214134  0.615414  1
  O  O20  1  0.169024  0.494678  0.747556  1
  O  O21  1  0.896029  0.345622  0.894593  1
  O  O22  1  0.612002  0.714134  0.884586  1
  O  O23  1  0.648062  0.106328  0.982674  1
