# generated using pymatgen
data_Li2Cr3CoO8
_symmetry_space_group_name_H-M   'P 1'
_cell_length_a   5.16447646
_cell_length_b   5.85288014
_cell_length_c   10.56595141
_cell_angle_alpha   74.00872743
_cell_angle_beta   77.13960666
_cell_angle_gamma   74.12741392
_symmetry_Int_Tables_number   1
_chemical_formula_structural   Li2Cr3CoO8
_chemical_formula_sum   'Li4 Cr6 Co2 O16'
_cell_volume   291.54537208
_cell_formula_units_Z   2
loop_
 _symmetry_equiv_pos_site_id
 _symmetry_equiv_pos_as_xyz
  1  'x, y, z'
loop_
 _atom_site_type_symbol
 _atom_site_label
 _atom_site_symmetry_multiplicity
 _atom_site_fract_x
 _atom_site_fract_y
 _atom_site_fract_z
 _atom_site_occupancy
  Li  Li0  1  0.003446  0.237455  0.495616  1
  Li  Li1  1  0.001339  0.622883  0.251114  1
  Li  Li2  1  0.999662  0.995863  0.005366  1
  Li  Li3  1  0.992281  0.397485  0.751446  1
  Cr  Cr4  1  0.500086  0.312754  0.126410  1
  Cr  Cr5  1  0.509160  0.058676  0.623678  1
  Cr  Cr6  1  0.504605  0.937944  0.372296  1
  Cr  Cr7  1  0.492565  0.564740  0.622351  1
  Cr  Cr8  1  0.503545  0.185734  0.874840  1
  Cr  Cr9  1  0.493680  0.688222  0.877353  1
  Co  Co10  1  0.496429  0.439770  0.374739  1
  Co  Co11  1  0.500046  0.812261  0.126314  1
  O  O12  1  0.298366  0.133523  0.056930  1
  O  O13  1  0.290071  0.283330  0.312947  1
  O  O14  1  0.288779  0.657324  0.065727  1
  O  O15  1  0.288179  0.033199  0.809305  1
  O  O16  1  0.288992  0.386932  0.554070  1
  O  O17  1  0.298356  0.763824  0.302310  1
  O  O18  1  0.302298  0.907753  0.555767  1
  O  O19  1  0.294269  0.504950  0.808794  1
  O  O20  1  0.696883  0.490379  0.199822  1
  O  O21  1  0.705495  0.116127  0.443062  1
  O  O22  1  0.707824  0.591688  0.434819  1
  O  O23  1  0.713204  0.967057  0.185179  1
  O  O24  1  0.716646  0.228293  0.689581  1
  O  O25  1  0.698936  0.728402  0.693405  1
  O  O26  1  0.711220  0.344284  0.938998  1
  O  O27  1  0.702072  0.858954  0.948722  1
