# generated using pymatgen
data_NiSn(PO4)2
_symmetry_space_group_name_H-M   'P 1'
_cell_length_a   4.94304169
_cell_length_b   5.95248070
_cell_length_c   10.00011355
_cell_angle_alpha   90.00000000
_cell_angle_beta   90.31884028
_cell_angle_gamma   90.00000000
_symmetry_Int_Tables_number   1
_chemical_formula_structural   NiSn(PO4)2
_chemical_formula_sum   'Ni2 Sn2 P4 O16'
_cell_volume   294.23238780
_cell_formula_units_Z   2
loop_
 _symmetry_equiv_pos_site_id
 _symmetry_equiv_pos_as_xyz
  1  'x, y, z'
loop_
 _atom_site_type_symbol
 _atom_site_label
 _atom_site_symmetry_multiplicity
 _atom_site_fract_x
 _atom_site_fract_y
 _atom_site_fract_z
 _atom_site_occupancy
  Ni  Ni0  1  0.543259  0.250000  0.227446  1
  Ni  Ni1  1  0.456741  0.750000  0.772554  1
  Sn  Sn2  1  0.030179  0.750000  0.272809  1
  Sn  Sn3  1  0.969821  0.250000  0.727191  1
  P  P4  1  0.589343  0.750000  0.090927  1
  P  P5  1  0.081709  0.250000  0.403353  1
  P  P6  1  0.918291  0.750000  0.596647  1
  P  P7  1  0.410657  0.250000  0.909073  1
  O  O8  1  0.345179  0.250000  0.055117  1
  O  O9  1  0.280559  0.750000  0.113111  1
  O  O10  1  0.733410  0.949747  0.170222  1
  O  O11  1  0.733410  0.550253  0.170222  1
  O  O12  1  0.226426  0.046907  0.330196  1
  O  O13  1  0.226426  0.453093  0.330196  1
  O  O14  1  0.778858  0.250000  0.389693  1
  O  O15  1  0.825302  0.750000  0.448594  1
  O  O16  1  0.174698  0.250000  0.551406  1
  O  O17  1  0.221142  0.750000  0.610307  1
  O  O18  1  0.773574  0.953093  0.669804  1
  O  O19  1  0.773574  0.546907  0.669804  1
  O  O20  1  0.266590  0.449747  0.829778  1
  O  O21  1  0.266590  0.050253  0.829778  1
  O  O22  1  0.719441  0.250000  0.886889  1
  O  O23  1  0.654821  0.750000  0.944883  1
