# generated using pymatgen
data_K2TeH10(NO7)2
_symmetry_space_group_name_H-M   'P 1'
_cell_length_a   7.05519092
_cell_length_b   7.19622968
_cell_length_c   13.34935792
_cell_angle_alpha   90.00000000
_cell_angle_beta   99.96650926
_cell_angle_gamma   90.00000000
_symmetry_Int_Tables_number   1
_chemical_formula_structural   K2TeH10(NO7)2
_chemical_formula_sum   'K4 Te2 H20 N4 O28'
_cell_volume   667.52926200
_cell_formula_units_Z   2
loop_
 _symmetry_equiv_pos_site_id
 _symmetry_equiv_pos_as_xyz
  1  'x, y, z'
loop_
 _atom_site_type_symbol
 _atom_site_label
 _atom_site_symmetry_multiplicity
 _atom_site_fract_x
 _atom_site_fract_y
 _atom_site_fract_z
 _atom_site_occupancy
  K  K0  1  0.489489  0.518767  0.659814  1
  K  K1  1  0.510511  0.018767  0.840186  1
  K  K2  1  0.510511  0.481233  0.340186  1
  K  K3  1  0.489489  0.981233  0.159814  1
  Te  Te4  1  0.000000  0.500000  0.500000  1
  Te  Te5  1  0.000000  0.000000  0.000000  1
  H  H6  1  0.819093  0.196158  0.491459  1
  H  H7  1  0.180907  0.696158  0.008541  1
  H  H8  1  0.180907  0.803842  0.508541  1
  H  H9  1  0.819093  0.303842  0.991459  1
  H  H10  1  0.244602  0.237705  0.968670  1
  H  H11  1  0.755398  0.737705  0.531330  1
  H  H12  1  0.755398  0.762295  0.031330  1
  H  H13  1  0.244602  0.262295  0.468670  1
  H  H14  1  0.981189  0.433537  0.681999  1
  H  H15  1  0.018811  0.933537  0.818001  1
  H  H16  1  0.018811  0.566463  0.318001  1
  H  H17  1  0.981189  0.066463  0.181999  1
  H  H18  1  0.119149  0.118009  0.685182  1
  H  H19  1  0.880851  0.618009  0.814818  1
  H  H20  1  0.880851  0.881991  0.314818  1
  H  H21  1  0.119149  0.381991  0.185182  1
  H  H22  1  0.870265  0.402562  0.834681  1
  H  H23  1  0.129735  0.902562  0.665319  1
  H  H24  1  0.129735  0.597438  0.165319  1
  H  H25  1  0.870265  0.097438  0.334681  1
  N  N26  1  0.341979  0.512777  0.880712  1
  N  N27  1  0.658021  0.012777  0.619288  1
  N  N28  1  0.658021  0.487223  0.119288  1
  N  N29  1  0.341979  0.987223  0.380712  1
  O  O30  1  0.860028  0.219666  0.939393  1
  O  O31  1  0.139972  0.719666  0.560607  1
  O  O32  1  0.139972  0.780334  0.060607  1
  O  O33  1  0.860028  0.280334  0.439393  1
  O  O34  1  0.245421  0.098239  0.974200  1
  O  O35  1  0.754579  0.598239  0.525800  1
  O  O36  1  0.754579  0.901761  0.025800  1
  O  O37  1  0.245421  0.401761  0.474200  1
  O  O38  1  0.060825  0.380671  0.633413  1
  O  O39  1  0.939175  0.880671  0.866587  1
  O  O40  1  0.939175  0.619329  0.366587  1
  O  O41  1  0.060825  0.119329  0.133413  1
  O  O42  1  0.403086  0.376147  0.837518  1
  O  O43  1  0.596914  0.876147  0.662482  1
  O  O44  1  0.596914  0.623853  0.162482  1
  O  O45  1  0.403086  0.123853  0.337518  1
  O  O46  1  0.640752  0.175460  0.650339  1
  O  O47  1  0.359248  0.675460  0.849661  1
  O  O48  1  0.359248  0.824540  0.349661  1
  O  O49  1  0.640752  0.324540  0.150339  1
  O  O50  1  0.742087  0.984751  0.541945  1
  O  O51  1  0.257913  0.484751  0.958055  1
  O  O52  1  0.257913  0.015249  0.458055  1
  O  O53  1  0.742087  0.515249  0.041945  1
  O  O54  1  0.858417  0.497085  0.780051  1
  O  O55  1  0.141583  0.997085  0.719949  1
  O  O56  1  0.141583  0.502915  0.219949  1
  O  O57  1  0.858417  0.002915  0.280051  1
