# generated using pymatgen
data_Li10Ti2Fe3Co3O16
_symmetry_space_group_name_H-M   'P 1'
_cell_length_a   5.98625094
_cell_length_b   5.99196005
_cell_length_c   9.87155591
_cell_angle_alpha   90.14984257
_cell_angle_beta   90.31124102
_cell_angle_gamma   119.68132720
_symmetry_Int_Tables_number   1
_chemical_formula_structural   Li10Ti2Fe3Co3O16
_chemical_formula_sum   'Li10 Ti2 Fe3 Co3 O16'
_cell_volume   307.61762535
_cell_formula_units_Z   1
loop_
 _symmetry_equiv_pos_site_id
 _symmetry_equiv_pos_as_xyz
  1  'x, y, z'
loop_
 _atom_site_type_symbol
 _atom_site_label
 _atom_site_symmetry_multiplicity
 _atom_site_fract_x
 _atom_site_fract_y
 _atom_site_fract_z
 _atom_site_occupancy
  Li  Li0  1  0.000329  0.998294  0.970251  1
  Li  Li1  1  0.992227  0.999814  0.473375  1
  Li  Li2  1  0.803889  0.603496  0.039473  1
  Li  Li3  1  0.601694  0.799315  0.541296  1
  Li  Li4  1  0.812331  0.195148  0.040629  1
  Li  Li5  1  0.669555  0.330204  0.254246  1
  Li  Li6  1  0.192636  0.806399  0.538040  1
  Li  Li7  1  0.329709  0.664635  0.753371  1
  Li  Li8  1  0.391965  0.194580  0.037848  1
  Li  Li9  1  0.196618  0.390810  0.537920  1
  Ti  Ti10  1  0.350450  0.681849  0.014491  1
  Ti  Ti11  1  0.683162  0.346213  0.517628  1
  Fe  Fe12  1  0.169655  0.836046  0.273071  1
  Fe  Fe13  1  0.179160  0.344100  0.270013  1
  Fe  Fe14  1  0.342424  0.174176  0.770326  1
  Co  Co15  1  0.660041  0.832346  0.274579  1
  Co  Co16  1  0.832033  0.661063  0.774568  1
  Co  Co17  1  0.833961  0.170469  0.774309  1
  O  O18  1  0.998382  0.014659  0.163103  1
  O  O19  1  0.004915  0.000549  0.665212  1
  O  O20  1  0.817356  0.652343  0.411704  1
  O  O21  1  0.654758  0.820897  0.908648  1
  O  O22  1  0.493144  0.978275  0.137819  1
  O  O23  1  0.978287  0.489602  0.639909  1
  O  O24  1  0.486273  0.502439  0.144514  1
  O  O25  1  0.329997  0.655191  0.392039  1
  O  O26  1  0.500975  0.482446  0.646262  1
  O  O27  1  0.661383  0.328770  0.890484  1
  O  O28  1  0.826598  0.179161  0.404929  1
  O  O29  1  0.180481  0.831740  0.903606  1
  O  O30  1  0.024388  0.507903  0.146179  1
  O  O31  1  0.501937  0.020810  0.644650  1
  O  O32  1  0.331658  0.174312  0.399558  1
  O  O33  1  0.181019  0.339853  0.900670  1
