# generated using pymatgen
data_Na3MnAsCO7
_symmetry_space_group_name_H-M   'P 1'
_cell_length_a   5.26693237
_cell_length_b   7.01630265
_cell_length_c   9.19992020
_cell_angle_alpha   90.00000000
_cell_angle_beta   90.27919711
_cell_angle_gamma   90.00000000
_symmetry_Int_Tables_number   1
_chemical_formula_structural   Na3MnAsCO7
_chemical_formula_sum   'Na6 Mn2 As2 C2 O14'
_cell_volume   339.97341682
_cell_formula_units_Z   2
loop_
 _symmetry_equiv_pos_site_id
 _symmetry_equiv_pos_as_xyz
  1  'x, y, z'
loop_
 _atom_site_type_symbol
 _atom_site_label
 _atom_site_symmetry_multiplicity
 _atom_site_fract_x
 _atom_site_fract_y
 _atom_site_fract_z
 _atom_site_occupancy
  Na  Na0  1  0.239885  0.750000  0.079329  1
  Na  Na1  1  0.753564  0.997119  0.254360  1
  Na  Na2  1  0.753564  0.502881  0.254360  1
  Na  Na3  1  0.246436  0.497119  0.745640  1
  Na  Na4  1  0.246436  0.002881  0.745640  1
  Na  Na5  1  0.760115  0.250000  0.920671  1
  Mn  Mn6  1  0.222483  0.250000  0.352629  1
  Mn  Mn7  1  0.777517  0.750000  0.647371  1
  As  As8  1  0.297815  0.750000  0.412788  1
  As  As9  1  0.702185  0.250000  0.587212  1
  C  C10  1  0.265537  0.250000  0.058240  1
  C  C11  1  0.734463  0.750000  0.941760  1
  O  O12  1  0.712032  0.750000  0.081895  1
  O  O13  1  0.041552  0.250000  0.118422  1
  O  O14  1  0.467114  0.250000  0.141831  1
  O  O15  1  0.211154  0.943560  0.308190  1
  O  O16  1  0.211154  0.556440  0.308190  1
  O  O17  1  0.625522  0.750000  0.432019  1
  O  O18  1  0.826192  0.250000  0.414864  1
  O  O19  1  0.173808  0.750000  0.585136  1
  O  O20  1  0.374478  0.250000  0.567981  1
  O  O21  1  0.788846  0.443560  0.691810  1
  O  O22  1  0.788846  0.056440  0.691810  1
  O  O23  1  0.532886  0.750000  0.858169  1
  O  O24  1  0.958448  0.750000  0.881578  1
  O  O25  1  0.287968  0.250000  0.918105  1
