# generated using pymatgen
data_LiFe4(PO4)3
_symmetry_space_group_name_H-M   'P 1'
_cell_length_a   6.42471932
_cell_length_b   10.11167684
_cell_length_c   15.81783554
_cell_angle_alpha   90.00000000
_cell_angle_beta   90.00000000
_cell_angle_gamma   90.00000000
_symmetry_Int_Tables_number   1
_chemical_formula_structural   LiFe4(PO4)3
_chemical_formula_sum   'Li4 Fe16 P12 O48'
_cell_volume   1027.60071196
_cell_formula_units_Z   4
loop_
 _symmetry_equiv_pos_site_id
 _symmetry_equiv_pos_as_xyz
  1  'x, y, z'
loop_
 _atom_site_type_symbol
 _atom_site_label
 _atom_site_symmetry_multiplicity
 _atom_site_fract_x
 _atom_site_fract_y
 _atom_site_fract_z
 _atom_site_occupancy
  Li  Li0  1  0.250000  0.744076  0.713802  1
  Li  Li1  1  0.750000  0.755924  0.213802  1
  Li  Li2  1  0.250000  0.244076  0.786198  1
  Li  Li3  1  0.750000  0.255924  0.286198  1
  Fe  Fe4  1  0.750000  0.945151  0.623826  1
  Fe  Fe5  1  0.250000  0.934461  0.126730  1
  Fe  Fe6  1  0.501783  0.752458  0.940384  1
  Fe  Fe7  1  0.998217  0.752458  0.940384  1
  Fe  Fe8  1  0.498217  0.747542  0.440384  1
  Fe  Fe9  1  0.001783  0.747542  0.440384  1
  Fe  Fe10  1  0.750000  0.565539  0.626730  1
  Fe  Fe11  1  0.250000  0.554849  0.123826  1
  Fe  Fe12  1  0.750000  0.445151  0.876174  1
  Fe  Fe13  1  0.250000  0.434461  0.373270  1
  Fe  Fe14  1  0.998217  0.252458  0.559616  1
  Fe  Fe15  1  0.501783  0.252458  0.559616  1
  Fe  Fe16  1  0.498217  0.247542  0.059616  1
  Fe  Fe17  1  0.001783  0.247542  0.059616  1
  Fe  Fe18  1  0.750000  0.065539  0.873270  1
  Fe  Fe19  1  0.250000  0.054849  0.376174  1
  P  P20  1  0.250000  0.968059  0.564515  1
  P  P21  1  0.750000  0.955005  0.060128  1
  P  P22  1  0.750000  0.797343  0.771400  1
  P  P23  1  0.250000  0.702657  0.271400  1
  P  P24  1  0.250000  0.544995  0.560128  1
  P  P25  1  0.750000  0.531941  0.064515  1
  P  P26  1  0.250000  0.468059  0.935485  1
  P  P27  1  0.750000  0.455005  0.439872  1
  P  P28  1  0.750000  0.297343  0.728600  1
  P  P29  1  0.250000  0.202657  0.228600  1
  P  P30  1  0.250000  0.044995  0.939872  1
  P  P31  1  0.750000  0.031941  0.435485  1
  O  O32  1  0.750000  0.951069  0.765475  1
  O  O33  1  0.058140  0.936072  0.617368  1
  O  O34  1  0.441860  0.936072  0.617368  1
  O  O35  1  0.942036  0.902591  0.106789  1
  O  O36  1  0.557964  0.902591  0.106789  1
  O  O37  1  0.750000  0.895190  0.966934  1
  O  O38  1  0.250000  0.890677  0.950693  1
  O  O39  1  0.250000  0.882657  0.479968  1
  O  O40  1  0.750000  0.882751  0.466024  1
  O  O41  1  0.453711  0.753145  0.314933  1
  O  O42  1  0.046289  0.753145  0.314933  1
  O  O43  1  0.750000  0.752472  0.678190  1
  O  O44  1  0.250000  0.747528  0.178190  1
  O  O45  1  0.953711  0.746855  0.814933  1
  O  O46  1  0.546289  0.746855  0.814933  1
  O  O47  1  0.250000  0.617249  0.966024  1
  O  O48  1  0.750000  0.617343  0.979968  1
  O  O49  1  0.750000  0.609323  0.450693  1
  O  O50  1  0.250000  0.604810  0.466934  1
  O  O51  1  0.057964  0.597409  0.606789  1
  O  O52  1  0.442036  0.597409  0.606789  1
  O  O53  1  0.941860  0.563928  0.117368  1
  O  O54  1  0.558140  0.563928  0.117368  1
  O  O55  1  0.250000  0.548931  0.265475  1
  O  O56  1  0.750000  0.451069  0.734525  1
  O  O57  1  0.441860  0.436072  0.882632  1
  O  O58  1  0.058140  0.436072  0.882632  1
  O  O59  1  0.942036  0.402591  0.393211  1
  O  O60  1  0.557964  0.402591  0.393211  1
  O  O61  1  0.750000  0.395190  0.533066  1
  O  O62  1  0.250000  0.390677  0.549307  1
  O  O63  1  0.250000  0.382657  0.020032  1
  O  O64  1  0.750000  0.382751  0.033976  1
  O  O65  1  0.453711  0.253145  0.185067  1
  O  O66  1  0.046289  0.253145  0.185067  1
  O  O67  1  0.750000  0.252472  0.821810  1
  O  O68  1  0.250000  0.247528  0.321810  1
  O  O69  1  0.953711  0.246855  0.685067  1
  O  O70  1  0.546289  0.246855  0.685067  1
  O  O71  1  0.250000  0.117249  0.533976  1
  O  O72  1  0.750000  0.117343  0.520032  1
  O  O73  1  0.750000  0.109323  0.049307  1
  O  O74  1  0.250000  0.104810  0.033066  1
  O  O75  1  0.442036  0.097409  0.893211  1
  O  O76  1  0.057964  0.097409  0.893211  1
  O  O77  1  0.941860  0.063928  0.382632  1
  O  O78  1  0.558140  0.063928  0.382632  1
  O  O79  1  0.250000  0.048931  0.234525  1
