# generated using pymatgen
data_Li3V2(O2F)2
_symmetry_space_group_name_H-M   'P 1'
_cell_length_a   5.95273526
_cell_length_b   5.97683422
_cell_length_c   15.16973264
_cell_angle_alpha   79.61718810
_cell_angle_beta   84.83303060
_cell_angle_gamma   60.73772622
_symmetry_Int_Tables_number   1
_chemical_formula_structural   Li3V2(O2F)2
_chemical_formula_sum   'Li12 V8 O16 F8'
_cell_volume   463.13298810
_cell_formula_units_Z   4
loop_
 _symmetry_equiv_pos_site_id
 _symmetry_equiv_pos_as_xyz
  1  'x, y, z'
loop_
 _atom_site_type_symbol
 _atom_site_label
 _atom_site_symmetry_multiplicity
 _atom_site_fract_x
 _atom_site_fract_y
 _atom_site_fract_z
 _atom_site_occupancy
  Li  Li0  1  0.140967  0.795210  0.835720  1
  Li  Li1  1  0.710677  0.215988  0.836344  1
  Li  Li2  1  0.329844  0.466471  0.712632  1
  Li  Li3  1  0.165998  0.500930  0.336260  1
  Li  Li4  1  0.475513  0.022870  0.956326  1
  Li  Li5  1  0.673078  0.760833  0.824224  1
  Li  Li6  1  0.665083  0.010987  0.333468  1
  Li  Li7  1  0.000781  0.497112  0.954534  1
  Li  Li8  1  0.330337  0.998760  0.700508  1
  Li  Li9  1  0.150832  0.013478  0.333397  1
  Li  Li10  1  0.502811  0.514747  0.973902  1
  Li  Li11  1  0.855757  0.466834  0.704533  1
  V  V12  1  0.502715  0.254323  0.503047  1
  V  V13  1  0.999053  0.753227  0.507496  1
  V  V14  1  0.331093  0.252117  0.164909  1
  V  V15  1  0.501650  0.751414  0.491346  1
  V  V16  1  0.833208  0.747701  0.167984  1
  V  V17  1  0.001179  0.251740  0.497855  1
  V  V18  1  0.335905  0.749694  0.169939  1
  V  V19  1  0.830360  0.249913  0.166689  1
  O  O20  1  0.317890  0.616648  0.427670  1
  O  O21  1  0.179027  0.592916  0.103505  1
  O  O22  1  0.170508  0.384592  0.570155  1
  O  O23  1  0.503986  0.372526  0.240596  1
  O  O24  1  0.833641  0.103776  0.428531  1
  O  O25  1  0.656938  0.892126  0.563622  1
  O  O26  1  0.671978  0.124714  0.100712  1
  O  O27  1  0.998042  0.883439  0.243696  1
  O  O28  1  0.335184  0.131698  0.422542  1
  O  O29  1  0.160920  0.119573  0.100781  1
  O  O30  1  0.168954  0.878106  0.563964  1
  O  O31  1  0.488917  0.910054  0.239613  1
  O  O32  1  0.849051  0.624324  0.428440  1
  O  O33  1  0.657761  0.381875  0.563495  1
  O  O34  1  0.668273  0.607863  0.102186  1
  O  O35  1  0.004588  0.367897  0.240045  1
  F  F36  1  0.340543  0.374173  0.924014  1
  F  F37  1  0.508370  0.120268  0.754253  1
  F  F38  1  0.822264  0.863968  0.910810  1
  F  F39  1  0.998673  0.631617  0.751100  1
  F  F40  1  0.351511  0.845463  0.912027  1
  F  F41  1  0.504877  0.630978  0.744744  1
  F  F42  1  0.801567  0.397000  0.908788  1
  F  F43  1  0.003028  0.120057  0.750266  1
