# generated using pymatgen
data_Bi2B2O7
_symmetry_space_group_name_H-M   'P 1'
_cell_length_a   5.23153181
_cell_length_b   8.33804931
_cell_length_c   8.60066031
_cell_angle_alpha   115.16657810
_cell_angle_beta   93.00715750
_cell_angle_gamma   94.65332801
_symmetry_Int_Tables_number   1
_chemical_formula_structural   Bi2B2O7
_chemical_formula_sum   'Bi4 B4 O14'
_cell_volume   336.85937709
_cell_formula_units_Z   2
loop_
 _symmetry_equiv_pos_site_id
 _symmetry_equiv_pos_as_xyz
  1  'x, y, z'
loop_
 _atom_site_type_symbol
 _atom_site_label
 _atom_site_symmetry_multiplicity
 _atom_site_fract_x
 _atom_site_fract_y
 _atom_site_fract_z
 _atom_site_occupancy
  Bi  Bi0  1  0.277692  0.024148  0.668921  1
  Bi  Bi1  1  0.863905  0.295717  0.051907  1
  Bi  Bi2  1  0.136095  0.704283  0.948093  1
  Bi  Bi3  1  0.722308  0.975852  0.331079  1
  B  B4  1  0.358154  0.120750  0.147920  1
  B  B5  1  0.847447  0.247332  0.654402  1
  B  B6  1  0.152553  0.752668  0.345598  1
  B  B7  1  0.641846  0.879250  0.852080  1
  O  O8  1  0.760619  0.025641  0.832843  1
  O  O9  1  0.029390  0.178367  0.538254  1
  O  O10  1  0.594761  0.176862  0.579970  1
  O  O11  1  0.915258  0.364379  0.823954  1
  O  O12  1  0.617466  0.170868  0.208314  1
  O  O13  1  0.244472  0.215194  0.068714  1
  O  O14  1  0.067896  0.469740  0.439872  1
  O  O15  1  0.932104  0.530260  0.560128  1
  O  O16  1  0.755528  0.784806  0.931286  1
  O  O17  1  0.382534  0.829132  0.791686  1
  O  O18  1  0.084742  0.635621  0.176046  1
  O  O19  1  0.405239  0.823138  0.420030  1
  O  O20  1  0.970610  0.821633  0.461746  1
  O  O21  1  0.239381  0.974359  0.167157  1
