# generated using pymatgen
data_LiVFeO4
_symmetry_space_group_name_H-M   'P 1'
_cell_length_a   5.96314834
_cell_length_b   5.96314834
_cell_length_c   5.96314834
_cell_angle_alpha   119.43797403
_cell_angle_beta   118.99450204
_cell_angle_gamma   91.36338127
_symmetry_Int_Tables_number   1
_chemical_formula_structural   LiVFeO4
_chemical_formula_sum   'Li2 V2 Fe2 O8'
_cell_volume   151.66506375
_cell_formula_units_Z   2
loop_
 _symmetry_equiv_pos_site_id
 _symmetry_equiv_pos_as_xyz
  1  'x, y, z'
loop_
 _atom_site_type_symbol
 _atom_site_label
 _atom_site_symmetry_multiplicity
 _atom_site_fract_x
 _atom_site_fract_y
 _atom_site_fract_z
 _atom_site_occupancy
  Li  Li0  1  0.000000  0.000000  0.500000  1
  Li  Li1  1  0.000000  0.500000  0.000000  1
  V  V2  1  0.374605  0.624605  0.750000  1
  V  V3  1  0.625395  0.375395  0.250000  1
  Fe  Fe4  1  0.000000  0.000000  0.000000  1
  Fe  Fe5  1  0.500000  0.000000  0.500000  1
  O  O6  1  0.253368  0.260209  0.506841  1
  O  O7  1  0.262248  0.746088  0.516160  1
  O  O8  1  0.729929  0.746088  0.983840  1
  O  O9  1  0.746632  0.253473  0.006841  1
  O  O10  1  0.253368  0.746527  0.993159  1
  O  O11  1  0.270071  0.253912  0.016160  1
  O  O12  1  0.737752  0.253912  0.483840  1
  O  O13  1  0.746632  0.739791  0.493159  1
