# generated using pymatgen
data_Ti5Nb2O14
_symmetry_space_group_name_H-M   'P 1'
_cell_length_a   4.73160819
_cell_length_b   4.73160819
_cell_length_c   21.06625444
_cell_angle_alpha   90.00000000
_cell_angle_beta   90.00000000
_cell_angle_gamma   90.56536254
_symmetry_Int_Tables_number   1
_chemical_formula_structural   Ti5Nb2O14
_chemical_formula_sum   'Ti10 Nb4 O28'
_cell_volume   471.61078845
_cell_formula_units_Z   2
loop_
 _symmetry_equiv_pos_site_id
 _symmetry_equiv_pos_as_xyz
  1  'x, y, z'
loop_
 _atom_site_type_symbol
 _atom_site_label
 _atom_site_symmetry_multiplicity
 _atom_site_fract_x
 _atom_site_fract_y
 _atom_site_fract_z
 _atom_site_occupancy
  Ti  Ti0  1  0.000000  0.000000  0.930287  1
  Ti  Ti1  1  0.000000  0.000000  0.784609  1
  Ti  Ti2  1  0.000000  0.000000  0.645501  1
  Ti  Ti3  1  0.000000  0.000000  0.069713  1
  Ti  Ti4  1  0.000000  0.000000  0.215391  1
  Ti  Ti5  1  0.000000  0.000000  0.354499  1
  Ti  Ti6  1  0.000000  0.000000  0.500000  1
  Ti  Ti7  1  0.500000  0.500000  1.000000  1
  Ti  Ti8  1  0.500000  0.500000  0.715524  1
  Ti  Ti9  1  0.500000  0.500000  0.284476  1
  Nb  Nb10  1  0.500000  0.500000  0.142617  1
  Nb  Nb11  1  0.500000  0.500000  0.426121  1
  Nb  Nb12  1  0.500000  0.500000  0.857383  1
  Nb  Nb13  1  0.500000  0.500000  0.573879  1
  O  O14  1  0.194918  0.194918  0.000000  1
  O  O15  1  0.195300  0.195300  0.714199  1
  O  O16  1  0.193084  0.193084  0.857156  1
  O  O17  1  0.193084  0.193084  0.142844  1
  O  O18  1  0.195300  0.195300  0.285801  1
  O  O19  1  0.193664  0.193664  0.428691  1
  O  O20  1  0.193664  0.193664  0.571309  1
  O  O21  1  0.699359  0.300641  0.643972  1
  O  O22  1  0.698619  0.301381  0.784813  1
  O  O23  1  0.698097  0.301903  0.070400  1
  O  O24  1  0.698619  0.301381  0.215187  1
  O  O25  1  0.699359  0.300641  0.356028  1
  O  O26  1  0.698097  0.301903  0.929600  1
  O  O27  1  0.700693  0.299307  0.500000  1
  O  O28  1  0.300641  0.699359  0.643972  1
  O  O29  1  0.301381  0.698619  0.784813  1
  O  O30  1  0.301903  0.698097  0.929600  1
  O  O31  1  0.301903  0.698097  0.070400  1
  O  O32  1  0.300641  0.699359  0.356028  1
  O  O33  1  0.299307  0.700693  0.500000  1
  O  O34  1  0.301381  0.698619  0.215187  1
  O  O35  1  0.804700  0.804700  0.714199  1
  O  O36  1  0.806916  0.806916  0.857156  1
  O  O37  1  0.805082  0.805082  1.000000  1
  O  O38  1  0.806916  0.806916  0.142844  1
  O  O39  1  0.804700  0.804700  0.285801  1
  O  O40  1  0.806336  0.806336  0.428691  1
  O  O41  1  0.806336  0.806336  0.571309  1
