# generated using pymatgen
data_Sr3(AlSi)2
_symmetry_space_group_name_H-M   'P 1'
_cell_length_a   10.16067044
_cell_length_b   10.16067044
_cell_length_c   10.16067044
_cell_angle_alpha   156.11770648
_cell_angle_beta   152.46606587
_cell_angle_gamma   36.76316467
_symmetry_Int_Tables_number   1
_chemical_formula_structural   Sr3(AlSi)2
_chemical_formula_sum   'Sr3 Al2 Si2'
_cell_volume   196.05886039
_cell_formula_units_Z   1
loop_
 _symmetry_equiv_pos_site_id
 _symmetry_equiv_pos_as_xyz
  1  'x, y, z'
loop_
 _atom_site_type_symbol
 _atom_site_label
 _atom_site_symmetry_multiplicity
 _atom_site_fract_x
 _atom_site_fract_y
 _atom_site_fract_z
 _atom_site_occupancy
  Sr  Sr0  1  0.000000  0.500000  0.500000  1
  Sr  Sr1  1  0.814947  0.814947  0.000000  1
  Sr  Sr2  1  0.185053  0.185053  0.000000  1
  Al  Al3  1  0.566965  0.066965  0.500000  1
  Al  Al4  1  0.433035  0.933035  0.500000  1
  Si  Si5  1  0.639430  0.639430  0.000000  1
  Si  Si6  1  0.360570  0.360570  0.000000  1
