# generated using pymatgen
data_Al11TlO17
_symmetry_space_group_name_H-M   'P 1'
_cell_length_a   5.65447038
_cell_length_b   5.65447038
_cell_length_c   23.08250682
_cell_angle_alpha   90.00000000
_cell_angle_beta   90.00000000
_cell_angle_gamma   120.01303483
_symmetry_Int_Tables_number   1
_chemical_formula_structural   Al11TlO17
_chemical_formula_sum   'Al22 Tl2 O34'
_cell_volume   639.05820076
_cell_formula_units_Z   2
loop_
 _symmetry_equiv_pos_site_id
 _symmetry_equiv_pos_as_xyz
  1  'x, y, z'
loop_
 _atom_site_type_symbol
 _atom_site_label
 _atom_site_symmetry_multiplicity
 _atom_site_fract_x
 _atom_site_fract_y
 _atom_site_fract_z
 _atom_site_occupancy
  Al  Al0  1  0.334642  0.167215  0.605386  1
  Al  Al1  1  0.334642  0.167215  0.894614  1
  Al  Al2  1  0.667616  0.333800  0.324801  1
  Al  Al3  1  0.666629  0.333273  0.475287  1
  Al  Al4  1  0.667616  0.333800  0.175199  1
  Al  Al5  1  0.000147  0.000147  0.500000  1
  Al  Al6  1  0.000147  0.000147  0.000000  1
  Al  Al7  1  0.666629  0.333273  0.024713  1
  Al  Al8  1  0.832630  0.167199  0.894618  1
  Al  Al9  1  0.832630  0.167199  0.605382  1
  Al  Al10  1  0.832755  0.665468  0.894846  1
  Al  Al11  1  0.832755  0.665468  0.605154  1
  Al  Al12  1  0.167215  0.334642  0.105386  1
  Al  Al13  1  0.167215  0.334642  0.394614  1
  Al  Al14  1  0.167199  0.832630  0.105382  1
  Al  Al15  1  0.333800  0.667616  0.824801  1
  Al  Al16  1  0.333800  0.667616  0.675199  1
  Al  Al17  1  0.333273  0.666629  0.524713  1
  Al  Al18  1  0.333273  0.666629  0.975287  1
  Al  Al19  1  0.167199  0.832630  0.394618  1
  Al  Al20  1  0.665468  0.832755  0.394846  1
  Al  Al21  1  0.665468  0.832755  0.105154  1
  Tl  Tl22  1  0.678887  0.357787  0.750000  1
  Tl  Tl23  1  0.357787  0.678887  0.250000  1
  O  O24  1  0.314137  0.157052  0.450982  1
  O  O25  1  0.314137  0.157052  0.049018  1
  O  O26  1  0.501790  0.003566  0.643633  1
  O  O27  1  0.501790  0.003566  0.856367  1
  O  O28  1  0.665662  0.332798  0.250000  1
  O  O29  1  0.842896  0.157006  0.048987  1
  O  O30  1  0.666709  0.333360  0.554810  1
  O  O31  1  0.999831  0.999889  0.360434  1
  O  O32  1  0.999831  0.999889  0.139566  1
  O  O33  1  0.999889  0.999831  0.860434  1
  O  O34  1  0.999889  0.999831  0.639566  1
  O  O35  1  0.666709  0.333360  0.945190  1
  O  O36  1  0.501605  0.498873  0.643557  1
  O  O37  1  0.842896  0.157006  0.451013  1
  O  O38  1  0.501605  0.498873  0.856443  1
  O  O39  1  0.157052  0.314137  0.950982  1
  O  O40  1  0.157052  0.314137  0.549018  1
  O  O41  1  0.997272  0.498868  0.643553  1
  O  O42  1  0.997272  0.498868  0.856447  1
  O  O43  1  0.003566  0.501790  0.356367  1
  O  O44  1  0.003566  0.501790  0.143633  1
  O  O45  1  0.842941  0.685846  0.451011  1
  O  O46  1  0.842941  0.685846  0.048989  1
  O  O47  1  0.498873  0.501605  0.143557  1
  O  O48  1  0.332798  0.665662  0.750000  1
  O  O49  1  0.333360  0.666709  0.054810  1
  O  O50  1  0.498873  0.501605  0.356443  1
  O  O51  1  0.157006  0.842896  0.548987  1
  O  O52  1  0.157006  0.842896  0.951013  1
  O  O53  1  0.333360  0.666709  0.445190  1
  O  O54  1  0.498868  0.997272  0.356447  1
  O  O55  1  0.498868  0.997272  0.143553  1
  O  O56  1  0.685846  0.842941  0.951011  1
  O  O57  1  0.685846  0.842941  0.548989  1
