# generated using pymatgen
data_Li4Mn3Nb3(SbO8)2
_symmetry_space_group_name_H-M   'P 1'
_cell_length_a   6.34657627
_cell_length_b   6.34657627
_cell_length_c   10.54201466
_cell_angle_alpha   89.68663682
_cell_angle_beta   90.31336318
_cell_angle_gamma   121.93657741
_symmetry_Int_Tables_number   1
_chemical_formula_structural   Li4Mn3Nb3(SbO8)2
_chemical_formula_sum   'Li4 Mn3 Nb3 Sb2 O16'
_cell_volume   360.34179439
_cell_formula_units_Z   1
loop_
 _symmetry_equiv_pos_site_id
 _symmetry_equiv_pos_as_xyz
  1  'x, y, z'
loop_
 _atom_site_type_symbol
 _atom_site_label
 _atom_site_symmetry_multiplicity
 _atom_site_fract_x
 _atom_site_fract_y
 _atom_site_fract_z
 _atom_site_occupancy
  Li  Li0  1  0.668126  0.331874  0.901232  1
  Li  Li1  1  0.996754  0.003246  0.002438  1
  Li  Li2  1  0.000425  0.999575  0.487352  1
  Li  Li3  1  0.344765  0.655235  0.391300  1
  Mn  Mn4  1  0.335765  0.172381  0.216696  1
  Mn  Mn5  1  0.827619  0.664235  0.216696  1
  Mn  Mn6  1  0.163720  0.836280  0.707269  1
  Nb  Nb7  1  0.823849  0.176151  0.231039  1
  Nb  Nb8  1  0.161568  0.341031  0.718247  1
  Nb  Nb9  1  0.658969  0.838432  0.718247  1
  Sb  Sb10  1  0.642498  0.357502  0.497636  1
  Sb  Sb11  1  0.322655  0.677345  0.023536  1
  O  O12  1  0.306300  0.178075  0.594699  1
  O  O13  1  0.524103  0.475897  0.345703  1
  O  O14  1  0.673493  0.326507  0.115391  1
  O  O15  1  0.995797  0.004203  0.305114  1
  O  O16  1  0.994255  0.005745  0.816908  1
  O  O17  1  0.821925  0.693700  0.594699  1
  O  O18  1  0.532563  0.007592  0.330186  1
  O  O19  1  0.992408  0.467437  0.330186  1
  O  O20  1  0.155778  0.844222  0.107962  1
  O  O21  1  0.861652  0.138348  0.607574  1
  O  O22  1  0.012134  0.482075  0.809329  1
  O  O23  1  0.517925  0.987866  0.809329  1
  O  O24  1  0.348959  0.651041  0.606694  1
  O  O25  1  0.151834  0.329919  0.103134  1
  O  O26  1  0.489655  0.510345  0.816838  1
  O  O27  1  0.670081  0.848166  0.103134  1
