# generated using pymatgen
data_VH10SO10
_symmetry_space_group_name_H-M   'P 1'
_cell_length_a   7.05504915
_cell_length_b   9.89203368
_cell_length_c   13.01630900
_cell_angle_alpha   90.00000000
_cell_angle_beta   111.27710670
_cell_angle_gamma   90.00000000
_symmetry_Int_Tables_number   1
_chemical_formula_structural   VH10SO10
_chemical_formula_sum   'V4 H40 S4 O40'
_cell_volume   846.47298511
_cell_formula_units_Z   4
loop_
 _symmetry_equiv_pos_site_id
 _symmetry_equiv_pos_as_xyz
  1  'x, y, z'
loop_
 _atom_site_type_symbol
 _atom_site_label
 _atom_site_symmetry_multiplicity
 _atom_site_fract_x
 _atom_site_fract_y
 _atom_site_fract_z
 _atom_site_occupancy
  V  V0  1  0.336458  0.726854  0.650560  1
  V  V1  1  0.663542  0.226854  0.849440  1
  V  V2  1  0.663542  0.273146  0.349440  1
  V  V3  1  0.336458  0.773146  0.150560  1
  H  H4  1  0.182138  0.815614  0.910016  1
  H  H5  1  0.817862  0.315614  0.589984  1
  H  H6  1  0.817862  0.184386  0.089984  1
  H  H7  1  0.182138  0.684386  0.410016  1
  H  H8  1  0.228250  0.659889  0.941125  1
  H  H9  1  0.771750  0.159889  0.558875  1
  H  H10  1  0.771750  0.340111  0.058875  1
  H  H11  1  0.228250  0.840111  0.441125  1
  H  H12  1  0.382201  0.989859  0.645745  1
  H  H13  1  0.617799  0.489859  0.854255  1
  H  H14  1  0.617799  0.010141  0.354255  1
  H  H15  1  0.382201  0.510141  0.145745  1
  H  H16  1  0.592046  0.933252  0.631557  1
  H  H17  1  0.407954  0.433252  0.868443  1
  H  H18  1  0.407954  0.066748  0.368443  1
  H  H19  1  0.592046  0.566748  0.131557  1
  H  H20  1  0.619069  0.652110  0.566089  1
  H  H21  1  0.380931  0.152110  0.933911  1
  H  H22  1  0.380931  0.347890  0.433911  1
  H  H23  1  0.619069  0.847890  0.066089  1
  H  H24  1  0.687066  0.606565  0.696830  1
  H  H25  1  0.312934  0.106565  0.803170  1
  H  H26  1  0.312934  0.393435  0.303170  1
  H  H27  1  0.687066  0.893435  0.196830  1
  H  H28  1  0.095578  0.515462  0.650090  1
  H  H29  1  0.904422  0.015462  0.849910  1
  H  H30  1  0.904422  0.484538  0.349910  1
  H  H31  1  0.095578  0.984538  0.150090  1
  H  H32  1  0.219810  0.474375  0.573754  1
  H  H33  1  0.780190  0.974375  0.926246  1
  H  H34  1  0.780190  0.525625  0.426246  1
  H  H35  1  0.219810  0.025625  0.073754  1
  H  H36  1  0.627873  0.771765  0.904766  1
  H  H37  1  0.372127  0.271765  0.595234  1
  H  H38  1  0.372127  0.228235  0.095234  1
  H  H39  1  0.627873  0.728235  0.404766  1
  H  H40  1  0.841903  0.762379  0.005158  1
  H  H41  1  0.158097  0.262379  0.494842  1
  H  H42  1  0.158097  0.237621  0.994842  1
  H  H43  1  0.841903  0.737621  0.505158  1
  S  S44  1  0.016756  0.949541  0.677375  1
  S  S45  1  0.983244  0.449541  0.822625  1
  S  S46  1  0.983244  0.050459  0.322625  1
  S  S47  1  0.016756  0.550459  0.177375  1
  O  O48  1  0.429960  0.706366  0.784773  1
  O  O49  1  0.570040  0.206366  0.715227  1
  O  O50  1  0.570040  0.293634  0.215227  1
  O  O51  1  0.429960  0.793634  0.284773  1
  O  O52  1  0.251403  0.747084  0.471024  1
  O  O53  1  0.748597  0.247084  0.028976  1
  O  O54  1  0.748597  0.252916  0.528976  1
  O  O55  1  0.251403  0.752916  0.971024  1
  O  O56  1  0.065914  0.819851  0.628399  1
  O  O57  1  0.934086  0.319851  0.871601  1
  O  O58  1  0.934086  0.180149  0.371601  1
  O  O59  1  0.065914  0.680149  0.128399  1
  O  O60  1  0.461656  0.909369  0.640557  1
  O  O61  1  0.538344  0.409369  0.859443  1
  O  O62  1  0.538344  0.090631  0.359443  1
  O  O63  1  0.461656  0.590631  0.140557  1
  O  O64  1  0.571447  0.626665  0.627328  1
  O  O65  1  0.428553  0.126665  0.872672  1
  O  O66  1  0.428553  0.373335  0.372672  1
  O  O67  1  0.571447  0.873335  0.127328  1
  O  O68  1  0.169028  0.554026  0.603891  1
  O  O69  1  0.830972  0.054026  0.896109  1
  O  O70  1  0.830972  0.445974  0.396109  1
  O  O71  1  0.169028  0.945974  0.103891  1
  O  O72  1  0.035791  0.922831  0.792832  1
  O  O73  1  0.964209  0.422831  0.707168  1
  O  O74  1  0.964209  0.077169  0.207168  1
  O  O75  1  0.035791  0.577169  0.292832  1
  O  O76  1  0.804493  0.985354  0.608918  1
  O  O77  1  0.195507  0.485354  0.891082  1
  O  O78  1  0.195507  0.014646  0.391082  1
  O  O79  1  0.804493  0.514646  0.108918  1
  O  O80  1  0.160509  0.056941  0.673007  1
  O  O81  1  0.839491  0.556941  0.826993  1
  O  O82  1  0.839491  0.943059  0.326993  1
  O  O83  1  0.160509  0.443059  0.173007  1
  O  O84  1  0.723403  0.820741  0.970190  1
  O  O85  1  0.276597  0.320741  0.529810  1
  O  O86  1  0.276597  0.179259  0.029810  1
  O  O87  1  0.723403  0.679259  0.470190  1
