# generated using pymatgen
data_VNi3Sb2(PO4)6
_symmetry_space_group_name_H-M   'P 1'
_cell_length_a   8.82177121
_cell_length_b   8.82177121
_cell_length_c   8.82177121
_cell_angle_alpha   58.76067103
_cell_angle_beta   58.76067103
_cell_angle_gamma   58.76067103
_symmetry_Int_Tables_number   1
_chemical_formula_structural   VNi3Sb2(PO4)6
_chemical_formula_sum   'V1 Ni3 Sb2 P6 O24'
_cell_volume   471.71602042
_cell_formula_units_Z   1
loop_
 _symmetry_equiv_pos_site_id
 _symmetry_equiv_pos_as_xyz
  1  'x, y, z'
loop_
 _atom_site_type_symbol
 _atom_site_label
 _atom_site_symmetry_multiplicity
 _atom_site_fract_x
 _atom_site_fract_y
 _atom_site_fract_z
 _atom_site_occupancy
  V  V0  1  0.143075  0.143075  0.143075  1
  Ni  Ni1  1  0.647331  0.647331  0.647331  1
  Ni  Ni2  1  0.847382  0.847382  0.847382  1
  Ni  Ni3  1  0.353602  0.353602  0.353602  1
  Sb  Sb4  1  0.981060  0.981060  0.981060  1
  Sb  Sb5  1  0.495490  0.495490  0.495490  1
  P  P6  1  0.251690  0.535141  0.962453  1
  P  P7  1  0.962453  0.251690  0.535141  1
  P  P8  1  0.535141  0.962453  0.251690  1
  P  P9  1  0.459731  0.045145  0.754226  1
  P  P10  1  0.045145  0.754226  0.459731  1
  P  P11  1  0.754226  0.459731  0.045145  1
  O  O12  1  0.108208  0.308680  0.512139  1
  O  O13  1  0.512139  0.108208  0.308680  1
  O  O14  1  0.308680  0.512139  0.108208  1
  O  O15  1  0.082435  0.731263  0.935364  1
  O  O16  1  0.183973  0.377906  0.014154  1
  O  O17  1  0.412935  0.544278  0.765893  1
  O  O18  1  0.935364  0.082435  0.731263  1
  O  O19  1  0.765893  0.412935  0.544278  1
  O  O20  1  0.616648  0.018837  0.798143  1
  O  O21  1  0.544278  0.765893  0.412935  1
  O  O22  1  0.265246  0.082453  0.923440  1
  O  O23  1  0.018837  0.798143  0.616648  1
  O  O24  1  0.014154  0.183973  0.377906  1
  O  O25  1  0.731263  0.935364  0.082435  1
  O  O26  1  0.431242  0.243719  0.589471  1
  O  O27  1  0.377906  0.014154  0.183973  1
  O  O28  1  0.243719  0.589471  0.431242  1
  O  O29  1  0.082453  0.923440  0.265246  1
  O  O30  1  0.589471  0.431242  0.243719  1
  O  O31  1  0.798143  0.616648  0.018837  1
  O  O32  1  0.923440  0.265246  0.082453  1
  O  O33  1  0.715691  0.471097  0.890457  1
  O  O34  1  0.471097  0.890457  0.715691  1
  O  O35  1  0.890457  0.715691  0.471097  1
