# generated using pymatgen
data_Mn6O7F5
_symmetry_space_group_name_H-M   'P 1'
_cell_length_a   4.72883323
_cell_length_b   5.59231225
_cell_length_c   7.72880668
_cell_angle_alpha   84.65771924
_cell_angle_beta   87.09152330
_cell_angle_gamma   86.41115719
_symmetry_Int_Tables_number   1
_chemical_formula_structural   Mn6O7F5
_chemical_formula_sum   'Mn6 O7 F5'
_cell_volume   202.89471323
_cell_formula_units_Z   1
loop_
 _symmetry_equiv_pos_site_id
 _symmetry_equiv_pos_as_xyz
  1  'x, y, z'
loop_
 _atom_site_type_symbol
 _atom_site_label
 _atom_site_symmetry_multiplicity
 _atom_site_fract_x
 _atom_site_fract_y
 _atom_site_fract_z
 _atom_site_occupancy
  Mn  Mn0  1  0.466927  0.483596  0.992838  1
  Mn  Mn1  1  0.507495  0.826366  0.670159  1
  Mn  Mn2  1  0.538800  0.180201  0.330443  1
  Mn  Mn3  1  0.987080  0.348833  0.672790  1
  Mn  Mn4  1  0.983870  0.652119  0.332953  1
  Mn  Mn5  1  0.014940  0.010294  0.999303  1
  O  O6  1  0.818820  0.376200  0.448651  1
  O  O7  1  0.696976  0.204342  0.093754  1
  O  O8  1  0.684328  0.535557  0.774512  1
  O  O9  1  0.696649  0.870448  0.437432  1
  O  O10  1  0.310659  0.459173  0.230671  1
  O  O11  1  0.300876  0.793387  0.896682  1
  O  O12  1  0.191275  0.292586  0.890022  1
  F  F13  1  0.803267  0.038597  0.759911  1
  F  F14  1  0.803085  0.712755  0.089085  1
  F  F15  1  0.304980  0.134163  0.566110  1
  F  F16  1  0.203438  0.633164  0.570979  1
  F  F17  1  0.186533  0.948218  0.243704  1
