# generated using pymatgen
data_Li2SiNiO4
_symmetry_space_group_name_H-M   'P 1'
_cell_length_a   6.36139664
_cell_length_b   4.97647567
_cell_length_c   10.86224358
_cell_angle_alpha   90.00000000
_cell_angle_beta   91.69643353
_cell_angle_gamma   90.00000000
_symmetry_Int_Tables_number   1
_chemical_formula_structural   Li2SiNiO4
_chemical_formula_sum   'Li8 Si4 Ni4 O16'
_cell_volume   343.71897411
_cell_formula_units_Z   4
loop_
 _symmetry_equiv_pos_site_id
 _symmetry_equiv_pos_as_xyz
  1  'x, y, z'
loop_
 _atom_site_type_symbol
 _atom_site_label
 _atom_site_symmetry_multiplicity
 _atom_site_fract_x
 _atom_site_fract_y
 _atom_site_fract_z
 _atom_site_occupancy
  Li  Li0  1  0.506709  0.193185  0.414782  1
  Li  Li1  1  0.506709  0.306815  0.914782  1
  Li  Li2  1  0.262822  0.196489  0.171667  1
  Li  Li3  1  0.262822  0.303511  0.671667  1
  Li  Li4  1  0.737178  0.696489  0.328333  1
  Li  Li5  1  0.737178  0.803511  0.828333  1
  Li  Li6  1  0.493291  0.693185  0.085218  1
  Li  Li7  1  0.493291  0.806815  0.585218  1
  Si  Si8  1  0.262197  0.693108  0.333630  1
  Si  Si9  1  0.262197  0.806892  0.833630  1
  Si  Si10  1  0.737803  0.193108  0.166370  1
  Si  Si11  1  0.737803  0.306892  0.666370  1
  Ni  Ni12  1  0.005391  0.209974  0.410056  1
  Ni  Ni13  1  0.005391  0.290026  0.910056  1
  Ni  Ni14  1  0.994609  0.709974  0.089944  1
  Ni  Ni15  1  0.994609  0.790026  0.589944  1
  O  O16  1  0.473661  0.796794  0.403353  1
  O  O17  1  0.473661  0.703206  0.903353  1
  O  O18  1  0.250398  0.359583  0.335228  1
  O  O19  1  0.250398  0.140417  0.835228  1
  O  O20  1  0.246605  0.795512  0.188139  1
  O  O21  1  0.246605  0.704488  0.688139  1
  O  O22  1  0.046346  0.804671  0.405798  1
  O  O23  1  0.046346  0.695329  0.905798  1
  O  O24  1  0.953654  0.304671  0.094202  1
  O  O25  1  0.953654  0.195329  0.594202  1
  O  O26  1  0.749602  0.859583  0.164772  1
  O  O27  1  0.749602  0.640417  0.664772  1
  O  O28  1  0.753395  0.295512  0.311861  1
  O  O29  1  0.753395  0.204488  0.811861  1
  O  O30  1  0.526339  0.296794  0.096647  1
  O  O31  1  0.526339  0.203206  0.596647  1
