# generated using pymatgen
data_Zn3N2
_symmetry_space_group_name_H-M   'P 1'
_cell_length_a   3.40521297
_cell_length_b   5.90000088
_cell_length_c   12.02051062
_cell_angle_alpha   90.00000000
_cell_angle_beta   90.00000000
_cell_angle_gamma   90.00000000
_symmetry_Int_Tables_number   1
_chemical_formula_structural   Zn3N2
_chemical_formula_sum   'Zn12 N8'
_cell_volume   241.50118817
_cell_formula_units_Z   4
loop_
 _symmetry_equiv_pos_site_id
 _symmetry_equiv_pos_as_xyz
  1  'x, y, z'
loop_
 _atom_site_type_symbol
 _atom_site_label
 _atom_site_symmetry_multiplicity
 _atom_site_fract_x
 _atom_site_fract_y
 _atom_site_fract_z
 _atom_site_occupancy
  Zn  Zn0  1  0.750000  0.089862  0.076832  1
  Zn  Zn1  1  0.750000  0.410138  0.576832  1
  Zn  Zn2  1  0.750000  0.751057  0.246793  1
  Zn  Zn3  1  0.750000  0.075970  0.418633  1
  Zn  Zn4  1  0.750000  0.748943  0.746793  1
  Zn  Zn5  1  0.750000  0.424030  0.918633  1
  Zn  Zn6  1  0.250000  0.575970  0.081367  1
  Zn  Zn7  1  0.250000  0.910138  0.923168  1
  Zn  Zn8  1  0.250000  0.251057  0.253207  1
  Zn  Zn9  1  0.250000  0.248943  0.753207  1
  Zn  Zn10  1  0.250000  0.924030  0.581367  1
  Zn  Zn11  1  0.250000  0.589862  0.423168  1
  N  N12  1  0.750000  0.084464  0.247470  1
  N  N13  1  0.750000  0.747331  0.002481  1
  N  N14  1  0.750000  0.415536  0.747470  1
  N  N15  1  0.750000  0.752669  0.502481  1
  N  N16  1  0.250000  0.584464  0.252530  1
  N  N17  1  0.250000  0.915536  0.752530  1
  N  N18  1  0.250000  0.247331  0.497519  1
  N  N19  1  0.250000  0.252669  0.997519  1
