# generated using pymatgen
data_LiVOF2
_symmetry_space_group_name_H-M   'P 1'
_cell_length_a   5.47583174
_cell_length_b   8.97287050
_cell_length_c   10.12959631
_cell_angle_alpha   90.38528193
_cell_angle_beta   90.20040736
_cell_angle_gamma   90.39035547
_symmetry_Int_Tables_number   1
_chemical_formula_structural   LiVOF2
_chemical_formula_sum   'Li8 V8 O8 F16'
_cell_volume   497.68093809
_cell_formula_units_Z   8
loop_
 _symmetry_equiv_pos_site_id
 _symmetry_equiv_pos_as_xyz
  1  'x, y, z'
loop_
 _atom_site_type_symbol
 _atom_site_label
 _atom_site_symmetry_multiplicity
 _atom_site_fract_x
 _atom_site_fract_y
 _atom_site_fract_z
 _atom_site_occupancy
  Li  Li0  1  0.468169  0.419662  0.210268  1
  Li  Li1  1  0.964211  0.589831  0.212064  1
  Li  Li2  1  0.965384  0.079552  0.285208  1
  Li  Li3  1  0.451656  0.907624  0.293461  1
  Li  Li4  1  0.529534  0.078530  0.696222  1
  Li  Li5  1  0.034409  0.922679  0.695782  1
  Li  Li6  1  0.039354  0.415077  0.792998  1
  Li  Li7  1  0.538258  0.576089  0.808503  1
  V  V8  1  0.750529  0.905700  0.011296  1
  V  V9  1  0.740174  0.261057  0.012341  1
  V  V10  1  0.233635  0.739190  0.011866  1
  V  V11  1  0.254213  0.095001  0.011137  1
  V  V12  1  0.767052  0.418766  0.495943  1
  V  V13  1  0.730551  0.762201  0.491232  1
  V  V14  1  0.258987  0.246801  0.492314  1
  V  V15  1  0.243938  0.585080  0.497466  1
  O  O16  1  0.908350  0.086465  0.090820  1
  O  O17  1  0.404449  0.914607  0.091656  1
  O  O18  1  0.431529  0.246615  0.095047  1
  O  O19  1  0.924434  0.753787  0.092543  1
  O  O20  1  0.418466  0.745229  0.417704  1
  O  O21  1  0.425316  0.416405  0.409098  1
  O  O22  1  0.902423  0.591220  0.404683  1
  O  O23  1  0.078594  0.407685  0.597697  1
  F  F24  1  0.813690  0.418122  0.145849  1
  F  F25  1  0.311066  0.589331  0.149802  1
  F  F26  1  0.795226  0.919792  0.355193  1
  F  F27  1  0.305380  0.083657  0.363289  1
  F  F28  1  0.937992  0.259761  0.386921  1
  F  F29  1  0.588719  0.580691  0.618585  1
  F  F30  1  0.594360  0.247128  0.592743  1
  F  F31  1  0.065625  0.736944  0.610931  1
  F  F32  1  0.704484  0.918254  0.632743  1
  F  F33  1  0.195525  0.091272  0.632382  1
  F  F34  1  0.706817  0.409840  0.867225  1
  F  F35  1  0.206785  0.580131  0.872527  1
  F  F36  1  0.078440  0.236840  0.892287  1
  F  F37  1  0.571473  0.764143  0.889871  1
  F  F38  1  0.580944  0.086007  0.886248  1
  F  F39  1  0.079855  0.913235  0.886049  1
