# generated using pymatgen
data_NdBiO4
_symmetry_space_group_name_H-M   'P 1'
_cell_length_a   6.86255440
_cell_length_b   6.86255440
_cell_length_c   5.38568089
_cell_angle_alpha   69.49637164
_cell_angle_beta   110.50362836
_cell_angle_gamma   65.72768440
_symmetry_Int_Tables_number   1
_chemical_formula_structural   NdBiO4
_chemical_formula_sum   'Nd2 Bi2 O8'
_cell_volume   176.59714926
_cell_formula_units_Z   2
loop_
 _symmetry_equiv_pos_site_id
 _symmetry_equiv_pos_as_xyz
  1  'x, y, z'
loop_
 _atom_site_type_symbol
 _atom_site_label
 _atom_site_symmetry_multiplicity
 _atom_site_fract_x
 _atom_site_fract_y
 _atom_site_fract_z
 _atom_site_occupancy
  Nd  Nd0  1  0.863445  0.863445  0.750000  1
  Nd  Nd1  1  0.136555  0.136555  0.250000  1
  Bi  Bi2  1  0.400391  0.400391  0.750000  1
  Bi  Bi3  1  0.599609  0.599609  0.250000  1
  O  O4  1  0.116338  0.451868  0.833643  1
  O  O5  1  0.548132  0.883662  0.333643  1
  O  O6  1  0.286686  0.767697  0.771148  1
  O  O7  1  0.232303  0.713314  0.271148  1
  O  O8  1  0.767697  0.286686  0.728852  1
  O  O9  1  0.713314  0.232303  0.228852  1
  O  O10  1  0.451868  0.116338  0.666357  1
  O  O11  1  0.883662  0.548132  0.166357  1
