# generated using pymatgen
data_Nd2V2O7
_symmetry_space_group_name_H-M   'P 1'
_cell_length_a   7.31281762
_cell_length_b   7.31281762
_cell_length_c   7.31281762
_cell_angle_alpha   60.00000000
_cell_angle_beta   60.00000000
_cell_angle_gamma   60.00000000
_symmetry_Int_Tables_number   1
_chemical_formula_structural   Nd2V2O7
_chemical_formula_sum   'Nd4 V4 O14'
_cell_volume   276.52807447
_cell_formula_units_Z   2
loop_
 _symmetry_equiv_pos_site_id
 _symmetry_equiv_pos_as_xyz
  1  'x, y, z'
loop_
 _atom_site_type_symbol
 _atom_site_label
 _atom_site_symmetry_multiplicity
 _atom_site_fract_x
 _atom_site_fract_y
 _atom_site_fract_z
 _atom_site_occupancy
  Nd  Nd0  1  0.625000  0.625000  0.125000  1
  Nd  Nd1  1  0.125000  0.625000  0.625000  1
  Nd  Nd2  1  0.625000  0.625000  0.625000  1
  Nd  Nd3  1  0.625000  0.125000  0.625000  1
  V  V4  1  0.625000  0.125000  0.125000  1
  V  V5  1  0.125000  0.625000  0.125000  1
  V  V6  1  0.125000  0.125000  0.125000  1
  V  V7  1  0.125000  0.125000  0.625000  1
  O  O8  1  0.048200  0.048200  0.451800  1
  O  O9  1  0.201800  0.798200  0.201800  1
  O  O10  1  0.798200  0.798200  0.201800  1
  O  O11  1  0.048200  0.451800  0.451800  1
  O  O12  1  0.451800  0.048200  0.048200  1
  O  O13  1  0.750000  0.750000  0.750000  1
  O  O14  1  0.451800  0.048200  0.451800  1
  O  O15  1  0.798200  0.201800  0.201800  1
  O  O16  1  0.798200  0.201800  0.798200  1
  O  O17  1  0.500000  0.500000  0.500000  1
  O  O18  1  0.201800  0.798200  0.798200  1
  O  O19  1  0.451800  0.451800  0.048200  1
  O  O20  1  0.048200  0.451800  0.048200  1
  O  O21  1  0.201800  0.201800  0.798200  1
