# generated using pymatgen
data_Li2MnO2F
_symmetry_space_group_name_H-M   'P 1'
_cell_length_a   4.88985769
_cell_length_b   5.62695241
_cell_length_c   8.56331833
_cell_angle_alpha   90.00000000
_cell_angle_beta   90.00000000
_cell_angle_gamma   90.00000000
_symmetry_Int_Tables_number   1
_chemical_formula_structural   Li2MnO2F
_chemical_formula_sum   'Li8 Mn4 O8 F4'
_cell_volume   235.61967399
_cell_formula_units_Z   4
loop_
 _symmetry_equiv_pos_site_id
 _symmetry_equiv_pos_as_xyz
  1  'x, y, z'
loop_
 _atom_site_type_symbol
 _atom_site_label
 _atom_site_symmetry_multiplicity
 _atom_site_fract_x
 _atom_site_fract_y
 _atom_site_fract_z
 _atom_site_occupancy
  Li  Li0  1  0.701943  0.127504  0.422893  1
  Li  Li1  1  0.701943  0.127504  0.077107  1
  Li  Li2  1  0.201943  0.372496  0.577107  1
  Li  Li3  1  0.201943  0.372496  0.922893  1
  Li  Li4  1  0.798057  0.627504  0.077107  1
  Li  Li5  1  0.798057  0.627504  0.422893  1
  Li  Li6  1  0.298057  0.872496  0.577107  1
  Li  Li7  1  0.298057  0.872496  0.922893  1
  Mn  Mn8  1  0.745839  0.126385  0.750000  1
  Mn  Mn9  1  0.245839  0.373615  0.250000  1
  Mn  Mn10  1  0.754161  0.626385  0.750000  1
  Mn  Mn11  1  0.254161  0.873615  0.250000  1
  O  O12  1  0.277124  0.124329  0.096192  1
  O  O13  1  0.277124  0.124329  0.403808  1
  O  O14  1  0.777124  0.375671  0.903808  1
  O  O15  1  0.777124  0.375671  0.596192  1
  O  O16  1  0.222876  0.624329  0.096192  1
  O  O17  1  0.222876  0.624329  0.403808  1
  O  O18  1  0.722876  0.875671  0.596192  1
  O  O19  1  0.722876  0.875671  0.903808  1
  F  F20  1  0.262616  0.134112  0.750000  1
  F  F21  1  0.762616  0.365888  0.250000  1
  F  F22  1  0.237384  0.634112  0.750000  1
  F  F23  1  0.737384  0.865888  0.250000  1
