# generated using pymatgen
data_V3(O2F)2
_symmetry_space_group_name_H-M   'P 1'
_cell_length_a   5.09452425
_cell_length_b   5.11601175
_cell_length_c   5.57621876
_cell_angle_alpha   92.04068425
_cell_angle_beta   116.32949951
_cell_angle_gamma   118.51363987
_symmetry_Int_Tables_number   1
_chemical_formula_structural   V3(O2F)2
_chemical_formula_sum   'V3 O4 F2'
_cell_volume   108.66781486
_cell_formula_units_Z   1
loop_
 _symmetry_equiv_pos_site_id
 _symmetry_equiv_pos_as_xyz
  1  'x, y, z'
loop_
 _atom_site_type_symbol
 _atom_site_label
 _atom_site_symmetry_multiplicity
 _atom_site_fract_x
 _atom_site_fract_y
 _atom_site_fract_z
 _atom_site_occupancy
  V  V0  1  0.286671  0.625458  0.939710  1
  V  V1  1  0.701896  0.833086  0.565145  1
  V  V2  1  0.653685  0.327614  0.009382  1
  O  O3  1  0.854428  0.250021  0.786248  1
  O  O4  1  0.508179  0.576633  0.757158  1
  O  O5  1  0.200009  0.919503  0.800071  1
  O  O6  1  0.544744  0.511535  0.233698  1
  F  F7  1  0.778678  0.072428  0.259207  1
  F  F8  1  0.174497  0.711268  0.245161  1
