# generated using pymatgen
data_BeH8(NO5)2
_symmetry_space_group_name_H-M   'P 1'
_cell_length_a   8.86449461
_cell_length_b   8.86449461
_cell_length_c   8.86449461
_cell_angle_alpha   97.24952024
_cell_angle_beta   97.24952024
_cell_angle_gamma   138.38451906
_symmetry_Int_Tables_number   1
_chemical_formula_structural   BeH8(NO5)2
_chemical_formula_sum   'Be2 H16 N4 O20'
_cell_volume   432.43638530
_cell_formula_units_Z   2
loop_
 _symmetry_equiv_pos_site_id
 _symmetry_equiv_pos_as_xyz
  1  'x, y, z'
loop_
 _atom_site_type_symbol
 _atom_site_label
 _atom_site_symmetry_multiplicity
 _atom_site_fract_x
 _atom_site_fract_y
 _atom_site_fract_z
 _atom_site_occupancy
  Be  Be0  1  0.500000  0.500000  0.000000  1
  Be  Be1  1  0.750000  0.250000  0.500000  1
  H  H2  1  0.816963  0.281336  0.255201  1
  H  H3  1  0.433037  0.188238  0.964373  1
  H  H4  1  0.026136  0.561762  0.744799  1
  H  H5  1  0.223864  0.468664  0.035627  1
  H  H6  1  0.438238  0.183037  0.464373  1
  H  H7  1  0.811762  0.776136  0.244799  1
  H  H8  1  0.718664  0.973864  0.535627  1
  H  H9  1  0.531336  0.566963  0.755201  1
  H  H10  1  0.619663  0.785297  0.891843  1
  H  H11  1  0.630337  0.022179  0.665634  1
  H  H12  1  0.893454  0.727821  0.108157  1
  H  H13  1  0.356546  0.964703  0.334366  1
  H  H14  1  0.272179  0.380337  0.165634  1
  H  H15  1  0.977821  0.643454  0.608157  1
  H  H16  1  0.214703  0.106546  0.834366  1
  H  H17  1  0.035297  0.369663  0.391843  1
  N  N18  1  0.625000  0.072137  0.947137  1
  N  N19  1  0.125000  0.677863  0.052863  1
  N  N20  1  0.322137  0.375000  0.447137  1
  N  N21  1  0.927863  0.875000  0.552863  1
  O  O22  1  0.625000  0.181253  0.056253  1
  O  O23  1  0.125000  0.568747  0.943747  1
  O  O24  1  0.431253  0.375000  0.556253  1
  O  O25  1  0.818747  0.875000  0.443747  1
  O  O26  1  0.748441  0.050718  0.987222  1
  O  O27  1  0.501559  0.988781  0.802277  1
  O  O28  1  0.063496  0.761219  0.012778  1
  O  O29  1  0.186504  0.699282  0.197723  1
  O  O30  1  0.238781  0.251559  0.302277  1
  O  O31  1  0.011219  0.813496  0.512778  1
  O  O32  1  0.949282  0.936504  0.697723  1
  O  O33  1  0.300718  0.498441  0.487222  1
  O  O34  1  0.868296  0.283384  0.362071  1
  O  O35  1  0.381704  0.243774  0.915088  1
  O  O36  1  0.921313  0.506226  0.637929  1
  O  O37  1  0.328687  0.466616  0.084912  1
  O  O38  1  0.493774  0.131704  0.415087  1
  O  O39  1  0.756226  0.671313  0.137929  1
  O  O40  1  0.716616  0.078687  0.584913  1
  O  O41  1  0.533384  0.618296  0.862071  1
