# generated using pymatgen
data_Sc3Bi3O11
_symmetry_space_group_name_H-M   'P 1'
_cell_length_a   9.68483022
_cell_length_b   9.68483022
_cell_length_c   9.68483022
_cell_angle_alpha   90.00000000
_cell_angle_beta   90.00000000
_cell_angle_gamma   90.00000000
_symmetry_Int_Tables_number   1
_chemical_formula_structural   Sc3Bi3O11
_chemical_formula_sum   'Sc12 Bi12 O44'
_cell_volume   908.39771927
_cell_formula_units_Z   4
loop_
 _symmetry_equiv_pos_site_id
 _symmetry_equiv_pos_as_xyz
  1  'x, y, z'
loop_
 _atom_site_type_symbol
 _atom_site_label
 _atom_site_symmetry_multiplicity
 _atom_site_fract_x
 _atom_site_fract_y
 _atom_site_fract_z
 _atom_site_occupancy
  Sc  Sc0  1  0.787249  0.000000  0.500000  1
  Sc  Sc1  1  0.000000  0.500000  0.212751  1
  Sc  Sc2  1  0.000000  0.500000  0.787249  1
  Sc  Sc3  1  0.000000  0.287249  0.500000  1
  Sc  Sc4  1  0.000000  0.712751  0.500000  1
  Sc  Sc5  1  0.212751  0.000000  0.500000  1
  Sc  Sc6  1  0.287249  0.500000  0.000000  1
  Sc  Sc7  1  0.500000  0.787249  0.000000  1
  Sc  Sc8  1  0.500000  0.000000  0.287249  1
  Sc  Sc9  1  0.500000  0.212751  0.000000  1
  Sc  Sc10  1  0.500000  0.000000  0.712751  1
  Sc  Sc11  1  0.712751  0.500000  0.000000  1
  Bi  Bi12  1  0.750000  0.750000  0.750000  1
  Bi  Bi13  1  0.750000  0.250000  0.250000  1
  Bi  Bi14  1  0.867503  0.867503  0.132497  1
  Bi  Bi15  1  0.867503  0.132497  0.867503  1
  Bi  Bi16  1  0.132497  0.867503  0.867503  1
  Bi  Bi17  1  0.132497  0.132497  0.132497  1
  Bi  Bi18  1  0.250000  0.750000  0.250000  1
  Bi  Bi19  1  0.250000  0.250000  0.750000  1
  Bi  Bi20  1  0.367503  0.367503  0.367503  1
  Bi  Bi21  1  0.367503  0.632497  0.632497  1
  Bi  Bi22  1  0.632497  0.367503  0.632497  1
  Bi  Bi23  1  0.632497  0.632497  0.367503  1
  O  O24  1  0.783564  0.505678  0.798294  1
  O  O25  1  0.783564  0.494322  0.201706  1
  O  O26  1  0.922669  0.500000  0.500000  1
  O  O27  1  0.798294  0.783564  0.505678  1
  O  O28  1  0.798294  0.216436  0.494322  1
  O  O29  1  0.898310  0.898310  0.898310  1
  O  O30  1  0.898310  0.101690  0.101690  1
  O  O31  1  0.994322  0.701706  0.716436  1
  O  O32  1  0.994322  0.298294  0.283564  1
  O  O33  1  0.000000  0.577331  0.000000  1
  O  O34  1  0.000000  0.422669  0.000000  1
  O  O35  1  0.000000  0.000000  0.422669  1
  O  O36  1  0.000000  0.000000  0.577331  1
  O  O37  1  0.005678  0.298294  0.716436  1
  O  O38  1  0.005678  0.701706  0.283564  1
  O  O39  1  0.101690  0.898310  0.101690  1
  O  O40  1  0.101690  0.101690  0.898310  1
  O  O41  1  0.201706  0.783564  0.494322  1
  O  O42  1  0.201706  0.216436  0.505678  1
  O  O43  1  0.077331  0.500000  0.500000  1
  O  O44  1  0.216436  0.494322  0.798294  1
  O  O45  1  0.216436  0.505678  0.201706  1
  O  O46  1  0.283564  0.994322  0.298294  1
  O  O47  1  0.283564  0.005678  0.701706  1
  O  O48  1  0.422669  0.000000  0.000000  1
  O  O49  1  0.298294  0.283564  0.994322  1
  O  O50  1  0.298294  0.716436  0.005678  1
  O  O51  1  0.398310  0.398310  0.601690  1
  O  O52  1  0.398310  0.601690  0.398310  1
  O  O53  1  0.494322  0.798294  0.216436  1
  O  O54  1  0.494322  0.201706  0.783564  1
  O  O55  1  0.500000  0.922669  0.500000  1
  O  O56  1  0.500000  0.077331  0.500000  1
  O  O57  1  0.500000  0.500000  0.922669  1
  O  O58  1  0.500000  0.500000  0.077331  1
  O  O59  1  0.505678  0.798294  0.783564  1
  O  O60  1  0.505678  0.201706  0.216436  1
  O  O61  1  0.601690  0.398310  0.398310  1
  O  O62  1  0.601690  0.601690  0.601690  1
  O  O63  1  0.701706  0.283564  0.005678  1
  O  O64  1  0.701706  0.716436  0.994322  1
  O  O65  1  0.577331  0.000000  0.000000  1
  O  O66  1  0.716436  0.994322  0.701706  1
  O  O67  1  0.716436  0.005678  0.298294  1
