# generated using pymatgen
data_Li6La3Nb2O12
_symmetry_space_group_name_H-M   'P 1'
_cell_length_a   11.16760108
_cell_length_b   11.16760108
_cell_length_c   11.16760108
_cell_angle_alpha   109.47122063
_cell_angle_beta   109.47122063
_cell_angle_gamma   109.47122063
_symmetry_Int_Tables_number   1
_chemical_formula_structural   Li6La3Nb2O12
_chemical_formula_sum   'Li24 La12 Nb8 O48'
_cell_volume   1072.15551833
_cell_formula_units_Z   4
loop_
 _symmetry_equiv_pos_site_id
 _symmetry_equiv_pos_as_xyz
  1  'x, y, z'
loop_
 _atom_site_type_symbol
 _atom_site_label
 _atom_site_symmetry_multiplicity
 _atom_site_fract_x
 _atom_site_fract_y
 _atom_site_fract_z
 _atom_site_occupancy
  Li  Li0  1  0.179291  0.926346  0.888889  1
  Li  Li1  1  0.251693  0.687371  0.797794  1
  Li  Li2  1  0.064322  0.110424  0.812629  1
  Li  Li3  1  0.209598  0.747055  0.320709  1
  Li  Li4  1  0.110424  0.812629  0.064322  1
  Li  Li5  1  0.046101  0.435678  0.248307  1
  Li  Li6  1  0.290402  0.611111  0.537457  1
  Li  Li7  1  0.389576  0.453899  0.702206  1
  Li  Li8  1  0.573654  0.752945  0.962543  1
  Li  Li9  1  0.320709  0.209598  0.747055  1
  Li  Li10  1  0.453899  0.702206  0.389576  1
  Li  Li11  1  0.248307  0.046101  0.435678  1
  Li  Li12  1  0.752945  0.962543  0.573654  1
  Li  Li13  1  0.537457  0.290402  0.611111  1
  Li  Li14  1  0.687371  0.797794  0.251693  1
  Li  Li15  1  0.435678  0.248307  0.046101  1
  Li  Li16  1  0.611111  0.537457  0.290402  1
  Li  Li17  1  0.702206  0.389576  0.453899  1
  Li  Li18  1  0.962543  0.573654  0.752945  1
  Li  Li19  1  0.888889  0.179291  0.926346  1
  Li  Li20  1  0.797794  0.251693  0.687371  1
  Li  Li21  1  0.926346  0.888889  0.179291  1
  Li  Li22  1  0.747055  0.320709  0.209598  1
  Li  Li23  1  0.812629  0.064322  0.110424  1
  La  La24  1  0.121994  0.371994  0.750000  1
  La  La25  1  0.250000  0.881877  0.631877  1
  La  La26  1  0.128006  0.250000  0.378006  1
  La  La27  1  0.371994  0.750000  0.121994  1
  La  La28  1  0.250000  0.378006  0.128006  1
  La  La29  1  0.618123  0.868123  0.750000  1
  La  La30  1  0.750000  0.618123  0.868123  1
  La  La31  1  0.631877  0.250000  0.881877  1
  La  La32  1  0.378006  0.128006  0.250000  1
  La  La33  1  0.868123  0.750000  0.618123  1
  La  La34  1  0.881877  0.631877  0.250000  1
  La  La35  1  0.750000  0.121994  0.371994  1
  Nb  Nb36  1  1.000000  0.500002  0.500000  1
  Nb  Nb37  1  1.000000  0.000138  0.500000  1
  Nb  Nb38  1  0.000138  0.500000  0.000000  1
  Nb  Nb39  1  0.999998  0.999998  0.999998  1
  Nb  Nb40  1  0.499862  0.499862  0.499862  1
  Nb  Nb41  1  0.500000  1.000000  0.500002  1
  Nb  Nb42  1  0.500002  0.500000  1.000000  1
  Nb  Nb43  1  0.500000  1.000000  0.000138  1
  O  O44  1  0.087599  0.972355  0.677338  1
  O  O45  1  0.118378  0.591420  0.913037  1
  O  O46  1  0.026957  0.321616  0.908580  1
  O  O47  1  0.080554  0.698573  0.679494  1
  O  O48  1  0.089739  0.884756  0.412401  1
  O  O49  1  0.098940  0.618018  0.419446  1
  O  O50  1  0.179003  0.481351  0.596287  1
  O  O51  1  0.410261  0.822662  0.795017  1
  O  O52  1  0.385064  0.582716  0.903713  1
  O  O53  1  0.302348  0.320997  0.917284  1
  O  O54  1  0.320997  0.917284  0.302348  1
  O  O55  1  0.018649  0.197652  0.114936  1
  O  O56  1  0.178384  0.205341  0.586963  1
  O  O57  1  0.205341  0.586963  0.178384  1
  O  O58  1  0.401060  0.820506  0.519078  1
  O  O59  1  0.321616  0.908580  0.026957  1
  O  O60  1  0.294659  0.473043  0.381622  1
  O  O61  1  0.114936  0.018649  0.197652  1
  O  O62  1  0.527645  0.615244  0.704983  1
  O  O63  1  0.412401  0.089739  0.884756  1
  O  O64  1  0.519078  0.401060  0.820506  1
  O  O65  1  0.381622  0.294659  0.473043  1
  O  O66  1  0.582716  0.903713  0.385064  1
  O  O67  1  0.197652  0.114936  0.018649  1
  O  O68  1  0.801427  0.881982  0.980922  1
  O  O69  1  0.419446  0.098940  0.618018  1
  O  O70  1  0.615244  0.704983  0.527645  1
  O  O71  1  0.481351  0.596287  0.179003  1
  O  O72  1  0.591420  0.913037  0.118378  1
  O  O73  1  0.473043  0.381622  0.294659  1
  O  O74  1  0.881982  0.980922  0.801427  1
  O  O75  1  0.704983  0.527645  0.615244  1
  O  O76  1  0.677338  0.087599  0.972355  1
  O  O77  1  0.596287  0.179003  0.481351  1
  O  O78  1  0.795017  0.410261  0.822662  1
  O  O79  1  0.980922  0.801427  0.881982  1
  O  O80  1  0.679494  0.080554  0.698573  1
  O  O81  1  0.822662  0.795017  0.410261  1
  O  O82  1  0.698573  0.679494  0.080554  1
  O  O83  1  0.618018  0.419446  0.098940  1
  O  O84  1  0.586963  0.178384  0.205341  1
  O  O85  1  0.820506  0.519078  0.401060  1
  O  O86  1  0.903713  0.385064  0.582716  1
  O  O87  1  0.913037  0.118378  0.591420  1
  O  O88  1  0.917284  0.302348  0.320997  1
  O  O89  1  0.972355  0.677338  0.087599  1
  O  O90  1  0.884756  0.412401  0.089739  1
  O  O91  1  0.908580  0.026957  0.321616  1
