# generated using pymatgen
data_Th4Ta18O53
_symmetry_space_group_name_H-M   'P 1'
_cell_length_a   6.41393905
_cell_length_b   6.41393905
_cell_length_c   28.11237389
_cell_angle_alpha   90.00000000
_cell_angle_beta   90.00000000
_cell_angle_gamma   120.00000000
_symmetry_Int_Tables_number   1
_chemical_formula_structural   Th4Ta18O53
_chemical_formula_sum   'Th4 Ta18 O53'
_cell_volume   1001.56193120
_cell_formula_units_Z   1
loop_
 _symmetry_equiv_pos_site_id
 _symmetry_equiv_pos_as_xyz
  1  'x, y, z'
loop_
 _atom_site_type_symbol
 _atom_site_label
 _atom_site_symmetry_multiplicity
 _atom_site_fract_x
 _atom_site_fract_y
 _atom_site_fract_z
 _atom_site_occupancy
  Th  Th0  1  0.666667  0.333333  0.993174  1
  Th  Th1  1  0.666667  0.333333  0.501459  1
  Th  Th2  1  0.000000  0.000000  0.998948  1
  Th  Th3  1  0.000000  0.000000  0.501465  1
  Ta  Ta4  1  0.298294  0.320339  0.114109  1
  Ta  Ta5  1  0.333408  0.317324  0.387986  1
  Ta  Ta6  1  0.334253  0.310772  0.251913  1
  Ta  Ta7  1  0.333366  0.020874  0.748757  1
  Ta  Ta8  1  0.333380  0.015747  0.613096  1
  Ta  Ta9  1  0.331066  0.015174  0.885343  1
  Ta  Ta10  1  0.679661  0.977955  0.114109  1
  Ta  Ta11  1  0.682676  0.016083  0.387986  1
  Ta  Ta12  1  0.689228  0.023481  0.251913  1
  Ta  Ta13  1  0.979126  0.312492  0.748757  1
  Ta  Ta14  1  0.984826  0.315892  0.885343  1
  Ta  Ta15  1  0.984253  0.317632  0.613096  1
  Ta  Ta16  1  0.684108  0.668934  0.885343  1
  Ta  Ta17  1  0.682368  0.666620  0.613096  1
  Ta  Ta18  1  0.687508  0.666634  0.748757  1
  Ta  Ta19  1  0.976519  0.665747  0.251913  1
  Ta  Ta20  1  0.022045  0.701706  0.114109  1
  Ta  Ta21  1  0.983917  0.666592  0.387986  1
  O  O22  1  0.333346  0.425401  0.749965  1
  O  O23  1  0.334300  0.424244  0.888404  1
  O  O24  1  0.333384  0.425526  0.611854  1
  O  O25  1  0.342094  0.277356  0.177414  1
  O  O26  1  0.333054  0.276711  0.319062  1
  O  O27  1  0.355790  0.278320  0.046605  1
  O  O28  1  0.333437  0.286017  0.458536  1
  O  O29  1  0.333455  0.046531  0.540848  1
  O  O30  1  0.322979  0.038210  0.960669  1
  O  O31  1  0.333585  0.056798  0.820037  1
  O  O32  1  0.333385  0.057393  0.680130  1
  O  O33  1  0.353990  0.936303  0.111968  1
  O  O34  1  0.333442  0.907280  0.387904  1
  O  O35  1  0.333291  0.909387  0.249203  1
  O  O36  1  0.666667  0.333333  0.248247  1
  O  O37  1  0.666667  0.333333  0.604674  1
  O  O38  1  0.666667  0.333333  0.898308  1
  O  O39  1  0.666667  0.333333  0.750661  1
  O  O40  1  0.666667  0.333333  0.393480  1
  O  O41  1  0.574599  0.907946  0.749965  1
  O  O42  1  0.574474  0.907858  0.611854  1
  O  O43  1  0.575756  0.910056  0.888404  1
  O  O44  1  0.722644  0.064739  0.177414  1
  O  O45  1  0.723289  0.056343  0.319062  1
  O  O46  1  0.713983  0.047420  0.458536  1
  O  O47  1  0.721680  0.077470  0.046605  1
  O  O48  1  0.576096  0.666709  0.249203  1
  O  O49  1  0.573838  0.666558  0.387904  1
  O  O50  1  0.582313  0.646010  0.111968  1
  O  O51  1  0.953469  0.286925  0.540848  1
  O  O52  1  0.961790  0.284770  0.960669  1
  O  O53  1  0.942607  0.275992  0.680130  1
  O  O54  1  0.943202  0.276787  0.820037  1
  O  O55  1  0.063697  0.417687  0.111968  1
  O  O56  1  0.092720  0.426162  0.387904  1
  O  O57  1  0.090613  0.423904  0.249203  1
  O  O58  1  0.724008  0.666615  0.680130  1
  O  O59  1  0.723213  0.666415  0.820037  1
  O  O60  1  0.713075  0.666545  0.540848  1
  O  O61  1  0.715230  0.677021  0.960669  1
  O  O62  1  0.000000  0.000000  0.604674  1
  O  O63  1  0.000000  0.000000  0.750655  1
  O  O64  1  0.000000  0.000000  0.896081  1
  O  O65  1  0.000000  0.000000  0.246718  1
  O  O66  1  0.000000  0.000000  0.104468  1
  O  O67  1  0.000000  0.000000  0.393470  1
  O  O68  1  0.922530  0.644210  0.046605  1
  O  O69  1  0.952580  0.666563  0.458536  1
  O  O70  1  0.935261  0.657906  0.177414  1
  O  O71  1  0.943657  0.666946  0.319062  1
  O  O72  1  0.089944  0.665700  0.888404  1
  O  O73  1  0.092142  0.666616  0.611854  1
  O  O74  1  0.092054  0.666654  0.749965  1
