# generated using pymatgen
data_Li3MnPCO7
_symmetry_space_group_name_H-M   'P 1'
_cell_length_a   6.58524977
_cell_length_b   8.57228227
_cell_length_c   9.98789037
_cell_angle_alpha   85.41027639
_cell_angle_beta   89.92381324
_cell_angle_gamma   89.47241557
_symmetry_Int_Tables_number   1
_chemical_formula_structural   Li3MnPCO7
_chemical_formula_sum   'Li12 Mn4 P4 C4 O28'
_cell_volume   561.99063665
_cell_formula_units_Z   4
loop_
 _symmetry_equiv_pos_site_id
 _symmetry_equiv_pos_as_xyz
  1  'x, y, z'
loop_
 _atom_site_type_symbol
 _atom_site_label
 _atom_site_symmetry_multiplicity
 _atom_site_fract_x
 _atom_site_fract_y
 _atom_site_fract_z
 _atom_site_occupancy
  Li  Li0  1  0.254053  0.905684  0.614559  1
  Li  Li1  1  0.255889  0.905585  0.122822  1
  Li  Li2  1  0.486236  0.724462  0.889609  1
  Li  Li3  1  0.020139  0.726557  0.366086  1
  Li  Li4  1  0.478483  0.725988  0.366341  1
  Li  Li5  1  0.740213  0.656246  0.121106  1
  Li  Li6  1  0.530249  0.275122  0.618934  1
  Li  Li7  1  0.969856  0.275156  0.619194  1
  Li  Li8  1  0.536503  0.277543  0.126732  1
  Li  Li9  1  0.963872  0.276695  0.126723  1
  Li  Li10  1  0.747393  0.097970  0.886027  1
  Li  Li11  1  0.749020  0.091599  0.376314  1
  Mn  Mn12  1  0.996708  0.738455  0.882859  1
  Mn  Mn13  1  0.747512  0.655786  0.604397  1
  Mn  Mn14  1  0.250782  0.340410  0.893395  1
  Mn  Mn15  1  0.249973  0.341359  0.385407  1
  P  P16  1  0.249291  0.590850  0.639167  1
  P  P17  1  0.252590  0.590747  0.138667  1
  P  P18  1  0.749999  0.409148  0.859748  1
  P  P19  1  0.749819  0.411216  0.358479  1
  C  C20  1  0.754510  0.966335  0.649470  1
  C  C21  1  0.753606  0.961409  0.146445  1
  C  C22  1  0.250452  0.035135  0.851195  1
  C  C23  1  0.249759  0.032827  0.351625  1
  O  O24  1  0.748294  0.931302  0.527475  1
  O  O25  1  0.247890  0.888557  0.818851  1
  O  O26  1  0.760104  0.928230  0.021556  1
  O  O27  1  0.761574  0.851518  0.746236  1
  O  O28  1  0.249444  0.887334  0.322804  1
  O  O29  1  0.750263  0.852646  0.243346  1
  O  O30  1  0.063689  0.690930  0.587227  1
  O  O31  1  0.432661  0.690175  0.586182  1
  O  O32  1  0.060826  0.686982  0.088218  1
  O  O33  1  0.436252  0.687940  0.085693  1
  O  O34  1  0.747510  0.577714  0.905470  1
  O  O35  1  0.246256  0.578463  0.797825  1
  O  O36  1  0.749266  0.578785  0.406957  1
  O  O37  1  0.250821  0.577333  0.296038  1
  O  O38  1  0.750006  0.421687  0.702547  1
  O  O39  1  0.251100  0.422313  0.594853  1
  O  O40  1  0.749613  0.425181  0.203406  1
  O  O41  1  0.251087  0.420754  0.094450  1
  O  O42  1  0.935071  0.310382  0.914135  1
  O  O43  1  0.566630  0.311277  0.914527  1
  O  O44  1  0.566199  0.312155  0.415079  1
  O  O45  1  0.934587  0.311433  0.415476  1
  O  O46  1  0.253199  0.145960  0.755099  1
  O  O47  1  0.751077  0.109598  0.682763  1
  O  O48  1  0.249853  0.143627  0.254323  1
  O  O49  1  0.250229  0.066570  0.974481  1
  O  O50  1  0.749428  0.108929  0.175017  1
  O  O51  1  0.250164  0.069940  0.474670  1
