# generated using pymatgen
data_Li2NbVO4
_symmetry_space_group_name_H-M   'P 1'
_cell_length_a   6.08416130
_cell_length_b   6.08416130
_cell_length_c   6.08416130
_cell_angle_alpha   122.09644645
_cell_angle_beta   117.26433156
_cell_angle_gamma   90.60492218
_symmetry_Int_Tables_number   1
_chemical_formula_structural   Li2NbVO4
_chemical_formula_sum   'Li4 Nb2 V2 O8'
_cell_volume   159.66128122
_cell_formula_units_Z   2
loop_
 _symmetry_equiv_pos_site_id
 _symmetry_equiv_pos_as_xyz
  1  'x, y, z'
loop_
 _atom_site_type_symbol
 _atom_site_label
 _atom_site_symmetry_multiplicity
 _atom_site_fract_x
 _atom_site_fract_y
 _atom_site_fract_z
 _atom_site_occupancy
  Li  Li0  1  0.500000  0.000000  0.000000  1
  Li  Li1  1  0.000000  0.000000  0.000000  1
  Li  Li2  1  0.500000  0.500000  0.500000  1
  Li  Li3  1  0.500000  0.000000  0.500000  1
  Nb  Nb4  1  0.000000  0.000000  0.500000  1
  Nb  Nb5  1  0.000000  0.500000  0.000000  1
  V  V6  1  0.500000  0.500000  0.000000  1
  V  V7  1  0.000000  0.500000  0.500000  1
  O  O8  1  0.253328  0.750980  0.502348  1
  O  O9  1  0.763101  0.266215  0.003114  1
  O  O10  1  0.748632  0.750980  0.997652  1
  O  O11  1  0.763101  0.759986  0.496886  1
  O  O12  1  0.236899  0.240014  0.503114  1
  O  O13  1  0.251368  0.249020  0.002348  1
  O  O14  1  0.236899  0.733785  0.996886  1
  O  O15  1  0.746672  0.249020  0.497652  1
