# generated using pymatgen
data_Na5H7(Se2O9)2
_symmetry_space_group_name_H-M   'P 1'
_cell_length_a   6.12147108
_cell_length_b   7.37897632
_cell_length_c   10.09850176
_cell_angle_alpha   102.19120937
_cell_angle_beta   99.60586044
_cell_angle_gamma   100.74783925
_symmetry_Int_Tables_number   1
_chemical_formula_structural   Na5H7(Se2O9)2
_chemical_formula_sum   'Na5 H7 Se4 O18'
_cell_volume   427.82007385
_cell_formula_units_Z   1
loop_
 _symmetry_equiv_pos_site_id
 _symmetry_equiv_pos_as_xyz
  1  'x, y, z'
loop_
 _atom_site_type_symbol
 _atom_site_label
 _atom_site_symmetry_multiplicity
 _atom_site_fract_x
 _atom_site_fract_y
 _atom_site_fract_z
 _atom_site_occupancy
  Na  Na0  1  0.000000  0.000000  0.000000  1
  Na  Na1  1  0.133539  0.170698  0.396380  1
  Na  Na2  1  0.866461  0.829302  0.603620  1
  Na  Na3  1  0.646074  0.743648  0.195268  1
  Na  Na4  1  0.353926  0.256352  0.804732  1
  H  H5  1  0.500000  0.000000  0.500000  1
  H  H6  1  0.271765  0.556769  0.618755  1
  H  H7  1  0.728235  0.443231  0.381245  1
  H  H8  1  0.976111  0.339567  0.904360  1
  H  H9  1  0.023889  0.660433  0.095640  1
  H  H10  1  0.159907  0.400865  0.045079  1
  H  H11  1  0.840093  0.599135  0.954921  1
  Se  Se12  1  0.246429  0.690854  0.373326  1
  Se  Se13  1  0.753571  0.309146  0.626674  1
  Se  Se14  1  0.412104  0.796977  0.823519  1
  Se  Se15  1  0.587896  0.203023  0.176481  1
  O  O16  1  0.512990  0.839703  0.444340  1
  O  O17  1  0.487010  0.160297  0.555660  1
  O  O18  1  0.054236  0.820303  0.396563  1
  O  O19  1  0.945764  0.179697  0.603437  1
  O  O20  1  0.223442  0.514730  0.453377  1
  O  O21  1  0.776558  0.485270  0.546623  1
  O  O22  1  0.249694  0.610810  0.207030  1
  O  O23  1  0.750306  0.389190  0.792970  1
  O  O24  1  0.302957  0.558718  0.721738  1
  O  O25  1  0.697043  0.441282  0.278262  1
  O  O26  1  0.222052  0.917243  0.773397  1
  O  O27  1  0.777948  0.082757  0.226603  1
  O  O28  1  0.414859  0.770750  0.980574  1
  O  O29  1  0.585141  0.229250  0.019426  1
  O  O30  1  0.666621  0.876075  0.794112  1
  O  O31  1  0.333379  0.123925  0.205888  1
  O  O32  1  0.107716  0.305219  0.956007  1
  O  O33  1  0.892284  0.694781  0.043993  1
