# generated using pymatgen
data_Li3Mn2P2(CO7)2
_symmetry_space_group_name_H-M   'P 1'
_cell_length_a   8.19872151
_cell_length_b   8.25768978
_cell_length_c   8.34556910
_cell_angle_alpha   92.57031475
_cell_angle_beta   92.47763516
_cell_angle_gamma   103.95226126
_symmetry_Int_Tables_number   1
_chemical_formula_structural   Li3Mn2P2(CO7)2
_chemical_formula_sum   'Li6 Mn4 P4 C4 O28'
_cell_volume   546.94284236
_cell_formula_units_Z   2
loop_
 _symmetry_equiv_pos_site_id
 _symmetry_equiv_pos_as_xyz
  1  'x, y, z'
loop_
 _atom_site_type_symbol
 _atom_site_label
 _atom_site_symmetry_multiplicity
 _atom_site_fract_x
 _atom_site_fract_y
 _atom_site_fract_z
 _atom_site_occupancy
  Li  Li0  1  0.902269  0.858450  0.265902  1
  Li  Li1  1  0.387041  0.375152  0.248509  1
  Li  Li2  1  0.617760  0.124147  0.250622  1
  Li  Li3  1  0.380159  0.872564  0.752913  1
  Li  Li4  1  0.888987  0.341093  0.733959  1
  Li  Li5  1  0.612187  0.628451  0.745041  1
  Mn  Mn6  1  0.980813  0.230742  0.339427  1
  Mn  Mn7  1  0.471415  0.728507  0.329118  1
  Mn  Mn8  1  0.514544  0.269611  0.669831  1
  Mn  Mn9  1  0.023020  0.775082  0.662359  1
  P  P10  1  0.760607  0.509946  0.423127  1
  P  P11  1  0.263532  0.015055  0.421036  1
  P  P12  1  0.738905  0.982941  0.578646  1
  P  P13  1  0.238208  0.495407  0.578516  1
  C  C14  1  0.518466  0.764266  0.046249  1
  C  C15  1  0.017430  0.270189  0.054905  1
  C  C16  1  0.976437  0.734703  0.945181  1
  C  C17  1  0.487405  0.227769  0.953240  1
  O  O18  1  0.403870  0.643711  0.098397  1
  O  O19  1  0.895447  0.155920  0.112888  1
  O  O20  1  0.941401  0.718951  0.086659  1
  O  O21  1  0.609832  0.861748  0.165427  1
  O  O22  1  0.469109  0.212589  0.100818  1
  O  O23  1  0.124093  0.349171  0.173868  1
  O  O24  1  0.619665  0.551775  0.319449  1
  O  O25  1  0.322058  0.891699  0.311311  1
  O  O26  1  0.811273  0.365983  0.326614  1
  O  O27  1  0.112936  0.058650  0.327736  1
  O  O28  1  0.908981  0.669837  0.456017  1
  O  O29  1  0.303356  0.546906  0.412466  1
  O  O30  1  0.797371  0.040948  0.409308  1
  O  O31  1  0.410444  0.175958  0.456107  1
  O  O32  1  0.579267  0.834204  0.546555  1
  O  O33  1  0.701412  0.451810  0.590630  1
  O  O34  1  0.210750  0.945153  0.585663  1
  O  O35  1  0.078302  0.347026  0.545352  1
  O  O36  1  0.876717  0.925797  0.676299  1
  O  O37  1  0.189269  0.640379  0.675782  1
  O  O38  1  0.375401  0.450797  0.684688  1
  O  O39  1  0.700453  0.128026  0.677008  1
  O  O40  1  0.886526  0.638860  0.822645  1
  O  O41  1  0.542146  0.789378  0.900924  1
  O  O42  1  0.400829  0.122515  0.840285  1
  O  O43  1  0.030396  0.302671  0.913193  1
  O  O44  1  0.595004  0.352654  0.894222  1
  O  O45  1  0.100687  0.846627  0.891107  1
