# generated using pymatgen
data_Li4MnCrO6
_symmetry_space_group_name_H-M   'P 1'
_cell_length_a   5.01429615
_cell_length_b   8.73123834
_cell_length_c   9.77587818
_cell_angle_alpha   98.54163350
_cell_angle_beta   94.55007784
_cell_angle_gamma   90.09859906
_symmetry_Int_Tables_number   1
_chemical_formula_structural   Li4MnCrO6
_chemical_formula_sum   'Li16 Mn4 Cr4 O24'
_cell_volume   421.87708692
_cell_formula_units_Z   4
loop_
 _symmetry_equiv_pos_site_id
 _symmetry_equiv_pos_as_xyz
  1  'x, y, z'
loop_
 _atom_site_type_symbol
 _atom_site_label
 _atom_site_symmetry_multiplicity
 _atom_site_fract_x
 _atom_site_fract_y
 _atom_site_fract_z
 _atom_site_occupancy
  Li  Li0  1  0.989054  0.165810  0.500103  1
  Li  Li1  1  0.871052  0.375918  0.750409  1
  Li  Li2  1  0.751914  0.247894  0.999779  1
  Li  Li3  1  0.743599  0.919898  0.999513  1
  Li  Li4  1  0.755298  0.580784  0.997485  1
  Li  Li5  1  0.627435  0.124166  0.249602  1
  Li  Li6  1  0.508214  0.332008  0.499131  1
  Li  Li7  1  0.502381  0.998846  0.501581  1
  Li  Li8  1  0.492506  0.668529  0.500751  1
  Li  Li9  1  0.374579  0.875749  0.749669  1
  Li  Li10  1  0.247717  0.750437  0.999482  1
  Li  Li11  1  0.246321  0.420689  0.001093  1
  Li  Li12  1  0.256202  0.079419  0.999930  1
  Li  Li13  1  0.124123  0.625674  0.250379  1
  Li  Li14  1  0.008032  0.834202  0.502083  1
  Li  Li15  1  0.001900  0.500634  0.499580  1
  Mn  Mn16  1  0.874906  0.708749  0.749735  1
  Mn  Mn17  1  0.873181  0.039624  0.748702  1
  Mn  Mn18  1  0.377144  0.543100  0.751432  1
  Mn  Mn19  1  0.125654  0.292045  0.249927  1
  Cr  Cr20  1  0.619785  0.788234  0.248997  1
  Cr  Cr21  1  0.631845  0.457443  0.251335  1
  Cr  Cr22  1  0.366960  0.210508  0.750103  1
  Cr  Cr23  1  0.127660  0.961882  0.249450  1
  O  O24  1  0.962012  0.110264  0.137315  1
  O  O25  1  0.926584  0.786809  0.138506  1
  O  O26  1  0.930043  0.426231  0.137016  1
  O  O27  1  0.824581  0.963014  0.361232  1
  O  O28  1  0.825014  0.320940  0.364298  1
  O  O29  1  0.781111  0.638448  0.362121  1
  O  O30  1  0.713785  0.855460  0.638923  1
  O  O31  1  0.678498  0.535452  0.638749  1
  O  O32  1  0.678040  0.175496  0.636658  1
  O  O33  1  0.467897  0.609448  0.138407  1
  O  O34  1  0.571731  0.715482  0.861255  1
  O  O35  1  0.573572  0.074313  0.863128  1
  O  O36  1  0.418395  0.927497  0.135485  1
  O  O37  1  0.427368  0.287221  0.138649  1
  O  O38  1  0.536780  0.398052  0.863172  1
  O  O39  1  0.330957  0.822603  0.364220  1
  O  O40  1  0.318627  0.464105  0.361850  1
  O  O41  1  0.284059  0.143045  0.360821  1
  O  O42  1  0.220788  0.355883  0.639253  1
  O  O43  1  0.177851  0.676838  0.637047  1
  O  O44  1  0.173269  0.033113  0.636747  1
  O  O45  1  0.071849  0.573052  0.863080  1
  O  O46  1  0.075067  0.211884  0.861083  1
  O  O47  1  0.034656  0.893111  0.860731  1
