# generated using pymatgen
data_LiSbP2O7
_symmetry_space_group_name_H-M   'P 1'
_cell_length_a   7.46006218
_cell_length_b   9.04540583
_cell_length_c   9.27767200
_cell_angle_alpha   90.00000000
_cell_angle_beta   117.60226491
_cell_angle_gamma   90.00000000
_symmetry_Int_Tables_number   1
_chemical_formula_structural   LiSbP2O7
_chemical_formula_sum   'Li4 Sb4 P8 O28'
_cell_volume   554.79692192
_cell_formula_units_Z   4
loop_
 _symmetry_equiv_pos_site_id
 _symmetry_equiv_pos_as_xyz
  1  'x, y, z'
loop_
 _atom_site_type_symbol
 _atom_site_label
 _atom_site_symmetry_multiplicity
 _atom_site_fract_x
 _atom_site_fract_y
 _atom_site_fract_z
 _atom_site_occupancy
  Li  Li0  1  0.182997  0.567749  0.109444  1
  Li  Li1  1  0.817003  0.067749  0.390556  1
  Li  Li2  1  0.182997  0.932251  0.609444  1
  Li  Li3  1  0.817003  0.432251  0.890556  1
  Sb  Sb4  1  0.282846  0.937718  0.146667  1
  Sb  Sb5  1  0.717154  0.437718  0.353333  1
  Sb  Sb6  1  0.282846  0.562282  0.646667  1
  Sb  Sb7  1  0.717154  0.062282  0.853333  1
  P  P8  1  0.518463  0.724541  0.457697  1
  P  P9  1  0.481537  0.224541  0.042303  1
  P  P10  1  0.942502  0.725317  0.755547  1
  P  P11  1  0.057498  0.225317  0.744453  1
  P  P12  1  0.942502  0.774683  0.255547  1
  P  P13  1  0.057498  0.274683  0.244453  1
  P  P14  1  0.518463  0.775459  0.957697  1
  P  P15  1  0.481537  0.275459  0.542303  1
  O  O16  1  0.455622  0.592732  0.340047  1
  O  O17  1  0.518377  0.875626  0.375286  1
  O  O18  1  0.399335  0.757254  0.054731  1
  O  O19  1  0.600665  0.257254  0.445269  1
  O  O20  1  0.481623  0.375626  0.124714  1
  O  O21  1  0.747226  0.685242  0.580980  1
  O  O22  1  0.544378  0.092732  0.159953  1
  O  O23  1  0.886226  0.232128  0.796465  1
  O  O24  1  0.905946  0.878655  0.805774  1
  O  O25  1  0.968249  0.602626  0.873001  1
  O  O26  1  0.747226  0.814758  0.080980  1
  O  O27  1  0.031751  0.102626  0.626999  1
  O  O28  1  0.886226  0.267872  0.296465  1
  O  O29  1  0.905946  0.621345  0.305774  1
  O  O30  1  0.094054  0.378655  0.694226  1
  O  O31  1  0.113774  0.732128  0.703535  1
  O  O32  1  0.968249  0.897374  0.373001  1
  O  O33  1  0.252774  0.185242  0.919020  1
  O  O34  1  0.031751  0.397374  0.126999  1
  O  O35  1  0.094054  0.121345  0.194226  1
  O  O36  1  0.113774  0.767872  0.203535  1
  O  O37  1  0.455622  0.907268  0.840047  1
  O  O38  1  0.252774  0.314758  0.419020  1
  O  O39  1  0.518377  0.624374  0.875286  1
  O  O40  1  0.399335  0.742746  0.554731  1
  O  O41  1  0.600665  0.242746  0.945269  1
  O  O42  1  0.481623  0.124374  0.624714  1
  O  O43  1  0.544378  0.407268  0.659953  1
