# generated using pymatgen
data_Li4H3BrO3
_symmetry_space_group_name_H-M   'P 1'
_cell_length_a   5.54069288
_cell_length_b   7.73056302
_cell_length_c   6.62468295
_cell_angle_alpha   90.00000000
_cell_angle_beta   94.02242655
_cell_angle_gamma   90.00000000
_symmetry_Int_Tables_number   1
_chemical_formula_structural   Li4H3BrO3
_chemical_formula_sum   'Li8 H6 Br2 O6'
_cell_volume   283.05391809
_cell_formula_units_Z   2
loop_
 _symmetry_equiv_pos_site_id
 _symmetry_equiv_pos_as_xyz
  1  'x, y, z'
loop_
 _atom_site_type_symbol
 _atom_site_label
 _atom_site_symmetry_multiplicity
 _atom_site_fract_x
 _atom_site_fract_y
 _atom_site_fract_z
 _atom_site_occupancy
  Li  Li0  1  0.077564  0.750000  0.919097  1
  Li  Li1  1  0.350783  0.478375  0.132242  1
  Li  Li2  1  0.350783  0.021625  0.132242  1
  Li  Li3  1  0.401902  0.750000  0.693249  1
  Li  Li4  1  0.598098  0.250000  0.306751  1
  Li  Li5  1  0.649217  0.978375  0.867758  1
  Li  Li6  1  0.649217  0.521625  0.867758  1
  Li  Li7  1  0.922436  0.250000  0.080903  1
  H  H8  1  0.201137  0.471548  0.776470  1
  H  H9  1  0.201137  0.028452  0.776470  1
  H  H10  1  0.175362  0.250000  0.358978  1
  H  H11  1  0.824638  0.750000  0.641022  1
  H  H12  1  0.798863  0.971548  0.223530  1
  H  H13  1  0.798863  0.528452  0.223530  1
  Br  Br14  1  0.172353  0.750000  0.331639  1
  Br  Br15  1  0.827647  0.250000  0.668361  1
  O  O16  1  0.293253  0.941974  0.854626  1
  O  O17  1  0.293253  0.558026  0.854626  1
  O  O18  1  0.246639  0.250000  0.227221  1
  O  O19  1  0.753361  0.750000  0.772779  1
  O  O20  1  0.706747  0.441974  0.145374  1
  O  O21  1  0.706747  0.058026  0.145374  1
