# generated using pymatgen
data_Ba4Li4Ti19O44
_symmetry_space_group_name_H-M   'P 1'
_cell_length_a   5.86254953
_cell_length_b   10.03204497
_cell_length_c   14.24870292
_cell_angle_alpha   89.92202240
_cell_angle_beta   89.91305403
_cell_angle_gamma   89.96806570
_symmetry_Int_Tables_number   1
_chemical_formula_structural   Ba4Li4Ti19O44
_chemical_formula_sum   'Ba4 Li4 Ti19 O44'
_cell_volume   838.01223091
_cell_formula_units_Z   1
loop_
 _symmetry_equiv_pos_site_id
 _symmetry_equiv_pos_as_xyz
  1  'x, y, z'
loop_
 _atom_site_type_symbol
 _atom_site_label
 _atom_site_symmetry_multiplicity
 _atom_site_fract_x
 _atom_site_fract_y
 _atom_site_fract_z
 _atom_site_occupancy
  Ba  Ba0  1  0.254483  0.911520  0.590694  1
  Ba  Ba1  1  0.248672  0.606129  0.092397  1
  Ba  Ba2  1  0.752945  0.397550  0.900431  1
  Ba  Ba3  1  0.744155  0.098884  0.409344  1
  Li  Li4  1  0.250704  0.596643  0.667356  1
  Li  Li5  1  0.252008  0.569058  0.518166  1
  Li  Li6  1  0.747909  0.423875  0.464179  1
  Li  Li7  1  0.750769  0.074243  0.960907  1
  Ti  Ti8  1  0.001353  0.165771  0.170737  1
  Ti  Ti9  1  0.999232  0.836113  0.828164  1
  Ti  Ti10  1  0.997709  0.668272  0.328901  1
  Ti  Ti11  1  0.252182  0.108387  0.823667  1
  Ti  Ti12  1  0.248142  0.937693  0.333567  1
  Ti  Ti13  1  0.242465  0.569720  0.844484  1
  Ti  Ti14  1  0.250811  0.255623  0.996290  1
  Ti  Ti15  1  0.227633  0.247405  0.513420  1
  Ti  Ti16  1  0.258569  0.386655  0.334437  1
  Ti  Ti17  1  0.502840  0.667853  0.327964  1
  Ti  Ti18  1  0.501955  0.839937  0.825234  1
  Ti  Ti19  1  0.498479  0.165117  0.170248  1
  Ti  Ti20  1  0.493887  0.335309  0.671542  1
  Ti  Ti21  1  0.742427  0.764769  0.510511  1
  Ti  Ti22  1  0.769750  0.585605  0.671268  1
  Ti  Ti23  1  0.752581  0.433881  0.167402  1
  Ti  Ti24  1  0.752102  0.892065  0.165556  1
  Ti  Ti25  1  0.743291  0.734777  0.002433  1
  Ti  Ti26  1  0.771676  0.091042  0.666657  1
  O  O27  1  0.007398  0.525100  0.757216  1
  O  O28  1  0.002018  0.001783  0.251716  1
  O  O29  1  0.009693  0.674965  0.915091  1
  O  O30  1  0.007180  0.823267  0.409763  1
  O  O31  1  0.032665  0.177815  0.917103  1
  O  O32  1  0.030436  0.324483  0.417863  1
  O  O33  1  0.248171  0.923128  0.890420  1
  O  O34  1  0.249507  0.571001  0.390528  1
  O  O35  1  0.253426  0.745246  0.761323  1
  O  O36  1  0.247640  0.432624  0.931761  1
  O  O37  1  0.270569  0.251064  0.749649  1
  O  O38  1  0.254353  0.064236  0.423829  1
  O  O39  1  0.249392  0.109853  0.090196  1
  O  O40  1  0.251053  0.752084  0.262022  1
  O  O41  1  0.263758  0.399910  0.583446  1
  O  O42  1  0.248947  0.242694  0.246578  1
  O  O43  1  0.469076  0.176538  0.918889  1
  O  O44  1  0.469142  0.322157  0.414755  1
  O  O45  1  0.495832  0.671891  0.914241  1
  O  O46  1  0.495897  0.822501  0.411007  1
  O  O47  1  0.496410  0.001662  0.251227  1
  O  O48  1  0.490993  0.504246  0.750252  1
  O  O49  1  0.500992  0.999061  0.749686  1
  O  O50  1  0.504155  0.499632  0.247502  1
  O  O51  1  0.500241  0.173922  0.585850  1
  O  O52  1  0.505849  0.324172  0.089665  1
  O  O53  1  0.524469  0.677495  0.584584  1
  O  O54  1  0.536886  0.817824  0.085873  1
  O  O55  1  0.728420  0.433531  0.603206  1
  O  O56  1  0.743056  0.927346  0.568576  1
  O  O57  1  0.750993  0.891922  0.912228  1
  O  O58  1  0.750453  0.758367  0.754812  1
  O  O59  1  0.749645  0.744244  0.253985  1
  O  O60  1  0.749795  0.604913  0.409818  1
  O  O61  1  0.750232  0.564293  0.069917  1
  O  O62  1  0.733541  0.238940  0.736345  1
  O  O63  1  0.749567  0.253508  0.237241  1
  O  O64  1  0.750531  0.072827  0.103751  1
  O  O65  1  0.978578  0.672243  0.584215  1
  O  O66  1  0.960766  0.817760  0.085668  1
  O  O67  1  0.992386  0.324782  0.089934  1
  O  O68  1  0.998561  0.151558  0.577868  1
  O  O69  1  0.990428  0.501683  0.245879  1
  O  O70  1  0.998230  0.002144  0.748518  1
