# generated using pymatgen
data_Li8FeO5F
_symmetry_space_group_name_H-M   'P 1'
_cell_length_a   5.39511692
_cell_length_b   5.44681288
_cell_length_c   5.92697733
_cell_angle_alpha   90.95134767
_cell_angle_beta   115.29018145
_cell_angle_gamma   116.91136945
_symmetry_Int_Tables_number   1
_chemical_formula_structural   Li8FeO5F
_chemical_formula_sum   'Li8 Fe1 O5 F1'
_cell_volume   135.57911484
_cell_formula_units_Z   1
loop_
 _symmetry_equiv_pos_site_id
 _symmetry_equiv_pos_as_xyz
  1  'x, y, z'
loop_
 _atom_site_type_symbol
 _atom_site_label
 _atom_site_symmetry_multiplicity
 _atom_site_fract_x
 _atom_site_fract_y
 _atom_site_fract_z
 _atom_site_occupancy
  Li  Li0  1  0.244979  0.474113  0.355694  1
  Li  Li1  1  0.126799  0.233000  0.658416  1
  Li  Li2  1  0.403375  0.894870  0.636084  1
  Li  Li3  1  0.721239  0.345617  0.016058  1
  Li  Li4  1  0.297623  0.675364  0.968980  1
  Li  Li5  1  0.579778  0.095598  0.346050  1
  Li  Li6  1  0.901292  0.795093  0.369498  1
  Li  Li7  1  0.756811  0.515647  0.648359  1
  Fe  Fe8  1  0.932531  0.948091  0.968346  1
  O  O9  1  0.510022  0.600918  0.762118  1
  O  O10  1  0.869536  0.102039  0.240753  1
  O  O11  1  0.160046  0.768459  0.232868  1
  O  O12  1  0.830877  0.222242  0.761842  1
  O  O13  1  0.127856  0.899701  0.758109  1
  F  F14  1  0.537234  0.429248  0.276826  1
