# generated using pymatgen
data_NiH10C2(N2O3)2
_symmetry_space_group_name_H-M   'P 1'
_cell_length_a   6.79805342
_cell_length_b   6.79805342
_cell_length_c   10.46150179
_cell_angle_alpha   73.04685244
_cell_angle_beta   106.95314756
_cell_angle_gamma   118.07019359
_symmetry_Int_Tables_number   1
_chemical_formula_structural   NiH10C2(N2O3)2
_chemical_formula_sum   'Ni2 H20 C4 N8 O12'
_cell_volume   401.17170223
_cell_formula_units_Z   2
loop_
 _symmetry_equiv_pos_site_id
 _symmetry_equiv_pos_as_xyz
  1  'x, y, z'
loop_
 _atom_site_type_symbol
 _atom_site_label
 _atom_site_symmetry_multiplicity
 _atom_site_fract_x
 _atom_site_fract_y
 _atom_site_fract_z
 _atom_site_occupancy
  Ni  Ni0  1  0.000000  0.000000  0.000000  1
  Ni  Ni1  1  1.000000  0.000000  0.500000  1
  H  H2  1  0.484807  0.850033  0.215364  1
  H  H3  1  0.850033  0.484807  0.284636  1
  H  H4  1  0.515193  0.149967  0.784636  1
  H  H5  1  0.149967  0.515193  0.715364  1
  H  H6  1  0.400572  0.172059  0.154034  1
  H  H7  1  0.172059  0.400572  0.345966  1
  H  H8  1  0.599428  0.827941  0.845966  1
  H  H9  1  0.827941  0.599428  0.654034  1
  H  H10  1  0.227874  0.967949  0.257543  1
  H  H11  1  0.967949  0.227874  0.242457  1
  H  H12  1  0.772126  0.032051  0.742457  1
  H  H13  1  0.032051  0.772126  0.757543  1
  H  H14  1  0.248454  0.443359  0.937290  1
  H  H15  1  0.443359  0.248454  0.562710  1
  H  H16  1  0.751546  0.556641  0.062710  1
  H  H17  1  0.556641  0.751546  0.437290  1
  H  H18  1  0.363053  0.313816  0.904994  1
  H  H19  1  0.313816  0.363053  0.595006  1
  H  H20  1  0.636947  0.686184  0.095006  1
  H  H21  1  0.686184  0.636947  0.404994  1
  C  C22  1  0.273213  0.777943  0.031676  1
  C  C23  1  0.777943  0.273213  0.468324  1
  C  C24  1  0.726787  0.222057  0.968324  1
  C  C25  1  0.222057  0.726787  0.531676  1
  N  N26  1  0.341344  0.857116  0.150832  1
  N  N27  1  0.857116  0.341344  0.349168  1
  N  N28  1  0.658656  0.142884  0.849168  1
  N  N29  1  0.142884  0.658656  0.650832  1
  N  N30  1  0.268673  0.013871  0.162150  1
  N  N31  1  0.013871  0.268673  0.337850  1
  N  N32  1  0.731327  0.986129  0.837850  1
  N  N33  1  0.986129  0.731327  0.662150  1
  O  O34  1  0.118384  0.820798  0.940756  1
  O  O35  1  0.820798  0.118384  0.559244  1
  O  O36  1  0.881616  0.179202  0.059244  1
  O  O37  1  0.179202  0.881616  0.440756  1
  O  O38  1  0.369176  0.662299  0.020664  1
  O  O39  1  0.662299  0.369176  0.479336  1
  O  O40  1  0.630824  0.337701  0.979336  1
  O  O41  1  0.337701  0.630824  0.520664  1
  O  O42  1  0.212885  0.318786  0.889437  1
  O  O43  1  0.318786  0.212885  0.610563  1
  O  O44  1  0.787115  0.681214  0.110563  1
  O  O45  1  0.681214  0.787115  0.389437  1
