# generated using pymatgen
data_Li2MnV(P2O7)2
_symmetry_space_group_name_H-M   'P 1'
_cell_length_a   7.15444541
_cell_length_b   8.31238506
_cell_length_c   9.73260354
_cell_angle_alpha   90.00000000
_cell_angle_beta   110.84899247
_cell_angle_gamma   90.00000000
_symmetry_Int_Tables_number   1
_chemical_formula_structural   Li2MnV(P2O7)2
_chemical_formula_sum   'Li4 Mn2 V2 P8 O28'
_cell_volume   540.90381618
_cell_formula_units_Z   2
loop_
 _symmetry_equiv_pos_site_id
 _symmetry_equiv_pos_as_xyz
  1  'x, y, z'
loop_
 _atom_site_type_symbol
 _atom_site_label
 _atom_site_symmetry_multiplicity
 _atom_site_fract_x
 _atom_site_fract_y
 _atom_site_fract_z
 _atom_site_occupancy
  Li  Li0  1  0.673300  0.639642  0.497261  1
  Li  Li1  1  0.326700  0.139642  0.502739  1
  Li  Li2  1  0.674301  0.640029  0.999862  1
  Li  Li3  1  0.325699  0.140029  0.000138  1
  Mn  Mn4  1  0.729226  0.001841  0.009155  1
  Mn  Mn5  1  0.270774  0.501841  0.990845  1
  V  V6  1  0.727841  0.999971  0.506421  1
  V  V7  1  0.272159  0.499971  0.493579  1
  P  P8  1  0.913916  0.216665  0.312841  1
  P  P9  1  0.522151  0.320291  0.309910  1
  P  P10  1  0.477849  0.820291  0.690090  1
  P  P11  1  0.909713  0.212769  0.813659  1
  P  P12  1  0.086084  0.716665  0.687159  1
  P  P13  1  0.517670  0.320861  0.809988  1
  P  P14  1  0.482330  0.820861  0.190012  1
  P  P15  1  0.090287  0.712769  0.186341  1
  O  O16  1  0.753254  0.347395  0.327997  1
  O  O17  1  0.916004  0.067730  0.406211  1
  O  O18  1  0.603750  0.826451  0.355942  1
  O  O19  1  0.507274  0.157430  0.379585  1
  O  O20  1  0.483926  0.460944  0.398357  1
  O  O21  1  0.154220  0.672147  0.349588  1
  O  O22  1  0.114074  0.304375  0.375479  1
  O  O23  1  0.885926  0.804375  0.624521  1
  O  O24  1  0.845780  0.172147  0.650412  1
  O  O25  1  0.516074  0.960944  0.601643  1
  O  O26  1  0.492726  0.657430  0.620415  1
  O  O27  1  0.396250  0.326451  0.644058  1
  O  O28  1  0.083996  0.567730  0.593789  1
  O  O29  1  0.246746  0.847395  0.672003  1
  O  O30  1  0.749821  0.344669  0.828554  1
  O  O31  1  0.907334  0.062273  0.906467  1
  O  O32  1  0.605972  0.822255  0.854111  1
  O  O33  1  0.494368  0.159291  0.874019  1
  O  O34  1  0.478494  0.465486  0.895464  1
  O  O35  1  0.141705  0.676846  0.849873  1
  O  O36  1  0.111250  0.295059  0.870669  1
  O  O37  1  0.888750  0.795059  0.129331  1
  O  O38  1  0.858295  0.176846  0.150127  1
  O  O39  1  0.521506  0.965486  0.104536  1
  O  O40  1  0.505632  0.659291  0.125981  1
  O  O41  1  0.394028  0.322255  0.145889  1
  O  O42  1  0.092666  0.562273  0.093533  1
  O  O43  1  0.250179  0.844669  0.171446  1
