# generated using pymatgen
data_LiTi4Mn(PO4)6
_symmetry_space_group_name_H-M   'P 1'
_cell_length_a   8.63910164
_cell_length_b   8.63910164
_cell_length_c   8.63910164
_cell_angle_alpha   60.14056671
_cell_angle_beta   60.14056671
_cell_angle_gamma   60.14056671
_symmetry_Int_Tables_number   1
_chemical_formula_structural   LiTi4Mn(PO4)6
_chemical_formula_sum   'Li1 Ti4 Mn1 P6 O24'
_cell_volume   457.37394423
_cell_formula_units_Z   1
loop_
 _symmetry_equiv_pos_site_id
 _symmetry_equiv_pos_as_xyz
  1  'x, y, z'
loop_
 _atom_site_type_symbol
 _atom_site_label
 _atom_site_symmetry_multiplicity
 _atom_site_fract_x
 _atom_site_fract_y
 _atom_site_fract_z
 _atom_site_occupancy
  Li  Li0  1  0.500000  0.500000  0.500000  1
  Ti  Ti1  1  0.854699  0.854699  0.854699  1
  Ti  Ti2  1  0.641957  0.641957  0.641957  1
  Ti  Ti3  1  0.358043  0.358043  0.358043  1
  Ti  Ti4  1  0.145301  0.145301  0.145301  1
  Mn  Mn5  1  1.000000  0.000000  0.000000  1
  P  P6  1  0.542605  0.958483  0.251282  1
  P  P7  1  0.251282  0.542605  0.958483  1
  P  P8  1  0.958483  0.251282  0.542605  1
  P  P9  1  0.041517  0.748718  0.457395  1
  P  P10  1  0.748718  0.457395  0.041517  1
  P  P11  1  0.457395  0.041517  0.748718  1
  O  O12  1  0.499945  0.876954  0.693093  1
  O  O13  1  0.876954  0.693093  0.499945  1
  O  O14  1  0.734609  0.944028  0.085286  1
  O  O15  1  0.693093  0.499945  0.876954  1
  O  O16  1  0.380993  0.998854  0.191542  1
  O  O17  1  0.559389  0.768109  0.414897  1
  O  O18  1  0.085286  0.734609  0.944028  1
  O  O19  1  0.414897  0.559389  0.768109  1
  O  O20  1  0.001146  0.808458  0.619007  1
  O  O21  1  0.768109  0.414897  0.559389  1
  O  O22  1  0.055972  0.914714  0.265391  1
  O  O23  1  0.808458  0.619007  0.001146  1
  O  O24  1  0.191542  0.380993  0.998854  1
  O  O25  1  0.944028  0.085286  0.734609  1
  O  O26  1  0.231891  0.585103  0.440611  1
  O  O27  1  0.998854  0.191542  0.380993  1
  O  O28  1  0.585103  0.440611  0.231891  1
  O  O29  1  0.914714  0.265391  0.055972  1
  O  O30  1  0.440611  0.231891  0.585103  1
  O  O31  1  0.619007  0.001146  0.808458  1
  O  O32  1  0.306907  0.500055  0.123046  1
  O  O33  1  0.265391  0.055972  0.914714  1
  O  O34  1  0.123046  0.306907  0.500055  1
  O  O35  1  0.500055  0.123046  0.306907  1
