# generated using pymatgen
data_Li4CrFe3O8
_symmetry_space_group_name_H-M   'P 1'
_cell_length_a   5.19603164
_cell_length_b   5.96928957
_cell_length_c   10.75608966
_cell_angle_alpha   106.06307915
_cell_angle_beta   94.58705191
_cell_angle_gamma   106.80644407
_symmetry_Int_Tables_number   1
_chemical_formula_structural   Li4CrFe3O8
_chemical_formula_sum   'Li8 Cr2 Fe6 O16'
_cell_volume   302.22245726
_cell_formula_units_Z   2
loop_
 _symmetry_equiv_pos_site_id
 _symmetry_equiv_pos_as_xyz
  1  'x, y, z'
loop_
 _atom_site_type_symbol
 _atom_site_label
 _atom_site_symmetry_multiplicity
 _atom_site_fract_x
 _atom_site_fract_y
 _atom_site_fract_z
 _atom_site_occupancy
  Li  Li0  1  0.499146  0.749729  0.999838  1
  Li  Li1  1  0.500228  0.125876  0.749590  1
  Li  Li2  1  0.502941  0.376254  0.249804  1
  Li  Li3  1  0.500000  0.000000  0.500000  1
  Li  Li4  1  0.500854  0.250271  0.000162  1
  Li  Li5  1  0.497059  0.623746  0.750196  1
  Li  Li6  1  0.499772  0.874124  0.250410  1
  Li  Li7  1  0.500000  0.500000  0.500000  1
  Cr  Cr8  1  0.001186  0.686601  0.376206  1
  Cr  Cr9  1  0.998814  0.313399  0.623794  1
  Fe  Fe10  1  0.998989  0.938106  0.874089  1
  Fe  Fe11  1  1.000000  0.562293  0.125754  1
  Fe  Fe12  1  0.001106  0.186716  0.375621  1
  Fe  Fe13  1  0.000000  0.437707  0.874246  1
  Fe  Fe14  1  0.998894  0.813284  0.624379  1
  Fe  Fe15  1  0.001011  0.061894  0.125911  1
  O  O16  1  0.773453  0.349538  0.439654  1
  O  O17  1  0.227238  0.527222  0.311777  1
  O  O18  1  0.770658  0.598269  0.938398  1
  O  O19  1  0.228852  0.777680  0.810149  1
  O  O20  1  0.226315  0.153267  0.560844  1
  O  O21  1  0.770410  0.975289  0.687391  1
  O  O22  1  0.771148  0.222320  0.189851  1
  O  O23  1  0.229342  0.401731  0.061602  1
  O  O24  1  0.773685  0.846733  0.439156  1
  O  O25  1  0.229590  0.024711  0.312609  1
  O  O26  1  0.771363  0.098013  0.939534  1
  O  O27  1  0.225981  0.277571  0.808572  1
  O  O28  1  0.772762  0.472778  0.688223  1
  O  O29  1  0.774019  0.722429  0.191428  1
  O  O30  1  0.226547  0.650462  0.560346  1
  O  O31  1  0.228637  0.901987  0.060466  1
