# generated using pymatgen
data_LiCu3(CO3)3
_symmetry_space_group_name_H-M   'P 1'
_cell_length_a   8.05911813
_cell_length_b   6.17659878
_cell_length_c   8.07282754
_cell_angle_alpha   90.00000000
_cell_angle_beta   119.33051879
_cell_angle_gamma   90.00000000
_symmetry_Int_Tables_number   1
_chemical_formula_structural   LiCu3(CO3)3
_chemical_formula_sum   'Li2 Cu6 C6 O18'
_cell_volume   350.33511944
_cell_formula_units_Z   2
loop_
 _symmetry_equiv_pos_site_id
 _symmetry_equiv_pos_as_xyz
  1  'x, y, z'
loop_
 _atom_site_type_symbol
 _atom_site_label
 _atom_site_symmetry_multiplicity
 _atom_site_fract_x
 _atom_site_fract_y
 _atom_site_fract_z
 _atom_site_occupancy
  Li  Li0  1  0.968790  0.000000  0.348572  1
  Li  Li1  1  0.655332  0.500000  0.617757  1
  Cu  Cu2  1  0.296288  0.744685  0.313346  1
  Cu  Cu3  1  0.296288  0.255315  0.313346  1
  Cu  Cu4  1  0.660020  0.248531  0.976633  1
  Cu  Cu5  1  0.660020  0.751469  0.976633  1
  Cu  Cu6  1  0.041358  0.749257  0.717153  1
  Cu  Cu7  1  0.041358  0.250743  0.717153  1
  C  C8  1  0.671016  0.750459  0.336803  1
  C  C9  1  0.671016  0.249541  0.336803  1
  C  C10  1  0.009681  0.000000  0.006786  1
  C  C11  1  0.991197  0.500000  0.997920  1
  C  C12  1  0.332015  0.000000  0.666912  1
  C  C13  1  0.329771  0.500000  0.653960  1
  O  O14  1  0.893439  0.000000  0.075779  1
  O  O15  1  0.873113  0.500000  0.062787  1
  O  O16  1  0.569049  0.246189  0.155603  1
  O  O17  1  0.569049  0.753811  0.155603  1
  O  O18  1  0.855170  0.764674  0.419904  1
  O  O19  1  0.855170  0.235326  0.419904  1
  O  O20  1  0.193753  0.000000  0.121204  1
  O  O21  1  0.173499  0.500000  0.107237  1
  O  O22  1  0.586186  0.732714  0.437820  1
  O  O23  1  0.586186  0.267286  0.437820  1
  O  O24  1  0.941972  0.000000  0.823825  1
  O  O25  1  0.926129  0.500000  0.811174  1
  O  O26  1  0.261345  0.000000  0.483347  1
  O  O27  1  0.258432  0.500000  0.470747  1
  O  O28  1  0.513417  0.000000  0.781494  1
  O  O29  1  0.514074  0.500000  0.762518  1
  O  O30  1  0.215168  0.000000  0.735379  1
  O  O31  1  0.219750  0.500000  0.728922  1
