# generated using pymatgen
data_Ba4IrO6
_symmetry_space_group_name_H-M   'P 1'
_cell_length_a   7.35815415
_cell_length_b   7.35815415
_cell_length_c   7.35815415
_cell_angle_alpha   89.78389410
_cell_angle_beta   89.78389410
_cell_angle_gamma   89.78389410
_symmetry_Int_Tables_number   1
_chemical_formula_structural   Ba4IrO6
_chemical_formula_sum   'Ba8 Ir2 O12'
_cell_volume   398.37988518
_cell_formula_units_Z   2
loop_
 _symmetry_equiv_pos_site_id
 _symmetry_equiv_pos_as_xyz
  1  'x, y, z'
loop_
 _atom_site_type_symbol
 _atom_site_label
 _atom_site_symmetry_multiplicity
 _atom_site_fract_x
 _atom_site_fract_y
 _atom_site_fract_z
 _atom_site_occupancy
  Ba  Ba0  1  0.620092  0.879908  0.250000  1
  Ba  Ba1  1  0.120092  0.750000  0.379908  1
  Ba  Ba2  1  0.750000  0.379908  0.120092  1
  Ba  Ba3  1  0.250000  0.250000  0.250000  1
  Ba  Ba4  1  0.750000  0.750000  0.750000  1
  Ba  Ba5  1  0.250000  0.620092  0.879908  1
  Ba  Ba6  1  0.879908  0.250000  0.620092  1
  Ba  Ba7  1  0.379908  0.120092  0.750000  1
  Ir  Ir8  1  0.000000  0.000000  0.000000  1
  Ir  Ir9  1  0.500000  0.500000  0.500000  1
  O  O10  1  0.270567  0.940546  0.069711  1
  O  O11  1  0.930289  0.729433  0.059454  1
  O  O12  1  0.430289  0.559454  0.229433  1
  O  O13  1  0.440546  0.770567  0.569711  1
  O  O14  1  0.059454  0.930289  0.729433  1
  O  O15  1  0.770567  0.569711  0.440546  1
  O  O16  1  0.229433  0.430289  0.559454  1
  O  O17  1  0.559454  0.229433  0.430289  1
  O  O18  1  0.940546  0.069711  0.270567  1
  O  O19  1  0.569711  0.440546  0.770567  1
  O  O20  1  0.069711  0.270567  0.940546  1
  O  O21  1  0.729433  0.059454  0.930289  1
