# generated using pymatgen
data_FePO4
_symmetry_space_group_name_H-M   'P 1'
_cell_length_a   5.23831472
_cell_length_b   10.42315303
_cell_length_c   14.31537871
_cell_angle_alpha   90.00000000
_cell_angle_beta   90.00000000
_cell_angle_gamma   90.00000000
_symmetry_Int_Tables_number   1
_chemical_formula_structural   FePO4
_chemical_formula_sum   'Fe8 P8 O32'
_cell_volume   781.61618384
_cell_formula_units_Z   8
loop_
 _symmetry_equiv_pos_site_id
 _symmetry_equiv_pos_as_xyz
  1  'x, y, z'
loop_
 _atom_site_type_symbol
 _atom_site_label
 _atom_site_symmetry_multiplicity
 _atom_site_fract_x
 _atom_site_fract_y
 _atom_site_fract_z
 _atom_site_occupancy
  Fe  Fe0  1  0.068595  0.037323  0.247285  1
  Fe  Fe1  1  0.553445  0.220068  0.999201  1
  Fe  Fe2  1  0.553445  0.279932  0.499201  1
  Fe  Fe3  1  0.068595  0.462677  0.747285  1
  Fe  Fe4  1  0.931405  0.537323  0.247285  1
  Fe  Fe5  1  0.446555  0.720068  0.999201  1
  Fe  Fe6  1  0.446555  0.779932  0.499201  1
  Fe  Fe7  1  0.931405  0.962677  0.747285  1
  P  P8  1  0.427983  0.030655  0.624353  1
  P  P9  1  0.053667  0.212045  0.871962  1
  P  P10  1  0.053667  0.287955  0.371962  1
  P  P11  1  0.427983  0.469345  0.124353  1
  P  P12  1  0.572017  0.530655  0.624353  1
  P  P13  1  0.946333  0.712045  0.871962  1
  P  P14  1  0.946333  0.787955  0.371962  1
  P  P15  1  0.572017  0.969345  0.124353  1
  O  O16  1  0.857585  0.992144  0.146209  1
  O  O17  1  0.498893  0.048541  0.036698  1
  O  O18  1  0.411197  0.010751  0.209894  1
  O  O19  1  0.009515  0.068582  0.850147  1
  O  O20  1  0.473081  0.174189  0.602368  1
  O  O21  1  0.891063  0.250954  0.458378  1
  O  O22  1  0.982859  0.206354  0.285328  1
  O  O23  1  0.337897  0.238081  0.894834  1
  O  O24  1  0.337897  0.261919  0.394834  1
  O  O25  1  0.982859  0.293646  0.785328  1
  O  O26  1  0.891063  0.249046  0.958378  1
  O  O27  1  0.473081  0.325811  0.102368  1
  O  O28  1  0.009515  0.431418  0.350147  1
  O  O29  1  0.411197  0.489249  0.709894  1
  O  O30  1  0.498893  0.451459  0.536698  1
  O  O31  1  0.857585  0.507856  0.646209  1
  O  O32  1  0.142415  0.492144  0.146209  1
  O  O33  1  0.501107  0.548541  0.036698  1
  O  O34  1  0.588803  0.510751  0.209894  1
  O  O35  1  0.990485  0.568582  0.850147  1
  O  O36  1  0.526919  0.674189  0.602368  1
  O  O37  1  0.108937  0.750954  0.458378  1
  O  O38  1  0.017141  0.706354  0.285328  1
  O  O39  1  0.662103  0.738081  0.894834  1
  O  O40  1  0.662103  0.761919  0.394834  1
  O  O41  1  0.017141  0.793646  0.785328  1
  O  O42  1  0.108937  0.749046  0.958378  1
  O  O43  1  0.526919  0.825811  0.102368  1
  O  O44  1  0.990485  0.931418  0.350147  1
  O  O45  1  0.588803  0.989249  0.709894  1
  O  O46  1  0.501107  0.951459  0.536698  1
  O  O47  1  0.142415  0.007856  0.646209  1
