# generated using pymatgen
data_Li5Nb2Cu5O12
_symmetry_space_group_name_H-M   'P 1'
_cell_length_a   5.19232949
_cell_length_b   5.19232949
_cell_length_c   9.87790888
_cell_angle_alpha   88.84441159
_cell_angle_beta   91.15558841
_cell_angle_gamma   65.74689508
_symmetry_Int_Tables_number   1
_chemical_formula_structural   Li5Nb2Cu5O12
_chemical_formula_sum   'Li5 Nb2 Cu5 O12'
_cell_volume   242.63889701
_cell_formula_units_Z   1
loop_
 _symmetry_equiv_pos_site_id
 _symmetry_equiv_pos_as_xyz
  1  'x, y, z'
loop_
 _atom_site_type_symbol
 _atom_site_label
 _atom_site_symmetry_multiplicity
 _atom_site_fract_x
 _atom_site_fract_y
 _atom_site_fract_z
 _atom_site_occupancy
  Li  Li0  1  0.840829  0.316372  0.747234  1
  Li  Li1  1  0.684075  0.151755  0.259212  1
  Li  Li2  1  0.316372  0.840829  0.252766  1
  Li  Li3  1  0.151755  0.684075  0.740788  1
  Li  Li4  1  0.088776  0.088776  0.500000  1
  Nb  Nb5  1  0.753222  0.753222  0.500000  1
  Nb  Nb6  1  0.259265  0.259265  0.000000  1
  Cu  Cu7  1  0.922416  0.922416  0.000000  1
  Cu  Cu8  1  0.001051  0.489667  0.253089  1
  Cu  Cu9  1  0.489667  0.001051  0.746911  1
  Cu  Cu10  1  0.589016  0.589016  0.000000  1
  Cu  Cu11  1  0.410284  0.410284  0.500000  1
  O  O12  1  0.008518  0.798098  0.365994  1
  O  O13  1  0.798098  0.008518  0.634006  1
  O  O14  1  0.925658  0.582153  0.899725  1
  O  O15  1  0.582153  0.925658  0.100275  1
  O  O16  1  0.692226  0.460618  0.380070  1
  O  O17  1  0.460618  0.692226  0.619930  1
  O  O18  1  0.527057  0.311806  0.871544  1
  O  O19  1  0.311806  0.527057  0.128456  1
  O  O20  1  0.424835  0.077915  0.398673  1
  O  O21  1  0.077915  0.424835  0.601327  1
  O  O22  1  0.190974  0.993417  0.867631  1
  O  O23  1  0.993417  0.190974  0.132369  1
