# generated using pymatgen
data_Li3CrBPO7
_symmetry_space_group_name_H-M   'P 1'
_cell_length_a   5.02519406
_cell_length_b   6.38249642
_cell_length_c   8.38070448
_cell_angle_alpha   90.00000000
_cell_angle_beta   94.87567841
_cell_angle_gamma   90.00000000
_symmetry_Int_Tables_number   1
_chemical_formula_structural   Li3CrBPO7
_chemical_formula_sum   'Li6 Cr2 B2 P2 O14'
_cell_volume   267.82405707
_cell_formula_units_Z   2
loop_
 _symmetry_equiv_pos_site_id
 _symmetry_equiv_pos_as_xyz
  1  'x, y, z'
loop_
 _atom_site_type_symbol
 _atom_site_label
 _atom_site_symmetry_multiplicity
 _atom_site_fract_x
 _atom_site_fract_y
 _atom_site_fract_z
 _atom_site_occupancy
  Li  Li0  1  0.254439  0.750000  0.087662  1
  Li  Li1  1  0.747711  0.006877  0.235286  1
  Li  Li2  1  0.747711  0.493123  0.235286  1
  Li  Li3  1  0.252289  0.506877  0.764714  1
  Li  Li4  1  0.252289  0.993123  0.764714  1
  Li  Li5  1  0.745561  0.250000  0.912338  1
  Cr  Cr6  1  0.209437  0.250000  0.326059  1
  Cr  Cr7  1  0.790563  0.750000  0.673941  1
  B  B8  1  0.282654  0.250000  0.044014  1
  B  B9  1  0.717346  0.750000  0.955986  1
  P  P10  1  0.277432  0.750000  0.418279  1
  P  P11  1  0.722568  0.250000  0.581721  1
  O  O12  1  0.657628  0.750000  0.109861  1
  O  O13  1  0.025628  0.250000  0.097991  1
  O  O14  1  0.484302  0.250000  0.171073  1
  O  O15  1  0.187103  0.937341  0.308602  1
  O  O16  1  0.187103  0.562659  0.308602  1
  O  O17  1  0.584616  0.750000  0.455856  1
  O  O18  1  0.852662  0.250000  0.421715  1
  O  O19  1  0.147338  0.750000  0.578285  1
  O  O20  1  0.415384  0.250000  0.544144  1
  O  O21  1  0.812897  0.437341  0.691398  1
  O  O22  1  0.812897  0.062659  0.691398  1
  O  O23  1  0.515698  0.750000  0.828927  1
  O  O24  1  0.974372  0.750000  0.902009  1
  O  O25  1  0.342372  0.250000  0.890139  1
