# generated using pymatgen
data_Li3VF8
_symmetry_space_group_name_H-M   'P 1'
_cell_length_a   5.84853912
_cell_length_b   5.84853912
_cell_length_c   5.59875727
_cell_angle_alpha   72.07798268
_cell_angle_beta   107.92201732
_cell_angle_gamma   73.96724049
_symmetry_Int_Tables_number   1
_chemical_formula_structural   Li3VF8
_chemical_formula_sum   'Li3 V1 F8'
_cell_volume   158.15677986
_cell_formula_units_Z   1
loop_
 _symmetry_equiv_pos_site_id
 _symmetry_equiv_pos_as_xyz
  1  'x, y, z'
loop_
 _atom_site_type_symbol
 _atom_site_label
 _atom_site_symmetry_multiplicity
 _atom_site_fract_x
 _atom_site_fract_y
 _atom_site_fract_z
 _atom_site_occupancy
  Li  Li0  1  0.000000  0.500000  0.500000  1
  Li  Li1  1  0.500000  0.000000  0.500000  1
  Li  Li2  1  0.500000  0.500000  0.500000  1
  V  V3  1  0.000000  0.000000  0.000000  1
  F  F4  1  0.163308  0.836692  0.384234  1
  F  F5  1  0.193898  0.193898  0.000000  1
  F  F6  1  0.806102  0.806102  0.000000  1
  F  F7  1  0.836692  0.163308  0.615766  1
  F  F8  1  0.254142  0.745858  0.998966  1
  F  F9  1  0.302527  0.302527  0.500000  1
  F  F10  1  0.697473  0.697473  0.500000  1
  F  F11  1  0.745858  0.254142  0.001034  1
