# generated using pymatgen
data_Li5Mn6(BO3)6
_symmetry_space_group_name_H-M   'P 1'
_cell_length_a   6.34747471
_cell_length_b   8.34151742
_cell_length_c   8.78478724
_cell_angle_alpha   118.18746716
_cell_angle_beta   111.01616998
_cell_angle_gamma   90.00602139
_symmetry_Int_Tables_number   1
_chemical_formula_structural   Li5Mn6(BO3)6
_chemical_formula_sum   'Li5 Mn6 B6 O18'
_cell_volume   374.49019855
_cell_formula_units_Z   1
loop_
 _symmetry_equiv_pos_site_id
 _symmetry_equiv_pos_as_xyz
  1  'x, y, z'
loop_
 _atom_site_type_symbol
 _atom_site_label
 _atom_site_symmetry_multiplicity
 _atom_site_fract_x
 _atom_site_fract_y
 _atom_site_fract_z
 _atom_site_occupancy
  Li  Li0  1  0.611117  0.011179  0.714822  1
  Li  Li1  1  0.100297  0.017911  0.714088  1
  Li  Li2  1  0.907994  0.284054  0.304739  1
  Li  Li3  1  0.396406  0.286476  0.302578  1
  Li  Li4  1  0.748040  0.706872  0.981917  1
  Mn  Mn5  1  0.316753  0.640814  0.645677  1
  Mn  Mn6  1  0.819651  0.637372  0.637756  1
  Mn  Mn7  1  0.010781  0.394017  0.016270  1
  Mn  Mn8  1  0.502857  0.368878  0.009321  1
  Mn  Mn9  1  0.179778  0.981112  0.346617  1
  Mn  Mn10  1  0.664570  0.975915  0.335042  1
  B  B11  1  0.996247  0.014653  0.002663  1
  B  B12  1  0.504665  0.008572  0.000623  1
  B  B13  1  0.069298  0.317953  0.658951  1
  B  B14  1  0.589803  0.327273  0.665477  1
  B  B15  1  0.413609  0.667455  0.338596  1
  B  B16  1  0.924161  0.664038  0.332002  1
  O  O17  1  0.945605  0.102449  0.895295  1
  O  O18  1  0.437233  0.081697  0.880164  1
  O  O19  1  0.532586  0.137142  0.559238  1
  O  O20  1  0.016742  0.127743  0.541786  1
  O  O21  1  0.160069  0.389738  0.854876  1
  O  O22  1  0.698711  0.417357  0.865327  1
  O  O23  1  0.101738  0.123365  0.199913  1
  O  O24  1  0.598720  0.130726  0.196891  1
  O  O25  1  0.041246  0.436750  0.587839  1
  O  O26  1  0.541191  0.438707  0.586282  1
  O  O27  1  0.940341  0.825152  0.918012  1
  O  O28  1  0.483829  0.820877  0.930309  1
  O  O29  1  0.880306  0.467623  0.213474  1
  O  O30  1  0.340128  0.470939  0.215119  1
  O  O31  1  0.513267  0.737000  0.531353  1
  O  O32  1  0.009211  0.739312  0.525176  1
  O  O33  1  0.381719  0.778340  0.260953  1
  O  O34  1  0.879493  0.770485  0.247182  1
