# generated using pymatgen
data_LiCo5O5F
_symmetry_space_group_name_H-M   'P 1'
_cell_length_a   3.29357434
_cell_length_b   3.29357434
_cell_length_c   15.66298921
_cell_angle_alpha   90.00000000
_cell_angle_beta   90.00000000
_cell_angle_gamma   120.00000000
_symmetry_Int_Tables_number   1
_chemical_formula_structural   LiCo5O5F
_chemical_formula_sum   'Li1 Co5 O5 F1'
_cell_volume   147.14320817
_cell_formula_units_Z   1
loop_
 _symmetry_equiv_pos_site_id
 _symmetry_equiv_pos_as_xyz
  1  'x, y, z'
loop_
 _atom_site_type_symbol
 _atom_site_label
 _atom_site_symmetry_multiplicity
 _atom_site_fract_x
 _atom_site_fract_y
 _atom_site_fract_z
 _atom_site_occupancy
  Li  Li0  1  0.333333  0.666667  0.006725  1
  Co  Co1  1  0.333333  0.666667  0.331355  1
  Co  Co2  1  0.333333  0.666667  0.665448  1
  Co  Co3  1  0.666667  0.333333  0.498729  1
  Co  Co4  1  0.666667  0.333333  0.165101  1
  Co  Co5  1  0.666667  0.333333  0.830413  1
  O  O6  1  0.333333  0.666667  0.462139  1
  O  O7  1  0.333333  0.666667  0.126490  1
  O  O8  1  0.333333  0.666667  0.795771  1
  O  O9  1  0.666667  0.333333  0.295405  1
  O  O10  1  0.666667  0.333333  0.629378  1
  F  F11  1  0.666667  0.333333  0.959050  1
