# generated using pymatgen
data_LiFeSiO4
_symmetry_space_group_name_H-M   'P 1'
_cell_length_a   8.60423453
_cell_length_b   8.60423453
_cell_length_c   8.60423453
_cell_angle_alpha   107.33759237
_cell_angle_beta   107.33759237
_cell_angle_gamma   107.33759237
_symmetry_Int_Tables_number   1
_chemical_formula_structural   LiFeSiO4
_chemical_formula_sum   'Li6 Fe6 Si6 O24'
_cell_volume   525.53443377
_cell_formula_units_Z   6
loop_
 _symmetry_equiv_pos_site_id
 _symmetry_equiv_pos_as_xyz
  1  'x, y, z'
loop_
 _atom_site_type_symbol
 _atom_site_label
 _atom_site_symmetry_multiplicity
 _atom_site_fract_x
 _atom_site_fract_y
 _atom_site_fract_z
 _atom_site_occupancy
  Li  Li0  1  0.227007  0.457983  0.055884  1
  Li  Li1  1  0.944116  0.772993  0.542017  1
  Li  Li2  1  0.542017  0.944116  0.772993  1
  Li  Li3  1  0.457983  0.055884  0.227007  1
  Li  Li4  1  0.055884  0.227007  0.457983  1
  Li  Li5  1  0.772993  0.542017  0.944116  1
  Fe  Fe6  1  0.576852  0.800996  0.392791  1
  Fe  Fe7  1  0.607209  0.423148  0.199004  1
  Fe  Fe8  1  0.199004  0.607209  0.423148  1
  Fe  Fe9  1  0.800996  0.392791  0.576852  1
  Fe  Fe10  1  0.392791  0.576852  0.800996  1
  Fe  Fe11  1  0.423148  0.199004  0.607209  1
  Si  Si12  1  0.733911  0.904884  0.131550  1
  Si  Si13  1  0.095116  0.868450  0.266089  1
  Si  Si14  1  0.868450  0.266089  0.095116  1
  Si  Si15  1  0.131550  0.733911  0.904884  1
  Si  Si16  1  0.904884  0.131550  0.733911  1
  Si  Si17  1  0.266089  0.095116  0.868450  1
  O  O18  1  0.949414  0.963194  0.261377  1
  O  O19  1  0.036806  0.738623  0.050586  1
  O  O20  1  0.619186  0.930128  0.249123  1
  O  O21  1  0.069872  0.750877  0.380814  1
  O  O22  1  0.700150  0.974529  0.644618  1
  O  O23  1  0.336968  0.637456  0.295106  1
  O  O24  1  0.750877  0.380814  0.069872  1
  O  O25  1  0.704894  0.663032  0.362544  1
  O  O26  1  0.355382  0.299850  0.025471  1
  O  O27  1  0.025471  0.355382  0.299850  1
  O  O28  1  0.362544  0.704894  0.663032  1
  O  O29  1  0.738623  0.050586  0.036806  1
  O  O30  1  0.261377  0.949414  0.963194  1
  O  O31  1  0.637456  0.295106  0.336968  1
  O  O32  1  0.974529  0.644618  0.700150  1
  O  O33  1  0.644618  0.700150  0.974529  1
  O  O34  1  0.295106  0.336968  0.637456  1
  O  O35  1  0.249123  0.619186  0.930128  1
  O  O36  1  0.663032  0.362544  0.704894  1
  O  O37  1  0.299850  0.025471  0.355382  1
  O  O38  1  0.930128  0.249123  0.619186  1
  O  O39  1  0.380814  0.069872  0.750877  1
  O  O40  1  0.963194  0.261377  0.949414  1
  O  O41  1  0.050586  0.036806  0.738623  1
