# generated using pymatgen
data_Li4Mn3OF11
_symmetry_space_group_name_H-M   'P 1'
_cell_length_a   5.77084437
_cell_length_b   6.05243773
_cell_length_c   6.44728631
_cell_angle_alpha   103.14522185
_cell_angle_beta   98.93848659
_cell_angle_gamma   100.01362165
_symmetry_Int_Tables_number   1
_chemical_formula_structural   Li4Mn3OF11
_chemical_formula_sum   'Li4 Mn3 O1 F11'
_cell_volume   211.43959170
_cell_formula_units_Z   1
loop_
 _symmetry_equiv_pos_site_id
 _symmetry_equiv_pos_as_xyz
  1  'x, y, z'
loop_
 _atom_site_type_symbol
 _atom_site_label
 _atom_site_symmetry_multiplicity
 _atom_site_fract_x
 _atom_site_fract_y
 _atom_site_fract_z
 _atom_site_occupancy
  Li  Li0  1  0.151969  0.589531  0.330502  1
  Li  Li1  1  0.383205  0.663431  0.857871  1
  Li  Li2  1  0.609342  0.331066  0.137173  1
  Li  Li3  1  0.858651  0.406530  0.679147  1
  Mn  Mn4  1  0.724372  0.862288  0.376531  1
  Mn  Mn5  1  0.001956  0.001607  0.011115  1
  Mn  Mn6  1  0.293752  0.135198  0.582460  1
  O  O7  1  0.051004  0.969614  0.333495  1
  F  F8  1  0.046485  0.695700  0.903610  1
  F  F9  1  0.404393  0.853321  0.591190  1
  F  F10  1  0.681216  0.878994  0.010861  1
  F  F11  1  0.181045  0.415115  0.580936  1
  F  F12  1  0.434226  0.618503  0.197524  1
  F  F13  1  0.562021  0.360311  0.793124  1
  F  F14  1  0.825687  0.594625  0.426231  1
  F  F15  1  0.314907  0.110866  0.990839  1
  F  F16  1  0.602066  0.145750  0.385903  1
  F  F17  1  0.952363  0.307472  0.110488  1
  F  F18  1  0.921338  0.060077  0.700996  1
