# generated using pymatgen
data_TaAlO4
_symmetry_space_group_name_H-M   'P 1'
_cell_length_a   5.50194449
_cell_length_b   5.50194449
_cell_length_c   5.50194449
_cell_angle_alpha   107.10388929
_cell_angle_beta   107.10388929
_cell_angle_gamma   114.31730377
_symmetry_Int_Tables_number   1
_chemical_formula_structural   TaAlO4
_chemical_formula_sum   'Ta2 Al2 O8'
_cell_volume   127.51754556
_cell_formula_units_Z   2
loop_
 _symmetry_equiv_pos_site_id
 _symmetry_equiv_pos_as_xyz
  1  'x, y, z'
loop_
 _atom_site_type_symbol
 _atom_site_label
 _atom_site_symmetry_multiplicity
 _atom_site_fract_x
 _atom_site_fract_y
 _atom_site_fract_z
 _atom_site_occupancy
  Ta  Ta0  1  0.261733  0.761733  0.500000  1
  Ta  Ta1  1  0.011733  0.011733  0.000000  1
  Al  Al2  1  0.751385  0.251385  0.500000  1
  Al  Al3  1  0.501385  0.501385  0.000000  1
  O  O4  1  0.546659  0.740259  0.806399  1
  O  O5  1  0.053607  0.253182  0.800426  1
  O  O6  1  0.990259  0.683860  0.693601  1
  O  O7  1  0.503182  0.202756  0.699574  1
  O  O8  1  0.990259  0.296659  0.306399  1
  O  O9  1  0.503182  0.803607  0.300426  1
  O  O10  1  0.452756  0.253182  0.199574  1
  O  O11  1  0.933860  0.740259  0.193601  1
