# generated using pymatgen
data_Sr2HfO4
_symmetry_space_group_name_H-M   'P 1'
_cell_length_a   3.37030611
_cell_length_b   6.07776946
_cell_length_c   10.34224049
_cell_angle_alpha   90.00000000
_cell_angle_beta   90.00000000
_cell_angle_gamma   90.00000000
_symmetry_Int_Tables_number   1
_chemical_formula_structural   Sr2HfO4
_chemical_formula_sum   'Sr4 Hf2 O8'
_cell_volume   211.84987034
_cell_formula_units_Z   2
loop_
 _symmetry_equiv_pos_site_id
 _symmetry_equiv_pos_as_xyz
  1  'x, y, z'
loop_
 _atom_site_type_symbol
 _atom_site_label
 _atom_site_symmetry_multiplicity
 _atom_site_fract_x
 _atom_site_fract_y
 _atom_site_fract_z
 _atom_site_occupancy
  Sr  Sr0  1  0.500000  0.066068  0.679379  1
  Sr  Sr1  1  0.500000  0.433932  0.179379  1
  Sr  Sr2  1  0.500000  0.566068  0.820621  1
  Sr  Sr3  1  0.500000  0.933932  0.320621  1
  Hf  Hf4  1  0.000000  0.000000  0.000000  1
  Hf  Hf5  1  0.000000  0.500000  0.500000  1
  O  O6  1  0.000000  0.130965  0.184255  1
  O  O7  1  0.500000  0.212380  0.954481  1
  O  O8  1  0.500000  0.287620  0.454481  1
  O  O9  1  0.000000  0.369035  0.684255  1
  O  O10  1  0.000000  0.630965  0.315745  1
  O  O11  1  0.500000  0.712380  0.545519  1
  O  O12  1  0.500000  0.787620  0.045519  1
  O  O13  1  0.000000  0.869035  0.815745  1
