# generated using pymatgen
data_Li8Mn7Fe(BO3)8
_symmetry_space_group_name_H-M   'P 1'
_cell_length_a   5.25051375
_cell_length_b   9.13094243
_cell_length_c   11.60981099
_cell_angle_alpha   111.48800430
_cell_angle_beta   102.28805110
_cell_angle_gamma   89.82138734
_symmetry_Int_Tables_number   1
_chemical_formula_structural   Li8Mn7Fe(BO3)8
_chemical_formula_sum   'Li8 Mn7 Fe1 B8 O24'
_cell_volume   504.32946053
_cell_formula_units_Z   1
loop_
 _symmetry_equiv_pos_site_id
 _symmetry_equiv_pos_as_xyz
  1  'x, y, z'
loop_
 _atom_site_type_symbol
 _atom_site_label
 _atom_site_symmetry_multiplicity
 _atom_site_fract_x
 _atom_site_fract_y
 _atom_site_fract_z
 _atom_site_occupancy
  Li  Li0  1  0.028895  0.039883  0.417231  1
  Li  Li1  1  0.294682  0.284463  0.917607  1
  Li  Li2  1  0.480458  0.508327  0.667714  1
  Li  Li3  1  0.272558  0.243888  0.168012  1
  Li  Li4  1  0.529123  0.539538  0.417901  1
  Li  Li5  1  0.793720  0.785059  0.916940  1
  Li  Li6  1  0.981156  0.008497  0.668326  1
  Li  Li7  1  0.771493  0.745537  0.168178  1
  Mn  Mn8  1  0.020732  0.353717  0.381338  1
  Mn  Mn9  1  0.275188  0.940700  0.885311  1
  Mn  Mn10  1  0.475396  0.154793  0.632919  1
  Mn  Mn11  1  0.244636  0.564977  0.133270  1
  Mn  Mn12  1  0.523186  0.856255  0.383547  1
  Mn  Mn13  1  0.772115  0.439213  0.882769  1
  Mn  Mn14  1  0.975951  0.654839  0.632901  1
  Fe  Fe15  1  0.751641  0.064672  0.132357  1
  B  B16  1  0.024410  0.685029  0.375467  1
  B  B17  1  0.266105  0.605485  0.876142  1
  B  B18  1  0.238119  0.895326  0.127186  1
  B  B19  1  0.470006  0.814268  0.625927  1
  B  B20  1  0.524185  0.184820  0.374610  1
  B  B21  1  0.767617  0.105480  0.876547  1
  B  B22  1  0.733692  0.390704  0.124895  1
  B  B23  1  0.970173  0.314377  0.625872  1
  O  O24  1  0.021447  0.109805  0.861455  1
  O  O25  1  0.097118  0.712349  0.846211  1
  O  O26  1  0.176115  0.494207  0.917795  1
  O  O27  1  0.070752  0.169714  0.611180  1
  O  O28  1  0.100693  0.424489  0.595822  1
  O  O29  1  0.238066  0.849838  0.667092  1
  O  O30  1  0.269271  0.654051  0.345209  1
  O  O31  1  0.520451  0.609980  0.861522  1
  O  O32  1  0.597364  0.211393  0.845601  1
  O  O33  1  0.403156  0.085158  0.417572  1
  O  O34  1  0.404460  0.314663  0.360871  1
  O  O35  1  0.678348  0.995250  0.919203  1
  O  O36  1  0.343569  0.014512  0.098169  1
  O  O37  1  0.571293  0.669933  0.611506  1
  O  O38  1  0.600724  0.924491  0.595772  1
  O  O39  1  0.401432  0.793507  0.166315  1
  O  O40  1  0.466231  0.370291  0.110816  1
  O  O41  1  0.737882  0.349813  0.667040  1
  O  O42  1  0.767783  0.152817  0.343477  1
  O  O43  1  0.903274  0.584335  0.417199  1
  O  O44  1  0.904381  0.814441  0.360795  1
  O  O45  1  0.836370  0.511910  0.096573  1
  O  O46  1  0.899725  0.289813  0.164397  1
  O  O47  1  0.968058  0.876595  0.113042  1
