# generated using pymatgen
data_LiSbP2O7
_symmetry_space_group_name_H-M   'P 1'
_cell_length_a   8.30004209
_cell_length_b   8.38308793
_cell_length_c   17.22302238
_cell_angle_alpha   90.00000000
_cell_angle_beta   90.00000000
_cell_angle_gamma   90.00000000
_symmetry_Int_Tables_number   1
_chemical_formula_structural   LiSbP2O7
_chemical_formula_sum   'Li8 Sb8 P16 O56'
_cell_volume   1198.37759879
_cell_formula_units_Z   8
loop_
 _symmetry_equiv_pos_site_id
 _symmetry_equiv_pos_as_xyz
  1  'x, y, z'
loop_
 _atom_site_type_symbol
 _atom_site_label
 _atom_site_symmetry_multiplicity
 _atom_site_fract_x
 _atom_site_fract_y
 _atom_site_fract_z
 _atom_site_occupancy
  Li  Li0  1  0.817167  0.129704  0.743865  1
  Li  Li1  1  0.800045  0.574465  0.753113  1
  Li  Li2  1  0.699955  0.074465  0.253113  1
  Li  Li3  1  0.682833  0.629704  0.243865  1
  Li  Li4  1  0.317167  0.129704  0.756135  1
  Li  Li5  1  0.300045  0.574465  0.746887  1
  Li  Li6  1  0.199955  0.074465  0.246887  1
  Li  Li7  1  0.182833  0.629704  0.256135  1
  Sb  Sb8  1  0.987240  0.266712  0.388023  1
  Sb  Sb9  1  0.985792  0.765310  0.117617  1
  Sb  Sb10  1  0.514208  0.265310  0.617617  1
  Sb  Sb11  1  0.512760  0.766712  0.888023  1
  Sb  Sb12  1  0.487240  0.266712  0.111977  1
  Sb  Sb13  1  0.485792  0.765310  0.382383  1
  Sb  Sb14  1  0.014208  0.265310  0.882383  1
  Sb  Sb15  1  0.012760  0.766712  0.611977  1
  P  P16  1  0.907027  0.164719  0.575671  1
  P  P17  1  0.916190  0.871333  0.818698  1
  P  P18  1  0.907848  0.859801  0.308282  1
  P  P19  1  0.878823  0.158123  0.080836  1
  P  P20  1  0.621177  0.658123  0.580836  1
  P  P21  1  0.592152  0.359801  0.808282  1
  P  P22  1  0.583810  0.371333  0.318698  1
  P  P23  1  0.592973  0.664719  0.075671  1
  P  P24  1  0.407027  0.164719  0.924329  1
  P  P25  1  0.416190  0.871333  0.681302  1
  P  P26  1  0.407848  0.859801  0.191718  1
  P  P27  1  0.378823  0.158123  0.419164  1
  P  P28  1  0.121177  0.658123  0.919164  1
  P  P29  1  0.092152  0.359801  0.691718  1
  P  P30  1  0.083810  0.371333  0.181302  1
  P  P31  1  0.092973  0.664719  0.424329  1
  O  O32  1  0.996504  0.016684  0.299208  1
  O  O33  1  0.001927  0.140702  0.016567  1
  O  O34  1  0.016423  0.499941  0.428840  1
  O  O35  1  0.923204  0.311156  0.137742  1
  O  O36  1  0.955695  0.779589  0.389482  1
  O  O37  1  0.952554  0.735195  0.244062  1
  O  O38  1  0.950791  0.894880  0.731889  1
  O  O39  1  0.862294  0.234252  0.497541  1
  O  O40  1  0.875528  0.039198  0.852241  1
  O  O41  1  0.866931  0.012426  0.136562  1
  O  O42  1  0.789997  0.707492  0.552023  1
  O  O43  1  0.775066  0.376457  0.811741  1
  O  O44  1  0.761553  0.170068  0.632890  1
  O  O45  1  0.716187  0.247577  0.331675  1
  O  O46  1  0.783813  0.747577  0.831675  1
  O  O47  1  0.738447  0.670068  0.132890  1
  O  O48  1  0.724934  0.876457  0.311741  1
  O  O49  1  0.710003  0.207492  0.052023  1
  O  O50  1  0.633069  0.512426  0.636562  1
  O  O51  1  0.624472  0.539198  0.352241  1
  O  O52  1  0.637706  0.734252  0.997541  1
  O  O53  1  0.549209  0.394880  0.231889  1
  O  O54  1  0.547446  0.235195  0.744062  1
  O  O55  1  0.544305  0.279589  0.889482  1
  O  O56  1  0.576796  0.811156  0.637742  1
  O  O57  1  0.483577  0.999941  0.928840  1
  O  O58  1  0.498073  0.640702  0.516567  1
  O  O59  1  0.503496  0.516684  0.799208  1
  O  O60  1  0.496504  0.016684  0.200792  1
  O  O61  1  0.501927  0.140702  0.483433  1
  O  O62  1  0.516423  0.499941  0.071160  1
  O  O63  1  0.423204  0.311156  0.362258  1
  O  O64  1  0.455695  0.779589  0.110518  1
  O  O65  1  0.452554  0.735195  0.255938  1
  O  O66  1  0.450791  0.894880  0.768111  1
  O  O67  1  0.362294  0.234252  0.002459  1
  O  O68  1  0.375528  0.039198  0.647759  1
  O  O69  1  0.366931  0.012426  0.363438  1
  O  O70  1  0.289997  0.707492  0.947977  1
  O  O71  1  0.275066  0.376457  0.688259  1
  O  O72  1  0.261553  0.170068  0.867110  1
  O  O73  1  0.216187  0.247577  0.168325  1
  O  O74  1  0.283813  0.747577  0.668325  1
  O  O75  1  0.238447  0.670068  0.367110  1
  O  O76  1  0.224934  0.876457  0.188259  1
  O  O77  1  0.210003  0.207492  0.447977  1
  O  O78  1  0.133069  0.512426  0.863438  1
  O  O79  1  0.124472  0.539198  0.147759  1
  O  O80  1  0.137706  0.734252  0.502459  1
  O  O81  1  0.049209  0.394880  0.268111  1
  O  O82  1  0.047446  0.235195  0.755938  1
  O  O83  1  0.044305  0.279589  0.610518  1
  O  O84  1  0.076796  0.811156  0.862258  1
  O  O85  1  0.983577  0.999941  0.571160  1
  O  O86  1  0.998073  0.640702  0.983433  1
  O  O87  1  0.003496  0.516684  0.700792  1
