# generated using pymatgen
data_LiNbCuO4
_symmetry_space_group_name_H-M   'P 1'
_cell_length_a   5.81878135
_cell_length_b   5.81878135
_cell_length_c   9.70383789
_cell_angle_alpha   90.00000000
_cell_angle_beta   90.00000000
_cell_angle_gamma   90.00000000
_symmetry_Int_Tables_number   1
_chemical_formula_structural   LiNbCuO4
_chemical_formula_sum   'Li4 Nb4 Cu4 O16'
_cell_volume   328.55464318
_cell_formula_units_Z   4
loop_
 _symmetry_equiv_pos_site_id
 _symmetry_equiv_pos_as_xyz
  1  'x, y, z'
loop_
 _atom_site_type_symbol
 _atom_site_label
 _atom_site_symmetry_multiplicity
 _atom_site_fract_x
 _atom_site_fract_y
 _atom_site_fract_z
 _atom_site_occupancy
  Li  Li0  1  0.500000  0.740055  0.000000  1
  Li  Li1  1  0.500000  0.259945  0.500000  1
  Li  Li2  1  0.740055  0.500000  0.250000  1
  Li  Li3  1  0.259945  0.500000  0.750000  1
  Nb  Nb4  1  0.758501  0.758501  0.625000  1
  Nb  Nb5  1  0.758501  0.241499  0.875000  1
  Nb  Nb6  1  0.241499  0.758501  0.375000  1
  Nb  Nb7  1  0.241499  0.241499  0.125000  1
  Cu  Cu8  1  0.739356  0.000000  0.250000  1
  Cu  Cu9  1  0.000000  0.739356  0.000000  1
  Cu  Cu10  1  0.000000  0.260644  0.500000  1
  Cu  Cu11  1  0.260644  0.000000  0.750000  1
  O  O12  1  0.503043  0.758514  0.259114  1
  O  O13  1  0.503043  0.241486  0.240886  1
  O  O14  1  0.758514  0.503043  0.990886  1
  O  O15  1  0.758514  0.496957  0.509114  1
  O  O16  1  0.759390  0.981023  0.990328  1
  O  O17  1  0.759390  0.018977  0.509672  1
  O  O18  1  0.981023  0.759390  0.259672  1
  O  O19  1  0.981023  0.240610  0.240328  1
  O  O20  1  0.018977  0.759390  0.740328  1
  O  O21  1  0.018977  0.240610  0.759672  1
  O  O22  1  0.240610  0.018977  0.490328  1
  O  O23  1  0.240610  0.981023  0.009672  1
  O  O24  1  0.241486  0.503043  0.009114  1
  O  O25  1  0.241486  0.496957  0.490886  1
  O  O26  1  0.496957  0.758514  0.740886  1
  O  O27  1  0.496957  0.241486  0.759114  1
