# generated using pymatgen
data_Li3FeNi3O8
_symmetry_space_group_name_H-M   'P 1'
_cell_length_a   5.82360887
_cell_length_b   5.82360887
_cell_length_c   5.85109010
_cell_angle_alpha   60.97015317
_cell_angle_beta   119.02984683
_cell_angle_gamma   120.50887127
_symmetry_Int_Tables_number   1
_chemical_formula_structural   Li3FeNi3O8
_chemical_formula_sum   'Li3 Fe1 Ni3 O8'
_cell_volume   141.76747754
_cell_formula_units_Z   1
loop_
 _symmetry_equiv_pos_site_id
 _symmetry_equiv_pos_as_xyz
  1  'x, y, z'
loop_
 _atom_site_type_symbol
 _atom_site_label
 _atom_site_symmetry_multiplicity
 _atom_site_fract_x
 _atom_site_fract_y
 _atom_site_fract_z
 _atom_site_occupancy
  Li  Li0  1  0.000000  0.500000  0.500000  1
  Li  Li1  1  0.000000  0.000000  0.500000  1
  Li  Li2  1  0.500000  0.000000  0.500000  1
  Fe  Fe3  1  0.500000  0.500000  0.000000  1
  Ni  Ni4  1  0.000000  0.500000  0.000000  1
  Ni  Ni5  1  0.500000  0.000000  0.000000  1
  Ni  Ni6  1  0.000000  0.000000  0.000000  1
  O  O7  1  0.232584  0.236152  0.221531  1
  O  O8  1  0.738193  0.261807  0.222951  1
  O  O9  1  0.223796  0.776204  0.204117  1
  O  O10  1  0.763848  0.767416  0.221531  1
  O  O11  1  0.236152  0.232584  0.778469  1
  O  O12  1  0.776204  0.223796  0.795883  1
  O  O13  1  0.261807  0.738193  0.777049  1
  O  O14  1  0.767416  0.763848  0.778469  1
