# generated using pymatgen
data_LiMn3(BO3)3
_symmetry_space_group_name_H-M   'P 1'
_cell_length_a   5.29683991
_cell_length_b   5.79659442
_cell_length_c   13.12154748
_cell_angle_alpha   94.88597557
_cell_angle_beta   89.10883802
_cell_angle_gamma   112.53901266
_symmetry_Int_Tables_number   1
_chemical_formula_structural   LiMn3(BO3)3
_chemical_formula_sum   'Li2 Mn6 B6 O18'
_cell_volume   370.69061421
_cell_formula_units_Z   2
loop_
 _symmetry_equiv_pos_site_id
 _symmetry_equiv_pos_as_xyz
  1  'x, y, z'
loop_
 _atom_site_type_symbol
 _atom_site_label
 _atom_site_symmetry_multiplicity
 _atom_site_fract_x
 _atom_site_fract_y
 _atom_site_fract_z
 _atom_site_occupancy
  Li  Li0  1  0.647798  0.624788  0.795102  1
  Li  Li1  1  0.352202  0.375212  0.204898  1
  Mn  Mn2  1  0.562769  0.354921  0.583455  1
  Mn  Mn3  1  0.202214  0.686071  0.930089  1
  Mn  Mn4  1  0.842039  0.997315  0.257816  1
  Mn  Mn5  1  0.437231  0.645079  0.416545  1
  Mn  Mn6  1  0.157961  0.002685  0.742184  1
  Mn  Mn7  1  0.797786  0.313929  0.069911  1
  B  B8  1  0.389332  0.112419  0.365911  1
  B  B9  1  0.081691  0.460467  0.703949  1
  B  B10  1  0.734487  0.782883  0.023142  1
  B  B11  1  0.610668  0.887581  0.634089  1
  B  B12  1  0.265513  0.217117  0.976858  1
  B  B13  1  0.918309  0.539533  0.296051  1
  O  O14  1  0.570551  0.993292  0.382133  1
  O  O15  1  0.303671  0.387637  0.714180  1
  O  O16  1  0.929335  0.397133  0.616408  1
  O  O17  1  0.581271  0.714121  0.935415  1
  O  O18  1  0.384203  0.295369  0.442783  1
  O  O19  1  0.032540  0.614678  0.783440  1
  O  O20  1  0.730835  0.967617  0.096601  1
  O  O21  1  0.920472  0.670213  0.041040  1
  O  O22  1  0.070665  0.602867  0.383592  1
  O  O23  1  0.250136  0.074166  0.277139  1
  O  O24  1  0.429449  0.006708  0.617867  1
  O  O25  1  0.615797  0.704631  0.557217  1
  O  O26  1  0.269165  0.032383  0.903399  1
  O  O27  1  0.967460  0.385322  0.216560  1
  O  O28  1  0.749864  0.925834  0.722861  1
  O  O29  1  0.418729  0.285879  0.064585  1
  O  O30  1  0.079528  0.329787  0.958960  1
  O  O31  1  0.696329  0.612363  0.285820  1
