# generated using pymatgen
data_LiZn2Fe9O16
_symmetry_space_group_name_H-M   'P 1'
_cell_length_a   6.04743453
_cell_length_b   6.04743453
_cell_length_c   19.99603426
_cell_angle_alpha   81.51900401
_cell_angle_beta   98.48099599
_cell_angle_gamma   119.97586148
_symmetry_Int_Tables_number   1
_chemical_formula_structural   LiZn2Fe9O16
_chemical_formula_sum   'Li2 Zn4 Fe18 O32'
_cell_volume   624.20932381
_cell_formula_units_Z   2
loop_
 _symmetry_equiv_pos_site_id
 _symmetry_equiv_pos_as_xyz
  1  'x, y, z'
loop_
 _atom_site_type_symbol
 _atom_site_label
 _atom_site_symmetry_multiplicity
 _atom_site_fract_x
 _atom_site_fract_y
 _atom_site_fract_z
 _atom_site_occupancy
  Li  Li0  1  0.190483  0.809517  0.560168  1
  Li  Li1  1  0.941798  0.058202  0.813101  1
  Zn  Zn2  1  0.347457  0.652543  0.030795  1
  Zn  Zn3  1  0.223217  0.776783  0.156278  1
  Zn  Zn4  1  0.100183  0.899817  0.282792  1
  Zn  Zn5  1  0.976908  0.023092  0.408702  1
  Fe  Fe6  1  0.001650  0.998350  0.996198  1
  Fe  Fe7  1  0.217295  0.270987  0.156346  1
  Fe  Fe8  1  0.729013  0.782705  0.156346  1
  Fe  Fe9  1  0.695912  0.304088  0.065357  1
  Fe  Fe10  1  0.448413  0.551587  0.313581  1
  Fe  Fe11  1  0.750096  0.249904  0.250643  1
  Fe  Fe12  1  0.464515  0.019551  0.408095  1
  Fe  Fe13  1  0.980449  0.535485  0.408095  1
  Fe  Fe14  1  0.727178  0.786594  0.654808  1
  Fe  Fe15  1  0.848060  0.151940  0.534147  1
  Fe  Fe16  1  0.728552  0.271448  0.654756  1
  Fe  Fe17  1  0.498072  0.501928  0.501355  1
  Fe  Fe18  1  0.255026  0.744974  0.747671  1
  Fe  Fe19  1  0.965418  0.522971  0.903928  1
  Fe  Fe20  1  0.213406  0.272822  0.654808  1
  Fe  Fe21  1  0.475034  0.524966  0.903654  1
  Fe  Fe22  1  0.599638  0.400362  0.783139  1
  Fe  Fe23  1  0.477029  0.034582  0.903928  1
  O  O24  1  0.531824  0.942108  0.095681  1
  O  O25  1  0.530096  0.469904  0.097129  1
  O  O26  1  0.414125  0.585875  0.213419  1
  O  O27  1  0.031417  0.968583  0.095727  1
  O  O28  1  0.389591  0.086452  0.215745  1
  O  O29  1  0.913548  0.610409  0.215745  1
  O  O30  1  0.662428  0.860896  0.471775  1
  O  O31  1  0.794344  0.704788  0.346520  1
  O  O32  1  0.057892  0.468176  0.095681  1
  O  O33  1  0.286216  0.713784  0.348671  1
  O  O34  1  0.024706  0.975294  0.597416  1
  O  O35  1  0.164413  0.835587  0.459470  1
  O  O36  1  0.913946  0.086054  0.214379  1
  O  O37  1  0.784498  0.215502  0.349933  1
  O  O38  1  0.664871  0.335129  0.468160  1
  O  O39  1  0.139104  0.337572  0.471775  1
  O  O40  1  0.886500  0.575835  0.717831  1
  O  O41  1  0.295212  0.205656  0.346520  1
  O  O42  1  0.021972  0.433123  0.597085  1
  O  O43  1  0.566877  0.978028  0.597085  1
  O  O44  1  0.907521  0.092479  0.711035  1
  O  O45  1  0.164487  0.835513  0.962886  1
  O  O46  1  0.421155  0.578845  0.717145  1
  O  O47  1  0.537870  0.462130  0.600958  1
  O  O48  1  0.287168  0.712832  0.847441  1
  O  O49  1  0.158102  0.351932  0.961852  1
  O  O50  1  0.424165  0.113500  0.717831  1
  O  O51  1  0.648068  0.841898  0.961852  1
  O  O52  1  0.766515  0.674220  0.847630  1
  O  O53  1  0.325780  0.233485  0.847630  1
  O  O54  1  0.770317  0.229683  0.847629  1
  O  O55  1  0.658907  0.341093  0.965772  1
