# generated using pymatgen
data_NaH4Au(Br2O)2
_symmetry_space_group_name_H-M   'P 1'
_cell_length_a   7.60691978
_cell_length_b   9.49071832
_cell_length_c   13.41699180
_cell_angle_alpha   90.00000000
_cell_angle_beta   90.00000000
_cell_angle_gamma   90.00000000
_symmetry_Int_Tables_number   1
_chemical_formula_structural   NaH4Au(Br2O)2
_chemical_formula_sum   'Na4 H16 Au4 Br16 O8'
_cell_volume   968.64150632
_cell_formula_units_Z   4
loop_
 _symmetry_equiv_pos_site_id
 _symmetry_equiv_pos_as_xyz
  1  'x, y, z'
loop_
 _atom_site_type_symbol
 _atom_site_label
 _atom_site_symmetry_multiplicity
 _atom_site_fract_x
 _atom_site_fract_y
 _atom_site_fract_z
 _atom_site_occupancy
  Na  Na0  1  0.750000  0.042461  0.014978  1
  Na  Na1  1  0.250000  0.542461  0.485022  1
  Na  Na2  1  0.750000  0.457539  0.514978  1
  Na  Na3  1  0.250000  0.957539  0.985022  1
  H  H4  1  0.507239  0.865638  0.132511  1
  H  H5  1  0.992761  0.865638  0.132511  1
  H  H6  1  0.022037  0.015837  0.174890  1
  H  H7  1  0.477963  0.015837  0.174890  1
  H  H8  1  0.977963  0.515837  0.325110  1
  H  H9  1  0.522037  0.515837  0.325110  1
  H  H10  1  0.007239  0.365638  0.367489  1
  H  H11  1  0.492761  0.365638  0.367489  1
  H  H12  1  0.992761  0.634362  0.632511  1
  H  H13  1  0.507239  0.634362  0.632511  1
  H  H14  1  0.022037  0.484163  0.674890  1
  H  H15  1  0.477963  0.484163  0.674890  1
  H  H16  1  0.977963  0.984163  0.825110  1
  H  H17  1  0.522037  0.984163  0.825110  1
  H  H18  1  0.492761  0.134362  0.867489  1
  H  H19  1  0.007239  0.134362  0.867489  1
  Au  Au20  1  0.750000  0.511826  0.063071  1
  Au  Au21  1  0.250000  0.011826  0.436929  1
  Au  Au22  1  0.750000  0.988174  0.563071  1
  Au  Au23  1  0.250000  0.488174  0.936929  1
  Br  Br24  1  0.250000  0.278257  0.046259  1
  Br  Br25  1  0.250000  0.642184  0.086736  1
  Br  Br26  1  0.750000  0.301595  0.172980  1
  Br  Br27  1  0.750000  0.667968  0.211910  1
  Br  Br28  1  0.250000  0.167968  0.288090  1
  Br  Br29  1  0.250000  0.801595  0.327020  1
  Br  Br30  1  0.750000  0.142184  0.413264  1
  Br  Br31  1  0.750000  0.778257  0.453741  1
  Br  Br32  1  0.250000  0.221743  0.546259  1
  Br  Br33  1  0.250000  0.857816  0.586736  1
  Br  Br34  1  0.750000  0.198405  0.672980  1
  Br  Br35  1  0.750000  0.832032  0.711910  1
  Br  Br36  1  0.250000  0.332032  0.788090  1
  Br  Br37  1  0.250000  0.698405  0.827020  1
  Br  Br38  1  0.750000  0.357816  0.913264  1
  Br  Br39  1  0.750000  0.721743  0.953741  1
  O  O40  1  0.498845  0.965243  0.112746  1
  O  O41  1  0.001155  0.965243  0.112746  1
  O  O42  1  0.998845  0.465243  0.387254  1
  O  O43  1  0.501155  0.465243  0.387254  1
  O  O44  1  0.498845  0.534757  0.612746  1
  O  O45  1  0.001155  0.534757  0.612746  1
  O  O46  1  0.998845  0.034757  0.887254  1
  O  O47  1  0.501155  0.034757  0.887254  1
