# generated using pymatgen
data_Li7CrO6
_symmetry_space_group_name_H-M   'P 1'
_cell_length_a   5.58863757
_cell_length_b   5.58863757
_cell_length_c   10.73392004
_cell_angle_alpha   89.97812402
_cell_angle_beta   90.02187598
_cell_angle_gamma   119.38487366
_symmetry_Int_Tables_number   1
_chemical_formula_structural   Li7CrO6
_chemical_formula_sum   'Li14 Cr2 O12'
_cell_volume   292.11882247
_cell_formula_units_Z   2
loop_
 _symmetry_equiv_pos_site_id
 _symmetry_equiv_pos_as_xyz
  1  'x, y, z'
loop_
 _atom_site_type_symbol
 _atom_site_label
 _atom_site_symmetry_multiplicity
 _atom_site_fract_x
 _atom_site_fract_y
 _atom_site_fract_z
 _atom_site_occupancy
  Li  Li0  1  0.378637  0.000479  0.258905  1
  Li  Li1  1  0.387111  0.999049  0.861915  1
  Li  Li2  1  0.293099  0.319575  0.738311  1
  Li  Li3  1  0.708881  0.026033  0.741635  1
  Li  Li4  1  0.385920  0.386418  0.363254  1
  Li  Li5  1  0.652427  0.333874  0.592922  1
  Li  Li6  1  0.312063  0.650268  0.091986  1
  Li  Li7  1  0.666126  0.347573  0.092922  1
  Li  Li8  1  0.349732  0.687937  0.591986  1
  Li  Li9  1  0.613582  0.614080  0.863254  1
  Li  Li10  1  0.973967  0.291119  0.241635  1
  Li  Li11  1  0.680425  0.706901  0.238311  1
  Li  Li12  1  0.000951  0.612889  0.361915  1
  Li  Li13  1  0.999521  0.621363  0.758905  1
  Cr  Cr14  1  0.991383  0.994725  0.501991  1
  Cr  Cr15  1  0.005275  0.008617  0.001991  1
  O  O16  1  0.296332  0.997805  0.047907  1
  O  O17  1  0.287547  0.296635  0.548496  1
  O  O18  1  0.715289  0.016035  0.553589  1
  O  O19  1  0.637316  0.324812  0.774834  1
  O  O20  1  0.311000  0.636975  0.273737  1
  O  O21  1  0.003748  0.980936  0.838673  1
  O  O22  1  0.019064  0.996252  0.338673  1
  O  O23  1  0.675188  0.362684  0.274834  1
  O  O24  1  0.363025  0.689000  0.773737  1
  O  O25  1  0.983965  0.284711  0.053589  1
  O  O26  1  0.703365  0.712453  0.048496  1
  O  O27  1  0.002195  0.703668  0.547907  1
