# generated using pymatgen
data_LiAgF4
_symmetry_space_group_name_H-M   'P 1'
_cell_length_a   6.44723915
_cell_length_b   6.44723915
_cell_length_c   5.56197029
_cell_angle_alpha   73.68536675
_cell_angle_beta   106.31463325
_cell_angle_gamma   126.67754655
_symmetry_Int_Tables_number   1
_chemical_formula_structural   LiAgF4
_chemical_formula_sum   'Li2 Ag2 F8'
_cell_volume   176.02128426
_cell_formula_units_Z   2
loop_
 _symmetry_equiv_pos_site_id
 _symmetry_equiv_pos_as_xyz
  1  'x, y, z'
loop_
 _atom_site_type_symbol
 _atom_site_label
 _atom_site_symmetry_multiplicity
 _atom_site_fract_x
 _atom_site_fract_y
 _atom_site_fract_z
 _atom_site_occupancy
  Li  Li0  1  0.103872  0.103872  0.750000  1
  Li  Li1  1  0.896128  0.896128  0.250000  1
  Ag  Ag2  1  0.000000  0.500000  0.000000  1
  Ag  Ag3  1  0.500000  1.000000  0.500000  1
  F  F4  1  0.267327  0.562944  0.297301  1
  F  F5  1  0.028206  0.816650  0.030526  1
  F  F6  1  0.183350  0.971794  0.530526  1
  F  F7  1  0.437056  0.732673  0.797301  1
  F  F8  1  0.562944  0.267327  0.202699  1
  F  F9  1  0.816650  0.028206  0.469474  1
  F  F10  1  0.971794  0.183350  0.969474  1
  F  F11  1  0.732673  0.437056  0.702699  1
