# generated using pymatgen
data_LiVSn3(PO4)6
_symmetry_space_group_name_H-M   'P 1'
_cell_length_a   8.90539180
_cell_length_b   8.90539180
_cell_length_c   8.90539180
_cell_angle_alpha   58.57688534
_cell_angle_beta   58.57688534
_cell_angle_gamma   58.57688534
_symmetry_Int_Tables_number   1
_chemical_formula_structural   LiVSn3(PO4)6
_chemical_formula_sum   'Li1 V1 Sn3 P6 O24'
_cell_volume   483.14414141
_cell_formula_units_Z   1
loop_
 _symmetry_equiv_pos_site_id
 _symmetry_equiv_pos_as_xyz
  1  'x, y, z'
loop_
 _atom_site_type_symbol
 _atom_site_label
 _atom_site_symmetry_multiplicity
 _atom_site_fract_x
 _atom_site_fract_y
 _atom_site_fract_z
 _atom_site_occupancy
  Li  Li0  1  0.000327  0.000327  0.000327  1
  V  V1  1  0.145307  0.145307  0.145307  1
  Sn  Sn2  1  0.854113  0.854113  0.854113  1
  Sn  Sn3  1  0.641011  0.641011  0.641011  1
  Sn  Sn4  1  0.358156  0.358156  0.358156  1
  P  P5  1  0.248293  0.537420  0.963995  1
  P  P6  1  0.963995  0.248293  0.537420  1
  P  P7  1  0.537420  0.963995  0.248293  1
  P  P8  1  0.453212  0.038876  0.757252  1
  P  P9  1  0.038876  0.757252  0.453212  1
  P  P10  1  0.757252  0.453212  0.038876  1
  O  O11  1  0.736821  0.474632  0.866657  1
  O  O12  1  0.474632  0.866657  0.736821  1
  O  O13  1  0.080267  0.722574  0.940162  1
  O  O14  1  0.866657  0.736821  0.474632  1
  O  O15  1  0.420390  0.544491  0.785515  1
  O  O16  1  0.201152  0.367566  0.009442  1
  O  O17  1  0.940162  0.080267  0.722574  1
  O  O18  1  0.785515  0.420390  0.544491  1
  O  O19  1  0.544491  0.785515  0.420390  1
  O  O20  1  0.618984  0.013650  0.789456  1
  O  O21  1  0.270632  0.068388  0.931823  1
  O  O22  1  0.013650  0.789456  0.618984  1
  O  O23  1  0.009442  0.201152  0.367566  1
  O  O24  1  0.722574  0.940162  0.080267  1
  O  O25  1  0.367566  0.009442  0.201152  1
  O  O26  1  0.426009  0.219516  0.591627  1
  O  O27  1  0.219516  0.591627  0.426009  1
  O  O28  1  0.068388  0.931823  0.270632  1
  O  O29  1  0.789456  0.618984  0.013650  1
  O  O30  1  0.591627  0.426009  0.219516  1
  O  O31  1  0.128923  0.279472  0.513890  1
  O  O32  1  0.931823  0.270632  0.068388  1
  O  O33  1  0.513890  0.128923  0.279472  1
  O  O34  1  0.279472  0.513890  0.128923  1
