# generated using pymatgen
data_CoTeO4
_symmetry_space_group_name_H-M   'P 1'
_cell_length_a   5.19262870
_cell_length_b   3.09290457
_cell_length_c   5.47412580
_cell_angle_alpha   90.00000000
_cell_angle_beta   111.03949727
_cell_angle_gamma   90.00000000
_symmetry_Int_Tables_number   1
_chemical_formula_structural   CoTeO4
_chemical_formula_sum   'Co1 Te1 O4'
_cell_volume   82.05503959
_cell_formula_units_Z   1
loop_
 _symmetry_equiv_pos_site_id
 _symmetry_equiv_pos_as_xyz
  1  'x, y, z'
loop_
 _atom_site_type_symbol
 _atom_site_label
 _atom_site_symmetry_multiplicity
 _atom_site_fract_x
 _atom_site_fract_y
 _atom_site_fract_z
 _atom_site_occupancy
  Co  Co0  1  0.500000  0.500000  0.000000  1
  Te  Te1  1  0.500000  0.000000  0.500000  1
  O  O2  1  0.683900  0.000000  0.253112  1
  O  O3  1  0.725588  0.500000  0.714677  1
  O  O4  1  0.316100  0.000000  0.746888  1
  O  O5  1  0.274412  0.500000  0.285323  1
