# generated using pymatgen
data_V4O7F5
_symmetry_space_group_name_H-M   'P 1'
_cell_length_a   5.26107707
_cell_length_b   5.37429263
_cell_length_c   7.35116581
_cell_angle_alpha   88.32222850
_cell_angle_beta   89.94147910
_cell_angle_gamma   89.56545118
_symmetry_Int_Tables_number   1
_chemical_formula_structural   V4O7F5
_chemical_formula_sum   'V4 O7 F5'
_cell_volume   207.75588682
_cell_formula_units_Z   1
loop_
 _symmetry_equiv_pos_site_id
 _symmetry_equiv_pos_as_xyz
  1  'x, y, z'
loop_
 _atom_site_type_symbol
 _atom_site_label
 _atom_site_symmetry_multiplicity
 _atom_site_fract_x
 _atom_site_fract_y
 _atom_site_fract_z
 _atom_site_occupancy
  V  V0  1  0.500645  0.532046  0.468011  1
  V  V1  1  0.465904  0.465302  0.976168  1
  V  V2  1  0.020586  0.005887  0.527067  1
  V  V3  1  0.956864  0.974601  0.023553  1
  O  O4  1  0.927067  0.997946  0.251140  1
  O  O5  1  0.720649  0.786620  0.967673  1
  O  O6  1  0.577027  0.500399  0.248628  1
  O  O7  1  0.429701  0.496038  0.749897  1
  O  O8  1  0.305289  0.784592  0.461305  1
  O  O9  1  0.289923  0.218628  0.033616  1
  O  O10  1  0.074191  0.002435  0.752282  1
  F  F11  1  0.798675  0.703603  0.544192  1
  F  F12  1  0.793739  0.292423  0.959350  1
  F  F13  1  0.709558  0.218951  0.536633  1
  F  F14  1  0.217013  0.715243  0.044856  1
  F  F15  1  0.213169  0.305285  0.455630  1
