# generated using pymatgen
data_LiP2WO8
_symmetry_space_group_name_H-M   'P 1'
_cell_length_a   5.02887900
_cell_length_b   13.02663412
_cell_length_c   11.17973999
_cell_angle_alpha   90.00000000
_cell_angle_beta   109.01882211
_cell_angle_gamma   90.00000000
_symmetry_Int_Tables_number   1
_chemical_formula_structural   LiP2WO8
_chemical_formula_sum   'Li4 P8 W4 O32'
_cell_volume   692.39834189
_cell_formula_units_Z   4
loop_
 _symmetry_equiv_pos_site_id
 _symmetry_equiv_pos_as_xyz
  1  'x, y, z'
loop_
 _atom_site_type_symbol
 _atom_site_label
 _atom_site_symmetry_multiplicity
 _atom_site_fract_x
 _atom_site_fract_y
 _atom_site_fract_z
 _atom_site_occupancy
  Li  Li0  1  0.910237  0.881175  0.529307  1
  Li  Li1  1  0.089763  0.381175  0.970693  1
  Li  Li2  1  0.910237  0.618825  0.029307  1
  Li  Li3  1  0.089763  0.118825  0.470693  1
  P  P4  1  0.305768  0.085347  0.117642  1
  P  P5  1  0.419474  0.753754  0.211094  1
  P  P6  1  0.580526  0.253754  0.288906  1
  P  P7  1  0.694232  0.585347  0.382358  1
  P  P8  1  0.305768  0.414653  0.617642  1
  P  P9  1  0.419474  0.746246  0.711094  1
  P  P10  1  0.580526  0.246246  0.788906  1
  P  P11  1  0.694232  0.914653  0.882358  1
  W  W12  1  0.903277  0.574185  0.709965  1
  W  W13  1  0.096723  0.074185  0.790035  1
  W  W14  1  0.903277  0.925815  0.209965  1
  W  W15  1  0.096723  0.425815  0.290035  1
  O  O16  1  0.268927  0.843853  0.251037  1
  O  O17  1  0.333736  0.294333  0.329800  1
  O  O18  1  0.448484  0.512752  0.364889  1
  O  O19  1  0.243802  0.677595  0.120941  1
  O  O20  1  0.864589  0.942651  0.794647  1
  O  O21  1  0.915803  0.564131  0.870747  1
  O  O22  1  0.119404  0.093316  0.979667  1
  O  O23  1  0.578502  0.699739  0.348195  1
  O  O24  1  0.421498  0.199739  0.151805  1
  O  O25  1  0.756198  0.177595  0.379059  1
  O  O26  1  0.880596  0.593316  0.520333  1
  O  O27  1  0.551516  0.012752  0.135111  1
  O  O28  1  0.084197  0.064131  0.629253  1
  O  O29  1  0.666264  0.794333  0.170200  1
  O  O30  1  0.731073  0.343853  0.248963  1
  O  O31  1  0.135411  0.442651  0.705353  1
  O  O32  1  0.864589  0.557349  0.294647  1
  O  O33  1  0.268927  0.656147  0.751037  1
  O  O34  1  0.333736  0.205667  0.829800  1
  O  O35  1  0.915803  0.935869  0.370747  1
  O  O36  1  0.448484  0.987248  0.864889  1
  O  O37  1  0.119404  0.406684  0.479667  1
  O  O38  1  0.243802  0.822405  0.620941  1
  O  O39  1  0.578502  0.800261  0.848195  1
  O  O40  1  0.421498  0.300261  0.651805  1
  O  O41  1  0.880596  0.906684  0.020333  1
  O  O42  1  0.084197  0.435869  0.129253  1
  O  O43  1  0.135411  0.057349  0.205353  1
  O  O44  1  0.756198  0.322405  0.879059  1
  O  O45  1  0.551516  0.487248  0.635111  1
  O  O46  1  0.666264  0.705667  0.670200  1
  O  O47  1  0.731073  0.156147  0.748963  1
