# generated using pymatgen
data_BaCa2I6
_symmetry_space_group_name_H-M   'P 1'
_cell_length_a   9.39660532
_cell_length_b   10.37662530
_cell_length_c   17.50973417
_cell_angle_alpha   90.00000000
_cell_angle_beta   114.34557205
_cell_angle_gamma   90.00000000
_symmetry_Int_Tables_number   1
_chemical_formula_structural   BaCa2I6
_chemical_formula_sum   'Ba4 Ca8 I24'
_cell_volume   1555.46815939
_cell_formula_units_Z   4
loop_
 _symmetry_equiv_pos_site_id
 _symmetry_equiv_pos_as_xyz
  1  'x, y, z'
loop_
 _atom_site_type_symbol
 _atom_site_label
 _atom_site_symmetry_multiplicity
 _atom_site_fract_x
 _atom_site_fract_y
 _atom_site_fract_z
 _atom_site_occupancy
  Ba  Ba0  1  0.096141  0.180250  0.912765  1
  Ba  Ba1  1  0.903859  0.680250  0.587235  1
  Ba  Ba2  1  0.096141  0.319750  0.412765  1
  Ba  Ba3  1  0.903859  0.819750  0.087235  1
  Ca  Ca4  1  0.675962  0.152056  0.575128  1
  Ca  Ca5  1  0.403414  0.540157  0.226842  1
  Ca  Ca6  1  0.596586  0.040157  0.273158  1
  Ca  Ca7  1  0.324038  0.652056  0.924872  1
  Ca  Ca8  1  0.675962  0.347944  0.075128  1
  Ca  Ca9  1  0.403414  0.959843  0.726842  1
  Ca  Ca10  1  0.596586  0.459843  0.773158  1
  Ca  Ca11  1  0.324038  0.847944  0.424872  1
  I  I12  1  0.081586  0.845803  0.944258  1
  I  I13  1  0.310338  0.837231  0.224828  1
  I  I14  1  0.393081  0.149701  0.375681  1
  I  I15  1  0.223172  0.463908  0.037953  1
  I  I16  1  0.537474  0.609034  0.417051  1
  I  I17  1  0.925496  0.523553  0.774429  1
  I  I18  1  0.074504  0.023553  0.725571  1
  I  I19  1  0.776828  0.963908  0.462047  1
  I  I20  1  0.462526  0.109034  0.082949  1
  I  I21  1  0.606919  0.649701  0.124319  1
  I  I22  1  0.689662  0.337231  0.275172  1
  I  I23  1  0.918414  0.345803  0.555742  1
  I  I24  1  0.081586  0.654197  0.444258  1
  I  I25  1  0.310338  0.662769  0.724828  1
  I  I26  1  0.393081  0.350299  0.875681  1
  I  I27  1  0.537474  0.890966  0.917051  1
  I  I28  1  0.223172  0.036092  0.537953  1
  I  I29  1  0.925496  0.976447  0.274429  1
  I  I30  1  0.074504  0.476447  0.225571  1
  I  I31  1  0.462526  0.390966  0.582949  1
  I  I32  1  0.776828  0.536092  0.962047  1
  I  I33  1  0.606919  0.850299  0.624319  1
  I  I34  1  0.689662  0.162769  0.775172  1
  I  I35  1  0.918414  0.154197  0.055742  1
