# generated using pymatgen
data_LiTi2(PO4)3
_symmetry_space_group_name_H-M   'P 1'
_cell_length_a   8.38986204
_cell_length_b   8.40391175
_cell_length_c   8.97651959
_cell_angle_alpha   62.12486821
_cell_angle_beta   62.18678365
_cell_angle_gamma   60.13242644
_symmetry_Int_Tables_number   1
_chemical_formula_structural   LiTi2(PO4)3
_chemical_formula_sum   'Li2 Ti4 P6 O24'
_cell_volume   462.05774606
_cell_formula_units_Z   2
loop_
 _symmetry_equiv_pos_site_id
 _symmetry_equiv_pos_as_xyz
  1  'x, y, z'
loop_
 _atom_site_type_symbol
 _atom_site_label
 _atom_site_symmetry_multiplicity
 _atom_site_fract_x
 _atom_site_fract_y
 _atom_site_fract_z
 _atom_site_occupancy
  Li  Li0  1  0.316173  0.739468  0.867855  1
  Li  Li1  1  0.743486  0.074282  0.872082  1
  Ti  Ti2  1  0.857394  0.854455  0.428263  1
  Ti  Ti3  1  0.342527  0.348327  0.944834  1
  Ti  Ti4  1  0.650066  0.639997  0.062414  1
  Ti  Ti5  1  0.145476  0.150634  0.561970  1
  P  P6  1  0.249138  0.539962  0.245843  1
  P  P7  1  0.031392  0.752944  0.749803  1
  P  P8  1  0.467350  0.028945  0.749477  1
  P  P9  1  0.536084  0.966251  0.246285  1
  P  P10  1  0.964838  0.245417  0.252705  1
  P  P11  1  0.749617  0.465381  0.754212  1
  O  O12  1  0.476301  0.832804  0.898208  1
  O  O13  1  0.777177  0.486768  0.902128  1
  O  O14  1  0.206102  0.375424  0.415524  1
  O  O15  1  0.102108  0.733363  0.273714  1
  O  O16  1  0.270125  0.112881  0.719461  1
  O  O17  1  0.832273  0.793524  0.896044  1
  O  O18  1  0.009512  0.792343  0.575676  1
  O  O19  1  0.456299  0.526416  0.201107  1
  O  O20  1  0.171816  0.542898  0.809263  1
  O  O21  1  0.629897  0.001073  0.578347  1
  O  O22  1  0.119294  0.889188  0.731445  1
  O  O23  1  0.486065  0.167976  0.805024  1
  O  O24  1  0.528279  0.818163  0.196012  1
  O  O25  1  0.890847  0.100272  0.276188  1
  O  O26  1  0.368368  0.003755  0.414268  1
  O  O27  1  0.823628  0.454615  0.197141  1
  O  O28  1  0.536893  0.485165  0.804138  1
  O  O29  1  0.990521  0.207450  0.427157  1
  O  O30  1  0.729042  0.888500  0.278811  1
  O  O31  1  0.163854  0.223920  0.105261  1
  O  O32  1  0.883605  0.260822  0.734805  1
  O  O33  1  0.798167  0.620203  0.579067  1
  O  O34  1  0.233408  0.527265  0.086311  1
  O  O35  1  0.528826  0.155079  0.086381  1
