# generated using pymatgen
data_LiAg2F6
_symmetry_space_group_name_H-M   'P 1'
_cell_length_a   9.28564435
_cell_length_b   9.28564435
_cell_length_c   4.82296159
_cell_angle_alpha   90.00000000
_cell_angle_beta   90.00000000
_cell_angle_gamma   120.00000000
_symmetry_Int_Tables_number   1
_chemical_formula_structural   LiAg2F6
_chemical_formula_sum   'Li3 Ag6 F18'
_cell_volume   360.13765039
_cell_formula_units_Z   3
loop_
 _symmetry_equiv_pos_site_id
 _symmetry_equiv_pos_as_xyz
  1  'x, y, z'
loop_
 _atom_site_type_symbol
 _atom_site_label
 _atom_site_symmetry_multiplicity
 _atom_site_fract_x
 _atom_site_fract_y
 _atom_site_fract_z
 _atom_site_occupancy
  Li  Li0  1  0.666667  0.333333  0.485373  1
  Li  Li1  1  0.000000  0.000000  0.000000  1
  Li  Li2  1  0.333333  0.666667  0.514627  1
  Ag  Ag3  1  0.305284  0.000000  0.500000  1
  Ag  Ag4  1  0.637672  0.000000  0.000000  1
  Ag  Ag5  1  0.000000  0.637672  0.000000  1
  Ag  Ag6  1  0.000000  0.305284  0.500000  1
  Ag  Ag7  1  0.362328  0.362328  0.000000  1
  Ag  Ag8  1  0.694716  0.694716  0.500000  1
  F  F9  1  0.215785  0.113868  0.761920  1
  F  F10  1  0.456400  0.257396  0.257811  1
  F  F11  1  0.594277  0.479757  0.727671  1
  F  F12  1  0.520243  0.114520  0.727671  1
  F  F13  1  0.898083  0.784215  0.761920  1
  F  F14  1  0.800996  0.543600  0.257811  1
  F  F15  1  0.742604  0.199004  0.257811  1
  F  F16  1  0.101917  0.886132  0.238080  1
  F  F17  1  0.885480  0.405723  0.727671  1
  F  F18  1  0.199004  0.742604  0.742189  1
  F  F19  1  0.886132  0.101917  0.761920  1
  F  F20  1  0.114520  0.520243  0.272329  1
  F  F21  1  0.405723  0.885480  0.272329  1
  F  F22  1  0.113868  0.215785  0.238080  1
  F  F23  1  0.257396  0.456400  0.742189  1
  F  F24  1  0.543600  0.800996  0.742189  1
  F  F25  1  0.479757  0.594277  0.272329  1
  F  F26  1  0.784215  0.898083  0.238080  1
