# generated using pymatgen
data_MnFe2Sb2(PO4)6
_symmetry_space_group_name_H-M   'P 1'
_cell_length_a   8.82031251
_cell_length_b   8.82031251
_cell_length_c   8.82031251
_cell_angle_alpha   57.99494849
_cell_angle_beta   57.99494849
_cell_angle_gamma   57.99494849
_symmetry_Int_Tables_number   1
_chemical_formula_structural   MnFe2Sb2(PO4)6
_chemical_formula_sum   'Mn1 Fe2 Sb2 P6 O24'
_cell_volume   462.90049394
_cell_formula_units_Z   1
loop_
 _symmetry_equiv_pos_site_id
 _symmetry_equiv_pos_as_xyz
  1  'x, y, z'
loop_
 _atom_site_type_symbol
 _atom_site_label
 _atom_site_symmetry_multiplicity
 _atom_site_fract_x
 _atom_site_fract_y
 _atom_site_fract_z
 _atom_site_occupancy
  Mn  Mn0  1  0.000000  0.000000  0.000000  1
  Fe  Fe1  1  0.146681  0.146681  0.146681  1
  Fe  Fe2  1  0.853319  0.853319  0.853319  1
  Sb  Sb3  1  0.644247  0.644247  0.644247  1
  Sb  Sb4  1  0.355753  0.355753  0.355753  1
  P  P5  1  0.962804  0.243933  0.545881  1
  P  P6  1  0.545881  0.962804  0.243933  1
  P  P7  1  0.243933  0.545881  0.962804  1
  P  P8  1  0.756067  0.454119  0.037196  1
  P  P9  1  0.454119  0.037196  0.756067  1
  P  P10  1  0.037196  0.756067  0.454119  1
  O  O11  1  0.524654  0.150501  0.245232  1
  O  O12  1  0.473349  0.196466  0.554812  1
  O  O13  1  0.196466  0.554812  0.473349  1
  O  O14  1  0.192235  0.389524  0.995125  1
  O  O15  1  0.554812  0.473349  0.196466  1
  O  O16  1  0.245232  0.524654  0.150501  1
  O  O17  1  0.995125  0.192235  0.389524  1
  O  O18  1  0.150501  0.245232  0.524654  1
  O  O19  1  0.092921  0.898230  0.250302  1
  O  O20  1  0.898230  0.250302  0.092921  1
  O  O21  1  0.250302  0.092921  0.898230  1
  O  O22  1  0.610476  0.004875  0.807765  1
  O  O23  1  0.389524  0.995125  0.192235  1
  O  O24  1  0.749698  0.907079  0.101770  1
  O  O25  1  0.101770  0.749698  0.907079  1
  O  O26  1  0.907079  0.101770  0.749698  1
  O  O27  1  0.849499  0.754768  0.475346  1
  O  O28  1  0.004875  0.807765  0.610476  1
  O  O29  1  0.754768  0.475346  0.849499  1
  O  O30  1  0.445188  0.526651  0.803534  1
  O  O31  1  0.807765  0.610476  0.004875  1
  O  O32  1  0.803534  0.445188  0.526651  1
  O  O33  1  0.526651  0.803534  0.445188  1
  O  O34  1  0.475346  0.849499  0.754768  1
