# generated using pymatgen
data_Mn4O7F
_symmetry_space_group_name_H-M   'P 1'
_cell_length_a   6.98417378
_cell_length_b   4.95299521
_cell_length_c   7.11140018
_cell_angle_alpha   90.00000000
_cell_angle_beta   101.65323137
_cell_angle_gamma   90.00000000
_symmetry_Int_Tables_number   1
_chemical_formula_structural   Mn4O7F
_chemical_formula_sum   'Mn8 O14 F2'
_cell_volume   240.93109121
_cell_formula_units_Z   2
loop_
 _symmetry_equiv_pos_site_id
 _symmetry_equiv_pos_as_xyz
  1  'x, y, z'
loop_
 _atom_site_type_symbol
 _atom_site_label
 _atom_site_symmetry_multiplicity
 _atom_site_fract_x
 _atom_site_fract_y
 _atom_site_fract_z
 _atom_site_occupancy
  Mn  Mn0  1  0.581068  0.511578  0.922855  1
  Mn  Mn1  1  0.928931  0.992771  0.574441  1
  Mn  Mn2  1  0.071807  0.504981  0.927625  1
  Mn  Mn3  1  0.419806  0.973780  0.562448  1
  Mn  Mn4  1  0.581068  0.488422  0.422855  1
  Mn  Mn5  1  0.928931  0.007229  0.074441  1
  Mn  Mn6  1  0.419806  0.026220  0.062448  1
  Mn  Mn7  1  0.071807  0.495019  0.427625  1
  O  O8  1  0.935594  0.177947  0.829503  1
  O  O9  1  0.832035  0.683496  0.941294  1
  O  O10  1  0.326618  0.344240  0.939800  1
  O  O11  1  0.935594  0.822053  0.329503  1
  O  O12  1  0.832035  0.316504  0.441294  1
  O  O13  1  0.438436  0.836196  0.825689  1
  O  O14  1  0.673307  0.814123  0.566306  1
  O  O15  1  0.438436  0.163804  0.325689  1
  O  O16  1  0.326618  0.655760  0.439800  1
  O  O17  1  0.673307  0.185877  0.066306  1
  O  O18  1  0.062740  0.667185  0.672017  1
  O  O19  1  0.173774  0.163408  0.561572  1
  O  O20  1  0.062740  0.332815  0.172017  1
  O  O21  1  0.173774  0.836592  0.061572  1
  F  F22  1  0.555885  0.293071  0.676449  1
  F  F23  1  0.555885  0.706929  0.176449  1
