# generated using pymatgen
data_MnFeCo(PO4)3
_symmetry_space_group_name_H-M   'P 1'
_cell_length_a   9.90339511
_cell_length_b   5.95322843
_cell_length_c   14.59200341
_cell_angle_alpha   90.00000000
_cell_angle_beta   90.05930287
_cell_angle_gamma   90.00000000
_symmetry_Int_Tables_number   1
_chemical_formula_structural   MnFeCo(PO4)3
_chemical_formula_sum   'Mn4 Fe4 Co4 P12 O48'
_cell_volume   860.30281354
_cell_formula_units_Z   4
loop_
 _symmetry_equiv_pos_site_id
 _symmetry_equiv_pos_as_xyz
  1  'x, y, z'
loop_
 _atom_site_type_symbol
 _atom_site_label
 _atom_site_symmetry_multiplicity
 _atom_site_fract_x
 _atom_site_fract_y
 _atom_site_fract_z
 _atom_site_occupancy
  Mn  Mn0  1  0.219334  0.500000  0.148336  1
  Mn  Mn1  1  0.282886  0.000000  0.646485  1
  Mn  Mn2  1  0.283515  0.000000  0.313795  1
  Mn  Mn3  1  0.719468  0.500000  0.018664  1
  Fe  Fe4  1  0.221652  0.500000  0.819572  1
  Fe  Fe5  1  0.223398  0.500000  0.488284  1
  Fe  Fe6  1  0.273138  0.000000  0.986986  1
  Fe  Fe7  1  0.726423  0.500000  0.345084  1
  Co  Co8  1  0.718661  0.500000  0.684455  1
  Co  Co9  1  0.786607  0.000000  0.852788  1
  Co  Co10  1  0.770219  0.000000  0.178049  1
  Co  Co11  1  0.781018  0.000000  0.518626  1
  P  P12  1  0.096585  0.000000  0.804009  1
  P  P13  1  0.099067  0.000000  0.472219  1
  P  P14  1  0.095472  0.000000  0.139624  1
  P  P15  1  0.400632  0.500000  0.973517  1
  P  P16  1  0.404153  0.500000  0.639143  1
  P  P17  1  0.402118  0.500000  0.305293  1
  P  P18  1  0.598179  0.000000  0.692889  1
  P  P19  1  0.599152  0.000000  0.025922  1
  P  P20  1  0.600142  0.000000  0.363224  1
  P  P21  1  0.902126  0.500000  0.858588  1
  P  P22  1  0.901822  0.500000  0.529671  1
  P  P23  1  0.901370  0.500000  0.193937  1
  O  O24  1  0.050686  0.500000  0.885837  1
  O  O25  1  0.051235  0.500000  0.554311  1
  O  O26  1  0.053926  0.500000  0.214873  1
  O  O27  1  0.116178  0.000000  0.908567  1
  O  O28  1  0.118729  0.000000  0.577627  1
  O  O29  1  0.118158  0.000000  0.243483  1
  O  O30  1  0.169843  0.204863  0.758424  1
  O  O31  1  0.169843  0.795137  0.758424  1
  O  O32  1  0.171079  0.204846  0.426119  1
  O  O33  1  0.171079  0.795154  0.426119  1
  O  O34  1  0.170188  0.198462  0.088913  1
  O  O35  1  0.170188  0.801538  0.088913  1
  O  O36  1  0.327377  0.701481  0.925144  1
  O  O37  1  0.327377  0.298519  0.925144  1
  O  O38  1  0.328691  0.698793  0.589340  1
  O  O39  1  0.328691  0.301207  0.589340  1
  O  O40  1  0.328573  0.701534  0.256459  1
  O  O41  1  0.328573  0.298466  0.256459  1
  O  O42  1  0.382348  0.500000  0.742418  1
  O  O43  1  0.380743  0.500000  0.408897  1
  O  O44  1  0.382108  0.500000  0.078265  1
  O  O45  1  0.447233  0.000000  0.718468  1
  O  O46  1  0.448716  0.000000  0.048731  1
  O  O47  1  0.447909  0.000000  0.383896  1
  O  O48  1  0.552487  0.500000  0.951993  1
  O  O49  1  0.553249  0.500000  0.282571  1
  O  O50  1  0.554441  0.500000  0.614117  1
  O  O51  1  0.619752  0.000000  0.922524  1
  O  O52  1  0.614638  0.000000  0.588808  1
  O  O53  1  0.623152  0.000000  0.257849  1
  O  O54  1  0.671350  0.204626  0.740864  1
  O  O55  1  0.671350  0.795374  0.740864  1
  O  O56  1  0.672048  0.203375  0.409908  1
  O  O57  1  0.672048  0.796625  0.409908  1
  O  O58  1  0.673681  0.199618  0.077308  1
  O  O59  1  0.673681  0.800382  0.077308  1
  O  O60  1  0.826376  0.703833  0.577378  1
  O  O61  1  0.826376  0.296167  0.577378  1
  O  O62  1  0.825964  0.702892  0.905918  1
  O  O63  1  0.825964  0.297108  0.905918  1
  O  O64  1  0.830129  0.700902  0.243454  1
  O  O65  1  0.830129  0.299098  0.243454  1
  O  O66  1  0.885345  0.500000  0.754063  1
  O  O67  1  0.881088  0.500000  0.426306  1
  O  O68  1  0.883092  0.500000  0.088697  1
  O  O69  1  0.945579  0.000000  0.779384  1
  O  O70  1  0.947284  0.000000  0.450899  1
  O  O71  1  0.943506  0.000000  0.119343  1
