# generated using pymatgen
data_LiCoH8(SO6)2
_symmetry_space_group_name_H-M   'P 1'
_cell_length_a   5.50053796
_cell_length_b   8.11719914
_cell_length_c   10.96166565
_cell_angle_alpha   90.00000000
_cell_angle_beta   101.84238096
_cell_angle_gamma   90.00000000
_symmetry_Int_Tables_number   1
_chemical_formula_structural   LiCoH8(SO6)2
_chemical_formula_sum   'Li2 Co2 H16 S4 O24'
_cell_volume   479.00995927
_cell_formula_units_Z   2
loop_
 _symmetry_equiv_pos_site_id
 _symmetry_equiv_pos_as_xyz
  1  'x, y, z'
loop_
 _atom_site_type_symbol
 _atom_site_label
 _atom_site_symmetry_multiplicity
 _atom_site_fract_x
 _atom_site_fract_y
 _atom_site_fract_z
 _atom_site_occupancy
  Li  Li0  1  0.116463  0.306450  0.371063  1
  Li  Li1  1  0.116463  0.693550  0.871063  1
  Co  Co2  1  0.998466  0.243587  0.999688  1
  Co  Co3  1  0.998466  0.756413  0.499688  1
  H  H4  1  0.226807  0.965114  0.019517  1
  H  H5  1  0.775088  0.385044  0.155835  1
  H  H6  1  0.778796  0.185794  0.181686  1
  H  H7  1  0.333566  0.055849  0.144095  1
  H  H8  1  0.677424  0.556650  0.355884  1
  H  H9  1  0.213433  0.690286  0.313758  1
  H  H10  1  0.224977  0.888184  0.344137  1
  H  H11  1  0.771843  0.467304  0.484014  1
  H  H12  1  0.226807  0.034886  0.519517  1
  H  H13  1  0.775088  0.614956  0.655835  1
  H  H14  1  0.778796  0.814206  0.681686  1
  H  H15  1  0.333566  0.944151  0.644095  1
  H  H16  1  0.677424  0.443350  0.855884  1
  H  H17  1  0.213433  0.309714  0.813758  1
  H  H18  1  0.224977  0.111816  0.844137  1
  H  H19  1  0.771843  0.532696  0.984014  1
  S  S20  1  0.365595  0.534472  0.132335  1
  S  S21  1  0.634898  0.046761  0.363872  1
  S  S22  1  0.365595  0.465528  0.632335  1
  S  S23  1  0.634898  0.953239  0.863872  1
  O  O24  1  0.295618  0.368148  0.070846  1
  O  O25  1  0.211261  0.663811  0.063956  1
  O  O26  1  0.178205  0.042133  0.079635  1
  O  O27  1  0.633416  0.556805  0.131293  1
  O  O28  1  0.882629  0.282343  0.165459  1
  O  O29  1  0.634132  0.025283  0.228664  1
  O  O30  1  0.335088  0.522307  0.265231  1
  O  O31  1  0.126710  0.785791  0.344288  1
  O  O32  1  0.373821  0.081146  0.377367  1
  O  O33  1  0.827709  0.538113  0.421345  1
  O  O34  1  0.810797  0.173542  0.418838  1
  O  O35  1  0.701608  0.881160  0.429304  1
  O  O36  1  0.295618  0.631852  0.570846  1
  O  O37  1  0.211261  0.336189  0.563956  1
  O  O38  1  0.178205  0.957867  0.579635  1
  O  O39  1  0.633416  0.443195  0.631293  1
  O  O40  1  0.882629  0.717657  0.665459  1
  O  O41  1  0.634132  0.974717  0.728664  1
  O  O42  1  0.335088  0.477693  0.765231  1
  O  O43  1  0.126710  0.214209  0.844288  1
  O  O44  1  0.373821  0.918854  0.877367  1
  O  O45  1  0.827709  0.461887  0.921345  1
  O  O46  1  0.810797  0.826458  0.918838  1
  O  O47  1  0.701608  0.118840  0.929304  1
