# generated using pymatgen
data_V2O5
_symmetry_space_group_name_H-M   'P 1'
_cell_length_a   6.61126625
_cell_length_b   7.60255874
_cell_length_c   7.96492189
_cell_angle_alpha   90.00000000
_cell_angle_beta   90.00000000
_cell_angle_gamma   90.00000000
_symmetry_Int_Tables_number   1
_chemical_formula_structural   V2O5
_chemical_formula_sum   'V8 O20'
_cell_volume   400.33720518
_cell_formula_units_Z   4
loop_
 _symmetry_equiv_pos_site_id
 _symmetry_equiv_pos_as_xyz
  1  'x, y, z'
loop_
 _atom_site_type_symbol
 _atom_site_label
 _atom_site_symmetry_multiplicity
 _atom_site_fract_x
 _atom_site_fract_y
 _atom_site_fract_z
 _atom_site_occupancy
  V  V0  1  0.250000  0.739412  0.669093  1
  V  V1  1  0.750000  0.239412  0.830907  1
  V  V2  1  0.250000  0.760588  0.169093  1
  V  V3  1  0.750000  0.260588  0.330907  1
  V  V4  1  0.750000  0.623654  0.619486  1
  V  V5  1  0.250000  0.123654  0.880514  1
  V  V6  1  0.750000  0.876346  0.119486  1
  V  V7  1  0.250000  0.376346  0.380514  1
  O  O8  1  0.250000  0.511507  0.554477  1
  O  O9  1  0.750000  0.172606  0.636987  1
  O  O10  1  0.531028  0.751959  0.622863  1
  O  O11  1  0.968972  0.751959  0.622863  1
  O  O12  1  0.250000  0.984637  0.706192  1
  O  O13  1  0.750000  0.484637  0.793808  1
  O  O14  1  0.031028  0.251959  0.877137  1
  O  O15  1  0.468972  0.251959  0.877137  1
  O  O16  1  0.250000  0.672606  0.863013  1
  O  O17  1  0.750000  0.011507  0.945523  1
  O  O18  1  0.250000  0.988493  0.054477  1
  O  O19  1  0.750000  0.327394  0.136987  1
  O  O20  1  0.531028  0.748041  0.122863  1
  O  O21  1  0.968972  0.748041  0.122863  1
  O  O22  1  0.250000  0.515363  0.206192  1
  O  O23  1  0.750000  0.015363  0.293808  1
  O  O24  1  0.031028  0.248041  0.377137  1
  O  O25  1  0.468972  0.248041  0.377137  1
  O  O26  1  0.250000  0.827394  0.363013  1
  O  O27  1  0.750000  0.488493  0.445523  1
