# generated using pymatgen
data_Li6TiFe3(PO4)6
_symmetry_space_group_name_H-M   'P 1'
_cell_length_a   8.57726392
_cell_length_b   8.63487130
_cell_length_c   8.64040090
_cell_angle_alpha   61.62246627
_cell_angle_beta   61.75471417
_cell_angle_gamma   61.59725402
_symmetry_Int_Tables_number   1
_chemical_formula_structural   Li6TiFe3(PO4)6
_chemical_formula_sum   'Li6 Ti1 Fe3 P6 O24'
_cell_volume   469.32719577
_cell_formula_units_Z   1
loop_
 _symmetry_equiv_pos_site_id
 _symmetry_equiv_pos_as_xyz
  1  'x, y, z'
loop_
 _atom_site_type_symbol
 _atom_site_label
 _atom_site_symmetry_multiplicity
 _atom_site_fract_x
 _atom_site_fract_y
 _atom_site_fract_z
 _atom_site_occupancy
  Li  Li0  1  0.972899  0.000111  0.991756  1
  Li  Li1  1  0.253277  0.642961  0.846644  1
  Li  Li2  1  0.519911  0.502989  0.492005  1
  Li  Li3  1  0.718088  0.347438  0.152242  1
  Li  Li4  1  0.345818  0.154697  0.711780  1
  Li  Li5  1  0.154635  0.717918  0.345963  1
  Ti  Ti6  1  0.148885  0.149350  0.150401  1
  Fe  Fe7  1  0.853647  0.861072  0.852511  1
  Fe  Fe8  1  0.645941  0.646183  0.635678  1
  Fe  Fe9  1  0.351669  0.351182  0.349615  1
  P  P10  1  0.950013  0.556253  0.252511  1
  P  P11  1  0.554460  0.254269  0.950360  1
  P  P12  1  0.252078  0.952245  0.552960  1
  P  P13  1  0.756105  0.041114  0.454552  1
  P  P14  1  0.452121  0.755320  0.035759  1
  P  P15  1  0.043732  0.460331  0.757012  1
  O  O16  1  0.868915  0.501433  0.716921  1
  O  O17  1  0.706073  0.878347  0.483364  1
  O  O18  1  0.941655  0.735679  0.082239  1
  O  O19  1  0.461629  0.709738  0.877745  1
  O  O20  1  0.760346  0.560331  0.408820  1
  O  O21  1  0.010489  0.382719  0.193752  1
  O  O22  1  0.741008  0.096584  0.918293  1
  O  O23  1  0.534610  0.423534  0.771374  1
  O  O24  1  0.407342  0.759407  0.560820  1
  O  O25  1  0.821683  0.997916  0.610646  1
  O  O26  1  0.914923  0.071926  0.260013  1
  O  O27  1  0.621010  0.808460  0.982477  1
  O  O28  1  0.382777  0.189315  0.015516  1
  O  O29  1  0.095816  0.922553  0.743625  1
  O  O30  1  0.188877  0.008687  0.384878  1
  O  O31  1  0.595377  0.229917  0.438473  1
  O  O32  1  0.438418  0.596537  0.224851  1
  O  O33  1  0.262365  0.919198  0.070748  1
  O  O34  1  0.025038  0.615058  0.812098  1
  O  O35  1  0.229180  0.434825  0.594978  1
  O  O36  1  0.537884  0.310199  0.102110  1
  O  O37  1  0.067788  0.267318  0.918265  1
  O  O38  1  0.313326  0.101978  0.530965  1
  O  O39  1  0.100190  0.533912  0.316282  1
