# generated using pymatgen
data_Nb3Ni(PO4)6
_symmetry_space_group_name_H-M   'P 1'
_cell_length_a   9.00886023
_cell_length_b   9.00886023
_cell_length_c   9.00886023
_cell_angle_alpha   58.49838732
_cell_angle_beta   58.49838732
_cell_angle_gamma   58.49838732
_symmetry_Int_Tables_number   1
_chemical_formula_structural   Nb3Ni(PO4)6
_chemical_formula_sum   'Nb3 Ni1 P6 O24'
_cell_volume   499.24514387
_cell_formula_units_Z   1
loop_
 _symmetry_equiv_pos_site_id
 _symmetry_equiv_pos_as_xyz
  1  'x, y, z'
loop_
 _atom_site_type_symbol
 _atom_site_label
 _atom_site_symmetry_multiplicity
 _atom_site_fract_x
 _atom_site_fract_y
 _atom_site_fract_z
 _atom_site_occupancy
  Nb  Nb0  1  0.859650  0.859650  0.859650  1
  Nb  Nb1  1  0.641518  0.641518  0.641518  1
  Nb  Nb2  1  0.359888  0.359888  0.359888  1
  Ni  Ni3  1  0.143133  0.143133  0.143133  1
  P  P4  1  0.249315  0.527491  0.967893  1
  P  P5  1  0.967893  0.249315  0.527491  1
  P  P6  1  0.527491  0.967893  0.249315  1
  P  P7  1  0.459637  0.034356  0.758515  1
  P  P8  1  0.034356  0.758515  0.459637  1
  P  P9  1  0.758515  0.459637  0.034356  1
  O  O10  1  0.715814  0.500956  0.867254  1
  O  O11  1  0.500956  0.867254  0.715814  1
  O  O12  1  0.079887  0.710509  0.937998  1
  O  O13  1  0.867254  0.715814  0.500956  1
  O  O14  1  0.419388  0.567588  0.790461  1
  O  O15  1  0.223995  0.365694  0.987938  1
  O  O16  1  0.937998  0.079887  0.710509  1
  O  O17  1  0.790461  0.419388  0.567588  1
  O  O18  1  0.567588  0.790461  0.419388  1
  O  O19  1  0.635410  0.002948  0.780375  1
  O  O20  1  0.284554  0.059977  0.921739  1
  O  O21  1  0.002948  0.780375  0.635410  1
  O  O22  1  0.987938  0.223995  0.365694  1
  O  O23  1  0.710509  0.937998  0.079887  1
  O  O24  1  0.365694  0.987938  0.223995  1
  O  O25  1  0.439017  0.209307  0.579469  1
  O  O26  1  0.209307  0.579469  0.439017  1
  O  O27  1  0.059977  0.921739  0.284554  1
  O  O28  1  0.780375  0.635410  0.002948  1
  O  O29  1  0.579469  0.439017  0.209307  1
  O  O30  1  0.135306  0.280759  0.502265  1
  O  O31  1  0.921739  0.284554  0.059977  1
  O  O32  1  0.502265  0.135306  0.280759  1
  O  O33  1  0.280759  0.502265  0.135306  1
