# generated using pymatgen
data_LiNiSnO4
_symmetry_space_group_name_H-M   'P 1'
_cell_length_a   6.07516288
_cell_length_b   6.07516288
_cell_length_c   6.07516288
_cell_angle_alpha   121.71868628
_cell_angle_beta   118.52663204
_cell_angle_gamma   89.80998955
_symmetry_Int_Tables_number   1
_chemical_formula_structural   LiNiSnO4
_chemical_formula_sum   'Li2 Ni2 Sn2 O8'
_cell_volume   158.09823068
_cell_formula_units_Z   2
loop_
 _symmetry_equiv_pos_site_id
 _symmetry_equiv_pos_as_xyz
  1  'x, y, z'
loop_
 _atom_site_type_symbol
 _atom_site_label
 _atom_site_symmetry_multiplicity
 _atom_site_fract_x
 _atom_site_fract_y
 _atom_site_fract_z
 _atom_site_occupancy
  Li  Li0  1  0.000000  0.500000  0.000000  1
  Li  Li1  1  0.500000  0.500000  0.500000  1
  Ni  Ni2  1  0.000000  0.500000  0.500000  1
  Ni  Ni3  1  0.000000  0.000000  0.000000  1
  Sn  Sn4  1  0.000000  0.000000  0.500000  1
  Sn  Sn5  1  0.500000  0.000000  0.000000  1
  O  O6  1  0.245417  0.755564  0.510147  1
  O  O7  1  0.207743  0.755981  0.951762  1
  O  O8  1  0.245417  0.235270  0.989853  1
  O  O9  1  0.195781  0.244019  0.451762  1
  O  O10  1  0.804219  0.755981  0.548238  1
  O  O11  1  0.754583  0.764730  0.010147  1
  O  O12  1  0.792257  0.244019  0.048238  1
  O  O13  1  0.754583  0.244436  0.489853  1
