# generated using pymatgen
data_Li3V3(BO5)2
_symmetry_space_group_name_H-M   'P 1'
_cell_length_a   2.99452267
_cell_length_b   12.09988874
_cell_length_c   9.40369073
_cell_angle_alpha   90.00000000
_cell_angle_beta   91.30068354
_cell_angle_gamma   90.00000000
_symmetry_Int_Tables_number   1
_chemical_formula_structural   Li3V3(BO5)2
_chemical_formula_sum   'Li6 V6 B4 O20'
_cell_volume   340.63981146
_cell_formula_units_Z   2
loop_
 _symmetry_equiv_pos_site_id
 _symmetry_equiv_pos_as_xyz
  1  'x, y, z'
loop_
 _atom_site_type_symbol
 _atom_site_label
 _atom_site_symmetry_multiplicity
 _atom_site_fract_x
 _atom_site_fract_y
 _atom_site_fract_z
 _atom_site_occupancy
  Li  Li0  1  0.002486  0.999799  0.243155  1
  Li  Li1  1  0.499442  0.509991  0.261849  1
  Li  Li2  1  0.997514  0.499799  0.756845  1
  Li  Li3  1  0.500558  0.009991  0.738151  1
  Li  Li4  1  0.999669  0.213524  0.741456  1
  Li  Li5  1  0.000331  0.713524  0.258544  1
  V  V6  1  0.000417  0.285230  0.250411  1
  V  V7  1  0.478434  0.110417  0.000203  1
  V  V8  1  0.521566  0.610417  0.999797  1
  V  V9  1  0.999583  0.785230  0.749589  1
  V  V10  1  0.517162  0.391201  0.518629  1
  V  V11  1  0.482838  0.891201  0.481371  1
  B  B12  1  0.502480  0.858711  0.019744  1
  B  B13  1  0.497520  0.358711  0.980256  1
  B  B14  1  0.499224  0.636067  0.517421  1
  B  B15  1  0.500776  0.136067  0.482579  1
  O  O16  1  0.992622  0.150606  0.135529  1
  O  O17  1  0.988920  0.573639  0.116985  1
  O  O18  1  0.499536  0.356222  0.132656  1
  O  O19  1  0.495837  0.760159  0.090610  1
  O  O20  1  0.503261  0.958176  0.090204  1
  O  O21  1  0.496739  0.458176  0.909796  1
  O  O22  1  0.504163  0.260159  0.909390  1
  O  O23  1  0.500464  0.856222  0.867344  1
  O  O24  1  0.011080  0.073639  0.883015  1
  O  O25  1  0.007378  0.650606  0.864471  1
  O  O26  1  0.985911  0.355073  0.630666  1
  O  O27  1  0.988848  0.920789  0.624372  1
  O  O28  1  0.492072  0.143094  0.623176  1
  O  O29  1  0.497555  0.737468  0.602722  1
  O  O30  1  0.483868  0.539876  0.598595  1
  O  O31  1  0.516132  0.039876  0.401405  1
  O  O32  1  0.502445  0.237468  0.397278  1
  O  O33  1  0.507928  0.643094  0.376824  1
  O  O34  1  0.011152  0.420789  0.375628  1
  O  O35  1  0.014089  0.855073  0.369334  1
