# generated using pymatgen
data_V4OF11
_symmetry_space_group_name_H-M   'P 1'
_cell_length_a   5.23444423
_cell_length_b   5.44178819
_cell_length_c   17.47994142
_cell_angle_alpha   89.14479164
_cell_angle_beta   98.17809347
_cell_angle_gamma   118.12945093
_symmetry_Int_Tables_number   1
_chemical_formula_structural   V4OF11
_chemical_formula_sum   'V8 O2 F22'
_cell_volume   433.85913615
_cell_formula_units_Z   2
loop_
 _symmetry_equiv_pos_site_id
 _symmetry_equiv_pos_as_xyz
  1  'x, y, z'
loop_
 _atom_site_type_symbol
 _atom_site_label
 _atom_site_symmetry_multiplicity
 _atom_site_fract_x
 _atom_site_fract_y
 _atom_site_fract_z
 _atom_site_occupancy
  V  V0  1  0.500000  0.500000  0.500000  1
  V  V1  1  0.500000  0.000000  0.000000  1
  V  V2  1  0.266211  0.856184  0.622023  1
  V  V3  1  0.249182  0.376258  0.125426  1
  V  V4  1  0.003027  0.245135  0.748081  1
  V  V5  1  0.996973  0.754865  0.251919  1
  V  V6  1  0.733789  0.143816  0.377977  1
  V  V7  1  0.750818  0.623742  0.874574  1
  O  O8  1  0.593073  0.325183  0.415796  1
  O  O9  1  0.406927  0.674817  0.584204  1
  F  F10  1  0.079426  0.282758  0.461090  1
  F  F11  1  0.526881  0.807510  0.434964  1
  F  F12  1  0.522233  0.311533  0.938201  1
  F  F13  1  0.473119  0.192490  0.565036  1
  F  F14  1  0.081260  0.076002  0.661715  1
  F  F15  1  0.073347  0.787560  0.963257  1
  F  F16  1  0.072895  0.590751  0.162759  1
  F  F17  1  0.920574  0.717242  0.538910  1
  F  F18  1  0.926653  0.212440  0.036743  1
  F  F19  1  0.927105  0.409249  0.837241  1
  F  F20  1  0.026917  0.563364  0.687553  1
  F  F21  1  0.477767  0.688467  0.061799  1
  F  F22  1  0.572513  0.033265  0.712177  1
  F  F23  1  0.573168  0.837341  0.910467  1
  F  F24  1  0.571562  0.538113  0.213775  1
  F  F25  1  0.918740  0.923998  0.338285  1
  F  F26  1  0.428438  0.461887  0.786225  1
  F  F27  1  0.426832  0.162659  0.089533  1
  F  F28  1  0.020702  0.063575  0.188059  1
  F  F29  1  0.973083  0.436636  0.312447  1
  F  F30  1  0.979298  0.936425  0.811941  1
  F  F31  1  0.427487  0.966735  0.287823  1
