# generated using pymatgen
data_LiV2F7
_symmetry_space_group_name_H-M   'P 1'
_cell_length_a   4.91413579
_cell_length_b   4.91413579
_cell_length_c   10.64925884
_cell_angle_alpha   82.67544087
_cell_angle_beta   97.32455913
_cell_angle_gamma   97.30660170
_symmetry_Int_Tables_number   1
_chemical_formula_structural   LiV2F7
_chemical_formula_sum   'Li2 V4 F14'
_cell_volume   251.37277355
_cell_formula_units_Z   2
loop_
 _symmetry_equiv_pos_site_id
 _symmetry_equiv_pos_as_xyz
  1  'x, y, z'
loop_
 _atom_site_type_symbol
 _atom_site_label
 _atom_site_symmetry_multiplicity
 _atom_site_fract_x
 _atom_site_fract_y
 _atom_site_fract_z
 _atom_site_occupancy
  Li  Li0  1  0.642314  0.737038  0.015992  1
  Li  Li1  1  0.262962  0.357686  0.515992  1
  V  V2  1  0.717118  0.265491  0.251957  1
  V  V3  1  0.734509  0.282882  0.751957  1
  V  V4  1  0.271684  0.722308  0.250597  1
  V  V5  1  0.277692  0.728316  0.750597  1
  F  F6  1  0.938570  0.569061  0.133013  1
  F  F7  1  0.006419  0.488723  0.368553  1
  F  F8  1  0.963314  0.964775  0.749724  1
  F  F9  1  0.551650  0.945092  0.364875  1
  F  F10  1  0.434193  0.488743  0.139823  1
  F  F11  1  0.506942  0.996656  0.131699  1
  F  F12  1  0.490213  0.436494  0.364539  1
  F  F13  1  0.511257  0.565807  0.639823  1
  F  F14  1  0.511277  0.993581  0.868553  1
  F  F15  1  0.563506  0.509787  0.864539  1
  F  F16  1  0.430939  0.061430  0.633013  1
  F  F17  1  0.035225  0.036686  0.249724  1
  F  F18  1  0.003344  0.493058  0.631699  1
  F  F19  1  0.054908  0.448350  0.864875  1
