# generated using pymatgen
data_LiFeF3
_symmetry_space_group_name_H-M   'P 1'
_cell_length_a   5.50293396
_cell_length_b   6.58202854
_cell_length_c   6.89488679
_cell_angle_alpha   83.31857291
_cell_angle_beta   83.66283105
_cell_angle_gamma   83.84485820
_symmetry_Int_Tables_number   1
_chemical_formula_structural   LiFeF3
_chemical_formula_sum   'Li4 Fe4 F12'
_cell_volume   245.39497860
_cell_formula_units_Z   4
loop_
 _symmetry_equiv_pos_site_id
 _symmetry_equiv_pos_as_xyz
  1  'x, y, z'
loop_
 _atom_site_type_symbol
 _atom_site_label
 _atom_site_symmetry_multiplicity
 _atom_site_fract_x
 _atom_site_fract_y
 _atom_site_fract_z
 _atom_site_occupancy
  Li  Li0  1  0.797659  0.694929  0.408927  1
  Li  Li1  1  0.699838  0.122623  0.767188  1
  Li  Li2  1  0.300162  0.877377  0.232812  1
  Li  Li3  1  0.202341  0.305071  0.591073  1
  Fe  Fe4  1  0.746335  0.598123  0.910710  1
  Fe  Fe5  1  0.247473  0.794549  0.717715  1
  Fe  Fe6  1  0.752527  0.205451  0.282285  1
  Fe  Fe7  1  0.253665  0.401877  0.089290  1
  F  F8  1  0.382294  0.692874  0.020350  1
  F  F9  1  0.888509  0.871523  0.847891  1
  F  F10  1  0.112847  0.481998  0.816029  1
  F  F11  1  0.601401  0.640371  0.653871  1
  F  F12  1  0.618715  0.930303  0.288348  1
  F  F13  1  0.885165  0.240375  0.540266  1
  F  F14  1  0.114835  0.759625  0.459734  1
  F  F15  1  0.381285  0.069697  0.711652  1
  F  F16  1  0.398599  0.359629  0.346129  1
  F  F17  1  0.887153  0.518002  0.183971  1
  F  F18  1  0.111491  0.128477  0.152109  1
  F  F19  1  0.617706  0.307126  0.979650  1
