# generated using pymatgen
data_Li2Cr2H4O9
_symmetry_space_group_name_H-M   'P 1'
_cell_length_a   5.46645901
_cell_length_b   5.46645901
_cell_length_c   12.97302445
_cell_angle_alpha   85.57715605
_cell_angle_beta   94.42284395
_cell_angle_gamma   88.28502544
_symmetry_Int_Tables_number   1
_chemical_formula_structural   Li2Cr2H4O9
_chemical_formula_sum   'Li4 Cr4 H8 O18'
_cell_volume   385.10573315
_cell_formula_units_Z   2
loop_
 _symmetry_equiv_pos_site_id
 _symmetry_equiv_pos_as_xyz
  1  'x, y, z'
loop_
 _atom_site_type_symbol
 _atom_site_label
 _atom_site_symmetry_multiplicity
 _atom_site_fract_x
 _atom_site_fract_y
 _atom_site_fract_z
 _atom_site_occupancy
  Li  Li0  1  0.500000  1.000000  0.500000  1
  Li  Li1  1  0.000000  0.500000  0.000000  1
  Li  Li2  1  0.222810  0.222810  0.250000  1
  Li  Li3  1  0.777190  0.777190  0.750000  1
  Cr  Cr4  1  0.739087  0.988957  0.140108  1
  Cr  Cr5  1  0.011043  0.260913  0.640108  1
  Cr  Cr6  1  0.260913  0.011043  0.859892  1
  Cr  Cr7  1  0.988957  0.739087  0.359892  1
  H  H8  1  0.419206  0.421355  0.400972  1
  H  H9  1  0.578645  0.580794  0.900972  1
  H  H10  1  0.580794  0.578645  0.599028  1
  H  H11  1  0.421355  0.419206  0.099028  1
  H  H12  1  0.633868  0.298918  0.349536  1
  H  H13  1  0.701082  0.366132  0.849536  1
  H  H14  1  0.366132  0.701082  0.650464  1
  H  H15  1  0.298918  0.633868  0.150464  1
  O  O16  1  0.965455  0.965455  0.250000  1
  O  O17  1  0.034545  0.034545  0.750000  1
  O  O18  1  0.466780  0.941883  0.180984  1
  O  O19  1  0.058117  0.533220  0.680984  1
  O  O20  1  0.533220  0.058117  0.819016  1
  O  O21  1  0.941883  0.466780  0.319016  1
  O  O22  1  0.746148  0.265962  0.083425  1
  O  O23  1  0.734038  0.253852  0.583425  1
  O  O24  1  0.253852  0.734038  0.916575  1
  O  O25  1  0.265962  0.746148  0.416575  1
  O  O26  1  0.785927  0.808107  0.438802  1
  O  O27  1  0.191893  0.214073  0.938802  1
  O  O28  1  0.214073  0.191893  0.561198  1
  O  O29  1  0.808107  0.785927  0.061198  1
  O  O30  1  0.467553  0.268780  0.370408  1
  O  O31  1  0.731220  0.532447  0.870408  1
  O  O32  1  0.532447  0.731220  0.629592  1
  O  O33  1  0.268780  0.467553  0.129592  1
