# generated using pymatgen
data_Mn2Co(PO4)3
_symmetry_space_group_name_H-M   'P 1'
_cell_length_a   8.50503627
_cell_length_b   8.50503627
_cell_length_c   8.50503627
_cell_angle_alpha   60.91131035
_cell_angle_beta   60.91131035
_cell_angle_gamma   60.91131035
_symmetry_Int_Tables_number   1
_chemical_formula_structural   Mn2Co(PO4)3
_chemical_formula_sum   'Mn4 Co2 P6 O24'
_cell_volume   443.95945079
_cell_formula_units_Z   2
loop_
 _symmetry_equiv_pos_site_id
 _symmetry_equiv_pos_as_xyz
  1  'x, y, z'
loop_
 _atom_site_type_symbol
 _atom_site_label
 _atom_site_symmetry_multiplicity
 _atom_site_fract_x
 _atom_site_fract_y
 _atom_site_fract_z
 _atom_site_occupancy
  Mn  Mn0  1  0.642459  0.642459  0.642459  1
  Mn  Mn1  1  0.142459  0.142459  0.142459  1
  Mn  Mn2  1  0.857541  0.857541  0.857541  1
  Mn  Mn3  1  0.357541  0.357541  0.357541  1
  Co  Co4  1  0.000000  0.000000  0.000000  1
  Co  Co5  1  0.500000  0.500000  0.500000  1
  P  P6  1  0.542343  0.957657  0.250000  1
  P  P7  1  0.250000  0.542343  0.957657  1
  P  P8  1  0.957657  0.250000  0.542343  1
  P  P9  1  0.042343  0.750000  0.457657  1
  P  P10  1  0.750000  0.457657  0.042343  1
  P  P11  1  0.457657  0.042343  0.750000  1
  O  O12  1  0.310201  0.510856  0.115683  1
  O  O13  1  0.115683  0.310201  0.510856  1
  O  O14  1  0.510856  0.115683  0.310201  1
  O  O15  1  0.741713  0.943175  0.089135  1
  O  O16  1  0.384317  0.989144  0.189799  1
  O  O17  1  0.556825  0.758287  0.410865  1
  O  O18  1  0.089135  0.741713  0.943175  1
  O  O19  1  0.410865  0.556825  0.758287  1
  O  O20  1  0.010856  0.810201  0.615683  1
  O  O21  1  0.758287  0.410865  0.556825  1
  O  O22  1  0.056825  0.910865  0.258287  1
  O  O23  1  0.810201  0.615683  0.010856  1
  O  O24  1  0.189799  0.384317  0.989144  1
  O  O25  1  0.943175  0.089135  0.741713  1
  O  O26  1  0.241713  0.589135  0.443175  1
  O  O27  1  0.989144  0.189799  0.384317  1
  O  O28  1  0.589135  0.443175  0.241713  1
  O  O29  1  0.910865  0.258287  0.056825  1
  O  O30  1  0.443175  0.241713  0.589135  1
  O  O31  1  0.615683  0.010856  0.810201  1
  O  O32  1  0.258287  0.056825  0.910865  1
  O  O33  1  0.489144  0.884317  0.689799  1
  O  O34  1  0.884317  0.689799  0.489144  1
  O  O35  1  0.689799  0.489144  0.884317  1
