# generated using pymatgen
data_LiNiCSO7
_symmetry_space_group_name_H-M   'P 1'
_cell_length_a   5.01123467
_cell_length_b   6.47916411
_cell_length_c   8.61226596
_cell_angle_alpha   90.00000000
_cell_angle_beta   93.82783752
_cell_angle_gamma   90.00000000
_symmetry_Int_Tables_number   1
_chemical_formula_structural   LiNiCSO7
_chemical_formula_sum   'Li2 Ni2 C2 S2 O14'
_cell_volume   279.00451198
_cell_formula_units_Z   2
loop_
 _symmetry_equiv_pos_site_id
 _symmetry_equiv_pos_as_xyz
  1  'x, y, z'
loop_
 _atom_site_type_symbol
 _atom_site_label
 _atom_site_symmetry_multiplicity
 _atom_site_fract_x
 _atom_site_fract_y
 _atom_site_fract_z
 _atom_site_occupancy
  Li  Li0  1  0.779628  0.496276  0.222294  1
  Li  Li1  1  0.220372  0.996276  0.777706  1
  Ni  Ni2  1  0.212691  0.246763  0.349750  1
  Ni  Ni3  1  0.787309  0.746763  0.650250  1
  C  C4  1  0.272957  0.253255  0.069636  1
  C  C5  1  0.727043  0.753255  0.930364  1
  S  S6  1  0.272956  0.752142  0.419082  1
  S  S7  1  0.727044  0.252142  0.580918  1
  O  O8  1  0.697281  0.723652  0.071504  1
  O  O9  1  0.040633  0.259203  0.127261  1
  O  O10  1  0.470976  0.274541  0.173403  1
  O  O11  1  0.211324  0.934296  0.323082  1
  O  O12  1  0.166853  0.569240  0.331762  1
  O  O13  1  0.843568  0.265913  0.426454  1
  O  O14  1  0.569392  0.726870  0.448881  1
  O  O15  1  0.430608  0.226870  0.551119  1
  O  O16  1  0.156432  0.765913  0.573546  1
  O  O17  1  0.833147  0.069240  0.668238  1
  O  O18  1  0.788676  0.434296  0.676918  1
  O  O19  1  0.529024  0.774541  0.826597  1
  O  O20  1  0.959367  0.759203  0.872739  1
  O  O21  1  0.302719  0.223652  0.928496  1
