# generated using pymatgen
data_RbFeO2
_symmetry_space_group_name_H-M   'P 1'
_cell_length_a   6.60656262
_cell_length_b   6.60656262
_cell_length_c   5.54958981
_cell_angle_alpha   90.00000000
_cell_angle_beta   90.00000000
_cell_angle_gamma   135.92781722
_symmetry_Int_Tables_number   1
_chemical_formula_structural   RbFeO2
_chemical_formula_sum   'Rb2 Fe2 O4'
_cell_volume   168.48030148
_cell_formula_units_Z   2
loop_
 _symmetry_equiv_pos_site_id
 _symmetry_equiv_pos_as_xyz
  1  'x, y, z'
loop_
 _atom_site_type_symbol
 _atom_site_label
 _atom_site_symmetry_multiplicity
 _atom_site_fract_x
 _atom_site_fract_y
 _atom_site_fract_z
 _atom_site_occupancy
  Rb  Rb0  1  0.692956  0.307044  0.750000  1
  Rb  Rb1  1  0.307044  0.692956  0.250000  1
  Fe  Fe2  1  0.997709  0.002291  0.750000  1
  Fe  Fe3  1  0.002291  0.997709  0.250000  1
  O  O4  1  0.896971  0.103029  0.003787  1
  O  O5  1  0.896971  0.103029  0.496213  1
  O  O6  1  0.103029  0.896971  0.996213  1
  O  O7  1  0.103029  0.896971  0.503787  1
