# generated using pymatgen
data_LiAgF2
_symmetry_space_group_name_H-M   'P 1'
_cell_length_a   3.18723701
_cell_length_b   6.14029710
_cell_length_c   11.48738248
_cell_angle_alpha   90.00000000
_cell_angle_beta   90.00000000
_cell_angle_gamma   90.00000000
_symmetry_Int_Tables_number   1
_chemical_formula_structural   LiAgF2
_chemical_formula_sum   'Li4 Ag4 F8'
_cell_volume   224.81476274
_cell_formula_units_Z   4
loop_
 _symmetry_equiv_pos_site_id
 _symmetry_equiv_pos_as_xyz
  1  'x, y, z'
loop_
 _atom_site_type_symbol
 _atom_site_label
 _atom_site_symmetry_multiplicity
 _atom_site_fract_x
 _atom_site_fract_y
 _atom_site_fract_z
 _atom_site_occupancy
  Li  Li0  1  0.250000  0.114318  0.571533  1
  Li  Li1  1  0.250000  0.385682  0.071533  1
  Li  Li2  1  0.750000  0.614318  0.928467  1
  Li  Li3  1  0.750000  0.885682  0.428467  1
  Ag  Ag4  1  0.250000  0.059705  0.866697  1
  Ag  Ag5  1  0.250000  0.440295  0.366697  1
  Ag  Ag6  1  0.750000  0.559705  0.633303  1
  Ag  Ag7  1  0.750000  0.940295  0.133303  1
  F  F8  1  0.750000  0.183789  0.481607  1
  F  F9  1  0.250000  0.210187  0.200269  1
  F  F10  1  0.250000  0.289813  0.700269  1
  F  F11  1  0.750000  0.316211  0.981607  1
  F  F12  1  0.250000  0.683789  0.018393  1
  F  F13  1  0.750000  0.710187  0.299731  1
  F  F14  1  0.750000  0.789813  0.799731  1
  F  F15  1  0.250000  0.816211  0.518393  1
