# generated using pymatgen
data_Li2FePCO7
_symmetry_space_group_name_H-M   'P 1'
_cell_length_a   5.06302658
_cell_length_b   6.34313955
_cell_length_c   8.50646039
_cell_angle_alpha   96.09165341
_cell_angle_beta   93.04625948
_cell_angle_gamma   94.25287046
_symmetry_Int_Tables_number   1
_chemical_formula_structural   Li2FePCO7
_chemical_formula_sum   'Li4 Fe2 P2 C2 O14'
_cell_volume   270.38526987
_cell_formula_units_Z   2
loop_
 _symmetry_equiv_pos_site_id
 _symmetry_equiv_pos_as_xyz
  1  'x, y, z'
loop_
 _atom_site_type_symbol
 _atom_site_label
 _atom_site_symmetry_multiplicity
 _atom_site_fract_x
 _atom_site_fract_y
 _atom_site_fract_z
 _atom_site_occupancy
  Li  Li0  1  0.249611  0.965603  0.270253  1
  Li  Li1  1  0.357141  0.483192  0.283991  1
  Li  Li2  1  0.642859  0.516808  0.716009  1
  Li  Li3  1  0.750389  0.034397  0.729747  1
  Fe  Fe4  1  0.190059  0.748163  0.849864  1
  Fe  Fe5  1  0.809941  0.251837  0.150136  1
  P  P6  1  0.288479  0.257537  0.922415  1
  P  P7  1  0.711521  0.742463  0.077585  1
  C  C8  1  0.256900  0.751662  0.559611  1
  C  C9  1  0.743100  0.248338  0.440389  1
  O  O10  1  0.025610  0.719601  0.616245  1
  O  O11  1  0.174928  0.326194  0.085755  1
  O  O12  1  0.116512  0.059184  0.842320  1
  O  O13  1  0.285559  0.441481  0.817362  1
  O  O14  1  0.296997  0.748940  0.413671  1
  O  O15  1  0.418527  0.800040  0.052603  1
  O  O16  1  0.543472  0.214408  0.329110  1
  O  O17  1  0.456528  0.785592  0.670890  1
  O  O18  1  0.581473  0.199960  0.947397  1
  O  O19  1  0.703003  0.251060  0.586329  1
  O  O20  1  0.714441  0.558519  0.182638  1
  O  O21  1  0.825072  0.673806  0.914245  1
  O  O22  1  0.974390  0.280399  0.383755  1
  O  O23  1  0.883488  0.940816  0.157680  1
