# generated using pymatgen
data_Na6NiO4
_symmetry_space_group_name_H-M   'P 1'
_cell_length_a   7.64865378
_cell_length_b   7.64865378
_cell_length_c   5.87871955
_cell_angle_alpha   90.00000000
_cell_angle_beta   90.00000000
_cell_angle_gamma   120.00000000
_symmetry_Int_Tables_number   1
_chemical_formula_structural   Na6NiO4
_chemical_formula_sum   'Na12 Ni2 O8'
_cell_volume   297.84024453
_cell_formula_units_Z   2
loop_
 _symmetry_equiv_pos_site_id
 _symmetry_equiv_pos_as_xyz
  1  'x, y, z'
loop_
 _atom_site_type_symbol
 _atom_site_label
 _atom_site_symmetry_multiplicity
 _atom_site_fract_x
 _atom_site_fract_y
 _atom_site_fract_z
 _atom_site_occupancy
  Na  Na0  1  0.283778  0.141889  0.032581  1
  Na  Na1  1  0.537808  0.462192  0.365101  1
  Na  Na2  1  0.858111  0.716222  0.032581  1
  Na  Na3  1  0.537808  0.075615  0.365101  1
  Na  Na4  1  0.924385  0.462192  0.365101  1
  Na  Na5  1  0.141889  0.858111  0.532581  1
  Na  Na6  1  0.858111  0.141889  0.032581  1
  Na  Na7  1  0.075615  0.537808  0.865101  1
  Na  Na8  1  0.462192  0.924385  0.865101  1
  Na  Na9  1  0.141889  0.283778  0.532581  1
  Na  Na10  1  0.462192  0.537808  0.865101  1
  Na  Na11  1  0.716222  0.858111  0.532581  1
  Ni  Ni12  1  0.666667  0.333333  0.756702  1
  Ni  Ni13  1  0.333333  0.666667  0.256702  1
  O  O14  1  0.375037  0.187518  0.642934  1
  O  O15  1  0.812482  0.624963  0.642934  1
  O  O16  1  0.666667  0.333333  0.093612  1
  O  O17  1  0.812482  0.187518  0.642934  1
  O  O18  1  0.187518  0.812482  0.142934  1
  O  O19  1  0.187518  0.375037  0.142934  1
  O  O20  1  0.333333  0.666667  0.593612  1
  O  O21  1  0.624963  0.812482  0.142934  1
