# generated using pymatgen
data_V3O5F
_symmetry_space_group_name_H-M   'P 1'
_cell_length_a   5.52878469
_cell_length_b   5.53492385
_cell_length_c   7.24441474
_cell_angle_alpha   70.94830452
_cell_angle_beta   70.86440517
_cell_angle_gamma   73.67542507
_symmetry_Int_Tables_number   1
_chemical_formula_structural   V3O5F
_chemical_formula_sum   'V6 O10 F2'
_cell_volume   194.16995677
_cell_formula_units_Z   2
loop_
 _symmetry_equiv_pos_site_id
 _symmetry_equiv_pos_as_xyz
  1  'x, y, z'
loop_
 _atom_site_type_symbol
 _atom_site_label
 _atom_site_symmetry_multiplicity
 _atom_site_fract_x
 _atom_site_fract_y
 _atom_site_fract_z
 _atom_site_occupancy
  V  V0  1  0.645981  0.663933  0.847752  1
  V  V1  1  0.362404  0.311327  0.667939  1
  V  V2  1  0.643551  0.652135  0.341283  1
  V  V3  1  0.329957  0.331967  0.164397  1
  V  V4  1  0.009796  0.029362  0.496602  1
  V  V5  1  0.002852  0.011164  0.982060  1
  O  O6  1  0.352815  0.954301  0.344400  1
  O  O7  1  0.223931  0.224184  0.972937  1
  O  O8  1  0.574712  0.573158  0.629559  1
  O  O9  1  0.102138  0.100911  0.697040  1
  O  O10  1  0.767143  0.773408  0.042475  1
  O  O11  1  0.432800  0.431534  0.362570  1
  O  O12  1  0.301133  0.711655  0.991931  1
  O  O13  1  0.653040  0.018249  0.665645  1
  O  O14  1  0.952270  0.365962  0.340057  1
  O  O15  1  0.708754  0.311077  0.988059  1
  F  F16  1  0.038738  0.633095  0.666494  1
  F  F17  1  0.897985  0.902578  0.298797  1
