# generated using pymatgen
data_Li6Mn5O10
_symmetry_space_group_name_H-M   'P 1'
_cell_length_a   7.93512568
_cell_length_b   7.93512568
_cell_length_c   5.17595164
_cell_angle_alpha   88.98430986
_cell_angle_beta   91.01569014
_cell_angle_gamma   42.43963427
_symmetry_Int_Tables_number   1
_chemical_formula_structural   Li6Mn5O10
_chemical_formula_sum   'Li6 Mn5 O10'
_cell_volume   219.66448507
_cell_formula_units_Z   1
loop_
 _symmetry_equiv_pos_site_id
 _symmetry_equiv_pos_as_xyz
  1  'x, y, z'
loop_
 _atom_site_type_symbol
 _atom_site_label
 _atom_site_symmetry_multiplicity
 _atom_site_fract_x
 _atom_site_fract_y
 _atom_site_fract_z
 _atom_site_occupancy
  Li  Li0  1  0.267849  0.916317  0.600966  1
  Li  Li1  1  0.551173  0.877946  0.400464  1
  Li  Li2  1  0.888458  0.316390  0.413840  1
  Li  Li3  1  0.083683  0.732151  0.600966  1
  Li  Li4  1  0.122054  0.448827  0.400464  1
  Li  Li5  1  0.683610  0.111542  0.413840  1
  Mn  Mn6  1  0.020353  0.979647  0.031108  1
  Mn  Mn7  1  0.627492  0.569105  0.967093  1
  Mn  Mn8  1  0.804621  0.787965  0.979418  1
  Mn  Mn9  1  0.212035  0.195379  0.979418  1
  Mn  Mn10  1  0.430895  0.372508  0.967093  1
  O  O11  1  0.348712  0.651288  0.797243  1
  O  O12  1  0.234674  0.004371  0.247419  1
  O  O13  1  0.553679  0.833231  0.774540  1
  O  O14  1  0.664116  0.335884  0.187599  1
  O  O15  1  0.982345  0.234426  0.771703  1
  O  O16  1  0.825467  0.567841  0.203138  1
  O  O17  1  0.166769  0.446321  0.774540  1
  O  O18  1  0.995629  0.765326  0.247419  1
  O  O19  1  0.432159  0.174533  0.203138  1
  O  O20  1  0.765574  0.017655  0.771703  1
