# generated using pymatgen
data_Li3Cr3NiO8
_symmetry_space_group_name_H-M   'P 1'
_cell_length_a   5.90628095
_cell_length_b   5.90628095
_cell_length_c   5.90628095
_cell_angle_alpha   59.54818711
_cell_angle_beta   59.54818711
_cell_angle_gamma   59.54818711
_symmetry_Int_Tables_number   1
_chemical_formula_structural   Li3Cr3NiO8
_chemical_formula_sum   'Li3 Cr3 Ni1 O8'
_cell_volume   144.19260099
_cell_formula_units_Z   1
loop_
 _symmetry_equiv_pos_site_id
 _symmetry_equiv_pos_as_xyz
  1  'x, y, z'
loop_
 _atom_site_type_symbol
 _atom_site_label
 _atom_site_symmetry_multiplicity
 _atom_site_fract_x
 _atom_site_fract_y
 _atom_site_fract_z
 _atom_site_occupancy
  Li  Li0  1  0.000000  0.000000  0.500000  1
  Li  Li1  1  0.500000  0.000000  0.000000  1
  Li  Li2  1  0.000000  0.500000  0.000000  1
  Cr  Cr3  1  0.500000  0.500000  0.000000  1
  Cr  Cr4  1  0.000000  0.500000  0.500000  1
  Cr  Cr5  1  0.500000  1.000000  0.500000  1
  Ni  Ni6  1  0.000000  1.000000  0.000000  1
  O  O7  1  0.257741  0.257741  0.257741  1
  O  O8  1  0.770127  0.770127  0.246264  1
  O  O9  1  0.246264  0.770127  0.770127  1
  O  O10  1  0.742259  0.742259  0.742259  1
  O  O11  1  0.770127  0.246264  0.770127  1
  O  O12  1  0.229873  0.229873  0.753736  1
  O  O13  1  0.753736  0.229873  0.229873  1
  O  O14  1  0.229873  0.753736  0.229873  1
