# generated using pymatgen
data_Ca4Al2H22CO20
_symmetry_space_group_name_H-M   'P 1'
_cell_length_a   5.83272961
_cell_length_b   8.57765222
_cell_length_c   9.96665236
_cell_angle_alpha   115.22346783
_cell_angle_beta   89.73560663
_cell_angle_gamma   98.53033010
_symmetry_Int_Tables_number   1
_chemical_formula_structural   Ca4Al2H22CO20
_chemical_formula_sum   'Ca4 Al2 H22 C1 O20'
_cell_volume   445.15031595
_cell_formula_units_Z   1
loop_
 _symmetry_equiv_pos_site_id
 _symmetry_equiv_pos_as_xyz
  1  'x, y, z'
loop_
 _atom_site_type_symbol
 _atom_site_label
 _atom_site_symmetry_multiplicity
 _atom_site_fract_x
 _atom_site_fract_y
 _atom_site_fract_z
 _atom_site_occupancy
  Ca  Ca0  1  0.521733  0.882745  0.193294  1
  Ca  Ca1  1  0.483854  0.117852  0.804947  1
  Ca  Ca2  1  0.018085  0.383418  0.687745  1
  Ca  Ca3  1  0.980534  0.621985  0.304668  1
  Al  Al4  1  0.001079  0.002323  0.998320  1
  Al  Al5  1  0.494295  0.496578  0.493224  1
  H  H6  1  0.181769  0.744636  0.007550  1
  H  H7  1  0.835867  0.276083  0.972968  1
  H  H8  1  0.319122  0.216129  0.038197  1
  H  H9  1  0.692907  0.782690  0.965872  1
  H  H10  1  0.344279  0.766019  0.481724  1
  H  H11  1  0.663071  0.239236  0.500123  1
  H  H12  1  0.807652  0.700748  0.547923  1
  H  H13  1  0.169800  0.277325  0.466955  1
  H  H14  1  0.990582  0.008176  0.742672  1
  H  H15  1  0.019368  0.990034  0.259464  1
  H  H16  1  0.506895  0.496719  0.748545  1
  H  H17  1  0.482680  0.520382  0.227912  1
  H  H18  1  0.690901  0.208654  0.261394  1
  H  H19  1  0.434254  0.142356  0.309137  1
  H  H20  1  0.293817  0.789611  0.730140  1
  H  H21  1  0.560148  0.857329  0.689616  1
  H  H22  1  0.060636  0.368657  0.189677  1
  H  H23  1  0.863251  0.471792  0.077137  1
  H  H24  1  0.491828  0.498066  0.001393  1
  H  H25  1  0.227339  0.499826  0.962744  1
  H  H26  1  0.979331  0.007313  0.479152  1
  H  H27  1  0.242836  0.002829  0.523818  1
  C  C28  1  0.883524  0.669086  0.800399  1
  O  O29  1  0.149016  0.791252  0.075463  1
  O  O30  1  0.846840  0.212739  0.914075  1
  O  O31  1  0.304790  0.108404  0.024915  1
  O  O32  1  0.695980  0.889112  0.980053  1
  O  O33  1  0.343746  0.709406  0.415989  1
  O  O34  1  0.640812  0.284756  0.570827  1
  O  O35  1  0.797779  0.605738  0.517187  1
  O  O36  1  0.187675  0.389357  0.473915  1
  O  O37  1  0.074825  0.074379  0.795253  1
  O  O38  1  0.928169  0.934764  0.200007  1
  O  O39  1  0.425099  0.429248  0.696497  1
  O  O40  1  0.571176  0.570140  0.292162  1
  O  O41  1  0.583020  0.102035  0.310683  1
  O  O42  1  0.402971  0.897342  0.685380  1
  O  O43  1  0.903022  0.397047  0.186476  1
  O  O44  1  0.343062  0.450638  0.049778  1
  O  O45  1  0.129876  0.066528  0.440012  1
  O  O46  1  0.756899  0.589049  0.914549  1
  O  O47  1  0.079658  0.610962  0.801202  1
  O  O48  1  0.816097  0.803607  0.685908  1
