# generated using pymatgen
data_V2O5
_symmetry_space_group_name_H-M   'P 1'
_cell_length_a   8.95097224
_cell_length_b   5.35981858
_cell_length_c   10.22974320
_cell_angle_alpha   90.00000000
_cell_angle_beta   114.59091212
_cell_angle_gamma   90.00000000
_symmetry_Int_Tables_number   1
_chemical_formula_structural   V2O5
_chemical_formula_sum   'V8 O20'
_cell_volume   446.26542224
_cell_formula_units_Z   4
loop_
 _symmetry_equiv_pos_site_id
 _symmetry_equiv_pos_as_xyz
  1  'x, y, z'
loop_
 _atom_site_type_symbol
 _atom_site_label
 _atom_site_symmetry_multiplicity
 _atom_site_fract_x
 _atom_site_fract_y
 _atom_site_fract_z
 _atom_site_occupancy
  V  V0  1  0.706813  0.503349  0.882869  1
  V  V1  1  0.206813  0.996651  0.882869  1
  V  V2  1  0.792322  0.068739  0.617948  1
  V  V3  1  0.292322  0.431261  0.617948  1
  V  V4  1  0.707678  0.568739  0.382052  1
  V  V5  1  0.207678  0.931261  0.382052  1
  V  V6  1  0.793187  0.003349  0.117131  1
  V  V7  1  0.293187  0.496651  0.117131  1
  O  O8  1  0.729893  0.299746  0.027521  1
  O  O9  1  0.229893  0.200254  0.027521  1
  O  O10  1  0.501065  0.475403  0.753687  1
  O  O11  1  0.001065  0.024597  0.753687  1
  O  O12  1  0.832818  0.420392  0.811496  1
  O  O13  1  0.662199  0.959377  0.676588  1
  O  O14  1  0.332818  0.079608  0.811496  1
  O  O15  1  0.162199  0.540623  0.676588  1
  O  O16  1  0.711113  0.356709  0.517221  1
  O  O17  1  0.788887  0.856709  0.482779  1
  O  O18  1  0.211113  0.143291  0.517221  1
  O  O19  1  0.288887  0.643291  0.482779  1
  O  O20  1  0.837801  0.459377  0.323412  1
  O  O21  1  0.667182  0.920392  0.188504  1
  O  O22  1  0.337801  0.040623  0.323412  1
  O  O23  1  0.167182  0.579608  0.188504  1
  O  O24  1  0.998935  0.975403  0.246313  1
  O  O25  1  0.498935  0.524597  0.246313  1
  O  O26  1  0.770107  0.799746  0.972479  1
  O  O27  1  0.270107  0.700254  0.972479  1
