# generated using pymatgen
data_LiSnPO4
_symmetry_space_group_name_H-M   'P 1'
_cell_length_a   6.28231973
_cell_length_b   12.55718490
_cell_length_c   9.79096172
_cell_angle_alpha   90.00000000
_cell_angle_beta   99.43469328
_cell_angle_gamma   90.00000000
_symmetry_Int_Tables_number   1
_chemical_formula_structural   LiSnPO4
_chemical_formula_sum   'Li8 Sn8 P8 O32'
_cell_volume   761.94376245
_cell_formula_units_Z   8
loop_
 _symmetry_equiv_pos_site_id
 _symmetry_equiv_pos_as_xyz
  1  'x, y, z'
loop_
 _atom_site_type_symbol
 _atom_site_label
 _atom_site_symmetry_multiplicity
 _atom_site_fract_x
 _atom_site_fract_y
 _atom_site_fract_z
 _atom_site_occupancy
  Li  Li0  1  0.962508  0.865210  0.451584  1
  Li  Li1  1  0.962508  0.634790  0.951584  1
  Li  Li2  1  0.503602  0.373164  0.157698  1
  Li  Li3  1  0.503602  0.126836  0.657698  1
  Li  Li4  1  0.496398  0.873164  0.342302  1
  Li  Li5  1  0.496398  0.626836  0.842302  1
  Li  Li6  1  0.037492  0.365210  0.048416  1
  Li  Li7  1  0.037492  0.134790  0.548416  1
  Sn  Sn8  1  0.103955  0.088797  0.232765  1
  Sn  Sn9  1  0.103955  0.411203  0.732765  1
  Sn  Sn10  1  0.353497  0.643772  0.481895  1
  Sn  Sn11  1  0.353497  0.856228  0.981895  1
  Sn  Sn12  1  0.646503  0.143772  0.018105  1
  Sn  Sn13  1  0.646503  0.356228  0.518105  1
  Sn  Sn14  1  0.896045  0.588797  0.267235  1
  Sn  Sn15  1  0.896045  0.911203  0.767235  1
  P  P16  1  0.141439  0.344710  0.346608  1
  P  P17  1  0.141439  0.155290  0.846608  1
  P  P18  1  0.372992  0.610507  0.136874  1
  P  P19  1  0.372992  0.889493  0.636874  1
  P  P20  1  0.627008  0.110507  0.363126  1
  P  P21  1  0.627008  0.389493  0.863126  1
  P  P22  1  0.858561  0.844710  0.153392  1
  P  P23  1  0.858561  0.655290  0.653392  1
  O  O24  1  0.084228  0.262993  0.907979  1
  O  O25  1  0.067185  0.914072  0.192286  1
  O  O26  1  0.084228  0.237007  0.407979  1
  O  O27  1  0.067185  0.585928  0.692286  1
  O  O28  1  0.240667  0.328247  0.214369  1
  O  O29  1  0.155929  0.548879  0.107768  1
  O  O30  1  0.240667  0.171753  0.714369  1
  O  O31  1  0.155929  0.951121  0.607768  1
  O  O32  1  0.306334  0.405134  0.460582  1
  O  O33  1  0.386172  0.684477  0.265586  1
  O  O34  1  0.306334  0.094866  0.960582  1
  O  O35  1  0.394189  0.680265  0.006383  1
  O  O36  1  0.433229  0.030236  0.339262  1
  O  O37  1  0.386172  0.815523  0.765586  1
  O  O38  1  0.394189  0.819735  0.506383  1
  O  O39  1  0.433229  0.469764  0.839262  1
  O  O40  1  0.566771  0.530236  0.160738  1
  O  O41  1  0.605811  0.180265  0.493617  1
  O  O42  1  0.613828  0.184477  0.234414  1
  O  O43  1  0.566771  0.969764  0.660738  1
  O  O44  1  0.605811  0.319735  0.993617  1
  O  O45  1  0.693666  0.905134  0.039418  1
  O  O46  1  0.613828  0.315523  0.734414  1
  O  O47  1  0.693666  0.594866  0.539418  1
  O  O48  1  0.844071  0.048879  0.392232  1
  O  O49  1  0.759333  0.828247  0.285631  1
  O  O50  1  0.844071  0.451121  0.892232  1
  O  O51  1  0.759333  0.671753  0.785631  1
  O  O52  1  0.932815  0.414072  0.307714  1
  O  O53  1  0.915772  0.762993  0.592021  1
  O  O54  1  0.932815  0.085928  0.807714  1
  O  O55  1  0.915772  0.737007  0.092021  1
