# generated using pymatgen
data_LiFe2(PO4)2
_symmetry_space_group_name_H-M   'P 1'
_cell_length_a   4.90628079
_cell_length_b   4.90628079
_cell_length_c   6.36554512
_cell_angle_alpha   89.29420687
_cell_angle_beta   90.70579313
_cell_angle_gamma   112.85217693
_symmetry_Int_Tables_number   1
_chemical_formula_structural   LiFe2(PO4)2
_chemical_formula_sum   'Li1 Fe2 P2 O8'
_cell_volume   141.18641891
_cell_formula_units_Z   1
loop_
 _symmetry_equiv_pos_site_id
 _symmetry_equiv_pos_as_xyz
  1  'x, y, z'
loop_
 _atom_site_type_symbol
 _atom_site_label
 _atom_site_symmetry_multiplicity
 _atom_site_fract_x
 _atom_site_fract_y
 _atom_site_fract_z
 _atom_site_occupancy
  Li  Li0  1  0.166928  0.833072  0.739902  1
  Fe  Fe1  1  0.501001  0.498999  0.005454  1
  Fe  Fe2  1  0.498709  0.501291  0.485815  1
  P  P3  1  0.147611  0.852389  0.237195  1
  P  P4  1  0.841545  0.158455  0.747403  1
  O  O5  1  0.258709  0.741291  0.041147  1
  O  O6  1  0.272491  0.200002  0.228432  1
  O  O7  1  0.799998  0.727509  0.228432  1
  O  O8  1  0.246095  0.753905  0.443866  1
  O  O9  1  0.743492  0.256508  0.544662  1
  O  O10  1  0.192419  0.271627  0.758001  1
  O  O11  1  0.728373  0.807581  0.758001  1
  O  O12  1  0.731628  0.268372  0.940406  1
