# generated using pymatgen
data_RbSrP3(HO2)6
_symmetry_space_group_name_H-M   'P 1'
_cell_length_a   8.26235262
_cell_length_b   9.27780226
_cell_length_c   15.48121999
_cell_angle_alpha   90.00000000
_cell_angle_beta   90.00000000
_cell_angle_gamma   90.00000000
_symmetry_Int_Tables_number   1
_chemical_formula_structural   RbSrP3(HO2)6
_chemical_formula_sum   'Rb4 Sr4 P12 H24 O48'
_cell_volume   1186.73573472
_cell_formula_units_Z   4
loop_
 _symmetry_equiv_pos_site_id
 _symmetry_equiv_pos_as_xyz
  1  'x, y, z'
loop_
 _atom_site_type_symbol
 _atom_site_label
 _atom_site_symmetry_multiplicity
 _atom_site_fract_x
 _atom_site_fract_y
 _atom_site_fract_z
 _atom_site_occupancy
  Rb  Rb0  1  0.750000  0.598422  0.805892  1
  Rb  Rb1  1  0.750000  0.098422  0.694108  1
  Rb  Rb2  1  0.250000  0.401578  0.194108  1
  Rb  Rb3  1  0.250000  0.901578  0.305892  1
  Sr  Sr4  1  0.750000  0.405680  0.475302  1
  Sr  Sr5  1  0.750000  0.905680  0.024698  1
  Sr  Sr6  1  0.250000  0.594320  0.524698  1
  Sr  Sr7  1  0.250000  0.094320  0.975302  1
  P  P8  1  0.750000  0.010705  0.435363  1
  P  P9  1  0.750000  0.510705  0.064637  1
  P  P10  1  0.250000  0.989295  0.564637  1
  P  P11  1  0.250000  0.489295  0.935363  1
  P  P12  1  0.924826  0.175790  0.306465  1
  P  P13  1  0.575174  0.675790  0.193535  1
  P  P14  1  0.424826  0.824210  0.693535  1
  P  P15  1  0.075174  0.324210  0.806465  1
  P  P16  1  0.075174  0.824210  0.693535  1
  P  P17  1  0.424826  0.324210  0.806465  1
  P  P18  1  0.575174  0.175790  0.306465  1
  P  P19  1  0.924826  0.675790  0.193535  1
  H  H20  1  0.988400  0.123110  0.127056  1
  H  H21  1  0.511600  0.623110  0.372944  1
  H  H22  1  0.488400  0.876890  0.872944  1
  H  H23  1  0.011600  0.376890  0.627056  1
  H  H24  1  0.011600  0.876890  0.872944  1
  H  H25  1  0.488400  0.376890  0.627056  1
  H  H26  1  0.511600  0.123110  0.127056  1
  H  H27  1  0.988400  0.623110  0.372944  1
  H  H28  1  0.901208  0.216677  0.055896  1
  H  H29  1  0.598792  0.716677  0.444104  1
  H  H30  1  0.401208  0.783323  0.944104  1
  H  H31  1  0.098792  0.283323  0.555896  1
  H  H32  1  0.098792  0.783323  0.944104  1
  H  H33  1  0.401208  0.283323  0.555896  1
  H  H34  1  0.598792  0.216677  0.055896  1
  H  H35  1  0.901208  0.716677  0.444104  1
  H  H36  1  0.847698  0.131805  0.888812  1
  H  H37  1  0.652302  0.631805  0.611188  1
  H  H38  1  0.347698  0.868195  0.111188  1
  H  H39  1  0.152302  0.368195  0.388812  1
  H  H40  1  0.152302  0.868195  0.111188  1
  H  H41  1  0.347698  0.368195  0.388812  1
  H  H42  1  0.652302  0.131805  0.888812  1
  H  H43  1  0.847698  0.631805  0.611188  1
  O  O44  1  0.750000  0.182750  0.258433  1
  O  O45  1  0.750000  0.682750  0.241567  1
  O  O46  1  0.250000  0.817250  0.741567  1
  O  O47  1  0.250000  0.317250  0.758433  1
  O  O48  1  0.947436  0.307275  0.362146  1
  O  O49  1  0.552564  0.807275  0.137854  1
  O  O50  1  0.447436  0.692725  0.637854  1
  O  O51  1  0.052564  0.192725  0.862146  1
  O  O52  1  0.052564  0.692725  0.637854  1
  O  O53  1  0.447436  0.192725  0.862146  1
  O  O54  1  0.552564  0.307275  0.362146  1
  O  O55  1  0.947436  0.807275  0.137854  1
  O  O56  1  0.451802  0.141575  0.238966  1
  O  O57  1  0.048198  0.641575  0.261034  1
  O  O58  1  0.951802  0.858425  0.761034  1
  O  O59  1  0.548198  0.358425  0.738966  1
  O  O60  1  0.548198  0.858425  0.761034  1
  O  O61  1  0.951802  0.358425  0.738966  1
  O  O62  1  0.048198  0.141575  0.238966  1
  O  O63  1  0.451802  0.641575  0.261034  1
  O  O64  1  0.902623  0.033836  0.368174  1
  O  O65  1  0.597377  0.533836  0.131826  1
  O  O66  1  0.402623  0.966164  0.631826  1
  O  O67  1  0.097377  0.466164  0.868174  1
  O  O68  1  0.097377  0.966164  0.631826  1
  O  O69  1  0.402623  0.466164  0.868174  1
  O  O70  1  0.597377  0.033836  0.368174  1
  O  O71  1  0.902623  0.533836  0.131826  1
  O  O72  1  0.750000  0.628718  0.998249  1
  O  O73  1  0.750000  0.128718  0.501751  1
  O  O74  1  0.250000  0.371282  0.001751  1
  O  O75  1  0.250000  0.871282  0.498249  1
  O  O76  1  0.750000  0.355995  0.037763  1
  O  O77  1  0.750000  0.855995  0.462237  1
  O  O78  1  0.250000  0.644005  0.962237  1
  O  O79  1  0.250000  0.144005  0.537763  1
  O  O80  1  0.962106  0.125442  0.064505  1
  O  O81  1  0.537894  0.625442  0.435495  1
  O  O82  1  0.462106  0.874558  0.935495  1
  O  O83  1  0.037894  0.374558  0.564505  1
  O  O84  1  0.037894  0.874558  0.935495  1
  O  O85  1  0.462106  0.374558  0.564505  1
  O  O86  1  0.537894  0.125442  0.064505  1
  O  O87  1  0.962106  0.625442  0.435495  1
  O  O88  1  0.750000  0.071398  0.895426  1
  O  O89  1  0.750000  0.571398  0.604574  1
  O  O90  1  0.250000  0.928602  0.104574  1
  O  O91  1  0.250000  0.428602  0.395426  1
