# generated using pymatgen
data_LiCuPO4
_symmetry_space_group_name_H-M   'P 1'
_cell_length_a   4.89441887
_cell_length_b   9.76270714
_cell_length_c   7.43297861
_cell_angle_alpha   90.00000000
_cell_angle_beta   98.40596182
_cell_angle_gamma   90.00000000
_symmetry_Int_Tables_number   1
_chemical_formula_structural   LiCuPO4
_chemical_formula_sum   'Li4 Cu4 P4 O16'
_cell_volume   351.35283874
_cell_formula_units_Z   4
loop_
 _symmetry_equiv_pos_site_id
 _symmetry_equiv_pos_as_xyz
  1  'x, y, z'
loop_
 _atom_site_type_symbol
 _atom_site_label
 _atom_site_symmetry_multiplicity
 _atom_site_fract_x
 _atom_site_fract_y
 _atom_site_fract_z
 _atom_site_occupancy
  Li  Li0  1  0.700278  0.307682  0.783093  1
  Li  Li1  1  0.350885  0.755009  0.752871  1
  Li  Li2  1  0.649115  0.255009  0.247129  1
  Li  Li3  1  0.299722  0.807682  0.216907  1
  Cu  Cu4  1  0.871061  0.997804  0.939977  1
  Cu  Cu5  1  0.087235  0.160652  0.540483  1
  Cu  Cu6  1  0.912765  0.660652  0.459517  1
  Cu  Cu7  1  0.128939  0.497804  0.060023  1
  P  P8  1  0.229050  0.196696  0.955154  1
  P  P9  1  0.767803  0.900543  0.554313  1
  P  P10  1  0.232197  0.400543  0.445687  1
  P  P11  1  0.770950  0.696696  0.044846  1
  O  O12  1  0.090586  0.337961  0.905725  1
  O  O13  1  0.544085  0.207364  0.981979  1
  O  O14  1  0.883656  0.619083  0.887950  1
  O  O15  1  0.106950  0.100645  0.788973  1
  O  O16  1  0.638425  0.914073  0.733168  1
  O  O17  1  0.405689  0.291581  0.570103  1
  O  O18  1  0.056902  0.830625  0.592407  1
  O  O19  1  0.217590  0.539200  0.544905  1
  O  O20  1  0.782410  0.039200  0.455095  1
  O  O21  1  0.943098  0.330625  0.407593  1
  O  O22  1  0.594311  0.791581  0.429897  1
  O  O23  1  0.361575  0.414073  0.266832  1
  O  O24  1  0.893050  0.600645  0.211027  1
  O  O25  1  0.116344  0.119083  0.112050  1
  O  O26  1  0.455915  0.707364  0.018021  1
  O  O27  1  0.909414  0.837961  0.094275  1
