# generated using pymatgen
data_Gd2HfO5
_symmetry_space_group_name_H-M   'P 1'
_cell_length_a   3.79120736
_cell_length_b   10.87142376
_cell_length_c   11.70687741
_cell_angle_alpha   90.00000000
_cell_angle_beta   90.00000000
_cell_angle_gamma   90.00000000
_symmetry_Int_Tables_number   1
_chemical_formula_structural   Gd2HfO5
_chemical_formula_sum   'Gd8 Hf4 O20'
_cell_volume   482.50857293
_cell_formula_units_Z   4
loop_
 _symmetry_equiv_pos_site_id
 _symmetry_equiv_pos_as_xyz
  1  'x, y, z'
loop_
 _atom_site_type_symbol
 _atom_site_label
 _atom_site_symmetry_multiplicity
 _atom_site_fract_x
 _atom_site_fract_y
 _atom_site_fract_z
 _atom_site_occupancy
  Gd  Gd0  1  0.750000  0.117643  0.278011  1
  Gd  Gd1  1  0.750000  0.130234  0.939258  1
  Gd  Gd2  1  0.250000  0.369766  0.439258  1
  Gd  Gd3  1  0.250000  0.382357  0.778011  1
  Gd  Gd4  1  0.750000  0.617643  0.221989  1
  Gd  Gd5  1  0.750000  0.630234  0.560742  1
  Gd  Gd6  1  0.250000  0.869766  0.060742  1
  Gd  Gd7  1  0.250000  0.882357  0.721989  1
  Hf  Hf8  1  0.750000  0.174566  0.616544  1
  Hf  Hf9  1  0.250000  0.325434  0.116544  1
  Hf  Hf10  1  0.750000  0.674566  0.883456  1
  Hf  Hf11  1  0.250000  0.825434  0.383456  1
  O  O12  1  0.250000  0.005068  0.895892  1
  O  O13  1  0.750000  0.001333  0.657234  1
  O  O14  1  0.750000  0.229363  0.450725  1
  O  O15  1  0.250000  0.245768  0.613569  1
  O  O16  1  0.250000  0.244609  0.271573  1
  O  O17  1  0.750000  0.255391  0.771573  1
  O  O18  1  0.750000  0.254232  0.113569  1
  O  O19  1  0.250000  0.270637  0.950725  1
  O  O20  1  0.250000  0.498667  0.157234  1
  O  O21  1  0.750000  0.494932  0.395892  1
  O  O22  1  0.250000  0.505068  0.604108  1
  O  O23  1  0.750000  0.501333  0.842766  1
  O  O24  1  0.750000  0.729363  0.049275  1
  O  O25  1  0.250000  0.745768  0.886431  1
  O  O26  1  0.250000  0.744609  0.228427  1
  O  O27  1  0.750000  0.755391  0.728427  1
  O  O28  1  0.750000  0.754232  0.386431  1
  O  O29  1  0.250000  0.770637  0.549275  1
  O  O30  1  0.250000  0.998667  0.342766  1
  O  O31  1  0.750000  0.994932  0.104108  1
