# generated using pymatgen
data_MnVP2(O4F)2
_symmetry_space_group_name_H-M   'P 1'
_cell_length_a   5.11388682
_cell_length_b   5.21195687
_cell_length_c   7.36427369
_cell_angle_alpha   108.44120551
_cell_angle_beta   104.91855091
_cell_angle_gamma   95.49953442
_symmetry_Int_Tables_number   1
_chemical_formula_structural   MnVP2(O4F)2
_chemical_formula_sum   'Mn1 V1 P2 O8 F2'
_cell_volume   176.53018283
_cell_formula_units_Z   1
loop_
 _symmetry_equiv_pos_site_id
 _symmetry_equiv_pos_as_xyz
  1  'x, y, z'
loop_
 _atom_site_type_symbol
 _atom_site_label
 _atom_site_symmetry_multiplicity
 _atom_site_fract_x
 _atom_site_fract_y
 _atom_site_fract_z
 _atom_site_occupancy
  Mn  Mn0  1  0.500000  0.500000  0.500000  1
  V  V1  1  0.000000  0.000000  0.000000  1
  P  P2  1  0.435852  0.116166  0.757843  1
  P  P3  1  0.564148  0.883834  0.242157  1
  O  O4  1  0.274978  0.143462  0.915559  1
  O  O5  1  0.351203  0.822509  0.605408  1
  O  O6  1  0.362578  0.333569  0.665644  1
  O  O7  1  0.249605  0.815198  0.123645  1
  O  O8  1  0.750395  0.184802  0.876355  1
  O  O9  1  0.637422  0.666431  0.334356  1
  O  O10  1  0.648797  0.177491  0.394592  1
  O  O11  1  0.725022  0.856538  0.084441  1
  F  F12  1  0.115214  0.300837  0.237572  1
  F  F13  1  0.884786  0.699163  0.762428  1
