# generated using pymatgen
data_Li2MnCrO4
_symmetry_space_group_name_H-M   'P 1'
_cell_length_a   6.03475357
_cell_length_b   10.24075081
_cell_length_c   10.24858659
_cell_angle_alpha   107.63210462
_cell_angle_beta   91.23878916
_cell_angle_gamma   91.95776360
_symmetry_Int_Tables_number   1
_chemical_formula_structural   Li2MnCrO4
_chemical_formula_sum   'Li16 Mn8 Cr8 O32'
_cell_volume   602.91973702
_cell_formula_units_Z   8
loop_
 _symmetry_equiv_pos_site_id
 _symmetry_equiv_pos_as_xyz
  1  'x, y, z'
loop_
 _atom_site_type_symbol
 _atom_site_label
 _atom_site_symmetry_multiplicity
 _atom_site_fract_x
 _atom_site_fract_y
 _atom_site_fract_z
 _atom_site_occupancy
  Li  Li0  1  0.255557  0.748888  0.996965  1
  Li  Li1  1  0.505266  0.750328  0.749884  1
  Li  Li2  1  0.495961  0.250798  0.749605  1
  Li  Li3  1  0.991411  0.751037  0.751508  1
  Li  Li4  1  0.744443  0.251112  0.003035  1
  Li  Li5  1  0.755288  0.998146  0.749631  1
  Li  Li6  1  0.998030  0.248925  0.750444  1
  Li  Li7  1  0.248499  0.498288  0.750555  1
  Li  Li8  1  0.746405  0.750410  0.503172  1
  Li  Li9  1  0.253595  0.249590  0.496828  1
  Li  Li10  1  0.504039  0.749202  0.250395  1
  Li  Li11  1  0.001970  0.751075  0.249556  1
  Li  Li12  1  0.244712  0.001854  0.250369  1
  Li  Li13  1  0.494734  0.249672  0.250116  1
  Li  Li14  1  0.008589  0.248963  0.248492  1
  Li  Li15  1  0.751501  0.501712  0.249445  1
  Mn  Mn16  1  0.500000  0.000000  0.000000  1
  Mn  Mn17  1  0.500000  0.500000  0.000000  1
  Mn  Mn18  1  0.240193  0.250072  0.998840  1
  Mn  Mn19  1  0.759807  0.749928  0.001160  1
  Mn  Mn20  1  0.000000  0.000000  0.000000  1
  Mn  Mn21  1  0.249829  0.749356  0.499500  1
  Mn  Mn22  1  0.000000  0.500000  0.500000  1
  Mn  Mn23  1  0.750171  0.250644  0.500500  1
  Cr  Cr24  1  0.000000  0.500000  0.000000  1
  Cr  Cr25  1  0.253176  0.996779  0.749193  1
  Cr  Cr26  1  0.500000  0.000000  0.500000  1
  Cr  Cr27  1  0.000000  0.000000  0.500000  1
  Cr  Cr28  1  0.500000  0.500000  0.500000  1
  Cr  Cr29  1  0.746536  0.501068  0.750664  1
  Cr  Cr30  1  0.253464  0.498932  0.249336  1
  Cr  Cr31  1  0.746824  0.003221  0.250807  1
  O  O32  1  0.772705  0.871587  0.886279  1
  O  O33  1  0.496835  0.114287  0.874789  1
  O  O34  1  0.739328  0.388390  0.885467  1
  O  O35  1  0.270539  0.880914  0.877162  1
  O  O36  1  0.473434  0.877869  0.622276  1
  O  O37  1  0.223289  0.370471  0.885419  1
  O  O38  1  0.024349  0.113458  0.872484  1
  O  O39  1  0.525500  0.617553  0.880048  1
  O  O40  1  0.259734  0.110314  0.616595  1
  O  O41  1  0.500840  0.383891  0.628610  1
  O  O42  1  0.003924  0.883278  0.627201  1
  O  O43  1  0.997645  0.614092  0.870919  1
  O  O44  1  0.740266  0.889686  0.383405  1
  O  O45  1  0.970786  0.381868  0.623773  1
  O  O46  1  0.252347  0.615293  0.605366  1
  O  O47  1  0.759529  0.120638  0.609054  1
  O  O48  1  0.240471  0.879362  0.390946  1
  O  O49  1  0.526566  0.122131  0.377724  1
  O  O50  1  0.747653  0.384707  0.394634  1
  O  O51  1  0.996076  0.116722  0.372799  1
  O  O52  1  0.261670  0.380668  0.373472  1
  O  O53  1  0.738330  0.619332  0.626528  1
  O  O54  1  0.499160  0.616109  0.371390  1
  O  O55  1  0.503165  0.885713  0.125211  1
  O  O56  1  0.975651  0.886542  0.127516  1
  O  O57  1  0.227295  0.128413  0.113721  1
  O  O58  1  0.474500  0.382447  0.119952  1
  O  O59  1  0.029214  0.618132  0.376227  1
  O  O60  1  0.260672  0.611610  0.114533  1
  O  O61  1  0.729461  0.119086  0.122838  1
  O  O62  1  0.002355  0.385908  0.129081  1
  O  O63  1  0.776711  0.629529  0.114581  1
