# generated using pymatgen
data_Na2Ni3O7
_symmetry_space_group_name_H-M   'P 1'
_cell_length_a   7.05327109
_cell_length_b   7.08947313
_cell_length_c   7.09093312
_cell_angle_alpha   64.18566438
_cell_angle_beta   64.11790749
_cell_angle_gamma   64.40100703
_symmetry_Int_Tables_number   1
_chemical_formula_structural   Na2Ni3O7
_chemical_formula_sum   'Na4 Ni6 O14'
_cell_volume   274.05762349
_cell_formula_units_Z   2
loop_
 _symmetry_equiv_pos_site_id
 _symmetry_equiv_pos_as_xyz
  1  'x, y, z'
loop_
 _atom_site_type_symbol
 _atom_site_label
 _atom_site_symmetry_multiplicity
 _atom_site_fract_x
 _atom_site_fract_y
 _atom_site_fract_z
 _atom_site_occupancy
  Na  Na0  1  0.134932  0.282595  0.563138  1
  Na  Na1  1  0.197969  0.951535  0.358353  1
  Na  Na2  1  0.028568  0.633996  0.830906  1
  Na  Na3  1  0.422466  0.207855  0.869113  1
  Ni  Ni4  1  0.288312  0.572271  0.144400  1
  Ni  Ni5  1  0.576880  0.143353  0.283742  1
  Ni  Ni6  1  0.001263  0.998300  0.001307  1
  Ni  Ni7  1  0.851862  0.715608  0.427986  1
  Ni  Ni8  1  0.430640  0.852499  0.714087  1
  Ni  Ni9  1  0.713844  0.429346  0.860352  1
  O  O10  1  0.305213  0.277309  0.228729  1
  O  O11  1  0.297827  0.872121  0.007682  1
  O  O12  1  0.579655  0.439059  0.157875  1
  O  O13  1  0.870450  0.007979  0.293278  1
  O  O14  1  0.143460  0.620094  0.422710  1
  O  O15  1  0.990263  0.703054  0.136765  1
  O  O16  1  0.473800  0.125326  0.577270  1
  O  O17  1  0.553085  0.853579  0.417871  1
  O  O18  1  0.798013  0.446269  0.569717  1
  O  O19  1  0.138245  0.943990  0.726417  1
  O  O20  1  0.416946  0.558894  0.854010  1
  O  O21  1  0.727885  0.720437  0.722783  1
  O  O22  1  0.710560  0.132886  0.988842  1
  O  O23  1  0.993785  0.292097  0.901510  1
