# generated using pymatgen
data_LiCoPO4
_symmetry_space_group_name_H-M   'P 1'
_cell_length_a   7.69786162
_cell_length_b   4.89130456
_cell_length_c   18.45770473
_cell_angle_alpha   90.00000000
_cell_angle_beta   90.27417644
_cell_angle_gamma   90.00000000
_symmetry_Int_Tables_number   1
_chemical_formula_structural   LiCoPO4
_chemical_formula_sum   'Li8 Co8 P8 O32'
_cell_volume   694.97235132
_cell_formula_units_Z   8
loop_
 _symmetry_equiv_pos_site_id
 _symmetry_equiv_pos_as_xyz
  1  'x, y, z'
loop_
 _atom_site_type_symbol
 _atom_site_label
 _atom_site_symmetry_multiplicity
 _atom_site_fract_x
 _atom_site_fract_y
 _atom_site_fract_z
 _atom_site_occupancy
  Li  Li0  1  0.027835  0.758320  0.416348  1
  Li  Li1  1  0.027835  0.741680  0.916348  1
  Li  Li2  1  0.508676  0.337350  0.187790  1
  Li  Li3  1  0.508676  0.162650  0.687790  1
  Li  Li4  1  0.491324  0.837350  0.312210  1
  Li  Li5  1  0.491324  0.662650  0.812210  1
  Li  Li6  1  0.972165  0.258320  0.083652  1
  Li  Li7  1  0.972165  0.241680  0.583652  1
  Co  Co8  1  0.158232  0.775036  0.229273  1
  Co  Co9  1  0.158232  0.724964  0.729273  1
  Co  Co10  1  0.329401  0.221039  0.479216  1
  Co  Co11  1  0.329401  0.278961  0.979216  1
  Co  Co12  1  0.670599  0.721039  0.020784  1
  Co  Co13  1  0.670599  0.778961  0.520784  1
  Co  Co14  1  0.841768  0.275036  0.270727  1
  Co  Co15  1  0.841768  0.224964  0.770727  1
  P  P16  1  0.244943  0.328955  0.317039  1
  P  P17  1  0.244943  0.171045  0.817039  1
  P  P18  1  0.258961  0.731636  0.064779  1
  P  P19  1  0.258961  0.768364  0.564779  1
  P  P20  1  0.741039  0.231636  0.435221  1
  P  P21  1  0.741039  0.268364  0.935221  1
  P  P22  1  0.755057  0.828955  0.182961  1
  P  P23  1  0.755057  0.671045  0.682961  1
  O  O24  1  0.077386  0.435368  0.277064  1
  O  O25  1  0.077386  0.064632  0.777064  1
  O  O26  1  0.176714  0.606495  0.994969  1
  O  O27  1  0.162667  0.616743  0.131614  1
  O  O28  1  0.222539  0.417132  0.396525  1
  O  O29  1  0.259370  0.012710  0.308367  1
  O  O30  1  0.176714  0.893505  0.494969  1
  O  O31  1  0.162667  0.883257  0.631614  1
  O  O32  1  0.222539  0.082868  0.896525  1
  O  O33  1  0.259370  0.487290  0.808367  1
  O  O34  1  0.247201  0.048705  0.063194  1
  O  O35  1  0.247201  0.451295  0.563194  1
  O  O36  1  0.397456  0.475431  0.278645  1
  O  O37  1  0.397456  0.024569  0.778645  1
  O  O38  1  0.449441  0.621815  0.068756  1
  O  O39  1  0.449441  0.878185  0.568756  1
  O  O40  1  0.550559  0.121815  0.431244  1
  O  O41  1  0.550559  0.378185  0.931244  1
  O  O42  1  0.602544  0.975431  0.221355  1
  O  O43  1  0.602544  0.524569  0.721355  1
  O  O44  1  0.752799  0.548705  0.436806  1
  O  O45  1  0.752799  0.951295  0.936806  1
  O  O46  1  0.740630  0.512710  0.191633  1
  O  O47  1  0.777461  0.917132  0.103475  1
  O  O48  1  0.837333  0.116743  0.368386  1
  O  O49  1  0.823286  0.106495  0.505031  1
  O  O50  1  0.740630  0.987290  0.691633  1
  O  O51  1  0.777461  0.582868  0.603475  1
  O  O52  1  0.837333  0.383257  0.868386  1
  O  O53  1  0.823286  0.393505  0.005031  1
  O  O54  1  0.922614  0.935368  0.222936  1
  O  O55  1  0.922614  0.564632  0.722936  1
