# generated using pymatgen
data_LiMn3OF5
_symmetry_space_group_name_H-M   'P 1'
_cell_length_a   6.30375732
_cell_length_b   6.35821655
_cell_length_c   6.36016302
_cell_angle_alpha   92.21342383
_cell_angle_beta   92.40817785
_cell_angle_gamma   91.94155201
_symmetry_Int_Tables_number   1
_chemical_formula_structural   LiMn3OF5
_chemical_formula_sum   'Li2 Mn6 O2 F10'
_cell_volume   254.34336222
_cell_formula_units_Z   2
loop_
 _symmetry_equiv_pos_site_id
 _symmetry_equiv_pos_as_xyz
  1  'x, y, z'
loop_
 _atom_site_type_symbol
 _atom_site_label
 _atom_site_symmetry_multiplicity
 _atom_site_fract_x
 _atom_site_fract_y
 _atom_site_fract_z
 _atom_site_occupancy
  Li  Li0  1  0.491697  0.502549  0.517358  1
  Li  Li1  1  0.003415  0.015034  0.023901  1
  Mn  Mn2  1  0.728962  0.444881  0.915734  1
  Mn  Mn3  1  0.065517  0.243687  0.548074  1
  Mn  Mn4  1  0.587364  0.076075  0.261284  1
  Mn  Mn5  1  0.436721  0.904636  0.751839  1
  Mn  Mn6  1  0.929624  0.761764  0.426607  1
  Mn  Mn7  1  0.261935  0.564167  0.057268  1
  O  O8  1  0.909133  0.063883  0.319185  1
  O  O9  1  0.461727  0.594809  0.818436  1
  F  F10  1  0.682989  0.096390  0.912411  1
  F  F11  1  0.062423  0.310484  0.902173  1
  F  F12  1  0.404247  0.180173  0.544509  1
  F  F13  1  0.821034  0.475424  0.585941  1
  F  F14  1  0.188109  0.538331  0.390789  1
  F  F15  1  0.542512  0.401372  0.203313  1
  F  F16  1  0.091136  0.916896  0.702836  1
  F  F17  1  0.581728  0.797618  0.452298  1
  F  F18  1  0.932795  0.680853  0.077189  1
  F  F19  1  0.316933  0.930971  0.088852  1
