# generated using pymatgen
data_Nb4VO12
_symmetry_space_group_name_H-M   'P 1'
_cell_length_a   5.16893198
_cell_length_b   5.65434177
_cell_length_c   7.77399875
_cell_angle_alpha   84.71050914
_cell_angle_beta   89.79558132
_cell_angle_gamma   89.63212245
_symmetry_Int_Tables_number   1
_chemical_formula_structural   Nb4VO12
_chemical_formula_sum   'Nb4 V1 O12'
_cell_volume   226.23672678
_cell_formula_units_Z   1
loop_
 _symmetry_equiv_pos_site_id
 _symmetry_equiv_pos_as_xyz
  1  'x, y, z'
loop_
 _atom_site_type_symbol
 _atom_site_label
 _atom_site_symmetry_multiplicity
 _atom_site_fract_x
 _atom_site_fract_y
 _atom_site_fract_z
 _atom_site_occupancy
  Nb  Nb0  1  0.981135  0.993045  0.017515  1
  Nb  Nb1  1  0.504308  0.527315  0.490692  1
  Nb  Nb2  1  0.003073  0.995738  0.497842  1
  Nb  Nb3  1  0.487533  0.505377  0.021295  1
  V  V4  1  0.014001  0.398311  0.718749  1
  O  O5  1  0.732682  0.259147  0.579490  1
  O  O6  1  0.885828  0.034906  0.270163  1
  O  O7  1  0.690807  0.835786  0.958966  1
  O  O8  1  0.829860  0.703882  0.593932  1
  O  O9  1  0.198856  0.729315  0.062058  1
  O  O10  1  0.611971  0.523985  0.261736  1
  O  O11  1  0.324171  0.529582  0.760136  1
  O  O12  1  0.811331  0.362588  0.926220  1
  O  O13  1  0.199813  0.336367  0.482781  1
  O  O14  1  0.303846  0.232313  0.066882  1
  O  O15  1  0.096568  0.068923  0.767675  1
  O  O16  1  0.324218  0.844823  0.464572  1
