# generated using pymatgen
data_Al2Si2O7
_symmetry_space_group_name_H-M   'P 1'
_cell_length_a   5.20798424
_cell_length_b   5.20798424
_cell_length_c   9.49369315
_cell_angle_alpha   75.80708111
_cell_angle_beta   104.19291889
_cell_angle_gamma   84.02674476
_symmetry_Int_Tables_number   1
_chemical_formula_structural   Al2Si2O7
_chemical_formula_sum   'Al4 Si4 O14'
_cell_volume   238.29729134
_cell_formula_units_Z   2
loop_
 _symmetry_equiv_pos_site_id
 _symmetry_equiv_pos_as_xyz
  1  'x, y, z'
loop_
 _atom_site_type_symbol
 _atom_site_label
 _atom_site_symmetry_multiplicity
 _atom_site_fract_x
 _atom_site_fract_y
 _atom_site_fract_z
 _atom_site_occupancy
  Al  Al0  1  0.249659  0.898541  0.977895  1
  Al  Al1  1  0.898541  0.249659  0.522105  1
  Al  Al2  1  0.101459  0.750341  0.477895  1
  Al  Al3  1  0.750341  0.101459  0.022105  1
  Si  Si4  1  0.509394  0.987250  0.704803  1
  Si  Si5  1  0.012750  0.490606  0.204803  1
  Si  Si6  1  0.987250  0.509394  0.795197  1
  Si  Si7  1  0.490606  0.012750  0.295197  1
  O  O8  1  0.209841  0.636922  0.892264  1
  O  O9  1  0.199892  0.983618  0.603926  1
  O  O10  1  0.315710  0.315710  0.250000  1
  O  O11  1  0.636922  0.209841  0.607736  1
  O  O12  1  0.487455  0.050531  0.866211  1
  O  O13  1  0.983618  0.199892  0.896074  1
  O  O14  1  0.949469  0.512545  0.366211  1
  O  O15  1  0.050531  0.487455  0.633789  1
  O  O16  1  0.016382  0.800108  0.103926  1
  O  O17  1  0.512545  0.949469  0.133789  1
  O  O18  1  0.363078  0.790159  0.392264  1
  O  O19  1  0.684290  0.684290  0.750000  1
  O  O20  1  0.800108  0.016382  0.396074  1
  O  O21  1  0.790159  0.363078  0.107736  1
