# generated using pymatgen
data_Fe6O11F
_symmetry_space_group_name_H-M   'P 1'
_cell_length_a   5.50428775
_cell_length_b   5.50428775
_cell_length_c   7.11808983
_cell_angle_alpha   72.27868785
_cell_angle_beta   107.72131215
_cell_angle_gamma   106.10573109
_symmetry_Int_Tables_number   1
_chemical_formula_structural   Fe6O11F
_chemical_formula_sum   'Fe6 O11 F1'
_cell_volume   191.57734101
_cell_formula_units_Z   1
loop_
 _symmetry_equiv_pos_site_id
 _symmetry_equiv_pos_as_xyz
  1  'x, y, z'
loop_
 _atom_site_type_symbol
 _atom_site_label
 _atom_site_symmetry_multiplicity
 _atom_site_fract_x
 _atom_site_fract_y
 _atom_site_fract_z
 _atom_site_occupancy
  Fe  Fe0  1  0.335993  0.335993  0.000000  1
  Fe  Fe1  1  0.672030  0.001861  0.834062  1
  Fe  Fe2  1  0.312990  0.312990  0.500000  1
  Fe  Fe3  1  0.667114  0.014405  0.326697  1
  Fe  Fe4  1  0.014405  0.667114  0.673303  1
  Fe  Fe5  1  0.001861  0.672030  0.165938  1
  O  O6  1  0.983036  0.310823  0.833874  1
  O  O7  1  0.098254  0.562491  0.460228  1
  O  O8  1  0.772986  0.903269  0.129460  1
  O  O9  1  0.436044  0.226169  0.794275  1
  O  O10  1  0.226169  0.436044  0.205725  1
  O  O11  1  0.562491  0.098254  0.539772  1
  O  O12  1  0.903269  0.772986  0.870540  1
  O  O13  1  0.012930  0.012930  0.500000  1
  O  O14  1  0.370436  0.686296  0.839814  1
  O  O15  1  0.686296  0.370436  0.160186  1
  O  O16  1  0.310823  0.983036  0.166126  1
  F  F17  1  0.632877  0.632877  0.500000  1
