# generated using pymatgen
data_Li3V4(OF3)3
_symmetry_space_group_name_H-M   'P 1'
_cell_length_a   5.19496870
_cell_length_b   5.54465851
_cell_length_c   17.27893711
_cell_angle_alpha   88.62731317
_cell_angle_beta   97.57609749
_cell_angle_gamma   117.45401992
_symmetry_Int_Tables_number   1
_chemical_formula_structural   Li3V4(OF3)3
_chemical_formula_sum   'Li6 V8 O6 F18'
_cell_volume   437.41754075
_cell_formula_units_Z   2
loop_
 _symmetry_equiv_pos_site_id
 _symmetry_equiv_pos_as_xyz
  1  'x, y, z'
loop_
 _atom_site_type_symbol
 _atom_site_label
 _atom_site_symmetry_multiplicity
 _atom_site_fract_x
 _atom_site_fract_y
 _atom_site_fract_z
 _atom_site_occupancy
  Li  Li0  1  0.819473  0.330112  0.295304  1
  Li  Li1  1  0.698143  0.412921  0.954643  1
  Li  Li2  1  0.318756  0.069995  0.554803  1
  Li  Li3  1  0.569661  0.724316  0.432050  1
  Li  Li4  1  0.426011  0.816163  0.060118  1
  Li  Li5  1  0.178894  0.662972  0.698611  1
  V  V6  1  0.999929  0.009090  0.999711  1
  V  V7  1  0.758938  0.373279  0.124568  1
  V  V8  1  0.518431  0.720886  0.244880  1
  V  V9  1  0.503824  0.247331  0.750303  1
  V  V10  1  0.255143  0.091382  0.376533  1
  V  V11  1  0.719462  0.882575  0.629319  1
  V  V12  1  0.029152  0.521465  0.503630  1
  V  V13  1  0.240129  0.639437  0.880031  1
  O  O14  1  0.805942  0.196690  0.036980  1
  O  O15  1  0.663456  0.049406  0.710670  1
  O  O16  1  0.696134  0.521870  0.217535  1
  O  O17  1  0.304796  0.674636  0.593640  1
  O  O18  1  0.254306  0.814210  0.439964  1
  O  O19  1  0.155778  0.773371  0.965231  1
  F  F20  1  0.773232  0.080871  0.197495  1
  F  F21  1  0.732262  0.193987  0.554855  1
  F  F22  1  0.720493  0.664186  0.057192  1
  F  F23  1  0.703949  0.347018  0.401914  1
  F  F24  1  0.793226  0.394548  0.849248  1
  F  F25  1  0.801649  0.897680  0.347820  1
  F  F26  1  0.819263  0.745754  0.528887  1
  F  F27  1  0.316037  0.121319  0.091985  1
  F  F28  1  0.761470  0.574607  0.689316  1
  F  F29  1  0.249151  0.424392  0.318076  1
  F  F30  1  0.679069  0.848006  0.908462  1
  F  F31  1  0.229636  0.294316  0.470447  1
  F  F32  1  0.175237  0.095816  0.651604  1
  F  F33  1  0.215637  0.609660  0.149687  1
  F  F34  1  0.305873  0.473873  0.779873  1
  F  F35  1  0.340195  0.964090  0.283547  1
  F  F36  1  0.275662  0.331381  0.937448  1
  F  F37  1  0.231497  0.913461  0.802895  1
