# generated using pymatgen
data_Nb2Ge2O7
_symmetry_space_group_name_H-M   'P 1'
_cell_length_a   13.52116322
_cell_length_b   13.52116322
_cell_length_c   5.87043352
_cell_angle_alpha   90.00000000
_cell_angle_beta   90.00000000
_cell_angle_gamma   163.24444682
_symmetry_Int_Tables_number   1
_chemical_formula_structural   Nb2Ge2O7
_chemical_formula_sum   'Nb4 Ge4 O14'
_cell_volume   309.40438987
_cell_formula_units_Z   2
loop_
 _symmetry_equiv_pos_site_id
 _symmetry_equiv_pos_as_xyz
  1  'x, y, z'
loop_
 _atom_site_type_symbol
 _atom_site_label
 _atom_site_symmetry_multiplicity
 _atom_site_fract_x
 _atom_site_fract_y
 _atom_site_fract_z
 _atom_site_occupancy
  Nb  Nb0  1  0.942739  0.057261  0.997193  1
  Nb  Nb1  1  0.838925  0.161075  0.516239  1
  Nb  Nb2  1  0.161075  0.838925  0.016239  1
  Nb  Nb3  1  0.057261  0.942739  0.497193  1
  Ge  Ge4  1  0.713652  0.286348  0.562602  1
  Ge  Ge5  1  0.436422  0.563578  0.432677  1
  Ge  Ge6  1  0.563578  0.436422  0.932677  1
  Ge  Ge7  1  0.286348  0.713652  0.062602  1
  O  O8  1  0.992010  0.007990  0.778457  1
  O  O9  1  0.885675  0.114325  0.819687  1
  O  O10  1  0.907806  0.092194  0.341141  1
  O  O11  1  0.777152  0.222848  0.698039  1
  O  O12  1  0.801648  0.198352  0.239377  1
  O  O13  1  0.556846  0.443154  0.591870  1
  O  O14  1  0.647998  0.352002  0.012298  1
  O  O15  1  0.443154  0.556846  0.091870  1
  O  O16  1  0.352002  0.647998  0.512298  1
  O  O17  1  0.198352  0.801648  0.739377  1
  O  O18  1  0.114325  0.885675  0.319687  1
  O  O19  1  0.007990  0.992010  0.278457  1
  O  O20  1  0.222848  0.777152  0.198039  1
  O  O21  1  0.092194  0.907806  0.841141  1
