# generated using pymatgen
data_LaAlO3
_symmetry_space_group_name_H-M   'P 1'
_cell_length_a   7.66406743
_cell_length_b   6.05392113
_cell_length_c   13.57440078
_cell_angle_alpha   90.00000000
_cell_angle_beta   115.26346102
_cell_angle_gamma   90.00000000
_symmetry_Int_Tables_number   1
_chemical_formula_structural   LaAlO3
_chemical_formula_sum   'La8 Al8 O24'
_cell_volume   569.58119302
_cell_formula_units_Z   8
loop_
 _symmetry_equiv_pos_site_id
 _symmetry_equiv_pos_as_xyz
  1  'x, y, z'
loop_
 _atom_site_type_symbol
 _atom_site_label
 _atom_site_symmetry_multiplicity
 _atom_site_fract_x
 _atom_site_fract_y
 _atom_site_fract_z
 _atom_site_occupancy
  La  La0  1  0.225309  0.394885  0.130959  1
  La  La1  1  0.739250  0.091516  0.648956  1
  La  La2  1  0.774691  0.894885  0.369041  1
  La  La3  1  0.260750  0.591516  0.851044  1
  La  La4  1  0.739250  0.408484  0.148956  1
  La  La5  1  0.225309  0.105115  0.630959  1
  La  La6  1  0.260750  0.908484  0.351044  1
  La  La7  1  0.774691  0.605115  0.869041  1
  Al  Al8  1  0.551569  0.364591  0.377987  1
  Al  Al9  1  0.854350  0.594895  0.595944  1
  Al  Al10  1  0.448431  0.864591  0.122013  1
  Al  Al11  1  0.145650  0.094895  0.904056  1
  Al  Al12  1  0.854350  0.905105  0.095944  1
  Al  Al13  1  0.551569  0.135409  0.877987  1
  Al  Al14  1  0.145650  0.405105  0.404056  1
  Al  Al15  1  0.448431  0.635409  0.622013  1
  O  O16  1  0.702456  0.598840  0.667177  1
  O  O17  1  0.604727  0.114199  0.452475  1
  O  O18  1  0.425143  0.820663  0.244927  1
  O  O19  1  0.306393  0.080728  0.043952  1
  O  O20  1  0.998655  0.864288  0.844383  1
  O  O21  1  0.693607  0.580728  0.456048  1
  O  O22  1  0.041138  0.358919  0.898572  1
  O  O23  1  0.574857  0.320663  0.255073  1
  O  O24  1  0.395273  0.614199  0.047525  1
  O  O25  1  0.958862  0.858919  0.601428  1
  O  O26  1  0.001345  0.364288  0.655617  1
  O  O27  1  0.702456  0.901160  0.167177  1
  O  O28  1  0.297544  0.098840  0.832823  1
  O  O29  1  0.998655  0.635712  0.344383  1
  O  O30  1  0.041138  0.141081  0.398572  1
  O  O31  1  0.604727  0.385801  0.952475  1
  O  O32  1  0.425143  0.679337  0.744927  1
  O  O33  1  0.958862  0.641081  0.101428  1
  O  O34  1  0.306393  0.419272  0.543952  1
  O  O35  1  0.001345  0.135712  0.155617  1
  O  O36  1  0.693607  0.919272  0.956048  1
  O  O37  1  0.574857  0.179337  0.755073  1
  O  O38  1  0.395273  0.885801  0.547525  1
  O  O39  1  0.297544  0.401160  0.332823  1
