# generated using pymatgen
data_Li6Fe3Sn(PO4)6
_symmetry_space_group_name_H-M   'P 1'
_cell_length_a   8.58767541
_cell_length_b   8.64650526
_cell_length_c   8.65690837
_cell_angle_alpha   61.77204391
_cell_angle_beta   62.05397509
_cell_angle_gamma   62.04515716
_symmetry_Int_Tables_number   1
_chemical_formula_structural   Li6Fe3Sn(PO4)6
_chemical_formula_sum   'Li6 Fe3 Sn1 P6 O24'
_cell_volume   474.42771917
_cell_formula_units_Z   1
loop_
 _symmetry_equiv_pos_site_id
 _symmetry_equiv_pos_as_xyz
  1  'x, y, z'
loop_
 _atom_site_type_symbol
 _atom_site_label
 _atom_site_symmetry_multiplicity
 _atom_site_fract_x
 _atom_site_fract_y
 _atom_site_fract_z
 _atom_site_occupancy
  Li  Li0  1  0.977111  0.998643  0.991746  1
  Li  Li1  1  0.253847  0.648267  0.851237  1
  Li  Li2  1  0.519438  0.502612  0.496470  1
  Li  Li3  1  0.706922  0.352655  0.160878  1
  Li  Li4  1  0.356802  0.161298  0.705295  1
  Li  Li5  1  0.160749  0.703960  0.356803  1
  Fe  Fe6  1  0.853466  0.860491  0.856241  1
  Fe  Fe7  1  0.647565  0.643504  0.638897  1
  Fe  Fe8  1  0.350841  0.347046  0.354254  1
  Sn  Sn9  1  0.145334  0.146297  0.150227  1
  P  P10  1  0.253057  0.946397  0.557547  1
  P  P11  1  0.945022  0.558258  0.254051  1
  P  P12  1  0.558728  0.251666  0.946187  1
  P  P13  1  0.752454  0.040284  0.461258  1
  P  P14  1  0.453902  0.749267  0.039296  1
  P  P15  1  0.046111  0.462684  0.755096  1
  O  O16  1  0.874638  0.508123  0.709396  1
  O  O17  1  0.694420  0.881939  0.495132  1
  O  O18  1  0.941576  0.736804  0.083434  1
  O  O19  1  0.464283  0.699329  0.885065  1
  O  O20  1  0.982247  0.391625  0.199078  1
  O  O21  1  0.755596  0.571997  0.409584  1
  O  O22  1  0.743405  0.091686  0.923154  1
  O  O23  1  0.553668  0.419153  0.764551  1
  O  O24  1  0.827822  0.994935  0.610411  1
  O  O25  1  0.405804  0.753520  0.575411  1
  O  O26  1  0.905535  0.069295  0.261147  1
  O  O27  1  0.616663  0.813288  0.981858  1
  O  O28  1  0.392556  0.192163  0.985684  1
  O  O29  1  0.095846  0.922403  0.746757  1
  O  O30  1  0.594447  0.230196  0.446357  1
  O  O31  1  0.195045  0.983021  0.394398  1
  O  O32  1  0.445702  0.589953  0.227640  1
  O  O33  1  0.257219  0.905844  0.076147  1
  O  O34  1  0.232132  0.440213  0.593757  1
  O  O35  1  0.026816  0.609934  0.819750  1
  O  O36  1  0.532670  0.306272  0.103126  1
  O  O37  1  0.067479  0.263595  0.910631  1
  O  O38  1  0.312812  0.100782  0.528662  1
  O  O39  1  0.100271  0.527605  0.316387  1
