# generated using pymatgen
data_Li3Ni5O8
_symmetry_space_group_name_H-M   'P 1'
_cell_length_a   5.85781692
_cell_length_b   5.85781692
_cell_length_c   5.85781692
_cell_angle_alpha   59.80563570
_cell_angle_beta   59.80563570
_cell_angle_gamma   59.80563570
_symmetry_Int_Tables_number   1
_chemical_formula_structural   Li3Ni5O8
_chemical_formula_sum   'Li3 Ni5 O8'
_cell_volume   141.50507061
_cell_formula_units_Z   1
loop_
 _symmetry_equiv_pos_site_id
 _symmetry_equiv_pos_as_xyz
  1  'x, y, z'
loop_
 _atom_site_type_symbol
 _atom_site_label
 _atom_site_symmetry_multiplicity
 _atom_site_fract_x
 _atom_site_fract_y
 _atom_site_fract_z
 _atom_site_occupancy
  Li  Li0  1  0.500000  0.000000  0.000000  1
  Li  Li1  1  0.000000  0.000000  0.500000  1
  Li  Li2  1  0.000000  0.500000  0.000000  1
  Ni  Ni3  1  0.500000  0.500000  0.500000  1
  Ni  Ni4  1  0.000000  0.000000  0.000000  1
  Ni  Ni5  1  0.500000  0.000000  0.500000  1
  Ni  Ni6  1  0.000000  0.500000  0.500000  1
  Ni  Ni7  1  0.500000  0.500000  0.000000  1
  O  O8  1  0.738213  0.738213  0.738213  1
  O  O9  1  0.249947  0.742537  0.249947  1
  O  O10  1  0.742537  0.249947  0.249947  1
  O  O11  1  0.249947  0.249947  0.742537  1
  O  O12  1  0.750053  0.750053  0.257463  1
  O  O13  1  0.257463  0.750053  0.750053  1
  O  O14  1  0.750053  0.257463  0.750053  1
  O  O15  1  0.261787  0.261787  0.261787  1
