# generated using pymatgen
data_Li2FeSiO4
_symmetry_space_group_name_H-M   'P 1'
_cell_length_a   6.91652868
_cell_length_b   5.26358182
_cell_length_c   10.26347865
_cell_angle_alpha   90.00000000
_cell_angle_beta   90.68784818
_cell_angle_gamma   90.00000000
_symmetry_Int_Tables_number   1
_chemical_formula_structural   Li2FeSiO4
_chemical_formula_sum   'Li8 Fe4 Si4 O16'
_cell_volume   373.62234881
_cell_formula_units_Z   4
loop_
 _symmetry_equiv_pos_site_id
 _symmetry_equiv_pos_as_xyz
  1  'x, y, z'
loop_
 _atom_site_type_symbol
 _atom_site_label
 _atom_site_symmetry_multiplicity
 _atom_site_fract_x
 _atom_site_fract_y
 _atom_site_fract_z
 _atom_site_occupancy
  Li  Li0  1  0.003965  0.237279  0.155373  1
  Li  Li1  1  0.003965  0.262721  0.655373  1
  Li  Li2  1  0.225369  0.370604  0.349268  1
  Li  Li3  1  0.225369  0.129396  0.849268  1
  Li  Li4  1  0.774631  0.870604  0.150732  1
  Li  Li5  1  0.774631  0.629396  0.650732  1
  Li  Li6  1  0.996035  0.737279  0.344627  1
  Li  Li7  1  0.996035  0.762721  0.844627  1
  Fe  Fe8  1  0.497470  0.253361  0.140627  1
  Fe  Fe9  1  0.502530  0.753361  0.359373  1
  Fe  Fe10  1  0.497470  0.246639  0.640627  1
  Fe  Fe11  1  0.502530  0.746639  0.859373  1
  Si  Si12  1  0.240455  0.740250  0.101967  1
  Si  Si13  1  0.240455  0.759750  0.601967  1
  Si  Si14  1  0.759545  0.240250  0.398033  1
  Si  Si15  1  0.759545  0.259750  0.898033  1
  O  O16  1  0.050285  0.863756  0.165898  1
  O  O17  1  0.050285  0.636244  0.665898  1
  O  O18  1  0.246830  0.430188  0.134264  1
  O  O19  1  0.248067  0.708844  0.442469  1
  O  O20  1  0.246830  0.069812  0.634264  1
  O  O21  1  0.447548  0.860614  0.163704  1
  O  O22  1  0.248067  0.791156  0.942469  1
  O  O23  1  0.447548  0.639386  0.663704  1
  O  O24  1  0.552452  0.360614  0.336296  1
  O  O25  1  0.751933  0.208844  0.057531  1
  O  O26  1  0.552452  0.139386  0.836296  1
  O  O27  1  0.753170  0.930188  0.365736  1
  O  O28  1  0.751933  0.291156  0.557531  1
  O  O29  1  0.753170  0.569812  0.865736  1
  O  O30  1  0.949715  0.363756  0.334102  1
  O  O31  1  0.949715  0.136244  0.834102  1
