# generated using pymatgen
data_Li4Co3O3F4
_symmetry_space_group_name_H-M   'P 1'
_cell_length_a   15.13713527
_cell_length_b   15.13713527
_cell_length_c   15.13713527
_cell_angle_alpha   168.80673543
_cell_angle_beta   168.80673543
_cell_angle_gamma   15.85504535
_symmetry_Int_Tables_number   1
_chemical_formula_structural   Li4Co3O3F4
_chemical_formula_sum   'Li4 Co3 O3 F4'
_cell_volume   130.69148491
_cell_formula_units_Z   1
loop_
 _symmetry_equiv_pos_site_id
 _symmetry_equiv_pos_as_xyz
  1  'x, y, z'
loop_
 _atom_site_type_symbol
 _atom_site_label
 _atom_site_symmetry_multiplicity
 _atom_site_fract_x
 _atom_site_fract_y
 _atom_site_fract_z
 _atom_site_occupancy
  Li  Li0  1  0.147675  0.147675  0.000000  1
  Li  Li1  1  0.716595  0.716595  0.000000  1
  Li  Li2  1  0.283405  0.283405  0.000000  1
  Li  Li3  1  0.852325  0.852325  0.000000  1
  Co  Co4  1  0.426052  0.426052  0.000000  1
  Co  Co5  1  0.000000  0.000000  0.000000  1
  Co  Co6  1  0.573948  0.573948  0.000000  1
  O  O7  1  0.924505  0.924505  0.000000  1
  O  O8  1  0.500000  0.500000  0.000000  1
  O  O9  1  0.075495  0.075495  0.000000  1
  F  F10  1  0.649273  0.649273  0.000000  1
  F  F11  1  0.216225  0.216225  0.000000  1
  F  F12  1  0.783775  0.783775  0.000000  1
  F  F13  1  0.350727  0.350727  0.000000  1
