# generated using pymatgen
data_NaH2SO4
_symmetry_space_group_name_H-M   'P 1'
_cell_length_a   6.51440776
_cell_length_b   10.81764924
_cell_length_c   10.85899841
_cell_angle_alpha   90.00000000
_cell_angle_beta   90.00000000
_cell_angle_gamma   90.00000000
_symmetry_Int_Tables_number   1
_chemical_formula_structural   NaH2SO4
_chemical_formula_sum   'Na8 H16 S8 O32'
_cell_volume   765.23989613
_cell_formula_units_Z   8
loop_
 _symmetry_equiv_pos_site_id
 _symmetry_equiv_pos_as_xyz
  1  'x, y, z'
loop_
 _atom_site_type_symbol
 _atom_site_label
 _atom_site_symmetry_multiplicity
 _atom_site_fract_x
 _atom_site_fract_y
 _atom_site_fract_z
 _atom_site_occupancy
  Na  Na0  1  0.431389  0.848647  0.063506  1
  Na  Na1  1  0.931389  0.651353  0.436494  1
  Na  Na2  1  0.568611  0.151353  0.563506  1
  Na  Na3  1  0.068611  0.348647  0.936494  1
  Na  Na4  1  0.568611  0.151353  0.936494  1
  Na  Na5  1  0.068611  0.348647  0.563506  1
  Na  Na6  1  0.431389  0.848647  0.436494  1
  Na  Na7  1  0.931389  0.651353  0.063506  1
  H  H8  1  0.175501  0.115670  0.054265  1
  H  H9  1  0.675501  0.384330  0.445735  1
  H  H10  1  0.824499  0.884330  0.554265  1
  H  H11  1  0.324499  0.615670  0.945735  1
  H  H12  1  0.824499  0.884330  0.945735  1
  H  H13  1  0.324499  0.615670  0.554265  1
  H  H14  1  0.175501  0.115670  0.445735  1
  H  H15  1  0.675501  0.384330  0.054265  1
  H  H16  1  0.273064  0.231100  0.120505  1
  H  H17  1  0.773064  0.268900  0.379495  1
  H  H18  1  0.726936  0.768900  0.620505  1
  H  H19  1  0.226936  0.731100  0.879495  1
  H  H20  1  0.726936  0.768900  0.879495  1
  H  H21  1  0.226936  0.731100  0.620505  1
  H  H22  1  0.273064  0.231100  0.379495  1
  H  H23  1  0.773064  0.268900  0.120505  1
  S  S24  1  0.248911  0.457509  0.250000  1
  S  S25  1  0.748911  0.042491  0.250000  1
  S  S26  1  0.751089  0.542491  0.750000  1
  S  S27  1  0.251089  0.957509  0.750000  1
  S  S28  1  0.503608  0.591148  0.250000  1
  S  S29  1  0.003608  0.908852  0.250000  1
  S  S30  1  0.496392  0.408852  0.750000  1
  S  S31  1  0.996392  0.091148  0.750000  1
  O  O32  1  0.133788  0.482076  0.136304  1
  O  O33  1  0.633788  0.017924  0.363696  1
  O  O34  1  0.866212  0.517924  0.636304  1
  O  O35  1  0.366212  0.982076  0.863696  1
  O  O36  1  0.866212  0.517924  0.863696  1
  O  O37  1  0.366212  0.982076  0.636304  1
  O  O38  1  0.133788  0.482076  0.363696  1
  O  O39  1  0.633788  0.017924  0.136304  1
  O  O40  1  0.353115  0.336326  0.250000  1
  O  O41  1  0.853115  0.163674  0.250000  1
  O  O42  1  0.646885  0.663674  0.750000  1
  O  O43  1  0.146885  0.836326  0.750000  1
  O  O44  1  0.615420  0.562740  0.135920  1
  O  O45  1  0.115420  0.937260  0.364080  1
  O  O46  1  0.384580  0.437260  0.635920  1
  O  O47  1  0.884580  0.062740  0.864080  1
  O  O48  1  0.384580  0.437260  0.864080  1
  O  O49  1  0.884580  0.062740  0.635920  1
  O  O50  1  0.615420  0.562740  0.364080  1
  O  O51  1  0.115420  0.937260  0.135920  1
  O  O52  1  0.406744  0.713944  0.250000  1
  O  O53  1  0.906744  0.786056  0.250000  1
  O  O54  1  0.593256  0.286056  0.750000  1
  O  O55  1  0.093256  0.213944  0.750000  1
  O  O56  1  0.250260  0.192826  0.039458  1
  O  O57  1  0.750260  0.307174  0.460542  1
  O  O58  1  0.749740  0.807174  0.539458  1
  O  O59  1  0.249740  0.692826  0.960542  1
  O  O60  1  0.749740  0.807174  0.960542  1
  O  O61  1  0.249740  0.692826  0.539458  1
  O  O62  1  0.250260  0.192826  0.460542  1
  O  O63  1  0.750260  0.307174  0.039458  1
