# generated using pymatgen
data_Li5BiO4
_symmetry_space_group_name_H-M   'P 1'
_cell_length_a   9.32720563
_cell_length_b   9.70163751
_cell_length_c   9.95823071
_cell_angle_alpha   90.00000000
_cell_angle_beta   90.00000000
_cell_angle_gamma   90.00000000
_symmetry_Int_Tables_number   1
_chemical_formula_structural   Li5BiO4
_chemical_formula_sum   'Li40 Bi8 O32'
_cell_volume   901.11201173
_cell_formula_units_Z   8
loop_
 _symmetry_equiv_pos_site_id
 _symmetry_equiv_pos_as_xyz
  1  'x, y, z'
loop_
 _atom_site_type_symbol
 _atom_site_label
 _atom_site_symmetry_multiplicity
 _atom_site_fract_x
 _atom_site_fract_y
 _atom_site_fract_z
 _atom_site_occupancy
  Li  Li0  1  0.115340  0.581785  0.141318  1
  Li  Li1  1  0.115340  0.918215  0.641318  1
  Li  Li2  1  0.119695  0.135123  0.849380  1
  Li  Li3  1  0.119695  0.364877  0.349380  1
  Li  Li4  1  0.124949  0.854865  0.405031  1
  Li  Li5  1  0.124949  0.645135  0.905031  1
  Li  Li6  1  0.136158  0.844400  0.145792  1
  Li  Li7  1  0.136158  0.655600  0.645792  1
  Li  Li8  1  0.170165  0.110720  0.413902  1
  Li  Li9  1  0.170165  0.389280  0.913902  1
  Li  Li10  1  0.329835  0.889280  0.913902  1
  Li  Li11  1  0.329835  0.610720  0.413902  1
  Li  Li12  1  0.363842  0.155600  0.645792  1
  Li  Li13  1  0.363842  0.344400  0.145792  1
  Li  Li14  1  0.375051  0.145135  0.905031  1
  Li  Li15  1  0.375051  0.354865  0.405031  1
  Li  Li16  1  0.380305  0.635123  0.849380  1
  Li  Li17  1  0.380305  0.864877  0.349380  1
  Li  Li18  1  0.384660  0.081785  0.141318  1
  Li  Li19  1  0.384660  0.418215  0.641318  1
  Li  Li20  1  0.615340  0.581785  0.358682  1
  Li  Li21  1  0.615340  0.918215  0.858682  1
  Li  Li22  1  0.619695  0.135123  0.650620  1
  Li  Li23  1  0.619695  0.364877  0.150620  1
  Li  Li24  1  0.624949  0.645135  0.594969  1
  Li  Li25  1  0.624949  0.854865  0.094969  1
  Li  Li26  1  0.636158  0.655600  0.854208  1
  Li  Li27  1  0.636158  0.844400  0.354208  1
  Li  Li28  1  0.670165  0.110720  0.086098  1
  Li  Li29  1  0.670165  0.389280  0.586098  1
  Li  Li30  1  0.829835  0.610720  0.086098  1
  Li  Li31  1  0.829835  0.889280  0.586098  1
  Li  Li32  1  0.863842  0.344400  0.354208  1
  Li  Li33  1  0.863842  0.155600  0.854208  1
  Li  Li34  1  0.875051  0.145135  0.594969  1
  Li  Li35  1  0.875051  0.354865  0.094969  1
  Li  Li36  1  0.880305  0.635123  0.650620  1
  Li  Li37  1  0.880305  0.864877  0.150620  1
  Li  Li38  1  0.884660  0.081785  0.358682  1
  Li  Li39  1  0.884660  0.418215  0.858682  1
  Bi  Bi40  1  0.076540  0.148133  0.142343  1
  Bi  Bi41  1  0.076540  0.351867  0.642343  1
  Bi  Bi42  1  0.423460  0.648133  0.142343  1
  Bi  Bi43  1  0.423460  0.851867  0.642343  1
  Bi  Bi44  1  0.576540  0.148133  0.357657  1
  Bi  Bi45  1  0.576540  0.351867  0.857657  1
  Bi  Bi46  1  0.923460  0.648133  0.357657  1
  Bi  Bi47  1  0.923460  0.851867  0.857657  1
  O  O48  1  0.999551  0.225236  0.449897  1
  O  O49  1  0.999551  0.274764  0.949897  1
  O  O50  1  0.022295  0.960144  0.266686  1
  O  O51  1  0.022295  0.539856  0.766686  1
  O  O52  1  0.224145  0.033451  0.011757  1
  O  O53  1  0.224145  0.466549  0.511757  1
  O  O54  1  0.259185  0.223858  0.267001  1
  O  O55  1  0.259185  0.276142  0.767001  1
  O  O56  1  0.240815  0.723858  0.267001  1
  O  O57  1  0.240815  0.776142  0.767001  1
  O  O58  1  0.275855  0.533451  0.011757  1
  O  O59  1  0.275855  0.966549  0.511757  1
  O  O60  1  0.477705  0.460144  0.266686  1
  O  O61  1  0.477705  0.039856  0.766686  1
  O  O62  1  0.500449  0.725236  0.449897  1
  O  O63  1  0.500449  0.774764  0.949897  1
  O  O64  1  0.499551  0.225236  0.050103  1
  O  O65  1  0.499551  0.274764  0.550103  1
  O  O66  1  0.522295  0.960144  0.233314  1
  O  O67  1  0.522295  0.539856  0.733314  1
  O  O68  1  0.724145  0.033451  0.488243  1
  O  O69  1  0.724145  0.466549  0.988243  1
  O  O70  1  0.759185  0.223858  0.232999  1
  O  O71  1  0.759185  0.276142  0.732999  1
  O  O72  1  0.740815  0.723858  0.232999  1
  O  O73  1  0.740815  0.776142  0.732999  1
  O  O74  1  0.775855  0.533451  0.488243  1
  O  O75  1  0.775855  0.966549  0.988243  1
  O  O76  1  0.977705  0.039856  0.733314  1
  O  O77  1  0.977705  0.460144  0.233314  1
  O  O78  1  0.000449  0.725236  0.050103  1
  O  O79  1  0.000449  0.774764  0.550103  1
