# generated using pymatgen
data_Na5LiNi2P2(CO7)2
_symmetry_space_group_name_H-M   'P 1'
_cell_length_a   5.19011074
_cell_length_b   6.61625364
_cell_length_c   8.77295396
_cell_angle_alpha   90.52801115
_cell_angle_beta   91.94246067
_cell_angle_gamma   90.11329720
_symmetry_Int_Tables_number   1
_chemical_formula_structural   Na5LiNi2P2(CO7)2
_chemical_formula_sum   'Na5 Li1 Ni2 P2 C2 O14'
_cell_volume   301.06856238
_cell_formula_units_Z   1
loop_
 _symmetry_equiv_pos_site_id
 _symmetry_equiv_pos_as_xyz
  1  'x, y, z'
loop_
 _atom_site_type_symbol
 _atom_site_label
 _atom_site_symmetry_multiplicity
 _atom_site_fract_x
 _atom_site_fract_y
 _atom_site_fract_z
 _atom_site_occupancy
  Na  Na0  1  0.224087  0.752171  0.085494  1
  Na  Na1  1  0.742289  0.509824  0.274098  1
  Na  Na2  1  0.258059  0.490990  0.726264  1
  Na  Na3  1  0.259027  0.009256  0.726613  1
  Na  Na4  1  0.776878  0.249088  0.915748  1
  Li  Li5  1  0.746063  0.994839  0.281311  1
  Ni  Ni6  1  0.218823  0.246848  0.343938  1
  Ni  Ni7  1  0.779709  0.750299  0.654376  1
  P  P8  1  0.279025  0.752179  0.415523  1
  P  P9  1  0.717349  0.245986  0.580346  1
  C  C10  1  0.292732  0.247448  0.060957  1
  C  C11  1  0.711210  0.754248  0.942546  1
  O  O12  1  0.682997  0.761733  0.088239  1
  O  O13  1  0.063900  0.250346  0.116792  1
  O  O14  1  0.490318  0.241514  0.157465  1
  O  O15  1  0.192497  0.935153  0.316382  1
  O  O16  1  0.209120  0.561912  0.316845  1
  O  O17  1  0.850699  0.235956  0.425217  1
  O  O18  1  0.578345  0.761654  0.446295  1
  O  O19  1  0.419706  0.248659  0.548874  1
  O  O20  1  0.143580  0.749580  0.569279  1
  O  O21  1  0.796796  0.435662  0.677436  1
  O  O22  1  0.792110  0.063250  0.683108  1
  O  O23  1  0.512867  0.750105  0.846836  1
  O  O24  1  0.938611  0.750369  0.884217  1
  O  O25  1  0.323202  0.250929  0.915800  1
