# generated using pymatgen
data_Fe6O5F7
_symmetry_space_group_name_H-M   'P 1'
_cell_length_a   5.66615173
_cell_length_b   5.70557459
_cell_length_c   7.40923659
_cell_angle_alpha   72.75917235
_cell_angle_beta   71.99228029
_cell_angle_gamma   73.37659836
_symmetry_Int_Tables_number   1
_chemical_formula_structural   Fe6O5F7
_chemical_formula_sum   'Fe6 O5 F7'
_cell_volume   212.51736209
_cell_formula_units_Z   1
loop_
 _symmetry_equiv_pos_site_id
 _symmetry_equiv_pos_as_xyz
  1  'x, y, z'
loop_
 _atom_site_type_symbol
 _atom_site_label
 _atom_site_symmetry_multiplicity
 _atom_site_fract_x
 _atom_site_fract_y
 _atom_site_fract_z
 _atom_site_occupancy
  Fe  Fe0  1  0.320287  0.300688  0.162740  1
  Fe  Fe1  1  0.637828  0.690195  0.332236  1
  Fe  Fe2  1  0.376061  0.321490  0.690786  1
  Fe  Fe3  1  0.670778  0.692684  0.821094  1
  Fe  Fe4  1  0.002519  0.001313  0.501923  1
  Fe  Fe5  1  0.992333  0.992612  0.994704  1
  O  O6  1  0.359586  0.977630  0.330725  1
  O  O7  1  0.768674  0.770852  0.035165  1
  O  O8  1  0.217946  0.219715  0.970359  1
  O  O9  1  0.575926  0.572302  0.626013  1
  O  O10  1  0.645624  0.028896  0.669342  1
  F  F11  1  0.043802  0.614131  0.674935  1
  F  F12  1  0.111225  0.106446  0.708856  1
  F  F13  1  0.427135  0.432235  0.367150  1
  F  F14  1  0.898328  0.900384  0.286960  1
  F  F15  1  0.962752  0.388098  0.322725  1
  F  F16  1  0.304141  0.683467  0.003119  1
  F  F17  1  0.685057  0.306862  0.001167  1
