# generated using pymatgen
data_Na3MgPCO7
_symmetry_space_group_name_H-M   'P 1'
_cell_length_a   5.23497312
_cell_length_b   6.68777940
_cell_length_c   8.90867173
_cell_angle_alpha   90.00000000
_cell_angle_beta   90.93521078
_cell_angle_gamma   90.00000000
_symmetry_Int_Tables_number   1
_chemical_formula_structural   Na3MgPCO7
_chemical_formula_sum   'Na6 Mg2 P2 C2 O14'
_cell_volume   311.85412681
_cell_formula_units_Z   2
loop_
 _symmetry_equiv_pos_site_id
 _symmetry_equiv_pos_as_xyz
  1  'x, y, z'
loop_
 _atom_site_type_symbol
 _atom_site_label
 _atom_site_symmetry_multiplicity
 _atom_site_fract_x
 _atom_site_fract_y
 _atom_site_fract_z
 _atom_site_occupancy
  Na  Na0  1  0.255698  0.494542  0.735083  1
  Na  Na1  1  0.744302  0.994542  0.264917  1
  Na  Na2  1  0.744302  0.505458  0.264917  1
  Na  Na3  1  0.255698  0.005458  0.735083  1
  Na  Na4  1  0.236201  0.750000  0.083738  1
  Na  Na5  1  0.763799  0.250000  0.916262  1
  Mg  Mg6  1  0.214480  0.250000  0.355342  1
  Mg  Mg7  1  0.785520  0.750000  0.644658  1
  P  P8  1  0.287592  0.750000  0.417669  1
  P  P9  1  0.712408  0.250000  0.582331  1
  C  C10  1  0.267627  0.250000  0.064648  1
  C  C11  1  0.732373  0.750000  0.935352  1
  O  O12  1  0.043016  0.250000  0.125256  1
  O  O13  1  0.956984  0.750000  0.874744  1
  O  O14  1  0.468325  0.250000  0.153481  1
  O  O15  1  0.531675  0.750000  0.846519  1
  O  O16  1  0.291912  0.250000  0.920406  1
  O  O17  1  0.708088  0.750000  0.079594  1
  O  O18  1  0.212942  0.936885  0.322352  1
  O  O19  1  0.787058  0.436885  0.677648  1
  O  O20  1  0.787058  0.063115  0.677648  1
  O  O21  1  0.212942  0.563115  0.322352  1
  O  O22  1  0.151303  0.750000  0.570577  1
  O  O23  1  0.848697  0.250000  0.429423  1
  O  O24  1  0.417585  0.250000  0.552571  1
  O  O25  1  0.582415  0.750000  0.447429  1
