# generated using pymatgen
data_Li2Mn(SiO3)2
_symmetry_space_group_name_H-M   'P 1'
_cell_length_a   5.76701031
_cell_length_b   5.76701031
_cell_length_c   9.29443977
_cell_angle_alpha   89.96756075
_cell_angle_beta   90.03243925
_cell_angle_gamma   61.57563461
_symmetry_Int_Tables_number   1
_chemical_formula_structural   Li2Mn(SiO3)2
_chemical_formula_sum   'Li4 Mn2 Si4 O12'
_cell_volume   271.85273026
_cell_formula_units_Z   2
loop_
 _symmetry_equiv_pos_site_id
 _symmetry_equiv_pos_as_xyz
  1  'x, y, z'
loop_
 _atom_site_type_symbol
 _atom_site_label
 _atom_site_symmetry_multiplicity
 _atom_site_fract_x
 _atom_site_fract_y
 _atom_site_fract_z
 _atom_site_occupancy
  Li  Li0  1  0.531483  0.646400  0.103361  1
  Li  Li1  1  0.732823  0.614974  0.367879  1
  Li  Li2  1  0.385026  0.267177  0.867879  1
  Li  Li3  1  0.353600  0.468517  0.603361  1
  Mn  Mn4  1  0.758485  0.733605  0.744388  1
  Mn  Mn5  1  0.266395  0.241515  0.244388  1
  Si  Si6  1  0.189342  0.869788  0.865900  1
  Si  Si7  1  0.864840  0.196475  0.633775  1
  Si  Si8  1  0.130212  0.810658  0.365900  1
  Si  Si9  1  0.803525  0.135160  0.133775  1
  O  O10  1  0.361598  0.843434  0.281715  1
  O  O11  1  0.490122  0.790852  0.908171  1
  O  O12  1  0.723705  0.502773  0.580682  1
  O  O13  1  0.872208  0.364568  0.189268  1
  O  O14  1  0.073701  0.149852  0.769940  1
  O  O15  1  0.850148  0.926299  0.269940  1
  O  O16  1  0.156566  0.638402  0.781715  1
  O  O17  1  0.209148  0.509878  0.408171  1
  O  O18  1  0.497227  0.276295  0.080682  1
  O  O19  1  0.635432  0.127792  0.689268  1
  O  O20  1  0.056115  0.993853  0.510757  1
  O  O21  1  0.006147  0.943885  0.010757  1
