# generated using pymatgen
data_Li4Ti3V3Cr2O16
_symmetry_space_group_name_H-M   'P 1'
_cell_length_a   5.92474957
_cell_length_b   5.92474957
_cell_length_c   9.62822431
_cell_angle_alpha   89.88250327
_cell_angle_beta   90.11749673
_cell_angle_gamma   120.43694049
_symmetry_Int_Tables_number   1
_chemical_formula_structural   Li4Ti3V3Cr2O16
_chemical_formula_sum   'Li4 Ti3 V3 Cr2 O16'
_cell_volume   291.39800274
_cell_formula_units_Z   1
loop_
 _symmetry_equiv_pos_site_id
 _symmetry_equiv_pos_as_xyz
  1  'x, y, z'
loop_
 _atom_site_type_symbol
 _atom_site_label
 _atom_site_symmetry_multiplicity
 _atom_site_fract_x
 _atom_site_fract_y
 _atom_site_fract_z
 _atom_site_occupancy
  Li  Li0  1  0.668673  0.331327  0.893059  1
  Li  Li1  1  0.997793  0.002207  0.994467  1
  Li  Li2  1  0.000675  0.999325  0.497326  1
  Li  Li3  1  0.333648  0.666352  0.392373  1
  Ti  Ti4  1  0.340080  0.165443  0.215584  1
  Ti  Ti5  1  0.834557  0.659920  0.215584  1
  Ti  Ti6  1  0.168129  0.831871  0.720955  1
  V  V7  1  0.830933  0.169067  0.209215  1
  V  V8  1  0.654022  0.819136  0.708557  1
  V  V9  1  0.180864  0.345978  0.708557  1
  Cr  Cr10  1  0.668362  0.331638  0.485934  1
  Cr  Cr11  1  0.335266  0.664734  0.985418  1
  O  O12  1  0.331934  0.166575  0.604445  1
  O  O13  1  0.521448  0.478552  0.339017  1
  O  O14  1  0.655876  0.344124  0.101228  1
  O  O15  1  0.005406  0.994594  0.311713  1
  O  O16  1  0.001195  0.998805  0.809208  1
  O  O17  1  0.833425  0.668066  0.604445  1
  O  O18  1  0.513761  0.038898  0.339356  1
  O  O19  1  0.961102  0.486239  0.339356  1
  O  O20  1  0.164373  0.835627  0.103435  1
  O  O21  1  0.838064  0.161936  0.605803  1
  O  O22  1  0.040603  0.522669  0.838740  1
  O  O23  1  0.477331  0.959397  0.838740  1
  O  O24  1  0.323570  0.676430  0.597572  1
  O  O25  1  0.167981  0.329038  0.104365  1
  O  O26  1  0.481447  0.518553  0.838771  1
  O  O27  1  0.670962  0.832019  0.104365  1
