# generated using pymatgen
data_LiCoSiO4
_symmetry_space_group_name_H-M   'P 1'
_cell_length_a   5.54626337
_cell_length_b   5.38404225
_cell_length_c   8.08890933
_cell_angle_alpha   90.00000000
_cell_angle_beta   130.13038151
_cell_angle_gamma   90.00000000
_symmetry_Int_Tables_number   1
_chemical_formula_structural   LiCoSiO4
_chemical_formula_sum   'Li2 Co2 Si2 O8'
_cell_volume   184.68078072
_cell_formula_units_Z   2
loop_
 _symmetry_equiv_pos_site_id
 _symmetry_equiv_pos_as_xyz
  1  'x, y, z'
loop_
 _atom_site_type_symbol
 _atom_site_label
 _atom_site_symmetry_multiplicity
 _atom_site_fract_x
 _atom_site_fract_y
 _atom_site_fract_z
 _atom_site_occupancy
  Li  Li0  1  0.394903  0.827221  0.721696  1
  Li  Li1  1  0.394903  0.172779  0.221696  1
  Co  Co2  1  0.008837  0.670772  0.003662  1
  Co  Co3  1  0.008837  0.329228  0.503662  1
  Si  Si4  1  0.743665  0.181378  0.739847  1
  Si  Si5  1  0.743665  0.818622  0.239847  1
  O  O6  1  0.408788  0.202069  0.694398  1
  O  O7  1  0.702649  0.712517  0.033068  1
  O  O8  1  0.024663  0.669779  0.464219  1
  O  O9  1  0.811856  0.118945  0.264791  1
  O  O10  1  0.408788  0.797931  0.194398  1
  O  O11  1  0.702649  0.287483  0.533068  1
  O  O12  1  0.024663  0.330221  0.964219  1
  O  O13  1  0.811856  0.881055  0.764791  1
