# generated using pymatgen
data_Li4Mn3Cr3(CuO8)2
_symmetry_space_group_name_H-M   'P 1'
_cell_length_a   5.81475556
_cell_length_b   5.81475556
_cell_length_c   9.52680196
_cell_angle_alpha   89.90561112
_cell_angle_beta   90.09438888
_cell_angle_gamma   120.00898272
_symmetry_Int_Tables_number   1
_chemical_formula_structural   Li4Mn3Cr3(CuO8)2
_chemical_formula_sum   'Li4 Mn3 Cr3 Cu2 O16'
_cell_volume   278.93344530
_cell_formula_units_Z   1
loop_
 _symmetry_equiv_pos_site_id
 _symmetry_equiv_pos_as_xyz
  1  'x, y, z'
loop_
 _atom_site_type_symbol
 _atom_site_label
 _atom_site_symmetry_multiplicity
 _atom_site_fract_x
 _atom_site_fract_y
 _atom_site_fract_z
 _atom_site_occupancy
  Li  Li0  1  0.329516  0.670484  0.102720  1
  Li  Li1  1  0.003580  0.996420  0.002771  1
  Li  Li2  1  0.001507  0.998493  0.504144  1
  Li  Li3  1  0.664255  0.335745  0.602623  1
  Mn  Mn4  1  0.170629  0.829371  0.785185  1
  Mn  Mn5  1  0.336976  0.169576  0.285996  1
  Mn  Mn6  1  0.830424  0.663024  0.285996  1
  Cr  Cr7  1  0.169174  0.335097  0.789084  1
  Cr  Cr8  1  0.664903  0.830826  0.789084  1
  Cr  Cr9  1  0.830585  0.169415  0.286295  1
  Cu  Cu10  1  0.336009  0.663991  0.509436  1
  Cu  Cu11  1  0.667966  0.332034  0.012003  1
  O  O12  1  0.164498  0.317859  0.397427  1
  O  O13  1  0.480907  0.519093  0.667366  1
  O  O14  1  0.329871  0.670129  0.895551  1
  O  O15  1  0.005178  0.994822  0.688005  1
  O  O16  1  0.003586  0.996414  0.187755  1
  O  O17  1  0.682141  0.835502  0.397427  1
  O  O18  1  0.036625  0.519102  0.666833  1
  O  O19  1  0.480898  0.963375  0.666833  1
  O  O20  1  0.840000  0.160000  0.893492  1
  O  O21  1  0.160110  0.839890  0.395216  1
  O  O22  1  0.511793  0.037143  0.165775  1
  O  O23  1  0.962857  0.488207  0.165775  1
  O  O24  1  0.661768  0.338232  0.392528  1
  O  O25  1  0.322656  0.159878  0.895259  1
  O  O26  1  0.516760  0.483240  0.166820  1
  O  O27  1  0.840122  0.677344  0.895259  1
