# generated using pymatgen
data_Li2FeF6
_symmetry_space_group_name_H-M   'P 1'
_cell_length_a   4.76816325
_cell_length_b   4.76816325
_cell_length_c   8.87754146
_cell_angle_alpha   90.00000000
_cell_angle_beta   90.00000000
_cell_angle_gamma   90.00000000
_symmetry_Int_Tables_number   1
_chemical_formula_structural   Li2FeF6
_chemical_formula_sum   'Li4 Fe2 F12'
_cell_volume   201.83428547
_cell_formula_units_Z   2
loop_
 _symmetry_equiv_pos_site_id
 _symmetry_equiv_pos_as_xyz
  1  'x, y, z'
loop_
 _atom_site_type_symbol
 _atom_site_label
 _atom_site_symmetry_multiplicity
 _atom_site_fract_x
 _atom_site_fract_y
 _atom_site_fract_z
 _atom_site_occupancy
  Li  Li0  1  0.000000  0.000000  0.346311  1
  Li  Li1  1  0.000000  0.000000  0.653689  1
  Li  Li2  1  0.500000  0.500000  0.153689  1
  Li  Li3  1  0.500000  0.500000  0.846311  1
  Fe  Fe4  1  0.000000  0.000000  0.000000  1
  Fe  Fe5  1  0.500000  0.500000  0.500000  1
  F  F6  1  0.184938  0.815062  0.846732  1
  F  F7  1  0.184938  0.815062  0.153268  1
  F  F8  1  0.211296  0.788704  0.500000  1
  F  F9  1  0.288704  0.288704  0.000000  1
  F  F10  1  0.315062  0.315062  0.346732  1
  F  F11  1  0.315062  0.315062  0.653268  1
  F  F12  1  0.684938  0.684938  0.653268  1
  F  F13  1  0.684938  0.684938  0.346732  1
  F  F14  1  0.711296  0.711296  0.000000  1
  F  F15  1  0.788704  0.211296  0.500000  1
  F  F16  1  0.815062  0.184938  0.153268  1
  F  F17  1  0.815062  0.184938  0.846732  1
