# generated using pymatgen
data_Li3V(PO4)2
_symmetry_space_group_name_H-M   'P 1'
_cell_length_a   7.16176122
_cell_length_b   8.44951606
_cell_length_c   8.47418703
_cell_angle_alpha   119.77606548
_cell_angle_beta   89.93819355
_cell_angle_gamma   90.46805776
_symmetry_Int_Tables_number   1
_chemical_formula_structural   Li3V(PO4)2
_chemical_formula_sum   'Li9 V3 P6 O24'
_cell_volume   445.08081660
_cell_formula_units_Z   3
loop_
 _symmetry_equiv_pos_site_id
 _symmetry_equiv_pos_as_xyz
  1  'x, y, z'
loop_
 _atom_site_type_symbol
 _atom_site_label
 _atom_site_symmetry_multiplicity
 _atom_site_fract_x
 _atom_site_fract_y
 _atom_site_fract_z
 _atom_site_occupancy
  Li  Li0  1  0.335654  0.310754  0.968740  1
  Li  Li1  1  0.337098  0.657024  0.693163  1
  Li  Li2  1  0.500000  0.000000  0.000000  1
  Li  Li3  1  0.492427  0.671049  0.336747  1
  Li  Li4  1  0.668369  0.961088  0.654743  1
  Li  Li5  1  0.331631  0.038912  0.345257  1
  Li  Li6  1  0.507573  0.328951  0.663253  1
  Li  Li7  1  0.662902  0.342976  0.306837  1
  Li  Li8  1  0.664346  0.689246  0.031260  1
  V  V9  1  0.000000  0.000000  0.000000  1
  V  V10  1  0.923662  0.668152  0.333567  1
  V  V11  1  0.076338  0.331848  0.666433  1
  P  P12  1  0.233260  0.353029  0.313145  1
  P  P13  1  0.233319  0.961090  0.650483  1
  P  P14  1  0.235223  0.689842  0.042588  1
  P  P15  1  0.764777  0.310158  0.957412  1
  P  P16  1  0.766681  0.038910  0.349517  1
  P  P17  1  0.766740  0.646971  0.686855  1
  O  O18  1  0.793451  0.200669  0.060459  1
  O  O19  1  0.412765  0.400045  0.241197  1
  O  O20  1  0.068841  0.448836  0.284571  1
  O  O21  1  0.751697  0.516257  0.106644  1
  O  O22  1  0.739654  0.596068  0.483311  1
  O  O23  1  0.798704  0.858542  0.797528  1
  O  O24  1  0.077333  0.730733  0.178426  1
  O  O25  1  0.069603  0.832524  0.554677  1
  O  O26  1  0.200996  0.063881  0.861207  1
  O  O27  1  0.413342  0.845597  0.607016  1
  O  O28  1  0.419429  0.755088  0.153166  1
  O  O29  1  0.741508  0.887954  0.404266  1
  O  O30  1  0.258492  0.112046  0.595734  1
  O  O31  1  0.580571  0.244912  0.846834  1
  O  O32  1  0.586658  0.154403  0.392984  1
  O  O33  1  0.799004  0.936119  0.138793  1
  O  O34  1  0.930397  0.167476  0.445323  1
  O  O35  1  0.922667  0.269267  0.821574  1
  O  O36  1  0.201296  0.141458  0.202472  1
  O  O37  1  0.260346  0.403932  0.516689  1
  O  O38  1  0.248303  0.483743  0.893356  1
  O  O39  1  0.931159  0.551164  0.715429  1
  O  O40  1  0.587235  0.599955  0.758803  1
  O  O41  1  0.206549  0.799331  0.939541  1
