# generated using pymatgen
data_Li6Nb3Fe3O16
_symmetry_space_group_name_H-M   'P 1'
_cell_length_a   6.09022840
_cell_length_b   6.09022840
_cell_length_c   10.09495704
_cell_angle_alpha   89.18814364
_cell_angle_beta   90.81185636
_cell_angle_gamma   119.39990275
_symmetry_Int_Tables_number   1
_chemical_formula_structural   Li6Nb3Fe3O16
_chemical_formula_sum   'Li6 Nb3 Fe3 O16'
_cell_volume   326.16571877
_cell_formula_units_Z   1
loop_
 _symmetry_equiv_pos_site_id
 _symmetry_equiv_pos_as_xyz
  1  'x, y, z'
loop_
 _atom_site_type_symbol
 _atom_site_label
 _atom_site_symmetry_multiplicity
 _atom_site_fract_x
 _atom_site_fract_y
 _atom_site_fract_z
 _atom_site_occupancy
  Li  Li0  1  0.341178  0.658822  0.501005  1
  Li  Li1  1  0.328774  0.671226  0.110453  1
  Li  Li2  1  0.994842  0.005158  0.995034  1
  Li  Li3  1  0.991088  0.008912  0.499248  1
  Li  Li4  1  0.663488  0.336512  0.993650  1
  Li  Li5  1  0.667463  0.332537  0.623985  1
  Nb  Nb6  1  0.178369  0.821631  0.780945  1
  Nb  Nb7  1  0.339088  0.166461  0.286170  1
  Nb  Nb8  1  0.833539  0.660912  0.286170  1
  Fe  Fe9  1  0.168153  0.325726  0.782857  1
  Fe  Fe10  1  0.674274  0.831847  0.782857  1
  Fe  Fe11  1  0.835041  0.164959  0.279952  1
  O  O12  1  0.154814  0.303313  0.387571  1
  O  O13  1  0.480992  0.519008  0.689499  1
  O  O14  1  0.316525  0.683475  0.909143  1
  O  O15  1  0.008726  0.991274  0.677886  1
  O  O16  1  0.005984  0.994016  0.177054  1
  O  O17  1  0.696687  0.845186  0.387571  1
  O  O18  1  0.031943  0.506682  0.678781  1
  O  O19  1  0.493318  0.968057  0.678781  1
  O  O20  1  0.850201  0.149799  0.876381  1
  O  O21  1  0.155457  0.844543  0.395447  1
  O  O22  1  0.510578  0.032307  0.177289  1
  O  O23  1  0.967693  0.489422  0.177289  1
  O  O24  1  0.660259  0.339741  0.400455  1
  O  O25  1  0.302106  0.162128  0.888958  1
  O  O26  1  0.511239  0.488761  0.178606  1
  O  O27  1  0.837872  0.697894  0.888958  1
