# generated using pymatgen
data_Ca5Ho3Ti5Mn3O24
_symmetry_space_group_name_H-M   'P 1'
_cell_length_a   5.37524881
_cell_length_b   5.61694929
_cell_length_c   15.28231444
_cell_angle_alpha   90.12174707
_cell_angle_beta   90.16575724
_cell_angle_gamma   90.50778850
_symmetry_Int_Tables_number   1
_chemical_formula_structural   Ca5Ho3Ti5Mn3O24
_chemical_formula_sum   'Ca5 Ho3 Ti5 Mn3 O24'
_cell_volume   461.39016022
_cell_formula_units_Z   1
loop_
 _symmetry_equiv_pos_site_id
 _symmetry_equiv_pos_as_xyz
  1  'x, y, z'
loop_
 _atom_site_type_symbol
 _atom_site_label
 _atom_site_symmetry_multiplicity
 _atom_site_fract_x
 _atom_site_fract_y
 _atom_site_fract_z
 _atom_site_occupancy
  Ca  Ca0  1  0.011582  0.050613  0.623720  1
  Ca  Ca1  1  0.013018  0.058068  0.128069  1
  Ca  Ca2  1  0.490514  0.552477  0.623713  1
  Ca  Ca3  1  0.509813  0.453750  0.872858  1
  Ca  Ca4  1  0.991760  0.954128  0.872174  1
  Ho  Ho5  1  0.485127  0.570348  0.128965  1
  Ho  Ho6  1  0.516911  0.427604  0.373649  1
  Ho  Ho7  1  0.978481  0.926947  0.374692  1
  Ti  Ti8  1  0.991498  0.517253  0.001253  1
  Ti  Ti9  1  0.009761  0.502047  0.748546  1
  Ti  Ti10  1  0.007392  0.495481  0.500010  1
  Ti  Ti11  1  0.511007  0.996856  0.749111  1
  Ti  Ti12  1  0.506281  0.023362  0.001625  1
  Mn  Mn13  1  0.002632  0.495653  0.250058  1
  Mn  Mn14  1  0.496305  0.000504  0.250598  1
  Mn  Mn15  1  0.491892  0.994293  0.499375  1
  O  O16  1  0.077443  0.521816  0.876313  1
  O  O17  1  0.112157  0.533810  0.374367  1
  O  O18  1  0.184038  0.802101  0.519957  1
  O  O19  1  0.202343  0.790557  0.729492  1
  O  O20  1  0.212689  0.806712  0.224434  1
  O  O21  1  0.210020  0.781990  0.026797  1
  O  O22  1  0.304167  0.319796  0.226156  1
  O  O23  1  0.286735  0.294094  0.729654  1
  O  O24  1  0.296776  0.319206  0.519432  1
  O  O25  1  0.308420  0.297330  0.028036  1
  O  O26  1  0.418366  0.022618  0.876884  1
  O  O27  1  0.386518  0.032142  0.377694  1
  O  O28  1  0.593000  0.963693  0.122703  1
  O  O29  1  0.578864  0.973858  0.624449  1
  O  O30  1  0.705831  0.698776  0.980939  1
  O  O31  1  0.704504  0.714040  0.771553  1
  O  O32  1  0.708164  0.683077  0.276474  1
  O  O33  1  0.711068  0.685757  0.465955  1
  O  O34  1  0.800045  0.200062  0.978707  1
  O  O35  1  0.785622  0.210476  0.771372  1
  O  O36  1  0.801082  0.199733  0.469849  1
  O  O37  1  0.790027  0.184521  0.281405  1
  O  O38  1  0.914354  0.474241  0.624723  1
  O  O39  1  0.893795  0.470210  0.124236  1
