# generated using pymatgen
data_NaCoAsCO7
_symmetry_space_group_name_H-M   'P 1'
_cell_length_a   5.33174995
_cell_length_b   6.23489849
_cell_length_c   9.24573375
_cell_angle_alpha   90.00000000
_cell_angle_beta   93.13497372
_cell_angle_gamma   90.00000000
_symmetry_Int_Tables_number   1
_chemical_formula_structural   NaCoAsCO7
_chemical_formula_sum   'Na2 Co2 As2 C2 O14'
_cell_volume   306.89521988
_cell_formula_units_Z   2
loop_
 _symmetry_equiv_pos_site_id
 _symmetry_equiv_pos_as_xyz
  1  'x, y, z'
loop_
 _atom_site_type_symbol
 _atom_site_label
 _atom_site_symmetry_multiplicity
 _atom_site_fract_x
 _atom_site_fract_y
 _atom_site_fract_z
 _atom_site_occupancy
  Na  Na0  1  0.764270  0.521502  0.230128  1
  Na  Na1  1  0.235730  0.021502  0.769872  1
  Co  Co2  1  0.214003  0.241595  0.332435  1
  Co  Co3  1  0.785997  0.741595  0.667565  1
  As  As4  1  0.282975  0.747593  0.438779  1
  As  As5  1  0.717025  0.247593  0.561221  1
  C  C6  1  0.273796  0.253687  0.081348  1
  C  C7  1  0.726204  0.753687  0.918652  1
  O  O8  1  0.692065  0.754070  0.048887  1
  O  O9  1  0.055300  0.250019  0.140959  1
  O  O10  1  0.454925  0.254979  0.186441  1
  O  O11  1  0.212165  0.950269  0.313412  1
  O  O12  1  0.201550  0.542853  0.318456  1
  O  O13  1  0.878665  0.253890  0.407102  1
  O  O14  1  0.603554  0.731692  0.478973  1
  O  O15  1  0.396446  0.231692  0.521027  1
  O  O16  1  0.121335  0.753890  0.592898  1
  O  O17  1  0.798450  0.042853  0.681544  1
  O  O18  1  0.787835  0.450269  0.686588  1
  O  O19  1  0.545075  0.754979  0.813559  1
  O  O20  1  0.944700  0.750019  0.859041  1
  O  O21  1  0.307935  0.254070  0.951113  1
