# generated using pymatgen
data_Li3(CoO2)5
_symmetry_space_group_name_H-M   'P 1'
_cell_length_a   2.83398618
_cell_length_b   9.95666404
_cell_length_c   12.27620239
_cell_angle_alpha   91.01981198
_cell_angle_beta   96.20678495
_cell_angle_gamma   90.59552595
_symmetry_Int_Tables_number   1
_chemical_formula_structural   Li3(CoO2)5
_chemical_formula_sum   'Li6 Co10 O20'
_cell_volume   344.28667958
_cell_formula_units_Z   2
loop_
 _symmetry_equiv_pos_site_id
 _symmetry_equiv_pos_as_xyz
  1  'x, y, z'
loop_
 _atom_site_type_symbol
 _atom_site_label
 _atom_site_symmetry_multiplicity
 _atom_site_fract_x
 _atom_site_fract_y
 _atom_site_fract_z
 _atom_site_occupancy
  Li  Li0  1  0.664627  0.251115  0.819708  1
  Li  Li1  1  0.454260  0.754469  0.903065  1
  Li  Li2  1  0.820773  0.750885  0.679446  1
  Li  Li3  1  0.204264  0.754063  0.464523  1
  Li  Li4  1  0.871750  0.251170  0.229124  1
  Li  Li5  1  0.573507  0.749649  0.245284  1
  Co  Co6  1  0.706025  0.497175  0.902348  1
  Co  Co7  1  0.392427  0.993084  0.797330  1
  Co  Co8  1  0.790945  0.999582  0.597556  1
  Co  Co9  1  0.106407  0.502471  0.702842  1
  Co  Co10  1  0.508894  0.499970  0.504351  1
  Co  Co11  1  0.911751  0.502623  0.304896  1
  Co  Co12  1  0.191135  0.005917  0.396059  1
  Co  Co13  1  0.589331  0.996780  0.197637  1
  Co  Co14  1  0.308066  0.499875  0.101618  1
  Co  Co15  1  0.994043  0.002249  0.997772  1
  O  O16  1  0.239615  0.596233  0.970706  1
  O  O17  1  0.926289  0.891724  0.868047  1
  O  O18  1  0.467679  0.096491  0.930434  1
  O  O19  1  0.865147  0.093161  0.734948  1
  O  O20  1  0.638809  0.604995  0.773657  1
  O  O21  1  0.169434  0.396784  0.831869  1
  O  O22  1  0.318377  0.891275  0.661450  1
  O  O23  1  0.567733  0.409225  0.632307  1
  O  O24  1  0.261267  0.087942  0.529855  1
  O  O25  1  0.718339  0.899222  0.459800  1
  O  O26  1  0.038456  0.609234  0.568816  1
  O  O27  1  0.972713  0.407841  0.436925  1
  O  O28  1  0.665093  0.100894  0.330537  1
  O  O29  1  0.445316  0.608086  0.370422  1
  O  O30  1  0.847871  0.599649  0.171169  1
  O  O31  1  0.373978  0.399353  0.235037  1
  O  O32  1  0.115568  0.894093  0.265993  1
  O  O33  1  0.769974  0.403172  0.036312  1
  O  O34  1  0.521100  0.902393  0.060473  1
  O  O35  1  0.063401  0.097152  0.134207  1
