# generated using pymatgen
data_Li2FeF6
_symmetry_space_group_name_H-M   'P 1'
_cell_length_a   8.76081314
_cell_length_b   8.76081314
_cell_length_c   4.50803215
_cell_angle_alpha   89.29903877
_cell_angle_beta   90.70096123
_cell_angle_gamma   120.64503787
_symmetry_Int_Tables_number   1
_chemical_formula_structural   Li2FeF6
_chemical_formula_sum   'Li6 Fe3 F18'
_cell_volume   297.64851232
_cell_formula_units_Z   3
loop_
 _symmetry_equiv_pos_site_id
 _symmetry_equiv_pos_as_xyz
  1  'x, y, z'
loop_
 _atom_site_type_symbol
 _atom_site_label
 _atom_site_symmetry_multiplicity
 _atom_site_fract_x
 _atom_site_fract_y
 _atom_site_fract_z
 _atom_site_occupancy
  Li  Li0  1  0.007158  0.658974  0.005142  1
  Li  Li1  1  0.992842  0.341026  0.994858  1
  Li  Li2  1  0.658974  0.007158  0.994858  1
  Li  Li3  1  0.651149  0.651149  0.000000  1
  Li  Li4  1  0.341026  0.992842  0.005142  1
  Li  Li5  1  0.348851  0.348851  0.000000  1
  Fe  Fe6  1  0.666913  0.333087  0.494241  1
  Fe  Fe7  1  0.000000  0.000000  0.000000  1
  Fe  Fe8  1  0.333087  0.666913  0.505759  1
  F  F9  1  0.894428  0.791994  0.218572  1
  F  F10  1  0.871633  0.436611  0.253860  1
  F  F11  1  0.772591  0.537551  0.730099  1
  F  F12  1  0.772361  0.227639  0.744603  1
  F  F13  1  0.896660  0.103340  0.217046  1
  F  F14  1  0.561939  0.438061  0.242059  1
  F  F15  1  0.791994  0.894428  0.781428  1
  F  F16  1  0.462449  0.227409  0.730099  1
  F  F17  1  0.563389  0.128367  0.253860  1
  F  F18  1  0.436611  0.871633  0.746140  1
  F  F19  1  0.537551  0.772591  0.269901  1
  F  F20  1  0.208006  0.105572  0.218572  1
  F  F21  1  0.103340  0.896660  0.782954  1
  F  F22  1  0.227639  0.772361  0.255397  1
  F  F23  1  0.438061  0.561939  0.757941  1
  F  F24  1  0.227409  0.462449  0.269901  1
  F  F25  1  0.128367  0.563389  0.746140  1
  F  F26  1  0.105572  0.208006  0.781428  1
