# generated using pymatgen
data_H9PtN2ClO2
_symmetry_space_group_name_H-M   'P 1'
_cell_length_a   8.02793942
_cell_length_b   4.39303277
_cell_length_c   19.30068193
_cell_angle_alpha   90.00000000
_cell_angle_beta   112.40776980
_cell_angle_gamma   90.00000000
_symmetry_Int_Tables_number   1
_chemical_formula_structural   H9PtN2ClO2
_chemical_formula_sum   'H36 Pt4 N8 Cl4 O8'
_cell_volume   629.28219541
_cell_formula_units_Z   4
loop_
 _symmetry_equiv_pos_site_id
 _symmetry_equiv_pos_as_xyz
  1  'x, y, z'
loop_
 _atom_site_type_symbol
 _atom_site_label
 _atom_site_symmetry_multiplicity
 _atom_site_fract_x
 _atom_site_fract_y
 _atom_site_fract_z
 _atom_site_occupancy
  H  H0  1  0.480578  0.232664  0.759625  1
  H  H1  1  0.480578  0.267336  0.259625  1
  H  H2  1  0.519422  0.767336  0.240375  1
  H  H3  1  0.519422  0.732664  0.740375  1
  H  H4  1  0.782139  0.725686  0.743354  1
  H  H5  1  0.782139  0.774314  0.243354  1
  H  H6  1  0.217861  0.274314  0.256646  1
  H  H7  1  0.217861  0.225686  0.756646  1
  H  H8  1  0.985973  0.661411  0.755877  1
  H  H9  1  0.985973  0.838589  0.255877  1
  H  H10  1  0.014027  0.338589  0.244123  1
  H  H11  1  0.014027  0.161411  0.744123  1
  H  H12  1  0.417747  0.511211  0.924609  1
  H  H13  1  0.417747  0.988789  0.424609  1
  H  H14  1  0.582253  0.488789  0.075391  1
  H  H15  1  0.582253  0.011211  0.575391  1
  H  H16  1  0.298848  0.599282  0.837047  1
  H  H17  1  0.298848  0.900718  0.337047  1
  H  H18  1  0.701152  0.400718  0.162953  1
  H  H19  1  0.701152  0.099282  0.662953  1
  H  H20  1  0.290622  0.820139  0.906141  1
  H  H21  1  0.290622  0.679861  0.406141  1
  H  H22  1  0.709378  0.179861  0.093859  1
  H  H23  1  0.709378  0.320139  0.593859  1
  H  H24  1  0.751489  0.439511  0.869066  1
  H  H25  1  0.751489  0.060489  0.369066  1
  H  H26  1  0.248511  0.560489  0.130934  1
  H  H27  1  0.248511  0.939511  0.630934  1
  H  H28  1  0.830012  0.143120  0.836196  1
  H  H29  1  0.830012  0.356880  0.336196  1
  H  H30  1  0.169988  0.856880  0.163804  1
  H  H31  1  0.169988  0.643120  0.663804  1
  H  H32  1  0.901688  0.202928  0.927816  1
  H  H33  1  0.901688  0.297072  0.427816  1
  H  H34  1  0.098312  0.797072  0.072184  1
  H  H35  1  0.098312  0.702928  0.572184  1
  Pt  Pt36  1  0.583329  0.953008  0.884160  1
  Pt  Pt37  1  0.583329  0.546992  0.384160  1
  Pt  Pt38  1  0.416671  0.046992  0.115840  1
  Pt  Pt39  1  0.416671  0.453008  0.615840  1
  N  N40  1  0.373944  0.692092  0.888303  1
  N  N41  1  0.373944  0.807908  0.388303  1
  N  N42  1  0.626056  0.307908  0.111697  1
  N  N43  1  0.626056  0.192092  0.611697  1
  N  N44  1  0.790552  0.215047  0.878295  1
  N  N45  1  0.790552  0.284953  0.378295  1
  N  N46  1  0.209448  0.784953  0.121705  1
  N  N47  1  0.209448  0.715047  0.621705  1
  Cl  Cl48  1  0.763003  0.805040  0.005345  1
  Cl  Cl49  1  0.763003  0.694960  0.505345  1
  Cl  Cl50  1  0.236997  0.194960  0.994655  1
  Cl  Cl51  1  0.236997  0.305040  0.494655  1
  O  O52  1  0.419932  0.070092  0.777001  1
  O  O53  1  0.419932  0.429908  0.277001  1
  O  O54  1  0.580068  0.929908  0.222999  1
  O  O55  1  0.580068  0.570092  0.722999  1
  O  O56  1  0.902394  0.829102  0.755900  1
  O  O57  1  0.902394  0.670898  0.255900  1
  O  O58  1  0.097606  0.170898  0.244100  1
  O  O59  1  0.097606  0.329102  0.744100  1
