# generated using pymatgen
data_MgSiO3
_symmetry_space_group_name_H-M   'P 1'
_cell_length_a   10.05341476
_cell_length_b   10.05341476
_cell_length_c   10.05341476
_cell_angle_alpha   109.24155602
_cell_angle_beta   109.24155602
_cell_angle_gamma   109.93153280
_symmetry_Int_Tables_number   1
_chemical_formula_structural   MgSiO3
_chemical_formula_sum   'Mg16 Si16 O48'
_cell_volume   782.16407718
_cell_formula_units_Z   16
loop_
 _symmetry_equiv_pos_site_id
 _symmetry_equiv_pos_as_xyz
  1  'x, y, z'
loop_
 _atom_site_type_symbol
 _atom_site_label
 _atom_site_symmetry_multiplicity
 _atom_site_fract_x
 _atom_site_fract_y
 _atom_site_fract_z
 _atom_site_occupancy
  Mg  Mg0  1  0.002154  0.502153  0.500000  1
  Mg  Mg1  1  0.752153  0.752153  0.000000  1
  Mg  Mg2  1  0.125000  0.375000  0.250000  1
  Mg  Mg3  1  0.487842  0.623845  0.391953  1
  Mg  Mg4  1  0.018108  0.654110  0.891953  1
  Mg  Mg5  1  0.345890  0.237842  0.363998  1
  Mg  Mg6  1  0.376155  0.768108  0.863998  1
  Mg  Mg7  1  0.125000  0.875000  0.250000  1
  Mg  Mg8  1  0.625000  0.875000  0.750000  1
  Mg  Mg9  1  0.873845  0.981892  0.636002  1
  Mg  Mg10  1  0.904110  0.512158  0.136002  1
  Mg  Mg11  1  0.231892  0.095890  0.608047  1
  Mg  Mg12  1  0.762158  0.126155  0.108047  1
  Mg  Mg13  1  0.497847  0.997846  0.500000  1
  Mg  Mg14  1  0.125000  0.875000  0.750000  1
  Mg  Mg15  1  0.247847  0.247847  0.000000  1
  Si  Si16  1  0.859008  0.745049  0.364498  1
  Si  Si17  1  0.625000  0.375000  0.250000  1
  Si  Si18  1  0.744510  0.609008  0.613959  1
  Si  Si19  1  0.625000  0.875000  0.250000  1
  Si  Si20  1  0.750000  0.250000  0.500000  1
  Si  Si21  1  0.250000  0.750000  0.500000  1
  Si  Si22  1  0.625000  0.375000  0.750000  1
  Si  Si23  1  0.995049  0.130551  0.386041  1
  Si  Si24  1  0.869449  0.255490  0.864498  1
  Si  Si25  1  0.125000  0.375000  0.750000  1
  Si  Si26  1  0.380551  0.494510  0.635502  1
  Si  Si27  1  0.254951  0.619449  0.113959  1
  Si  Si28  1  0.000000  0.000000  0.000000  1
  Si  Si29  1  0.500000  0.500000  0.000000  1
  Si  Si30  1  0.505490  0.140992  0.886041  1
  Si  Si31  1  0.390992  0.004951  0.135502  1
  O  O32  1  0.713968  0.793953  0.367163  1
  O  O33  1  0.710728  0.758393  0.621536  1
  O  O34  1  0.809931  0.558311  0.337592  1
  O  O35  1  0.740203  0.306371  0.361573  1
  O  O36  1  0.093706  0.569243  0.350217  1
  O  O37  1  0.441689  0.779282  0.251620  1
  O  O38  1  0.722338  0.559931  0.751620  1
  O  O39  1  0.931682  0.648780  0.665161  1
  O  O40  1  0.983619  0.266521  0.334839  1
  O  O41  1  0.693629  0.055202  0.433832  1
  O  O42  1  0.628631  0.490203  0.933832  1
  O  O43  1  0.219026  0.743489  0.649783  1
  O  O44  1  0.993489  0.843706  0.024463  1
  O  O45  1  0.430757  0.780974  0.524463  1
  O  O46  1  0.944798  0.378631  0.638427  1
  O  O47  1  0.823211  0.403196  0.867163  1
  O  O48  1  0.339192  0.460728  0.452336  1
  O  O49  1  0.241607  0.863144  0.952336  1
  O  O50  1  0.733479  0.068318  0.717098  1
  O  O51  1  0.898780  0.733619  0.217098  1
  O  O52  1  0.220718  0.472338  0.662408  1
  O  O53  1  0.136856  0.089192  0.378464  1
  O  O54  1  0.043953  0.176789  0.579985  1
  O  O55  1  0.653196  0.286032  0.079985  1
  O  O56  1  0.206047  0.573211  0.920015  1
  O  O57  1  0.596804  0.463968  0.420015  1
  O  O58  1  0.113144  0.660808  0.121536  1
  O  O59  1  0.029282  0.277662  0.837592  1
  O  O60  1  0.516521  0.681682  0.782902  1
  O  O61  1  0.351220  0.016381  0.282902  1
  O  O62  1  0.008393  0.886856  0.547664  1
  O  O63  1  0.910808  0.289272  0.047664  1
  O  O64  1  0.426789  0.346804  0.632837  1
  O  O65  1  0.305202  0.371369  0.861573  1
  O  O66  1  0.256511  0.906294  0.475537  1
  O  O67  1  0.819243  0.969026  0.975537  1
  O  O68  1  0.030974  0.006511  0.850217  1
  O  O69  1  0.556371  0.694798  0.066168  1
  O  O70  1  0.621369  0.259797  0.566168  1
  O  O71  1  0.266381  0.483479  0.165161  1
  O  O72  1  0.318318  0.101220  0.834839  1
  O  O73  1  0.527662  0.190069  0.748380  1
  O  O74  1  0.808311  0.970718  0.248380  1
  O  O75  1  0.156294  0.180757  0.149783  1
  O  O76  1  0.509797  0.443629  0.138427  1
  O  O77  1  0.440069  0.191689  0.162408  1
  O  O78  1  0.539272  0.991607  0.878464  1
  O  O79  1  0.536032  0.956047  0.132837  1
