# generated using pymatgen
data_Li4Si4Bi2O13
_symmetry_space_group_name_H-M   'P 1'
_cell_length_a   7.10095412
_cell_length_b   9.12309083
_cell_length_c   10.26288156
_cell_angle_alpha   112.85657785
_cell_angle_beta   89.51883207
_cell_angle_gamma   100.74896254
_symmetry_Int_Tables_number   1
_chemical_formula_structural   Li4Si4Bi2O13
_chemical_formula_sum   'Li8 Si8 Bi4 O26'
_cell_volume   600.39431699
_cell_formula_units_Z   2
loop_
 _symmetry_equiv_pos_site_id
 _symmetry_equiv_pos_as_xyz
  1  'x, y, z'
loop_
 _atom_site_type_symbol
 _atom_site_label
 _atom_site_symmetry_multiplicity
 _atom_site_fract_x
 _atom_site_fract_y
 _atom_site_fract_z
 _atom_site_occupancy
  Li  Li0  1  0.192061  0.829697  0.018979  1
  Li  Li1  1  0.565688  0.874314  0.022332  1
  Li  Li2  1  0.556615  0.886160  0.400983  1
  Li  Li3  1  0.141846  0.920539  0.422722  1
  Li  Li4  1  0.858154  0.079461  0.577278  1
  Li  Li5  1  0.443385  0.113840  0.599017  1
  Li  Li6  1  0.434312  0.125686  0.977668  1
  Li  Li7  1  0.807939  0.170303  0.981021  1
  Si  Si8  1  0.289475  0.650408  0.184978  1
  Si  Si9  1  0.694525  0.331684  0.283597  1
  Si  Si10  1  0.353401  0.103824  0.279236  1
  Si  Si11  1  0.898422  0.031053  0.261138  1
  Si  Si12  1  0.101578  0.968947  0.738862  1
  Si  Si13  1  0.646599  0.896176  0.720764  1
  Si  Si14  1  0.305475  0.668316  0.716403  1
  Si  Si15  1  0.710525  0.349592  0.815022  1
  Bi  Bi16  1  0.797890  0.658897  0.131740  1
  Bi  Bi17  1  0.165571  0.441153  0.351592  1
  Bi  Bi18  1  0.834429  0.558847  0.648408  1
  Bi  Bi19  1  0.202110  0.341103  0.868260  1
  O  O20  1  0.847676  0.893015  0.099221  1
  O  O21  1  0.215249  0.448821  0.105069  1
  O  O22  1  0.500635  0.718093  0.146304  1
  O  O23  1  0.127525  0.742659  0.158488  1
  O  O24  1  0.713545  0.342889  0.132958  1
  O  O25  1  0.392505  0.018050  0.115533  1
  O  O26  1  0.859074  0.943026  0.371842  1
  O  O27  1  0.392383  0.031521  0.392961  1
  O  O28  1  0.295665  0.679510  0.357534  1
  O  O29  1  0.832912  0.493476  0.410129  1
  O  O30  1  0.124980  0.134430  0.288708  1
  O  O31  1  0.467815  0.306503  0.334123  1
  O  O32  1  0.779538  0.177385  0.289816  1
  O  O33  1  0.220462  0.822615  0.710184  1
  O  O34  1  0.532185  0.693497  0.665877  1
  O  O35  1  0.875020  0.865570  0.711292  1
  O  O36  1  0.167088  0.506524  0.589871  1
  O  O37  1  0.704335  0.320490  0.642466  1
  O  O38  1  0.607617  0.968479  0.607039  1
  O  O39  1  0.140926  0.056974  0.628158  1
  O  O40  1  0.607495  0.981950  0.884467  1
  O  O41  1  0.286455  0.657111  0.867042  1
  O  O42  1  0.872475  0.257341  0.841512  1
  O  O43  1  0.499365  0.281907  0.853696  1
  O  O44  1  0.784751  0.551179  0.894931  1
  O  O45  1  0.152324  0.106985  0.900779  1
