# generated using pymatgen
data_K2Li2NiO4
_symmetry_space_group_name_H-M   'P 1'
_cell_length_a   5.46513884
_cell_length_b   9.04552430
_cell_length_c   11.07352458
_cell_angle_alpha   90.00000000
_cell_angle_beta   112.09586769
_cell_angle_gamma   90.00000000
_symmetry_Int_Tables_number   1
_chemical_formula_structural   K2Li2NiO4
_chemical_formula_sum   'K8 Li8 Ni4 O16'
_cell_volume   507.21534045
_cell_formula_units_Z   4
loop_
 _symmetry_equiv_pos_site_id
 _symmetry_equiv_pos_as_xyz
  1  'x, y, z'
loop_
 _atom_site_type_symbol
 _atom_site_label
 _atom_site_symmetry_multiplicity
 _atom_site_fract_x
 _atom_site_fract_y
 _atom_site_fract_z
 _atom_site_occupancy
  K  K0  1  0.301761  0.000333  0.143693  1
  K  K1  1  0.779921  0.748058  0.637442  1
  K  K2  1  0.698239  0.500333  0.356307  1
  K  K3  1  0.220079  0.248058  0.862558  1
  K  K4  1  0.779921  0.751942  0.137442  1
  K  K5  1  0.301761  0.499667  0.643693  1
  K  K6  1  0.220079  0.251942  0.362558  1
  K  K7  1  0.698239  0.999667  0.856307  1
  Li  Li8  1  0.385322  0.746619  0.311067  1
  Li  Li9  1  0.345616  0.486983  0.067314  1
  Li  Li10  1  0.654384  0.986983  0.432686  1
  Li  Li11  1  0.614678  0.246619  0.188933  1
  Li  Li12  1  0.385322  0.753381  0.811067  1
  Li  Li13  1  0.345616  0.013017  0.567314  1
  Li  Li14  1  0.654384  0.513017  0.932686  1
  Li  Li15  1  0.614678  0.253381  0.688933  1
  Ni  Ni16  1  0.119927  0.714700  0.949790  1
  Ni  Ni17  1  0.880073  0.214700  0.550210  1
  Ni  Ni18  1  0.119927  0.785300  0.449790  1
  Ni  Ni19  1  0.880073  0.285300  0.050210  1
  O  O20  1  0.273796  0.688439  0.126560  1
  O  O21  1  0.234838  0.296362  0.113274  1
  O  O22  1  0.726381  0.072110  0.615813  1
  O  O23  1  0.767479  0.385764  0.592648  1
  O  O24  1  0.765162  0.796362  0.386726  1
  O  O25  1  0.726204  0.188439  0.373440  1
  O  O26  1  0.232521  0.885764  0.907352  1
  O  O27  1  0.273619  0.572110  0.884187  1
  O  O28  1  0.726381  0.427890  0.115813  1
  O  O29  1  0.767479  0.114236  0.092648  1
  O  O30  1  0.273796  0.811561  0.626560  1
  O  O31  1  0.234838  0.203638  0.613274  1
  O  O32  1  0.232521  0.614236  0.407352  1
  O  O33  1  0.273619  0.927890  0.384187  1
  O  O34  1  0.765162  0.703638  0.886726  1
  O  O35  1  0.726204  0.311561  0.873440  1
