# generated using pymatgen
data_Li4Fe3CuO8
_symmetry_space_group_name_H-M   'P 1'
_cell_length_a   5.97196337
_cell_length_b   5.97196337
_cell_length_c   5.97196337
_cell_angle_alpha   59.56464413
_cell_angle_beta   59.56464413
_cell_angle_gamma   59.56464413
_symmetry_Int_Tables_number   1
_chemical_formula_structural   Li4Fe3CuO8
_chemical_formula_sum   'Li4 Fe3 Cu1 O8'
_cell_volume   149.11339790
_cell_formula_units_Z   1
loop_
 _symmetry_equiv_pos_site_id
 _symmetry_equiv_pos_as_xyz
  1  'x, y, z'
loop_
 _atom_site_type_symbol
 _atom_site_label
 _atom_site_symmetry_multiplicity
 _atom_site_fract_x
 _atom_site_fract_y
 _atom_site_fract_z
 _atom_site_occupancy
  Li  Li0  1  0.000000  0.500000  0.000000  1
  Li  Li1  1  0.000000  0.000000  0.500000  1
  Li  Li2  1  0.500000  0.500000  0.500000  1
  Li  Li3  1  0.500000  0.000000  0.000000  1
  Fe  Fe4  1  0.500000  0.500000  0.000000  1
  Fe  Fe5  1  0.500000  0.000000  0.500000  1
  Fe  Fe6  1  0.000000  0.500000  0.500000  1
  Cu  Cu7  1  0.000000  1.000000  0.000000  1
  O  O8  1  0.256582  0.256582  0.256582  1
  O  O9  1  0.742421  0.244046  0.244046  1
  O  O10  1  0.755954  0.257579  0.755954  1
  O  O11  1  0.755954  0.755954  0.257579  1
  O  O12  1  0.244046  0.244046  0.742421  1
  O  O13  1  0.244046  0.742421  0.244046  1
  O  O14  1  0.257579  0.755954  0.755954  1
  O  O15  1  0.743418  0.743418  0.743418  1
