# generated using pymatgen
data_Li2TiFeO4
_symmetry_space_group_name_H-M   'P 1'
_cell_length_a   4.07942874
_cell_length_b   4.20642769
_cell_length_c   9.29394286
_cell_angle_alpha   102.88155472
_cell_angle_beta   102.48820134
_cell_angle_gamma   89.86167090
_symmetry_Int_Tables_number   1
_chemical_formula_structural   Li2TiFeO4
_chemical_formula_sum   'Li4 Ti2 Fe2 O8'
_cell_volume   151.61461719
_cell_formula_units_Z   2
loop_
 _symmetry_equiv_pos_site_id
 _symmetry_equiv_pos_as_xyz
  1  'x, y, z'
loop_
 _atom_site_type_symbol
 _atom_site_label
 _atom_site_symmetry_multiplicity
 _atom_site_fract_x
 _atom_site_fract_y
 _atom_site_fract_z
 _atom_site_occupancy
  Li  Li0  1  0.626237  0.124487  0.252818  1
  Li  Li1  1  0.875978  0.377249  0.746569  1
  Li  Li2  1  0.520303  0.524744  0.034157  1
  Li  Li3  1  0.732190  0.729943  0.471004  1
  Ti  Ti4  1  0.214831  0.220344  0.493467  1
  Ti  Ti5  1  0.007479  0.039392  0.004381  1
  Fe  Fe6  1  0.128113  0.625095  0.252505  1
  Fe  Fe7  1  0.381514  0.878717  0.753976  1
  O  O8  1  0.132134  0.128158  0.257422  1
  O  O9  1  0.364028  0.356898  0.711490  1
  O  O10  1  0.766018  0.249869  0.495348  1
  O  O11  1  0.253606  0.768481  0.502488  1
  O  O12  1  0.627984  0.625153  0.252066  1
  O  O13  1  0.900094  0.889700  0.793065  1
  O  O14  1  0.004157  0.478273  0.002816  1
  O  O15  1  0.506221  0.000450  0.008366  1
