# generated using pymatgen
data_LiV2S2(O4F3)2
_symmetry_space_group_name_H-M   'P 1'
_cell_length_a   7.95278488
_cell_length_b   7.18146583
_cell_length_c   12.64978842
_cell_angle_alpha   90.00000000
_cell_angle_beta   125.99018185
_cell_angle_gamma   90.00000000
_symmetry_Int_Tables_number   1
_chemical_formula_structural   LiV2S2(O4F3)2
_chemical_formula_sum   'Li2 V4 S4 O16 F12'
_cell_volume   584.55758408
_cell_formula_units_Z   2
loop_
 _symmetry_equiv_pos_site_id
 _symmetry_equiv_pos_as_xyz
  1  'x, y, z'
loop_
 _atom_site_type_symbol
 _atom_site_label
 _atom_site_symmetry_multiplicity
 _atom_site_fract_x
 _atom_site_fract_y
 _atom_site_fract_z
 _atom_site_occupancy
  Li  Li0  1  0.638528  0.891508  0.721234  1
  Li  Li1  1  0.638528  0.108492  0.221234  1
  V  V2  1  0.995794  0.246307  0.999899  1
  V  V3  1  0.009031  0.253774  0.510674  1
  V  V4  1  0.009031  0.746226  0.010674  1
  V  V5  1  0.995794  0.753693  0.499899  1
  S  S6  1  0.327356  0.516013  0.499885  1
  S  S7  1  0.327356  0.483987  0.999885  1
  S  S8  1  0.649129  0.988387  0.486365  1
  S  S9  1  0.649129  0.011613  0.986365  1
  O  O10  1  0.266330  0.358015  0.554042  1
  O  O11  1  0.126555  0.352165  0.932091  1
  O  O12  1  0.498598  0.378946  0.107258  1
  O  O13  1  0.342150  0.447018  0.400162  1
  O  O14  1  0.498598  0.621054  0.607258  1
  O  O15  1  0.342150  0.552982  0.900162  1
  O  O16  1  0.266330  0.641985  0.054042  1
  O  O17  1  0.126555  0.647835  0.432091  1
  O  O18  1  0.721431  0.855586  0.941064  1
  O  O19  1  0.844610  0.847678  0.555607  1
  O  O20  1  0.637709  0.954090  0.091650  1
  O  O21  1  0.472691  0.895568  0.376461  1
  O  O22  1  0.472691  0.104432  0.876461  1
  O  O23  1  0.637709  0.045910  0.591650  1
  O  O24  1  0.721431  0.144414  0.441064  1
  O  O25  1  0.844610  0.152322  0.055607  1
  F  F26  1  0.886946  0.259003  0.334781  1
  F  F27  1  0.223763  0.266402  0.161757  1
  F  F28  1  0.900934  0.508942  0.500817  1
  F  F29  1  0.900934  0.491058  0.000817  1
  F  F30  1  0.886946  0.740997  0.834781  1
  F  F31  1  0.223763  0.733598  0.661757  1
  F  F32  1  0.079397  0.771966  0.169917  1
  F  F33  1  0.787540  0.820309  0.335866  1
  F  F34  1  0.109376  0.003594  0.511500  1
  F  F35  1  0.109376  0.996406  0.011500  1
  F  F36  1  0.787540  0.179691  0.835866  1
  F  F37  1  0.079397  0.228034  0.669917  1
