# generated using pymatgen
data_Mn5(Si2O7)2
_symmetry_space_group_name_H-M   'P 1'
_cell_length_a   5.68190686
_cell_length_b   7.69938989
_cell_length_c   8.04760787
_cell_angle_alpha   114.57464672
_cell_angle_beta   88.59523679
_cell_angle_gamma   107.87576661
_symmetry_Int_Tables_number   1
_chemical_formula_structural   Mn5(Si2O7)2
_chemical_formula_sum   'Mn5 Si4 O14'
_cell_volume   302.54312473
_cell_formula_units_Z   1
loop_
 _symmetry_equiv_pos_site_id
 _symmetry_equiv_pos_as_xyz
  1  'x, y, z'
loop_
 _atom_site_type_symbol
 _atom_site_label
 _atom_site_symmetry_multiplicity
 _atom_site_fract_x
 _atom_site_fract_y
 _atom_site_fract_z
 _atom_site_occupancy
  Mn  Mn0  1  0.000000  0.000000  0.000000  1
  Mn  Mn1  1  0.089262  0.394247  0.802054  1
  Mn  Mn2  1  0.643648  0.579743  0.692092  1
  Mn  Mn3  1  0.356352  0.420257  0.307908  1
  Mn  Mn4  1  0.910738  0.605753  0.197946  1
  Si  Si5  1  0.499793  0.223579  0.858249  1
  Si  Si6  1  0.772374  0.212947  0.386227  1
  Si  Si7  1  0.227626  0.787053  0.613773  1
  Si  Si8  1  0.500207  0.776421  0.141751  1
  O  O9  1  0.788930  0.344781  0.960875  1
  O  O10  1  0.859951  0.232335  0.583253  1
  O  O11  1  0.527240  0.010566  0.276537  1
  O  O12  1  0.418630  0.345522  0.757357  1
  O  O13  1  0.996873  0.191157  0.248636  1
  O  O14  1  0.688680  0.407639  0.410422  1
  O  O15  1  0.299124  0.213203  0.011827  1
  O  O16  1  0.700876  0.786797  0.988173  1
  O  O17  1  0.311320  0.592361  0.589578  1
  O  O18  1  0.003127  0.808843  0.751364  1
  O  O19  1  0.581370  0.654478  0.242643  1
  O  O20  1  0.472760  0.989434  0.723463  1
  O  O21  1  0.140049  0.767665  0.416747  1
  O  O22  1  0.211070  0.655219  0.039125  1
