# generated using pymatgen
data_Li3Sb11S18
_symmetry_space_group_name_H-M   'P 1'
_cell_length_a   6.89637697
_cell_length_b   7.86266626
_cell_length_c   15.44025125
_cell_angle_alpha   75.60147788
_cell_angle_beta   80.57680071
_cell_angle_gamma   73.29688568
_symmetry_Int_Tables_number   1
_chemical_formula_structural   Li3Sb11S18
_chemical_formula_sum   'Li3 Sb11 S18'
_cell_volume   772.86719587
_cell_formula_units_Z   1
loop_
 _symmetry_equiv_pos_site_id
 _symmetry_equiv_pos_as_xyz
  1  'x, y, z'
loop_
 _atom_site_type_symbol
 _atom_site_label
 _atom_site_symmetry_multiplicity
 _atom_site_fract_x
 _atom_site_fract_y
 _atom_site_fract_z
 _atom_site_occupancy
  Li  Li0  1  0.997454  0.739176  0.507310  1
  Li  Li1  1  0.888618  0.623779  0.806188  1
  Li  Li2  1  0.009539  0.254711  0.501560  1
  Sb  Sb3  1  0.291564  0.209917  0.925844  1
  Sb  Sb4  1  0.143250  0.872169  0.186262  1
  Sb  Sb5  1  0.527016  0.570893  0.617550  1
  Sb  Sb6  1  0.477130  0.935498  0.383372  1
  Sb  Sb7  1  0.289568  0.713858  0.923996  1
  Sb  Sb8  1  0.714735  0.290700  0.066248  1
  Sb  Sb9  1  0.143466  0.368097  0.185001  1
  Sb  Sb10  1  0.522781  0.054116  0.616496  1
  Sb  Sb11  1  0.482758  0.431732  0.390277  1
  Sb  Sb12  1  0.885334  0.123553  0.808664  1
  Sb  Sb13  1  0.716301  0.782642  0.067945  1
  S  S14  1  0.990713  0.004699  0.002969  1
  S  S15  1  0.134005  0.320696  0.778033  1
  S  S16  1  0.539304  0.430424  0.873630  1
  S  S17  1  0.207103  0.775137  0.353209  1
  S  S18  1  0.713365  0.584950  0.463753  1
  S  S19  1  0.972642  0.508127  0.998903  1
  S  S20  1  0.133664  0.830185  0.776047  1
  S  S21  1  0.285204  0.911365  0.535968  1
  S  S22  1  0.774586  0.731197  0.652475  1
  S  S23  1  0.439329  0.080793  0.129452  1
  S  S24  1  0.546046  0.917021  0.880955  1
  S  S25  1  0.210562  0.264928  0.350379  1
  S  S26  1  0.713459  0.092486  0.463664  1
  S  S27  1  0.866734  0.178417  0.220750  1
  S  S28  1  0.273135  0.413316  0.535469  1
  S  S29  1  0.794127  0.228984  0.646830  1
  S  S30  1  0.447880  0.579056  0.128237  1
  S  S31  1  0.868626  0.677376  0.222565  1
