# generated using pymatgen
data_P5HC(NCl6)3
_symmetry_space_group_name_H-M   'P 1'
_cell_length_a   13.84122577
_cell_length_b   13.84122577
_cell_length_c   15.41892557
_cell_angle_alpha   90.00000000
_cell_angle_beta   90.00000000
_cell_angle_gamma   106.21353889
_symmetry_Int_Tables_number   1
_chemical_formula_structural   P5HC(NCl6)3
_chemical_formula_sum   'P20 H4 C4 N12 Cl72'
_cell_volume   2836.46521945
_cell_formula_units_Z   4
loop_
 _symmetry_equiv_pos_site_id
 _symmetry_equiv_pos_as_xyz
  1  'x, y, z'
loop_
 _atom_site_type_symbol
 _atom_site_label
 _atom_site_symmetry_multiplicity
 _atom_site_fract_x
 _atom_site_fract_y
 _atom_site_fract_z
 _atom_site_occupancy
  P  P0  1  0.436157  0.436157  0.288940  1
  P  P1  1  0.563843  0.563843  0.711060  1
  P  P2  1  0.063843  0.063843  0.788940  1
  P  P3  1  0.936157  0.936157  0.211060  1
  P  P4  1  0.257494  0.257494  0.237560  1
  P  P5  1  0.742506  0.742506  0.762440  1
  P  P6  1  0.242506  0.242506  0.737560  1
  P  P7  1  0.757494  0.757494  0.262440  1
  P  P8  1  0.614498  0.359112  0.271878  1
  P  P9  1  0.640888  0.385502  0.728122  1
  P  P10  1  0.140888  0.885502  0.771878  1
  P  P11  1  0.114498  0.859112  0.228122  1
  P  P12  1  0.385502  0.640888  0.728122  1
  P  P13  1  0.359112  0.614498  0.271878  1
  P  P14  1  0.859112  0.114498  0.228122  1
  P  P15  1  0.885502  0.140888  0.771878  1
  P  P16  1  0.500000  0.000000  0.500000  1
  P  P17  1  0.000000  0.500000  0.500000  1
  P  P18  1  0.500000  0.000000  0.000000  1
  P  P19  1  0.000000  0.500000  0.000000  1
  H  H20  1  0.000115  0.000115  0.600964  1
  H  H21  1  0.999885  0.999885  0.399036  1
  H  H22  1  0.499885  0.499885  0.100964  1
  H  H23  1  0.500115  0.500115  0.899036  1
  C  C24  1  0.030814  0.030814  0.537317  1
  C  C25  1  0.969186  0.969186  0.462683  1
  C  C26  1  0.469186  0.469186  0.037317  1
  C  C27  1  0.530814  0.530814  0.962683  1
  N  N28  1  0.350009  0.350009  0.243992  1
  N  N29  1  0.649991  0.649991  0.756008  1
  N  N30  1  0.149991  0.149991  0.743992  1
  N  N31  1  0.850009  0.850009  0.256008  1
  N  N32  1  0.546767  0.431653  0.263497  1
  N  N33  1  0.568347  0.453233  0.736503  1
  N  N34  1  0.068347  0.953233  0.763497  1
  N  N35  1  0.046767  0.931653  0.236503  1
  N  N36  1  0.453233  0.568347  0.736503  1
  N  N37  1  0.431653  0.546767  0.263497  1
  N  N38  1  0.931653  0.046767  0.236503  1
  N  N39  1  0.953233  0.068347  0.763497  1
  Cl  Cl40  1  0.418395  0.418395  0.419627  1
  Cl  Cl41  1  0.581605  0.581605  0.580373  1
  Cl  Cl42  1  0.081605  0.081605  0.919627  1
  Cl  Cl43  1  0.918395  0.918395  0.080373  1
  Cl  Cl44  1  0.199891  0.199891  0.351392  1
  Cl  Cl45  1  0.800109  0.800109  0.648608  1
  Cl  Cl46  1  0.300109  0.300109  0.851392  1
  Cl  Cl47  1  0.699891  0.699891  0.148608  1
  Cl  Cl48  1  0.285174  0.143772  0.172363  1
  Cl  Cl49  1  0.856228  0.714826  0.827637  1
  Cl  Cl50  1  0.356228  0.214826  0.672363  1
  Cl  Cl51  1  0.785174  0.643772  0.327637  1
  Cl  Cl52  1  0.714826  0.856228  0.827637  1
  Cl  Cl53  1  0.143772  0.285174  0.172363  1
  Cl  Cl54  1  0.643772  0.785174  0.327637  1
  Cl  Cl55  1  0.214826  0.356228  0.672363  1
  Cl  Cl56  1  0.685861  0.368308  0.385647  1
  Cl  Cl57  1  0.631692  0.314139  0.614353  1
  Cl  Cl58  1  0.131692  0.814139  0.885647  1
  Cl  Cl59  1  0.185861  0.868308  0.114353  1
  Cl  Cl60  1  0.314139  0.631692  0.614353  1
  Cl  Cl61  1  0.368308  0.685861  0.385647  1
  Cl  Cl62  1  0.868308  0.185861  0.114353  1
  Cl  Cl63  1  0.814139  0.131692  0.885647  1
  Cl  Cl64  1  0.545799  0.213397  0.255793  1
  Cl  Cl65  1  0.786603  0.454201  0.744207  1
  Cl  Cl66  1  0.286603  0.954201  0.755793  1
  Cl  Cl67  1  0.045799  0.713397  0.244207  1
  Cl  Cl68  1  0.454201  0.786603  0.744207  1
  Cl  Cl69  1  0.213397  0.545799  0.255793  1
  Cl  Cl70  1  0.713397  0.045799  0.244207  1
  Cl  Cl71  1  0.954201  0.286603  0.755793  1
  Cl  Cl72  1  0.723710  0.392517  0.183747  1
  Cl  Cl73  1  0.607483  0.276290  0.816253  1
  Cl  Cl74  1  0.107483  0.776290  0.683747  1
  Cl  Cl75  1  0.223710  0.892517  0.316253  1
  Cl  Cl76  1  0.276290  0.607483  0.816253  1
  Cl  Cl77  1  0.392517  0.723710  0.183747  1
  Cl  Cl78  1  0.892517  0.223710  0.316253  1
  Cl  Cl79  1  0.776290  0.107483  0.683747  1
  Cl  Cl80  1  0.488134  0.961052  0.362663  1
  Cl  Cl81  1  0.038948  0.511866  0.637337  1
  Cl  Cl82  1  0.538948  0.011866  0.862663  1
  Cl  Cl83  1  0.988134  0.461052  0.137337  1
  Cl  Cl84  1  0.511866  0.038948  0.637337  1
  Cl  Cl85  1  0.961052  0.488134  0.362663  1
  Cl  Cl86  1  0.461052  0.988134  0.137337  1
  Cl  Cl87  1  0.011866  0.538948  0.862663  1
  Cl  Cl88  1  0.430630  0.119692  0.474692  1
  Cl  Cl89  1  0.880308  0.569370  0.525308  1
  Cl  Cl90  1  0.380308  0.069370  0.974692  1
  Cl  Cl91  1  0.930630  0.619692  0.025308  1
  Cl  Cl92  1  0.569370  0.880308  0.525308  1
  Cl  Cl93  1  0.119692  0.430630  0.474692  1
  Cl  Cl94  1  0.619692  0.930630  0.025308  1
  Cl  Cl95  1  0.069370  0.380308  0.974692  1
  Cl  Cl96  1  0.647232  0.103756  0.477371  1
  Cl  Cl97  1  0.896244  0.352768  0.522629  1
  Cl  Cl98  1  0.396244  0.852768  0.977371  1
  Cl  Cl99  1  0.147232  0.603756  0.022629  1
  Cl  Cl100  1  0.352768  0.896244  0.522629  1
  Cl  Cl101  1  0.103756  0.647232  0.477371  1
  Cl  Cl102  1  0.603756  0.147232  0.022629  1
  Cl  Cl103  1  0.852768  0.396244  0.977371  1
  Cl  Cl104  1  0.158271  0.026184  0.531587  1
  Cl  Cl105  1  0.973816  0.841729  0.468413  1
  Cl  Cl106  1  0.473816  0.341729  0.031587  1
  Cl  Cl107  1  0.658271  0.526184  0.968413  1
  Cl  Cl108  1  0.841729  0.973816  0.468413  1
  Cl  Cl109  1  0.026184  0.158271  0.531587  1
  Cl  Cl110  1  0.526184  0.658271  0.968413  1
  Cl  Cl111  1  0.341729  0.473816  0.031587  1
