# generated using pymatgen
data_Mn3V(PO4)4
_symmetry_space_group_name_H-M   'P 1'
_cell_length_a   4.91491182
_cell_length_b   6.00301071
_cell_length_c   9.94312388
_cell_angle_alpha   90.00000000
_cell_angle_beta   90.57323137
_cell_angle_gamma   90.00000000
_symmetry_Int_Tables_number   1
_chemical_formula_structural   Mn3V(PO4)4
_chemical_formula_sum   'Mn3 V1 P4 O16'
_cell_volume   293.34991272
_cell_formula_units_Z   1
loop_
 _symmetry_equiv_pos_site_id
 _symmetry_equiv_pos_as_xyz
  1  'x, y, z'
loop_
 _atom_site_type_symbol
 _atom_site_label
 _atom_site_symmetry_multiplicity
 _atom_site_fract_x
 _atom_site_fract_y
 _atom_site_fract_z
 _atom_site_occupancy
  Mn  Mn0  1  0.932379  0.500000  0.713148  1
  Mn  Mn1  1  0.552116  0.500000  0.221181  1
  Mn  Mn2  1  0.428143  0.000000  0.783354  1
  V  V3  1  0.048476  0.000000  0.280710  1
  P  P4  1  0.907331  0.000000  0.598362  1
  P  P5  1  0.610470  0.000000  0.099060  1
  P  P6  1  0.413844  0.500000  0.896329  1
  P  P7  1  0.068028  0.500000  0.407358  1
  O  O8  1  0.841664  0.000000  0.444428  1
  O  O9  1  0.765981  0.201159  0.667254  1
  O  O10  1  0.765981  0.798841  0.667254  1
  O  O11  1  0.762550  0.500000  0.394679  1
  O  O12  1  0.724818  0.500000  0.874475  1
  O  O13  1  0.769399  0.194486  0.172207  1
  O  O14  1  0.769399  0.805514  0.172207  1
  O  O15  1  0.653049  0.000000  0.947343  1
  O  O16  1  0.358832  0.500000  0.045938  1
  O  O17  1  0.268851  0.700983  0.825003  1
  O  O18  1  0.268851  0.299017  0.825003  1
  O  O19  1  0.305178  0.000000  0.130732  1
  O  O20  1  0.218485  0.000000  0.616997  1
  O  O21  1  0.203303  0.706709  0.331057  1
  O  O22  1  0.203303  0.293291  0.331057  1
  O  O23  1  0.159568  0.500000  0.554865  1
