# generated using pymatgen
data_Li5BiS4
_symmetry_space_group_name_H-M   'P 1'
_cell_length_a   16.62000361
_cell_length_b   16.62000361
_cell_length_c   5.93908222
_cell_angle_alpha   90.00000000
_cell_angle_beta   90.00000000
_cell_angle_gamma   90.00000000
_symmetry_Int_Tables_number   1
_chemical_formula_structural   Li5BiS4
_chemical_formula_sum   'Li40 Bi8 S32'
_cell_volume   1640.52013544
_cell_formula_units_Z   8
loop_
 _symmetry_equiv_pos_site_id
 _symmetry_equiv_pos_as_xyz
  1  'x, y, z'
loop_
 _atom_site_type_symbol
 _atom_site_label
 _atom_site_symmetry_multiplicity
 _atom_site_fract_x
 _atom_site_fract_y
 _atom_site_fract_z
 _atom_site_occupancy
  Li  Li0  1  0.760379  0.239621  0.000000  1
  Li  Li1  1  0.739621  0.260379  0.500000  1
  Li  Li2  1  0.239621  0.239621  0.000000  1
  Li  Li3  1  0.260379  0.260379  0.500000  1
  Li  Li4  1  0.113121  0.361643  0.563073  1
  Li  Li5  1  0.886879  0.361643  0.563073  1
  Li  Li6  1  0.372233  0.372233  0.000000  1
  Li  Li7  1  0.627767  0.372233  0.000000  1
  Li  Li8  1  0.861643  0.386879  0.063073  1
  Li  Li9  1  0.138357  0.386879  0.063073  1
  Li  Li10  1  0.000000  0.500000  0.086407  1
  Li  Li11  1  0.500000  0.500000  0.500000  1
  Li  Li12  1  0.500000  0.500000  0.000000  1
  Li  Li13  1  0.000000  0.500000  0.586407  1
  Li  Li14  1  0.861643  0.613121  0.063073  1
  Li  Li15  1  0.138357  0.613121  0.063073  1
  Li  Li16  1  0.372233  0.627767  0.000000  1
  Li  Li17  1  0.627767  0.627767  0.000000  1
  Li  Li18  1  0.886879  0.638357  0.563073  1
  Li  Li19  1  0.113121  0.638357  0.563073  1
  Li  Li20  1  0.239621  0.760379  0.000000  1
  Li  Li21  1  0.260379  0.739621  0.500000  1
  Li  Li22  1  0.760379  0.760379  0.000000  1
  Li  Li23  1  0.739621  0.739621  0.500000  1
  Li  Li24  1  0.386879  0.861643  0.936927  1
  Li  Li25  1  0.613121  0.861643  0.936927  1
  Li  Li26  1  0.872233  0.872233  0.500000  1
  Li  Li27  1  0.127767  0.872233  0.500000  1
  Li  Li28  1  0.361643  0.886879  0.436927  1
  Li  Li29  1  0.638357  0.886879  0.436927  1
  Li  Li30  1  0.000000  0.000000  0.500000  1
  Li  Li31  1  0.000000  0.000000  0.000000  1
  Li  Li32  1  0.500000  0.000000  0.913593  1
  Li  Li33  1  0.500000  0.000000  0.413593  1
  Li  Li34  1  0.361643  0.113121  0.436927  1
  Li  Li35  1  0.638357  0.113121  0.436927  1
  Li  Li36  1  0.872233  0.127767  0.500000  1
  Li  Li37  1  0.127767  0.127767  0.500000  1
  Li  Li38  1  0.386879  0.138357  0.936927  1
  Li  Li39  1  0.613121  0.138357  0.936927  1
  Bi  Bi40  1  0.500000  0.267597  0.464219  1
  Bi  Bi41  1  0.267597  0.500000  0.535781  1
  Bi  Bi42  1  0.732403  0.500000  0.535781  1
  Bi  Bi43  1  0.500000  0.732403  0.464219  1
  Bi  Bi44  1  0.000000  0.767597  0.035781  1
  Bi  Bi45  1  0.767597  0.000000  0.964219  1
  Bi  Bi46  1  0.232403  0.000000  0.964219  1
  Bi  Bi47  1  0.000000  0.232403  0.035781  1
  S  S48  1  0.864860  0.259081  0.279016  1
  S  S49  1  0.135140  0.259081  0.279016  1
  S  S50  1  0.759081  0.364860  0.779016  1
  S  S51  1  0.240919  0.364860  0.779016  1
  S  S52  1  0.000000  0.382012  0.837117  1
  S  S53  1  0.500000  0.381831  0.774293  1
  S  S54  1  0.882012  0.500000  0.337117  1
  S  S55  1  0.381831  0.500000  0.225707  1
  S  S56  1  0.117988  0.500000  0.337117  1
  S  S57  1  0.618169  0.500000  0.225707  1
  S  S58  1  0.500000  0.618169  0.774293  1
  S  S59  1  0.000000  0.617988  0.837117  1
  S  S60  1  0.240919  0.635140  0.779016  1
  S  S61  1  0.759081  0.635140  0.779016  1
  S  S62  1  0.864860  0.740919  0.279016  1
  S  S63  1  0.135140  0.740919  0.279016  1
  S  S64  1  0.364860  0.759081  0.220984  1
  S  S65  1  0.635140  0.759081  0.220984  1
  S  S66  1  0.259081  0.864860  0.720984  1
  S  S67  1  0.740919  0.864860  0.720984  1
  S  S68  1  0.500000  0.882012  0.662883  1
  S  S69  1  0.000000  0.881831  0.725707  1
  S  S70  1  0.881831  0.000000  0.274293  1
  S  S71  1  0.118169  0.000000  0.274293  1
  S  S72  1  0.382012  0.000000  0.162883  1
  S  S73  1  0.617988  0.000000  0.162883  1
  S  S74  1  0.000000  0.118169  0.725707  1
  S  S75  1  0.500000  0.117988  0.662883  1
  S  S76  1  0.259081  0.135140  0.720984  1
  S  S77  1  0.740919  0.135140  0.720984  1
  S  S78  1  0.364860  0.240919  0.220984  1
  S  S79  1  0.635140  0.240919  0.220984  1
