# generated using pymatgen
data_Li3CoPCO7
_symmetry_space_group_name_H-M   'P 1'
_cell_length_a   9.44892032
_cell_length_b   6.39209701
_cell_length_c   9.73247861
_cell_angle_alpha   90.00000000
_cell_angle_beta   115.40724807
_cell_angle_gamma   90.00000000
_symmetry_Int_Tables_number   1
_chemical_formula_structural   Li3CoPCO7
_chemical_formula_sum   'Li12 Co4 P4 C4 O28'
_cell_volume   530.97232908
_cell_formula_units_Z   4
loop_
 _symmetry_equiv_pos_site_id
 _symmetry_equiv_pos_as_xyz
  1  'x, y, z'
loop_
 _atom_site_type_symbol
 _atom_site_label
 _atom_site_symmetry_multiplicity
 _atom_site_fract_x
 _atom_site_fract_y
 _atom_site_fract_z
 _atom_site_occupancy
  Li  Li0  1  0.607690  0.241351  0.442659  1
  Li  Li1  1  0.607690  0.258649  0.942659  1
  Li  Li2  1  0.781662  0.500665  0.263665  1
  Li  Li3  1  0.781662  0.999335  0.763665  1
  Li  Li4  1  0.855007  0.747145  0.065467  1
  Li  Li5  1  0.855007  0.752855  0.565467  1
  Li  Li6  1  0.144993  0.247145  0.434533  1
  Li  Li7  1  0.144993  0.252855  0.934533  1
  Li  Li8  1  0.218338  0.000665  0.236335  1
  Li  Li9  1  0.218338  0.499335  0.736335  1
  Li  Li10  1  0.392310  0.741351  0.057341  1
  Li  Li11  1  0.392310  0.758649  0.557341  1
  Co  Co12  1  0.765307  0.007733  0.258820  1
  Co  Co13  1  0.765307  0.492267  0.758820  1
  Co  Co14  1  0.234693  0.507733  0.241180  1
  Co  Co15  1  0.234693  0.992267  0.741180  1
  P  P16  1  0.908358  0.258433  0.065969  1
  P  P17  1  0.908358  0.241567  0.565969  1
  P  P18  1  0.091642  0.758433  0.434031  1
  P  P19  1  0.091642  0.741567  0.934031  1
  C  C20  1  0.543095  0.740336  0.371352  1
  C  C21  1  0.543095  0.759664  0.871352  1
  C  C22  1  0.456905  0.240336  0.128648  1
  C  C23  1  0.456905  0.259664  0.628648  1
  O  O24  1  0.566420  0.765049  0.010591  1
  O  O25  1  0.566420  0.734951  0.510591  1
  O  O26  1  0.602380  0.231608  0.238191  1
  O  O27  1  0.657523  0.753858  0.331817  1
  O  O28  1  0.602380  0.268392  0.738191  1
  O  O29  1  0.657523  0.746142  0.831817  1
  O  O30  1  0.816375  0.058528  0.072965  1
  O  O31  1  0.805853  0.442413  0.072556  1
  O  O32  1  0.805853  0.057587  0.572556  1
  O  O33  1  0.816375  0.441472  0.572965  1
  O  O34  1  0.923089  0.759226  0.304864  1
  O  O35  1  0.918215  0.237451  0.409219  1
  O  O36  1  0.923089  0.740774  0.804864  1
  O  O37  1  0.918215  0.262549  0.909219  1
  O  O38  1  0.081785  0.737451  0.090781  1
  O  O39  1  0.076911  0.259226  0.195136  1
  O  O40  1  0.081785  0.762549  0.590781  1
  O  O41  1  0.076911  0.240774  0.695136  1
  O  O42  1  0.194147  0.942413  0.427444  1
  O  O43  1  0.183625  0.558528  0.427035  1
  O  O44  1  0.183625  0.941472  0.927035  1
  O  O45  1  0.194147  0.557587  0.927444  1
  O  O46  1  0.342477  0.253858  0.168183  1
  O  O47  1  0.397620  0.731608  0.261809  1
  O  O48  1  0.342477  0.246142  0.668183  1
  O  O49  1  0.397620  0.768392  0.761809  1
  O  O50  1  0.433580  0.265049  0.489409  1
  O  O51  1  0.433580  0.234951  0.989409  1
