# generated using pymatgen
data_Li9Cu2(HO2)4
_symmetry_space_group_name_H-M   'P 1'
_cell_length_a   5.48216185
_cell_length_b   7.51679524
_cell_length_c   10.83688914
_cell_angle_alpha   90.00000000
_cell_angle_beta   90.00000000
_cell_angle_gamma   90.00000000
_symmetry_Int_Tables_number   1
_chemical_formula_structural   Li9Cu2(HO2)4
_chemical_formula_sum   'Li18 Cu4 H8 O16'
_cell_volume   446.56965000
_cell_formula_units_Z   2
loop_
 _symmetry_equiv_pos_site_id
 _symmetry_equiv_pos_as_xyz
  1  'x, y, z'
loop_
 _atom_site_type_symbol
 _atom_site_label
 _atom_site_symmetry_multiplicity
 _atom_site_fract_x
 _atom_site_fract_y
 _atom_site_fract_z
 _atom_site_occupancy
  Li  Li0  1  0.805190  0.500000  0.950176  1
  Li  Li1  1  0.812448  0.000000  0.276114  1
  Li  Li2  1  0.972614  0.749740  0.161450  1
  Li  Li3  1  0.972614  0.250260  0.161450  1
  Li  Li4  1  0.027386  0.249740  0.661450  1
  Li  Li5  1  0.027386  0.750260  0.661450  1
  Li  Li6  1  0.187552  0.500000  0.776114  1
  Li  Li7  1  0.194810  0.000000  0.450176  1
  Li  Li8  1  0.301737  0.500000  0.544172  1
  Li  Li9  1  0.299012  0.000000  0.228198  1
  Li  Li10  1  0.319614  0.000000  0.719200  1
  Li  Li11  1  0.448393  0.745944  0.340035  1
  Li  Li12  1  0.448393  0.254056  0.340035  1
  Li  Li13  1  0.551607  0.245944  0.840035  1
  Li  Li14  1  0.551607  0.754056  0.840035  1
  Li  Li15  1  0.680386  0.500000  0.219200  1
  Li  Li16  1  0.700988  0.500000  0.728198  1
  Li  Li17  1  0.698263  0.000000  0.044172  1
  Cu  Cu18  1  0.754794  0.000000  0.523788  1
  Cu  Cu19  1  0.245206  0.500000  0.023788  1
  Cu  Cu20  1  0.240354  0.000000  0.980783  1
  Cu  Cu21  1  0.759646  0.500000  0.480783  1
  H  H22  1  0.984670  0.776833  0.882612  1
  H  H23  1  0.984670  0.223167  0.882612  1
  H  H24  1  0.015330  0.276833  0.382612  1
  H  H25  1  0.015330  0.723167  0.382612  1
  H  H26  1  0.499798  0.762299  0.609004  1
  H  H27  1  0.499798  0.237701  0.609004  1
  H  H28  1  0.500202  0.262299  0.109004  1
  H  H29  1  0.500202  0.737701  0.109004  1
  O  O30  1  0.909153  0.312507  0.829266  1
  O  O31  1  0.909153  0.687493  0.829266  1
  O  O32  1  0.974689  0.500000  0.602488  1
  O  O33  1  0.973257  0.500000  0.114271  1
  O  O34  1  0.026743  0.000000  0.614271  1
  O  O35  1  0.025311  0.000000  0.102488  1
  O  O36  1  0.090847  0.187493  0.329266  1
  O  O37  1  0.090847  0.812507  0.329266  1
  O  O38  1  0.401054  0.707828  0.674637  1
  O  O39  1  0.401054  0.292172  0.674637  1
  O  O40  1  0.467511  0.500000  0.904916  1
  O  O41  1  0.505052  0.500000  0.379354  1
  O  O42  1  0.494948  0.000000  0.879354  1
  O  O43  1  0.532489  0.000000  0.404916  1
  O  O44  1  0.598946  0.792172  0.174637  1
  O  O45  1  0.598946  0.207828  0.174637  1
