# generated using pymatgen
data_LiCuO2
_symmetry_space_group_name_H-M   'P 1'
_cell_length_a   5.36356377
_cell_length_b   5.44972812
_cell_length_c   6.79641547
_cell_angle_alpha   99.00871909
_cell_angle_beta   101.07283318
_cell_angle_gamma   105.51296221
_symmetry_Int_Tables_number   1
_chemical_formula_structural   LiCuO2
_chemical_formula_sum   'Li4 Cu4 O8'
_cell_volume   183.25965624
_cell_formula_units_Z   4
loop_
 _symmetry_equiv_pos_site_id
 _symmetry_equiv_pos_as_xyz
  1  'x, y, z'
loop_
 _atom_site_type_symbol
 _atom_site_label
 _atom_site_symmetry_multiplicity
 _atom_site_fract_x
 _atom_site_fract_y
 _atom_site_fract_z
 _atom_site_occupancy
  Li  Li0  1  0.473998  0.212642  0.556784  1
  Li  Li1  1  0.573774  0.652190  0.851395  1
  Li  Li2  1  0.421285  0.896030  0.148464  1
  Li  Li3  1  0.417981  0.384797  0.129460  1
  Cu  Cu4  1  0.035627  0.441948  0.744093  1
  Cu  Cu5  1  0.039035  0.942809  0.740547  1
  Cu  Cu6  1  0.944051  0.052321  0.258947  1
  Cu  Cu7  1  0.950662  0.554701  0.261880  1
  O  O8  1  0.265979  0.774477  0.858560  1
  O  O9  1  0.290862  0.276831  0.816404  1
  O  O10  1  0.195198  0.377199  0.329724  1
  O  O11  1  0.194505  0.887628  0.333093  1
  O  O12  1  0.790198  0.610982  0.665213  1
  O  O13  1  0.808637  0.111000  0.632241  1
  O  O14  1  0.703370  0.716664  0.156480  1
  O  O15  1  0.700939  0.228330  0.192814  1
