# generated using pymatgen
data_Ag3IrO4
_symmetry_space_group_name_H-M   'P 1'
_cell_length_a   7.42162945
_cell_length_b   7.42162945
_cell_length_c   8.26871435
_cell_angle_alpha   90.00000000
_cell_angle_beta   90.00000000
_cell_angle_gamma   90.00000000
_symmetry_Int_Tables_number   1
_chemical_formula_structural   Ag3IrO4
_chemical_formula_sum   'Ag12 Ir4 O16'
_cell_volume   455.44561217
_cell_formula_units_Z   4
loop_
 _symmetry_equiv_pos_site_id
 _symmetry_equiv_pos_as_xyz
  1  'x, y, z'
loop_
 _atom_site_type_symbol
 _atom_site_label
 _atom_site_symmetry_multiplicity
 _atom_site_fract_x
 _atom_site_fract_y
 _atom_site_fract_z
 _atom_site_occupancy
  Ag  Ag0  1  0.000000  0.179288  0.000000  1
  Ag  Ag1  1  0.000000  0.756352  0.000000  1
  Ag  Ag2  1  0.000000  0.243648  0.500000  1
  Ag  Ag3  1  0.000000  0.820712  0.500000  1
  Ag  Ag4  1  0.199509  0.500000  0.250000  1
  Ag  Ag5  1  0.179288  0.000000  0.750000  1
  Ag  Ag6  1  0.243648  0.000000  0.250000  1
  Ag  Ag7  1  0.500000  0.199509  0.500000  1
  Ag  Ag8  1  0.500000  0.800491  0.000000  1
  Ag  Ag9  1  0.756352  0.000000  0.750000  1
  Ag  Ag10  1  0.820712  0.000000  0.250000  1
  Ag  Ag11  1  0.800491  0.500000  0.750000  1
  Ir  Ir12  1  0.278544  0.500000  0.750000  1
  Ir  Ir13  1  0.500000  0.278544  0.000000  1
  Ir  Ir14  1  0.500000  0.721456  0.500000  1
  Ir  Ir15  1  0.721456  0.500000  0.250000  1
  O  O16  1  0.089042  0.316551  0.741991  1
  O  O17  1  0.089042  0.683449  0.758009  1
  O  O18  1  0.312055  0.473810  0.987408  1
  O  O19  1  0.312055  0.526190  0.512592  1
  O  O20  1  0.316551  0.089042  0.008009  1
  O  O21  1  0.316551  0.910958  0.491991  1
  O  O22  1  0.473810  0.312055  0.762592  1
  O  O23  1  0.473810  0.687945  0.737408  1
  O  O24  1  0.526190  0.312055  0.237408  1
  O  O25  1  0.526190  0.687945  0.262592  1
  O  O26  1  0.683449  0.910958  0.508009  1
  O  O27  1  0.683449  0.089042  0.991991  1
  O  O28  1  0.687945  0.473810  0.012592  1
  O  O29  1  0.687945  0.526190  0.487408  1
  O  O30  1  0.910958  0.316551  0.258009  1
  O  O31  1  0.910958  0.683449  0.241991  1
