# generated using pymatgen
data_LiVSiO4
_symmetry_space_group_name_H-M   'P 1'
_cell_length_a   8.68237960
_cell_length_b   8.68237960
_cell_length_c   8.68237960
_cell_angle_alpha   107.68576361
_cell_angle_beta   107.68576361
_cell_angle_gamma   107.68576361
_symmetry_Int_Tables_number   1
_chemical_formula_structural   LiVSiO4
_chemical_formula_sum   'Li6 V6 Si6 O24'
_cell_volume   534.55773189
_cell_formula_units_Z   6
loop_
 _symmetry_equiv_pos_site_id
 _symmetry_equiv_pos_as_xyz
  1  'x, y, z'
loop_
 _atom_site_type_symbol
 _atom_site_label
 _atom_site_symmetry_multiplicity
 _atom_site_fract_x
 _atom_site_fract_y
 _atom_site_fract_z
 _atom_site_occupancy
  Li  Li0  1  0.724416  0.890938  0.125672  1
  Li  Li1  1  0.606007  0.432034  0.211587  1
  Li  Li2  1  0.211587  0.606007  0.432034  1
  Li  Li3  1  0.125672  0.724416  0.890938  1
  Li  Li4  1  0.432034  0.211587  0.606007  1
  Li  Li5  1  0.890938  0.125672  0.724416  1
  V  V6  1  0.233817  0.460501  0.054265  1
  V  V7  1  0.946840  0.769792  0.531631  1
  V  V8  1  0.531631  0.946840  0.769792  1
  V  V9  1  0.460501  0.054265  0.233817  1
  V  V10  1  0.054265  0.233817  0.460501  1
  V  V11  1  0.769792  0.531631  0.946840  1
  Si  Si12  1  0.098295  0.873251  0.279627  1
  Si  Si13  1  0.568182  0.795108  0.388885  1
  Si  Si14  1  0.873251  0.279627  0.098295  1
  Si  Si15  1  0.795108  0.388885  0.568182  1
  Si  Si16  1  0.388885  0.568182  0.795108  1
  Si  Si17  1  0.279627  0.098295  0.873251  1
  O  O18  1  0.974808  0.981561  0.309149  1
  O  O19  1  0.011615  0.731070  0.065528  1
  O  O20  1  0.581478  0.907683  0.266517  1
  O  O21  1  0.090267  0.759683  0.401551  1
  O  O22  1  0.636220  0.934723  0.599757  1
  O  O23  1  0.361126  0.638263  0.302909  1
  O  O24  1  0.759683  0.401551  0.090267  1
  O  O25  1  0.699398  0.693421  0.376590  1
  O  O26  1  0.351528  0.304771  0.022172  1
  O  O27  1  0.731070  0.065528  0.011615  1
  O  O28  1  0.022172  0.351528  0.304771  1
  O  O29  1  0.376590  0.699398  0.693421  1
  O  O30  1  0.309149  0.974808  0.981561  1
  O  O31  1  0.934723  0.599757  0.636220  1
  O  O32  1  0.638263  0.302909  0.361126  1
  O  O33  1  0.302909  0.361126  0.638263  1
  O  O34  1  0.599757  0.636220  0.934723  1
  O  O35  1  0.907683  0.266517  0.581478  1
  O  O36  1  0.693421  0.376590  0.699398  1
  O  O37  1  0.304771  0.022172  0.351528  1
  O  O38  1  0.266517  0.581478  0.907683  1
  O  O39  1  0.981561  0.309149  0.974808  1
  O  O40  1  0.401551  0.090267  0.759683  1
  O  O41  1  0.065528  0.011615  0.731070  1
