# generated using pymatgen
data_Ni17(As3O16)2
_symmetry_space_group_name_H-M   'P 1'
_cell_length_a   9.92813793
_cell_length_b   6.02749889
_cell_length_c   10.37060656
_cell_angle_alpha   90.00000000
_cell_angle_beta   110.51257268
_cell_angle_gamma   90.00000000
_symmetry_Int_Tables_number   1
_chemical_formula_structural   Ni17(As3O16)2
_chemical_formula_sum   'Ni17 As6 O32'
_cell_volume   581.24747894
_cell_formula_units_Z   1
loop_
 _symmetry_equiv_pos_site_id
 _symmetry_equiv_pos_as_xyz
  1  'x, y, z'
loop_
 _atom_site_type_symbol
 _atom_site_label
 _atom_site_symmetry_multiplicity
 _atom_site_fract_x
 _atom_site_fract_y
 _atom_site_fract_z
 _atom_site_occupancy
  Ni  Ni0  1  0.740102  0.500000  0.248862  1
  Ni  Ni1  1  0.743689  0.243514  0.495478  1
  Ni  Ni2  1  0.743689  0.756486  0.495478  1
  Ni  Ni3  1  0.734081  0.000000  0.745046  1
  Ni  Ni4  1  0.736013  0.251724  0.995714  1
  Ni  Ni5  1  0.736013  0.748276  0.995714  1
  Ni  Ni6  1  0.263987  0.748276  0.004286  1
  Ni  Ni7  1  0.263987  0.251724  0.004286  1
  Ni  Ni8  1  0.265919  0.000000  0.254954  1
  Ni  Ni9  1  0.256311  0.756486  0.504522  1
  Ni  Ni10  1  0.256311  0.243514  0.504522  1
  Ni  Ni11  1  0.259898  0.500000  0.751138  1
  Ni  Ni12  1  0.999293  0.757813  0.258242  1
  Ni  Ni13  1  0.999293  0.242187  0.258242  1
  Ni  Ni14  1  0.000707  0.242187  0.741758  1
  Ni  Ni15  1  0.000707  0.757813  0.741758  1
  Ni  Ni16  1  0.000000  0.500000  0.000000  1
  As  As17  1  0.578511  0.000000  0.192352  1
  As  As18  1  0.575794  0.500000  0.689857  1
  As  As19  1  0.424206  0.500000  0.310143  1
  As  As20  1  0.421489  0.000000  0.807648  1
  As  As21  1  0.000000  0.500000  0.500000  1
  As  As22  1  0.000000  0.000000  0.000000  1
  O  O23  1  0.883972  0.000000  0.109200  1
  O  O24  1  0.871132  0.500000  0.121807  1
  O  O25  1  0.881165  0.287124  0.384671  1
  O  O26  1  0.881165  0.712876  0.384671  1
  O  O27  1  0.884982  0.500000  0.610617  1
  O  O28  1  0.860939  0.000000  0.632532  1
  O  O29  1  0.628724  0.237253  0.130416  1
  O  O30  1  0.628724  0.762747  0.130416  1
  O  O31  1  0.885297  0.778777  0.888671  1
  O  O32  1  0.885297  0.221223  0.888671  1
  O  O33  1  0.628174  0.000000  0.367648  1
  O  O34  1  0.613454  0.500000  0.372552  1
  O  O35  1  0.629446  0.735615  0.629865  1
  O  O36  1  0.629446  0.264385  0.629865  1
  O  O37  1  0.388000  0.000000  0.128175  1
  O  O38  1  0.370404  0.500000  0.133049  1
  O  O39  1  0.629596  0.500000  0.866951  1
  O  O40  1  0.612000  0.000000  0.871825  1
  O  O41  1  0.370554  0.264385  0.370135  1
  O  O42  1  0.370554  0.735615  0.370135  1
  O  O43  1  0.386546  0.500000  0.627448  1
  O  O44  1  0.371826  0.000000  0.632352  1
  O  O45  1  0.114703  0.778777  0.111329  1
  O  O46  1  0.114703  0.221223  0.111329  1
  O  O47  1  0.371276  0.762747  0.869584  1
  O  O48  1  0.371276  0.237253  0.869584  1
  O  O49  1  0.139061  0.000000  0.367468  1
  O  O50  1  0.115018  0.500000  0.389383  1
  O  O51  1  0.118835  0.287124  0.615329  1
  O  O52  1  0.118835  0.712876  0.615329  1
  O  O53  1  0.128868  0.500000  0.878193  1
  O  O54  1  0.116028  0.000000  0.890800  1
