# generated using pymatgen
data_Sr3W2O9
_symmetry_space_group_name_H-M   'P 1'
_cell_length_a   9.06940889
_cell_length_b   8.11717601
_cell_length_c   9.66953908
_cell_angle_alpha   90.00000000
_cell_angle_beta   117.15009447
_cell_angle_gamma   90.00000000
_symmetry_Int_Tables_number   1
_chemical_formula_structural   Sr3W2O9
_chemical_formula_sum   'Sr6 W4 O18'
_cell_volume   633.41601312
_cell_formula_units_Z   2
loop_
 _symmetry_equiv_pos_site_id
 _symmetry_equiv_pos_as_xyz
  1  'x, y, z'
loop_
 _atom_site_type_symbol
 _atom_site_label
 _atom_site_symmetry_multiplicity
 _atom_site_fract_x
 _atom_site_fract_y
 _atom_site_fract_z
 _atom_site_occupancy
  Sr  Sr0  1  0.372209  0.250000  0.254742  1
  Sr  Sr1  1  0.000000  0.000000  0.000000  1
  Sr  Sr2  1  0.000000  0.500000  0.000000  1
  Sr  Sr3  1  0.165878  0.250000  0.777860  1
  Sr  Sr4  1  0.834122  0.750000  0.222140  1
  Sr  Sr5  1  0.627791  0.750000  0.745258  1
  W  W6  1  0.429223  0.750000  0.269591  1
  W  W7  1  0.850735  0.250000  0.289635  1
  W  W8  1  0.149265  0.750000  0.710365  1
  W  W9  1  0.570777  0.250000  0.730409  1
  O  O10  1  0.139585  0.250000  0.008548  1
  O  O11  1  0.300133  0.564846  0.224492  1
  O  O12  1  0.300133  0.935154  0.224492  1
  O  O13  1  0.580427  0.750000  0.472676  1
  O  O14  1  0.637562  0.250000  0.253939  1
  O  O15  1  0.542511  0.750000  0.157709  1
  O  O16  1  0.105334  0.935179  0.793903  1
  O  O17  1  0.105334  0.564821  0.793903  1
  O  O18  1  0.979280  0.250000  0.497152  1
  O  O19  1  0.020720  0.750000  0.502848  1
  O  O20  1  0.894666  0.064821  0.206097  1
  O  O21  1  0.894666  0.435179  0.206097  1
  O  O22  1  0.457489  0.250000  0.842291  1
  O  O23  1  0.362438  0.750000  0.746061  1
  O  O24  1  0.419573  0.250000  0.527324  1
  O  O25  1  0.699867  0.064846  0.775508  1
  O  O26  1  0.699867  0.435154  0.775508  1
  O  O27  1  0.860415  0.750000  0.991452  1
