# generated using pymatgen
data_Li2Fe2Si5O13
_symmetry_space_group_name_H-M   'P 1'
_cell_length_a   7.54549302
_cell_length_b   7.67104008
_cell_length_c   9.87278792
_cell_angle_alpha   83.87765627
_cell_angle_beta   68.08125573
_cell_angle_gamma   74.22610240
_symmetry_Int_Tables_number   1
_chemical_formula_structural   Li2Fe2Si5O13
_chemical_formula_sum   'Li4 Fe4 Si10 O26'
_cell_volume   510.17361175
_cell_formula_units_Z   2
loop_
 _symmetry_equiv_pos_site_id
 _symmetry_equiv_pos_as_xyz
  1  'x, y, z'
loop_
 _atom_site_type_symbol
 _atom_site_label
 _atom_site_symmetry_multiplicity
 _atom_site_fract_x
 _atom_site_fract_y
 _atom_site_fract_z
 _atom_site_occupancy
  Li  Li0  1  0.184716  0.079807  0.867512  1
  Li  Li1  1  0.159254  0.408030  0.744535  1
  Li  Li2  1  0.840746  0.591970  0.255465  1
  Li  Li3  1  0.815284  0.920193  0.132488  1
  Fe  Fe4  1  0.028849  0.156245  0.600807  1
  Fe  Fe5  1  0.440909  0.840313  0.400902  1
  Fe  Fe6  1  0.559091  0.159687  0.599098  1
  Fe  Fe7  1  0.971151  0.843755  0.399193  1
  Si  Si8  1  0.149562  0.222954  0.265795  1
  Si  Si9  1  0.214181  0.692729  0.043537  1
  Si  Si10  1  0.308492  0.457643  0.407899  1
  Si  Si11  1  0.264755  0.765771  0.728122  1
  Si  Si12  1  0.629255  0.704907  0.045383  1
  Si  Si13  1  0.370745  0.295093  0.954617  1
  Si  Si14  1  0.735245  0.234229  0.271878  1
  Si  Si15  1  0.691508  0.542357  0.592101  1
  Si  Si16  1  0.785819  0.307271  0.956463  1
  Si  Si17  1  0.850438  0.777046  0.734205  1
  O  O18  1  0.022751  0.771502  0.184224  1
  O  O19  1  0.158858  0.054942  0.380508  1
  O  O20  1  0.295597  0.161624  0.096337  1
  O  O21  1  0.200392  0.399665  0.306797  1
  O  O22  1  0.073994  0.692657  0.740572  1
  O  O23  1  0.414101  0.681110  0.069975  1
  O  O24  1  0.237534  0.677530  0.422590  1
  O  O25  1  0.277725  0.324347  0.550117  1
  O  O26  1  0.549883  0.411340  0.309971  1
  O  O27  1  0.369273  0.216439  0.809974  1
  O  O28  1  0.211267  0.495567  0.994571  1
  O  O29  1  0.301835  0.936395  0.618124  1
  O  O30  1  0.212760  0.829897  0.899090  1
  O  O31  1  0.787240  0.170103  0.100910  1
  O  O32  1  0.698165  0.063605  0.381876  1
  O  O33  1  0.788733  0.504433  0.005429  1
  O  O34  1  0.630727  0.783561  0.190026  1
  O  O35  1  0.450117  0.588660  0.690029  1
  O  O36  1  0.722275  0.675653  0.449883  1
  O  O37  1  0.762466  0.322470  0.577410  1
  O  O38  1  0.585899  0.318890  0.930025  1
  O  O39  1  0.926006  0.307343  0.259428  1
  O  O40  1  0.799608  0.600335  0.693203  1
  O  O41  1  0.704403  0.838376  0.903663  1
  O  O42  1  0.841142  0.945058  0.619492  1
  O  O43  1  0.977249  0.228498  0.815776  1
