# generated using pymatgen
data_Bi8Rh8O27
_symmetry_space_group_name_H-M   'P 1'
_cell_length_a   12.66669251
_cell_length_b   12.66669251
_cell_length_c   12.66669251
_cell_angle_alpha   33.56543719
_cell_angle_beta   33.56543719
_cell_angle_gamma   33.56543719
_symmetry_Int_Tables_number   1
_chemical_formula_structural   Bi8Rh8O27
_chemical_formula_sum   'Bi8 Rh8 O27'
_cell_volume   553.36835675
_cell_formula_units_Z   1
loop_
 _symmetry_equiv_pos_site_id
 _symmetry_equiv_pos_as_xyz
  1  'x, y, z'
loop_
 _atom_site_type_symbol
 _atom_site_label
 _atom_site_symmetry_multiplicity
 _atom_site_fract_x
 _atom_site_fract_y
 _atom_site_fract_z
 _atom_site_occupancy
  Bi  Bi0  1  0.503951  0.503951  0.503951  1
  Bi  Bi1  1  0.257306  0.743754  0.743754  1
  Bi  Bi2  1  0.743754  0.257306  0.743754  1
  Bi  Bi3  1  0.999013  0.999013  0.999013  1
  Bi  Bi4  1  0.743754  0.743754  0.257306  1
  Bi  Bi5  1  0.251378  0.750260  0.251378  1
  Bi  Bi6  1  0.750260  0.251378  0.251378  1
  Bi  Bi7  1  0.251378  0.251378  0.750260  1
  Rh  Rh8  1  0.999349  0.999349  0.500486  1
  Rh  Rh9  1  0.500486  0.999349  0.999349  1
  Rh  Rh10  1  0.999349  0.500486  0.999349  1
  Rh  Rh11  1  0.250726  0.250726  0.250726  1
  Rh  Rh12  1  0.498842  0.498842  0.002280  1
  Rh  Rh13  1  0.002280  0.498842  0.498842  1
  Rh  Rh14  1  0.498842  0.002280  0.498842  1
  Rh  Rh15  1  0.750009  0.750009  0.750009  1
  O  O16  1  0.708040  0.708040  0.123913  1
  O  O17  1  0.080949  0.080949  0.506977  1
  O  O18  1  0.003104  0.415536  0.415536  1
  O  O19  1  0.123913  0.708040  0.708040  1
  O  O20  1  0.415536  0.003104  0.415536  1
  O  O21  1  0.708040  0.123913  0.708040  1
  O  O22  1  0.209037  0.209037  0.624099  1
  O  O23  1  0.506977  0.080949  0.080949  1
  O  O24  1  0.791847  0.371227  0.791847  1
  O  O25  1  0.371227  0.791847  0.791847  1
  O  O26  1  0.080949  0.506977  0.080949  1
  O  O27  1  0.931423  0.931423  0.931423  1
  O  O28  1  0.415536  0.415536  0.003104  1
  O  O29  1  0.583487  0.583487  0.999911  1
  O  O30  1  0.209037  0.624099  0.209037  1
  O  O31  1  0.061637  0.061637  0.061637  1
  O  O32  1  0.624099  0.209037  0.209037  1
  O  O33  1  0.917388  0.498375  0.917388  1
  O  O34  1  0.498375  0.917388  0.917388  1
  O  O35  1  0.791847  0.791847  0.371227  1
  O  O36  1  0.999911  0.583487  0.583487  1
  O  O37  1  0.872300  0.293636  0.293636  1
  O  O38  1  0.583487  0.999911  0.583487  1
  O  O39  1  0.293636  0.872300  0.293636  1
  O  O40  1  0.444029  0.444029  0.444029  1
  O  O41  1  0.917388  0.917388  0.498375  1
  O  O42  1  0.293636  0.293636  0.872300  1
