# generated using pymatgen
data_LiFePO4
_symmetry_space_group_name_H-M   'P 1'
_cell_length_a   5.41392026
_cell_length_b   5.41392026
_cell_length_c   6.33191463
_cell_angle_alpha   87.13871767
_cell_angle_beta   92.86128233
_cell_angle_gamma   125.48776776
_symmetry_Int_Tables_number   1
_chemical_formula_structural   LiFePO4
_chemical_formula_sum   'Li2 Fe2 P2 O8'
_cell_volume   150.87772893
_cell_formula_units_Z   2
loop_
 _symmetry_equiv_pos_site_id
 _symmetry_equiv_pos_as_xyz
  1  'x, y, z'
loop_
 _atom_site_type_symbol
 _atom_site_label
 _atom_site_symmetry_multiplicity
 _atom_site_fract_x
 _atom_site_fract_y
 _atom_site_fract_z
 _atom_site_occupancy
  Li  Li0  1  0.675826  0.324161  0.748768  1
  Li  Li1  1  0.324161  0.675826  0.251232  1
  Fe  Fe2  1  0.043829  0.043829  0.500000  1
  Fe  Fe3  1  0.017292  0.017292  0.000000  1
  P  P4  1  0.680474  0.305786  0.244469  1
  P  P5  1  0.305786  0.680474  0.755531  1
  O  O6  1  0.092094  0.795622  0.741413  1
  O  O7  1  0.495618  0.232235  0.444009  1
  O  O8  1  0.481596  0.212995  0.040703  1
  O  O9  1  0.938053  0.652587  0.233898  1
  O  O10  1  0.652587  0.938053  0.766102  1
  O  O11  1  0.212995  0.481596  0.959297  1
  O  O12  1  0.232235  0.495619  0.555991  1
  O  O13  1  0.795622  0.092094  0.258587  1
