# generated using pymatgen
data_Na5Fe2P2(CO7)2
_symmetry_space_group_name_H-M   'P 1'
_cell_length_a   8.98107452
_cell_length_b   6.67101292
_cell_length_c   10.45419759
_cell_angle_alpha   90.00000000
_cell_angle_beta   90.31897627
_cell_angle_gamma   90.00000000
_symmetry_Int_Tables_number   1
_chemical_formula_structural   Na5Fe2P2(CO7)2
_chemical_formula_sum   'Na10 Fe4 P4 C4 O28'
_cell_volume   626.33121360
_cell_formula_units_Z   2
loop_
 _symmetry_equiv_pos_site_id
 _symmetry_equiv_pos_as_xyz
  1  'x, y, z'
loop_
 _atom_site_type_symbol
 _atom_site_label
 _atom_site_symmetry_multiplicity
 _atom_site_fract_x
 _atom_site_fract_y
 _atom_site_fract_z
 _atom_site_occupancy
  Na  Na0  1  0.925014  0.750289  0.386251  1
  Na  Na1  1  0.911006  0.758320  0.876408  1
  Na  Na2  1  0.734935  0.995273  0.121209  1
  Na  Na3  1  0.735423  0.502898  0.119124  1
  Na  Na4  1  0.739697  0.511307  0.631446  1
  Na  Na5  1  0.260303  0.011307  0.368554  1
  Na  Na6  1  0.265065  0.495273  0.878791  1
  Na  Na7  1  0.264577  0.002898  0.880876  1
  Na  Na8  1  0.088994  0.258320  0.123592  1
  Na  Na9  1  0.074986  0.250289  0.613749  1
  Fe  Fe10  1  0.647376  0.241808  0.398884  1
  Fe  Fe11  1  0.651782  0.245415  0.883197  1
  Fe  Fe12  1  0.348218  0.745415  0.116803  1
  Fe  Fe13  1  0.352624  0.741808  0.601116  1
  P  P14  1  0.585286  0.748909  0.355678  1
  P  P15  1  0.577094  0.748490  0.851922  1
  P  P16  1  0.422906  0.248490  0.148078  1
  P  P17  1  0.414714  0.248909  0.644322  1
  C  C18  1  0.927863  0.249479  0.363310  1
  C  C19  1  0.945871  0.255256  0.866482  1
  C  C20  1  0.054129  0.755256  0.133518  1
  C  C21  1  0.072137  0.749479  0.636690  1
  O  O22  1  0.910309  0.749711  0.142215  1
  O  O23  1  0.931762  0.732589  0.648890  1
  O  O24  1  0.864926  0.262946  0.475189  1
  O  O25  1  0.882517  0.247304  0.979222  1
  O  O26  1  0.835213  0.252249  0.265211  1
  O  O27  1  0.863521  0.266183  0.765102  1
  O  O28  1  0.682329  0.938387  0.384313  1
  O  O29  1  0.677494  0.561728  0.397495  1
  O  O30  1  0.677039  0.930096  0.884284  1
  O  O31  1  0.676384  0.562983  0.880958  1
  O  O32  1  0.570336  0.248660  0.072890  1
  O  O33  1  0.565297  0.259948  0.572462  1
  O  O34  1  0.555313  0.740219  0.209889  1
  O  O35  1  0.533737  0.742019  0.705450  1
  O  O36  1  0.466263  0.242019  0.294550  1
  O  O37  1  0.444687  0.240219  0.790111  1
  O  O38  1  0.434703  0.759948  0.427538  1
  O  O39  1  0.429664  0.748660  0.927110  1
  O  O40  1  0.322961  0.430096  0.115716  1
  O  O41  1  0.323616  0.062983  0.119042  1
  O  O42  1  0.317671  0.438387  0.615687  1
  O  O43  1  0.322506  0.061728  0.602505  1
  O  O44  1  0.136479  0.766183  0.234898  1
  O  O45  1  0.164787  0.752249  0.734789  1
  O  O46  1  0.117483  0.747304  0.020778  1
  O  O47  1  0.135074  0.762946  0.524811  1
  O  O48  1  0.068238  0.232589  0.351110  1
  O  O49  1  0.089691  0.249711  0.857785  1
