# generated using pymatgen
data_Li2Cr2O7
_symmetry_space_group_name_H-M   'P 1'
_cell_length_a   6.61405941
_cell_length_b   6.61405941
_cell_length_c   12.45546412
_cell_angle_alpha   90.00000000
_cell_angle_beta   90.00000000
_cell_angle_gamma   90.00000000
_symmetry_Int_Tables_number   1
_chemical_formula_structural   Li2Cr2O7
_chemical_formula_sum   'Li8 Cr8 O28'
_cell_volume   544.87401738
_cell_formula_units_Z   4
loop_
 _symmetry_equiv_pos_site_id
 _symmetry_equiv_pos_as_xyz
  1  'x, y, z'
loop_
 _atom_site_type_symbol
 _atom_site_label
 _atom_site_symmetry_multiplicity
 _atom_site_fract_x
 _atom_site_fract_y
 _atom_site_fract_z
 _atom_site_occupancy
  Li  Li0  1  0.113121  0.647371  0.131770  1
  Li  Li1  1  0.147371  0.386879  0.881770  1
  Li  Li2  1  0.352629  0.886879  0.368230  1
  Li  Li3  1  0.386879  0.147371  0.118230  1
  Li  Li4  1  0.613121  0.852629  0.618230  1
  Li  Li5  1  0.647371  0.113121  0.868230  1
  Li  Li6  1  0.852629  0.613121  0.381770  1
  Li  Li7  1  0.886879  0.352629  0.631770  1
  Cr  Cr8  1  0.093666  0.838383  0.619290  1
  Cr  Cr9  1  0.161617  0.906334  0.880710  1
  Cr  Cr10  1  0.338383  0.406334  0.369290  1
  Cr  Cr11  1  0.406334  0.338383  0.630710  1
  Cr  Cr12  1  0.593666  0.661617  0.130710  1
  Cr  Cr13  1  0.661617  0.593666  0.869290  1
  Cr  Cr14  1  0.838383  0.093666  0.380710  1
  Cr  Cr15  1  0.906334  0.161617  0.119290  1
  O  O16  1  0.039838  0.950888  0.376131  1
  O  O17  1  0.048760  0.349924  0.076335  1
  O  O18  1  0.049112  0.960162  0.123869  1
  O  O19  1  0.132449  0.708304  0.958256  1
  O  O20  1  0.150076  0.548760  0.326335  1
  O  O21  1  0.208304  0.367551  0.708256  1
  O  O22  1  0.192974  0.807026  0.750000  1
  O  O23  1  0.307026  0.307026  0.500000  1
  O  O24  1  0.291696  0.867551  0.541744  1
  O  O25  1  0.349924  0.048760  0.923665  1
  O  O26  1  0.367551  0.208304  0.291744  1
  O  O27  1  0.450888  0.460162  0.126131  1
  O  O28  1  0.451240  0.849924  0.173665  1
  O  O29  1  0.460162  0.450888  0.873869  1
  O  O30  1  0.539838  0.549112  0.373869  1
  O  O31  1  0.548760  0.150076  0.673665  1
  O  O32  1  0.549112  0.539838  0.626131  1
  O  O33  1  0.632449  0.791696  0.791744  1
  O  O34  1  0.650076  0.951240  0.423665  1
  O  O35  1  0.708304  0.132449  0.041744  1
  O  O36  1  0.692974  0.692974  0.000000  1
  O  O37  1  0.807026  0.192974  0.250000  1
  O  O38  1  0.791696  0.632449  0.208256  1
  O  O39  1  0.849924  0.451240  0.826335  1
  O  O40  1  0.867551  0.291696  0.458256  1
  O  O41  1  0.950888  0.039838  0.623869  1
  O  O42  1  0.951240  0.650076  0.576335  1
  O  O43  1  0.960162  0.049112  0.876131  1
