# generated using pymatgen
data_Li3FeSi2O7
_symmetry_space_group_name_H-M   'P 1'
_cell_length_a   5.02702485
_cell_length_b   8.96415079
_cell_length_c   12.48805781
_cell_angle_alpha   90.00000000
_cell_angle_beta   90.00000000
_cell_angle_gamma   90.00000000
_symmetry_Int_Tables_number   1
_chemical_formula_structural   Li3FeSi2O7
_chemical_formula_sum   'Li12 Fe4 Si8 O28'
_cell_volume   562.74945874
_cell_formula_units_Z   4
loop_
 _symmetry_equiv_pos_site_id
 _symmetry_equiv_pos_as_xyz
  1  'x, y, z'
loop_
 _atom_site_type_symbol
 _atom_site_label
 _atom_site_symmetry_multiplicity
 _atom_site_fract_x
 _atom_site_fract_y
 _atom_site_fract_z
 _atom_site_occupancy
  Li  Li0  1  0.033762  0.338001  0.090967  1
  Li  Li1  1  0.033762  0.338001  0.409033  1
  Li  Li2  1  0.030963  0.015127  0.250000  1
  Li  Li3  1  0.469037  0.515127  0.250000  1
  Li  Li4  1  0.466238  0.838001  0.090967  1
  Li  Li5  1  0.466238  0.838001  0.409033  1
  Li  Li6  1  0.533762  0.161999  0.590967  1
  Li  Li7  1  0.533762  0.161999  0.909033  1
  Li  Li8  1  0.530963  0.484873  0.750000  1
  Li  Li9  1  0.969037  0.984873  0.750000  1
  Li  Li10  1  0.966238  0.661999  0.909033  1
  Li  Li11  1  0.966238  0.661999  0.590967  1
  Fe  Fe12  1  0.000000  0.000000  0.000000  1
  Fe  Fe13  1  0.000000  0.000000  0.500000  1
  Fe  Fe14  1  0.500000  0.500000  0.500000  1
  Fe  Fe15  1  0.500000  0.500000  0.000000  1
  Si  Si16  1  0.008739  0.317872  0.631281  1
  Si  Si17  1  0.008739  0.317872  0.868719  1
  Si  Si18  1  0.491261  0.817872  0.631281  1
  Si  Si19  1  0.491261  0.817872  0.868719  1
  Si  Si20  1  0.508739  0.182128  0.131281  1
  Si  Si21  1  0.508739  0.182128  0.368719  1
  Si  Si22  1  0.991261  0.682128  0.131281  1
  Si  Si23  1  0.991261  0.682128  0.368719  1
  O  O24  1  0.069307  0.860040  0.128749  1
  O  O25  1  0.069307  0.860040  0.371251  1
  O  O26  1  0.090163  0.612072  0.250000  1
  O  O27  1  0.166467  0.600591  0.038227  1
  O  O28  1  0.166467  0.600591  0.461773  1
  O  O29  1  0.173801  0.852636  0.616446  1
  O  O30  1  0.173801  0.852636  0.883554  1
  O  O31  1  0.326199  0.352636  0.616446  1
  O  O32  1  0.326199  0.352636  0.883554  1
  O  O33  1  0.333533  0.100591  0.038227  1
  O  O34  1  0.333533  0.100591  0.461773  1
  O  O35  1  0.409837  0.112072  0.250000  1
  O  O36  1  0.430693  0.360040  0.128749  1
  O  O37  1  0.430693  0.360040  0.371251  1
  O  O38  1  0.569307  0.639960  0.628749  1
  O  O39  1  0.569307  0.639960  0.871251  1
  O  O40  1  0.590163  0.887928  0.750000  1
  O  O41  1  0.666467  0.899409  0.538227  1
  O  O42  1  0.666467  0.899409  0.961773  1
  O  O43  1  0.673801  0.647364  0.116446  1
  O  O44  1  0.673801  0.647364  0.383554  1
  O  O45  1  0.826199  0.147364  0.383554  1
  O  O46  1  0.826199  0.147364  0.116446  1
  O  O47  1  0.833533  0.399409  0.538227  1
  O  O48  1  0.833533  0.399409  0.961773  1
  O  O49  1  0.909837  0.387928  0.750000  1
  O  O50  1  0.930693  0.139960  0.628749  1
  O  O51  1  0.930693  0.139960  0.871251  1
