# generated using pymatgen
data_Ca3WO6
_symmetry_space_group_name_H-M   'P 1'
_cell_length_a   6.61106635
_cell_length_b   6.61106635
_cell_length_c   6.61106635
_cell_angle_alpha   91.52728593
_cell_angle_beta   91.52728593
_cell_angle_gamma   91.52728593
_symmetry_Int_Tables_number   1
_chemical_formula_structural   Ca3WO6
_chemical_formula_sum   'Ca6 W2 O12'
_cell_volume   288.63104343
_cell_formula_units_Z   2
loop_
 _symmetry_equiv_pos_site_id
 _symmetry_equiv_pos_as_xyz
  1  'x, y, z'
loop_
 _atom_site_type_symbol
 _atom_site_label
 _atom_site_symmetry_multiplicity
 _atom_site_fract_x
 _atom_site_fract_y
 _atom_site_fract_z
 _atom_site_occupancy
  Ca  Ca0  1  0.252071  0.562180  0.065591  1
  Ca  Ca1  1  0.562180  0.065591  0.252071  1
  Ca  Ca2  1  0.934409  0.747929  0.437820  1
  Ca  Ca3  1  0.065591  0.252071  0.562180  1
  Ca  Ca4  1  0.437820  0.934409  0.747929  1
  Ca  Ca5  1  0.747929  0.437820  0.934409  1
  W  W6  1  0.000000  0.000000  0.000000  1
  W  W7  1  0.500000  0.500000  0.500000  1
  O  O8  1  0.932190  0.716760  0.062355  1
  O  O9  1  0.283240  0.937645  0.067810  1
  O  O10  1  0.547169  0.421605  0.217196  1
  O  O11  1  0.937645  0.067810  0.283240  1
  O  O12  1  0.217196  0.547169  0.421605  1
  O  O13  1  0.578395  0.782804  0.452831  1
  O  O14  1  0.421605  0.217196  0.547169  1
  O  O15  1  0.782804  0.452831  0.578395  1
  O  O16  1  0.062355  0.932190  0.716760  1
  O  O17  1  0.452831  0.578395  0.782804  1
  O  O18  1  0.716760  0.062355  0.932190  1
  O  O19  1  0.067810  0.283240  0.937645  1
