# generated using pymatgen
data_Li2MnO2
_symmetry_space_group_name_H-M   'P 1'
_cell_length_a   5.55330391
_cell_length_b   5.55330391
_cell_length_c   5.55330391
_cell_angle_alpha   148.06027600
_cell_angle_beta   141.68802611
_cell_angle_gamma   50.70954569
_symmetry_Int_Tables_number   1
_chemical_formula_structural   Li2MnO2
_chemical_formula_sum   'Li2 Mn1 O2'
_cell_volume   55.88910528
_cell_formula_units_Z   1
loop_
 _symmetry_equiv_pos_site_id
 _symmetry_equiv_pos_as_xyz
  1  'x, y, z'
loop_
 _atom_site_type_symbol
 _atom_site_label
 _atom_site_symmetry_multiplicity
 _atom_site_fract_x
 _atom_site_fract_y
 _atom_site_fract_z
 _atom_site_occupancy
  Li  Li0  1  0.775962  0.275962  0.500000  1
  Li  Li1  1  0.224038  0.724038  0.500000  1
  Mn  Mn2  1  0.500000  0.000000  0.500000  1
  O  O3  1  0.353505  0.353505  0.000000  1
  O  O4  1  0.646495  0.646495  0.000000  1
