# generated using pymatgen
data_SrFeSn(PO4)3
_symmetry_space_group_name_H-M   'P 1'
_cell_length_a   9.19380460
_cell_length_b   9.19380460
_cell_length_c   9.19380460
_cell_angle_alpha   55.76947551
_cell_angle_beta   55.76947551
_cell_angle_gamma   55.76947551
_symmetry_Int_Tables_number   1
_chemical_formula_structural   SrFeSn(PO4)3
_chemical_formula_sum   'Sr2 Fe2 Sn2 P6 O24'
_cell_volume   495.59220805
_cell_formula_units_Z   2
loop_
 _symmetry_equiv_pos_site_id
 _symmetry_equiv_pos_as_xyz
  1  'x, y, z'
loop_
 _atom_site_type_symbol
 _atom_site_label
 _atom_site_symmetry_multiplicity
 _atom_site_fract_x
 _atom_site_fract_y
 _atom_site_fract_z
 _atom_site_occupancy
  Sr  Sr0  1  0.000000  0.000000  0.000000  1
  Sr  Sr1  1  0.500000  0.500000  0.500000  1
  Fe  Fe2  1  0.848420  0.848420  0.848420  1
  Fe  Fe3  1  0.151580  0.151580  0.151580  1
  Sn  Sn4  1  0.649372  0.649372  0.649372  1
  Sn  Sn5  1  0.350628  0.350628  0.350628  1
  P  P6  1  0.039459  0.754562  0.459364  1
  P  P7  1  0.245438  0.540636  0.960541  1
  P  P8  1  0.754562  0.459364  0.039459  1
  P  P9  1  0.540636  0.960541  0.245438  1
  P  P10  1  0.960541  0.245438  0.540636  1
  P  P11  1  0.459364  0.039459  0.754562  1
  O  O12  1  0.767604  0.406426  0.593445  1
  O  O13  1  0.593445  0.767604  0.406426  1
  O  O14  1  0.406426  0.593445  0.767604  1
  O  O15  1  0.942093  0.292162  0.044691  1
  O  O16  1  0.882561  0.719935  0.475693  1
  O  O17  1  0.524307  0.117439  0.280065  1
  O  O18  1  0.641061  0.016677  0.746888  1
  O  O19  1  0.406555  0.232396  0.593574  1
  O  O20  1  0.292162  0.044691  0.942093  1
  O  O21  1  0.016677  0.746888  0.641061  1
  O  O22  1  0.117439  0.280065  0.524307  1
  O  O23  1  0.593574  0.406555  0.232396  1
  O  O24  1  0.983323  0.253112  0.358939  1
  O  O25  1  0.232396  0.593574  0.406555  1
  O  O26  1  0.955309  0.057907  0.707838  1
  O  O27  1  0.358939  0.983323  0.253112  1
  O  O28  1  0.707838  0.955309  0.057907  1
  O  O29  1  0.719935  0.475693  0.882561  1
  O  O30  1  0.746888  0.641061  0.016677  1
  O  O31  1  0.253112  0.358939  0.983323  1
  O  O32  1  0.475693  0.882561  0.719935  1
  O  O33  1  0.057907  0.707838  0.955309  1
  O  O34  1  0.280065  0.524307  0.117439  1
  O  O35  1  0.044691  0.942093  0.292162  1
