# generated using pymatgen
data_Li4Fe3Co5O16
_symmetry_space_group_name_H-M   'P 1'
_cell_length_a   5.75973123
_cell_length_b   5.75973123
_cell_length_c   9.17767366
_cell_angle_alpha   89.27780620
_cell_angle_beta   90.72219380
_cell_angle_gamma   120.12059458
_symmetry_Int_Tables_number   1
_chemical_formula_structural   Li4Fe3Co5O16
_chemical_formula_sum   'Li4 Fe3 Co5 O16'
_cell_volume   263.32536661
_cell_formula_units_Z   1
loop_
 _symmetry_equiv_pos_site_id
 _symmetry_equiv_pos_as_xyz
  1  'x, y, z'
loop_
 _atom_site_type_symbol
 _atom_site_label
 _atom_site_symmetry_multiplicity
 _atom_site_fract_x
 _atom_site_fract_y
 _atom_site_fract_z
 _atom_site_occupancy
  Li  Li0  1  0.335216  0.664784  0.102303  1
  Li  Li1  1  0.995212  0.004788  0.003002  1
  Li  Li2  1  0.994536  0.005464  0.505024  1
  Li  Li3  1  0.668623  0.331377  0.608104  1
  Fe  Fe4  1  0.167919  0.832081  0.788689  1
  Fe  Fe5  1  0.339141  0.169470  0.287562  1
  Fe  Fe6  1  0.830530  0.660859  0.287562  1
  Co  Co7  1  0.171668  0.343715  0.787017  1
  Co  Co8  1  0.334947  0.665053  0.516345  1
  Co  Co9  1  0.656285  0.828332  0.787017  1
  Co  Co10  1  0.825631  0.174369  0.286666  1
  Co  Co11  1  0.668566  0.331434  0.012289  1
  O  O12  1  0.165574  0.343054  0.405395  1
  O  O13  1  0.480361  0.519639  0.662816  1
  O  O14  1  0.342317  0.657683  0.891850  1
  O  O15  1  0.990326  0.009674  0.695807  1
  O  O16  1  0.991451  0.008549  0.195228  1
  O  O17  1  0.656946  0.834426  0.405395  1
  O  O18  1  0.048321  0.516189  0.654140  1
  O  O19  1  0.483811  0.951679  0.654140  1
  O  O20  1  0.830763  0.169237  0.897509  1
  O  O21  1  0.169537  0.830463  0.404893  1
  O  O22  1  0.530680  0.040311  0.152032  1
  O  O23  1  0.959689  0.469320  0.152032  1
  O  O24  1  0.670405  0.329595  0.397727  1
  O  O25  1  0.335581  0.170962  0.903411  1
  O  O26  1  0.525149  0.474851  0.147009  1
  O  O27  1  0.829038  0.664419  0.903411  1
