# generated using pymatgen
data_Ti3CuNi2(PO4)6
_symmetry_space_group_name_H-M   'P 1'
_cell_length_a   8.46612715
_cell_length_b   8.46612715
_cell_length_c   8.46612715
_cell_angle_alpha   61.24030584
_cell_angle_beta   61.24030584
_cell_angle_gamma   61.24030584
_symmetry_Int_Tables_number   1
_chemical_formula_structural   Ti3CuNi2(PO4)6
_chemical_formula_sum   'Ti3 Cu1 Ni2 P6 O24'
_cell_volume   441.04898340
_cell_formula_units_Z   1
loop_
 _symmetry_equiv_pos_site_id
 _symmetry_equiv_pos_as_xyz
  1  'x, y, z'
loop_
 _atom_site_type_symbol
 _atom_site_label
 _atom_site_symmetry_multiplicity
 _atom_site_fract_x
 _atom_site_fract_y
 _atom_site_fract_z
 _atom_site_occupancy
  Ti  Ti0  1  0.857737  0.857737  0.857737  1
  Ti  Ti1  1  0.644998  0.644998  0.644998  1
  Ti  Ti2  1  0.355061  0.355061  0.355061  1
  Cu  Cu3  1  0.144556  0.144556  0.144556  1
  Ni  Ni4  1  0.002836  0.002836  0.002836  1
  Ni  Ni5  1  0.501357  0.501357  0.501357  1
  P  P6  1  0.749589  0.454428  0.046945  1
  P  P7  1  0.454428  0.046945  0.749589  1
  P  P8  1  0.046945  0.749589  0.454428  1
  P  P9  1  0.952246  0.247752  0.544626  1
  P  P10  1  0.544626  0.952246  0.247752  1
  P  P11  1  0.247752  0.544626  0.952246  1
  O  O12  1  0.888935  0.669462  0.513693  1
  O  O13  1  0.669462  0.513693  0.888935  1
  O  O14  1  0.941432  0.091063  0.745919  1
  O  O15  1  0.513693  0.888935  0.669462  1
  O  O16  1  0.982362  0.181287  0.394459  1
  O  O17  1  0.754742  0.410563  0.569020  1
  O  O18  1  0.745919  0.941432  0.091063  1
  O  O19  1  0.569020  0.754742  0.410563  1
  O  O20  1  0.817823  0.618226  0.997658  1
  O  O21  1  0.410563  0.569020  0.754742  1
  O  O22  1  0.903036  0.260050  0.052837  1
  O  O23  1  0.618226  0.997658  0.817823  1
  O  O24  1  0.394459  0.982362  0.181287  1
  O  O25  1  0.091063  0.745919  0.941432  1
  O  O26  1  0.587273  0.446321  0.243363  1
  O  O27  1  0.181287  0.394459  0.982362  1
  O  O28  1  0.446321  0.243363  0.587273  1
  O  O29  1  0.260050  0.052837  0.903036  1
  O  O30  1  0.243363  0.587273  0.446321  1
  O  O31  1  0.997658  0.817823  0.618226  1
  O  O32  1  0.494754  0.117598  0.315992  1
  O  O33  1  0.052837  0.903036  0.260050  1
  O  O34  1  0.315992  0.494754  0.117598  1
  O  O35  1  0.117598  0.315992  0.494754  1
