# generated using pymatgen
data_LiFe2(SO4)3
_symmetry_space_group_name_H-M   'P 1'
_cell_length_a   8.52956861
_cell_length_b   8.81742986
_cell_length_c   14.69161514
_cell_angle_alpha   90.00000000
_cell_angle_beta   124.42774797
_cell_angle_gamma   90.00000000
_symmetry_Int_Tables_number   1
_chemical_formula_structural   LiFe2(SO4)3
_chemical_formula_sum   'Li4 Fe8 S12 O48'
_cell_volume   911.39832814
_cell_formula_units_Z   4
loop_
 _symmetry_equiv_pos_site_id
 _symmetry_equiv_pos_as_xyz
  1  'x, y, z'
loop_
 _atom_site_type_symbol
 _atom_site_label
 _atom_site_symmetry_multiplicity
 _atom_site_fract_x
 _atom_site_fract_y
 _atom_site_fract_z
 _atom_site_occupancy
  Li  Li0  1  0.013300  0.279087  0.819876  1
  Li  Li1  1  0.986700  0.779087  0.680124  1
  Li  Li2  1  0.013300  0.220913  0.319876  1
  Li  Li3  1  0.986700  0.720913  0.180124  1
  Fe  Fe4  1  0.629996  0.034291  0.383895  1
  Fe  Fe5  1  0.854215  0.463152  0.607525  1
  Fe  Fe6  1  0.370004  0.534291  0.116105  1
  Fe  Fe7  1  0.145785  0.963152  0.892475  1
  Fe  Fe8  1  0.854215  0.036848  0.107525  1
  Fe  Fe9  1  0.629996  0.465709  0.883895  1
  Fe  Fe10  1  0.145785  0.536848  0.392475  1
  Fe  Fe11  1  0.370004  0.965709  0.616105  1
  S  S12  1  0.545934  0.753983  0.507336  1
  S  S13  1  0.257457  0.879458  0.153102  1
  S  S14  1  0.962998  0.607574  0.855146  1
  S  S15  1  0.037002  0.107574  0.644854  1
  S  S16  1  0.742543  0.379458  0.346898  1
  S  S17  1  0.454066  0.253983  0.992664  1
  S  S18  1  0.545934  0.746017  0.007336  1
  S  S19  1  0.257457  0.620542  0.653102  1
  S  S20  1  0.962998  0.892426  0.355146  1
  S  S21  1  0.037002  0.392426  0.144854  1
  S  S22  1  0.742543  0.120542  0.846898  1
  S  S23  1  0.454066  0.246017  0.492664  1
  O  O24  1  0.596163  0.361930  0.558649  1
  O  O25  1  0.186839  0.384722  0.122777  1
  O  O26  1  0.884511  0.091363  0.820662  1
  O  O27  1  0.472697  0.185071  0.404195  1
  O  O28  1  0.524721  0.878369  0.432849  1
  O  O29  1  0.299552  0.712369  0.173027  1
  O  O30  1  0.178835  0.916965  0.037884  1
  O  O31  1  0.915546  0.485803  0.771895  1
  O  O32  1  0.742203  0.690730  0.563756  1
  O  O33  1  0.978431  0.755252  0.812844  1
  O  O34  1  0.148501  0.567593  0.957042  1
  O  O35  1  0.430396  0.972409  0.225736  1
  O  O36  1  0.569604  0.472409  0.274264  1
  O  O37  1  0.851499  0.067593  0.542958  1
  O  O38  1  0.021569  0.255252  0.687156  1
  O  O39  1  0.257797  0.190730  0.936244  1
  O  O40  1  0.821165  0.416965  0.462116  1
  O  O41  1  0.084454  0.985803  0.728105  1
  O  O42  1  0.700448  0.212369  0.326973  1
  O  O43  1  0.475279  0.378369  0.067151  1
  O  O44  1  0.527303  0.685071  0.095805  1
  O  O45  1  0.813161  0.884722  0.377223  1
  O  O46  1  0.115489  0.591363  0.679338  1
  O  O47  1  0.403837  0.861930  0.941351  1
  O  O48  1  0.596163  0.138070  0.058649  1
  O  O49  1  0.884511  0.408637  0.320662  1
  O  O50  1  0.186839  0.115278  0.622777  1
  O  O51  1  0.472697  0.314929  0.904195  1
  O  O52  1  0.524721  0.621631  0.932849  1
  O  O53  1  0.299552  0.787631  0.673027  1
  O  O54  1  0.915546  0.014197  0.271895  1
  O  O55  1  0.178835  0.583035  0.537884  1
  O  O56  1  0.742203  0.809270  0.063756  1
  O  O57  1  0.978431  0.744748  0.312844  1
  O  O58  1  0.148501  0.932407  0.457042  1
  O  O59  1  0.430396  0.527591  0.725736  1
  O  O60  1  0.569604  0.027591  0.774264  1
  O  O61  1  0.851499  0.432407  0.042958  1
  O  O62  1  0.021569  0.244748  0.187156  1
  O  O63  1  0.257797  0.309270  0.436244  1
  O  O64  1  0.084454  0.514197  0.228105  1
  O  O65  1  0.821165  0.083035  0.962116  1
  O  O66  1  0.700448  0.287631  0.826973  1
  O  O67  1  0.475279  0.121631  0.567151  1
  O  O68  1  0.527303  0.814929  0.595805  1
  O  O69  1  0.115489  0.908637  0.179338  1
  O  O70  1  0.813161  0.615278  0.877223  1
  O  O71  1  0.403837  0.638070  0.441351  1
