# generated using pymatgen
data_RbFeO2
_symmetry_space_group_name_H-M   'P 1'
_cell_length_a   6.28779408
_cell_length_b   6.28779408
_cell_length_c   5.38747514
_cell_angle_alpha   69.46115032
_cell_angle_beta   110.53884968
_cell_angle_gamma   77.64447916
_symmetry_Int_Tables_number   1
_chemical_formula_structural   RbFeO2
_chemical_formula_sum   'Rb2 Fe2 O4'
_cell_volume   172.43305767
_cell_formula_units_Z   2
loop_
 _symmetry_equiv_pos_site_id
 _symmetry_equiv_pos_as_xyz
  1  'x, y, z'
loop_
 _atom_site_type_symbol
 _atom_site_label
 _atom_site_symmetry_multiplicity
 _atom_site_fract_x
 _atom_site_fract_y
 _atom_site_fract_z
 _atom_site_occupancy
  Rb  Rb0  1  0.647438  0.647438  0.250000  1
  Rb  Rb1  1  0.352562  0.352562  0.750000  1
  Fe  Fe2  1  0.018426  0.018426  0.250000  1
  Fe  Fe3  1  0.981574  0.981574  0.750000  1
  O  O4  1  0.750737  0.064009  0.351823  1
  O  O5  1  0.935991  0.249263  0.851823  1
  O  O6  1  0.064009  0.750737  0.148177  1
  O  O7  1  0.249263  0.935991  0.648177  1
