# generated using pymatgen
data_Mn2Cu(PO4)3
_symmetry_space_group_name_H-M   'P 1'
_cell_length_a   8.55713322
_cell_length_b   8.55713322
_cell_length_c   8.55713322
_cell_angle_alpha   59.81677027
_cell_angle_beta   59.81677027
_cell_angle_gamma   59.81677027
_symmetry_Int_Tables_number   1
_chemical_formula_structural   Mn2Cu(PO4)3
_chemical_formula_sum   'Mn4 Cu2 P6 O24'
_cell_volume   441.22475195
_cell_formula_units_Z   2
loop_
 _symmetry_equiv_pos_site_id
 _symmetry_equiv_pos_as_xyz
  1  'x, y, z'
loop_
 _atom_site_type_symbol
 _atom_site_label
 _atom_site_symmetry_multiplicity
 _atom_site_fract_x
 _atom_site_fract_y
 _atom_site_fract_z
 _atom_site_occupancy
  Mn  Mn0  1  0.857561  0.857561  0.857561  1
  Mn  Mn1  1  0.642439  0.642439  0.642439  1
  Mn  Mn2  1  0.357561  0.357561  0.357561  1
  Mn  Mn3  1  0.142439  0.142439  0.142439  1
  Cu  Cu4  1  0.000000  0.000000  0.000000  1
  Cu  Cu5  1  0.500000  0.500000  0.500000  1
  P  P6  1  0.250000  0.539072  0.960928  1
  P  P7  1  0.960928  0.250000  0.539072  1
  P  P8  1  0.539072  0.960928  0.250000  1
  P  P9  1  0.460928  0.039072  0.750000  1
  P  P10  1  0.039072  0.750000  0.460928  1
  P  P11  1  0.750000  0.460928  0.039072  1
  O  O12  1  0.697670  0.489519  0.878736  1
  O  O13  1  0.489519  0.878736  0.697670  1
  O  O14  1  0.081996  0.736551  0.945344  1
  O  O15  1  0.878736  0.697670  0.489519  1
  O  O16  1  0.197670  0.378736  0.989519  1
  O  O17  1  0.418004  0.554656  0.763449  1
  O  O18  1  0.945344  0.081996  0.736551  1
  O  O19  1  0.763449  0.418004  0.554656  1
  O  O20  1  0.621264  0.010481  0.802330  1
  O  O21  1  0.554656  0.763449  0.418004  1
  O  O22  1  0.263449  0.054656  0.918004  1
  O  O23  1  0.010481  0.802330  0.621264  1
  O  O24  1  0.989519  0.197670  0.378736  1
  O  O25  1  0.736551  0.945344  0.081996  1
  O  O26  1  0.445344  0.236551  0.581996  1
  O  O27  1  0.378736  0.989519  0.197670  1
  O  O28  1  0.236551  0.581996  0.445344  1
  O  O29  1  0.054656  0.918004  0.263449  1
  O  O30  1  0.581996  0.445344  0.236551  1
  O  O31  1  0.802330  0.621264  0.010481  1
  O  O32  1  0.121264  0.302330  0.510481  1
  O  O33  1  0.918004  0.263449  0.054656  1
  O  O34  1  0.510481  0.121264  0.302330  1
  O  O35  1  0.302330  0.510481  0.121264  1
