# generated using pymatgen
data_Li10Mn2Fe3Ni3O16
_symmetry_space_group_name_H-M   'P 1'
_cell_length_a   5.95210099
_cell_length_b   5.95210099
_cell_length_c   9.78657649
_cell_angle_alpha   89.27648182
_cell_angle_beta   90.72351818
_cell_angle_gamma   119.64549207
_symmetry_Int_Tables_number   1
_chemical_formula_structural   Li10Mn2Fe3Ni3O16
_chemical_formula_sum   'Li10 Mn2 Fe3 Ni3 O16'
_cell_volume   301.29784499
_cell_formula_units_Z   1
loop_
 _symmetry_equiv_pos_site_id
 _symmetry_equiv_pos_as_xyz
  1  'x, y, z'
loop_
 _atom_site_type_symbol
 _atom_site_label
 _atom_site_symmetry_multiplicity
 _atom_site_fract_x
 _atom_site_fract_y
 _atom_site_fract_z
 _atom_site_occupancy
  Li  Li0  1  0.607950  0.800691  0.948770  1
  Li  Li1  1  0.199309  0.392050  0.948770  1
  Li  Li2  1  0.327622  0.672378  0.733062  1
  Li  Li3  1  0.196124  0.803876  0.951706  1
  Li  Li4  1  0.995769  0.004231  0.019428  1
  Li  Li5  1  0.995521  0.004479  0.523912  1
  Li  Li6  1  0.801356  0.198644  0.454991  1
  Li  Li7  1  0.804321  0.611103  0.460600  1
  Li  Li8  1  0.657332  0.342668  0.232245  1
  Li  Li9  1  0.388897  0.195679  0.460600  1
  Mn  Mn10  1  0.326618  0.673382  0.478483  1
  Mn  Mn11  1  0.660794  0.339206  0.976063  1
  Fe  Fe12  1  0.652765  0.835188  0.221629  1
  Fe  Fe13  1  0.164812  0.347235  0.221629  1
  Fe  Fe14  1  0.822473  0.177527  0.723914  1
  Ni  Ni15  1  0.160770  0.839230  0.221658  1
  Ni  Ni16  1  0.828418  0.665165  0.720574  1
  Ni  Ni17  1  0.334835  0.171582  0.720574  1
  O  O18  1  0.651293  0.837650  0.592331  1
  O  O19  1  0.481737  0.518263  0.351552  1
  O  O20  1  0.992878  0.007122  0.827127  1
  O  O21  1  0.482872  0.975996  0.350928  1
  O  O22  1  0.162350  0.348707  0.592331  1
  O  O23  1  0.330682  0.669318  0.103705  1
  O  O24  1  0.987004  0.012996  0.332519  1
  O  O25  1  0.024004  0.517128  0.350928  1
  O  O26  1  0.168020  0.831980  0.585830  1
  O  O27  1  0.994159  0.496678  0.842403  1
  O  O28  1  0.822582  0.177418  0.101180  1
  O  O29  1  0.503322  0.005841  0.842403  1
  O  O30  1  0.666196  0.333804  0.601639  1
  O  O31  1  0.815114  0.672510  0.101543  1
  O  O32  1  0.512620  0.487380  0.852090  1
  O  O33  1  0.327490  0.184886  0.101543  1
