# generated using pymatgen
data_Na6Fe2B4PO16
_symmetry_space_group_name_H-M   'P 1'
_cell_length_a   9.99043640
_cell_length_b   9.99043640
_cell_length_c   9.99043640
_cell_angle_alpha   60.00000000
_cell_angle_beta   60.00000000
_cell_angle_gamma   60.00000000
_symmetry_Int_Tables_number   1
_chemical_formula_structural   Na6Fe2B4PO16
_chemical_formula_sum   'Na12 Fe4 B8 P2 O32'
_cell_volume   705.07997460
_cell_formula_units_Z   2
loop_
 _symmetry_equiv_pos_site_id
 _symmetry_equiv_pos_as_xyz
  1  'x, y, z'
loop_
 _atom_site_type_symbol
 _atom_site_label
 _atom_site_symmetry_multiplicity
 _atom_site_fract_x
 _atom_site_fract_y
 _atom_site_fract_z
 _atom_site_occupancy
  Na  Na0  1  0.462579  0.462579  0.037421  1
  Na  Na1  1  0.037421  0.462579  0.037421  1
  Na  Na2  1  0.037421  0.462579  0.462579  1
  Na  Na3  1  0.462579  0.037421  0.037421  1
  Na  Na4  1  0.212579  0.212579  0.787421  1
  Na  Na5  1  0.787421  0.212579  0.787421  1
  Na  Na6  1  0.462579  0.037421  0.462579  1
  Na  Na7  1  0.037421  0.037421  0.462579  1
  Na  Na8  1  0.787421  0.212579  0.212579  1
  Na  Na9  1  0.212579  0.787421  0.787421  1
  Na  Na10  1  0.787421  0.787421  0.212579  1
  Na  Na11  1  0.212579  0.787421  0.212579  1
  Fe  Fe12  1  0.625000  0.625000  0.125000  1
  Fe  Fe13  1  0.125000  0.625000  0.625000  1
  Fe  Fe14  1  0.625000  0.625000  0.625000  1
  Fe  Fe15  1  0.625000  0.125000  0.625000  1
  B  B16  1  0.837652  0.487043  0.837652  1
  B  B17  1  0.837652  0.837652  0.837652  1
  B  B18  1  0.487043  0.837652  0.837652  1
  B  B19  1  0.837652  0.837652  0.487043  1
  B  B20  1  0.412348  0.412348  0.762957  1
  B  B21  1  0.762957  0.412348  0.412348  1
  B  B22  1  0.412348  0.412348  0.412348  1
  B  B23  1  0.412348  0.762957  0.412348  1
  P  P24  1  1.000000  1.000000  1.000000  1
  P  P25  1  0.250000  0.250000  0.250000  1
  O  O26  1  0.063483  0.809551  0.063483  1
  O  O27  1  0.063483  0.063483  0.063483  1
  O  O28  1  0.809551  0.063483  0.063483  1
  O  O29  1  0.063483  0.063483  0.809551  1
  O  O30  1  0.716776  0.483133  0.988818  1
  O  O31  1  0.988818  0.483133  0.811273  1
  O  O32  1  0.811273  0.716776  0.988818  1
  O  O33  1  0.811273  0.483133  0.716776  1
  O  O34  1  0.483133  0.811273  0.988818  1
  O  O35  1  0.483133  0.716776  0.811273  1
  O  O36  1  0.988818  0.811273  0.716776  1
  O  O37  1  0.716776  0.988818  0.811273  1
  O  O38  1  0.988818  0.716776  0.483133  1
  O  O39  1  0.483133  0.988818  0.716776  1
  O  O40  1  0.716776  0.811273  0.483133  1
  O  O41  1  0.438727  0.261182  0.766867  1
  O  O42  1  0.811273  0.988818  0.483133  1
  O  O43  1  0.533224  0.438727  0.766867  1
  O  O44  1  0.766867  0.261182  0.533224  1
  O  O45  1  0.261182  0.533224  0.766867  1
  O  O46  1  0.533224  0.261182  0.438727  1
  O  O47  1  0.261182  0.438727  0.533224  1
  O  O48  1  0.766867  0.533224  0.438727  1
  O  O49  1  0.766867  0.438727  0.261182  1
  O  O50  1  0.438727  0.766867  0.533224  1
  O  O51  1  0.438727  0.533224  0.261182  1
  O  O52  1  0.261182  0.766867  0.438727  1
  O  O53  1  0.533224  0.766867  0.261182  1
  O  O54  1  0.186517  0.186517  0.440449  1
  O  O55  1  0.440449  0.186517  0.186517  1
  O  O56  1  0.186517  0.186517  0.186517  1
  O  O57  1  0.186517  0.440449  0.186517  1
