# generated using pymatgen
data_Li3V5Cr2O12
_symmetry_space_group_name_H-M   'P 1'
_cell_length_a   5.23131361
_cell_length_b   5.23131361
_cell_length_c   9.95373381
_cell_angle_alpha   84.19339118
_cell_angle_beta   95.80660882
_cell_angle_gamma   58.61659292
_symmetry_Int_Tables_number   1
_chemical_formula_structural   Li3V5Cr2O12
_chemical_formula_sum   'Li3 V5 Cr2 O12'
_cell_volume   227.52757026
_cell_formula_units_Z   1
loop_
 _symmetry_equiv_pos_site_id
 _symmetry_equiv_pos_as_xyz
  1  'x, y, z'
loop_
 _atom_site_type_symbol
 _atom_site_label
 _atom_site_symmetry_multiplicity
 _atom_site_fract_x
 _atom_site_fract_y
 _atom_site_fract_z
 _atom_site_occupancy
  Li  Li0  1  0.681424  0.158380  0.262782  1
  Li  Li1  1  0.158380  0.681424  0.737218  1
  Li  Li2  1  0.077858  0.077858  0.500000  1
  V  V3  1  0.000478  0.484113  0.263858  1
  V  V4  1  0.917552  0.917552  0.000000  1
  V  V5  1  0.431770  0.431770  0.500000  1
  V  V6  1  0.484113  0.000478  0.736142  1
  V  V7  1  0.575937  0.575937  0.000000  1
  Cr  Cr8  1  0.751837  0.751837  0.500000  1
  Cr  Cr9  1  0.242805  0.242805  0.000000  1
  O  O10  1  0.775434  0.020729  0.619769  1
  O  O11  1  0.856507  0.640949  0.887072  1
  O  O12  1  0.522086  0.274534  0.887235  1
  O  O13  1  0.387540  0.162420  0.382801  1
  O  O14  1  0.731717  0.460124  0.382937  1
  O  O15  1  0.952084  0.217906  0.113150  1
  O  O16  1  0.020729  0.775434  0.380231  1
  O  O17  1  0.640949  0.856507  0.112928  1
  O  O18  1  0.274534  0.522086  0.112765  1
  O  O19  1  0.162420  0.387540  0.617199  1
  O  O20  1  0.460124  0.731717  0.617063  1
  O  O21  1  0.217906  0.952084  0.886850  1
