# generated using pymatgen
data_Li4CrNi3(PO4)4
_symmetry_space_group_name_H-M   'P 1'
_cell_length_a   4.74221199
_cell_length_b   6.03890092
_cell_length_c   10.16160082
_cell_angle_alpha   90.00000000
_cell_angle_beta   90.49263119
_cell_angle_gamma   90.00000000
_symmetry_Int_Tables_number   1
_chemical_formula_structural   Li4CrNi3(PO4)4
_chemical_formula_sum   'Li4 Cr1 Ni3 P4 O16'
_cell_volume   290.99461098
_cell_formula_units_Z   1
loop_
 _symmetry_equiv_pos_site_id
 _symmetry_equiv_pos_as_xyz
  1  'x, y, z'
loop_
 _atom_site_type_symbol
 _atom_site_label
 _atom_site_symmetry_multiplicity
 _atom_site_fract_x
 _atom_site_fract_y
 _atom_site_fract_z
 _atom_site_occupancy
  Li  Li0  1  0.006046  0.247741  0.997837  1
  Li  Li1  1  0.006046  0.752259  0.997837  1
  Li  Li2  1  0.498338  0.753839  0.502239  1
  Li  Li3  1  0.498338  0.246161  0.502239  1
  Cr  Cr4  1  0.958402  0.500000  0.281052  1
  Ni  Ni5  1  0.018684  0.000000  0.724106  1
  Ni  Ni6  1  0.480652  0.000000  0.223034  1
  Ni  Ni7  1  0.520140  0.500000  0.776517  1
  P  P8  1  0.082085  0.500000  0.595077  1
  P  P9  1  0.417676  0.500000  0.093587  1
  P  P10  1  0.585332  0.000000  0.905875  1
  P  P11  1  0.915681  0.000000  0.407210  1
  O  O12  1  0.197893  0.500000  0.452287  1
  O  O13  1  0.222201  0.294810  0.665207  1
  O  O14  1  0.222201  0.705190  0.665207  1
  O  O15  1  0.239449  0.000000  0.401477  1
  O  O16  1  0.261158  0.000000  0.899149  1
  O  O17  1  0.285184  0.291833  0.161091  1
  O  O18  1  0.285184  0.708167  0.161091  1
  O  O19  1  0.302382  0.500000  0.949261  1
  O  O20  1  0.704105  0.000000  0.048631  1
  O  O21  1  0.724343  0.795823  0.834031  1
  O  O22  1  0.724343  0.204177  0.834031  1
  O  O23  1  0.742776  0.500000  0.100947  1
  O  O24  1  0.757866  0.500000  0.599090  1
  O  O25  1  0.771272  0.800361  0.335762  1
  O  O26  1  0.771272  0.199639  0.335762  1
  O  O27  1  0.800954  0.000000  0.550369  1
