# generated using pymatgen
data_LiLa3Ti4O12
_symmetry_space_group_name_H-M   'P 1'
_cell_length_a   5.57009476
_cell_length_b   5.57009476
_cell_length_c   7.83156773
_cell_angle_alpha   89.53694607
_cell_angle_beta   90.46305393
_cell_angle_gamma   91.10728212
_symmetry_Int_Tables_number   1
_chemical_formula_structural   LiLa3Ti4O12
_chemical_formula_sum   'Li1 La3 Ti4 O12'
_cell_volume   242.92093296
_cell_formula_units_Z   1
loop_
 _symmetry_equiv_pos_site_id
 _symmetry_equiv_pos_as_xyz
  1  'x, y, z'
loop_
 _atom_site_type_symbol
 _atom_site_label
 _atom_site_symmetry_multiplicity
 _atom_site_fract_x
 _atom_site_fract_y
 _atom_site_fract_z
 _atom_site_occupancy
  Li  Li0  1  0.170973  0.829027  0.575781  1
  La  La1  1  0.746741  0.253259  0.003406  1
  La  La2  1  0.746054  0.253946  0.501546  1
  La  La3  1  0.250126  0.749874  0.013172  1
  Ti  Ti4  1  0.249667  0.258571  0.748160  1
  Ti  Ti5  1  0.251505  0.248644  0.259228  1
  Ti  Ti6  1  0.741429  0.750333  0.748160  1
  Ti  Ti7  1  0.751356  0.748495  0.259228  1
  O  O8  1  0.999765  0.000235  0.803682  1
  O  O9  1  0.002748  0.997252  0.193333  1
  O  O10  1  0.499596  0.002308  0.757390  1
  O  O11  1  0.513445  0.008466  0.240637  1
  O  O12  1  0.197799  0.188431  0.502619  1
  O  O13  1  0.300608  0.304259  0.001721  1
  O  O14  1  0.997692  0.500404  0.757390  1
  O  O15  1  0.991534  0.486555  0.240637  1
  O  O16  1  0.508315  0.491685  0.704992  1
  O  O17  1  0.507239  0.492761  0.294675  1
  O  O18  1  0.695741  0.699392  0.001721  1
  O  O19  1  0.811569  0.802201  0.502619  1
