# generated using pymatgen
data_TePHO5
_symmetry_space_group_name_H-M   'P 1'
_cell_length_a   5.42154564
_cell_length_b   5.48601991
_cell_length_c   7.81219035
_cell_angle_alpha   109.57180242
_cell_angle_beta   104.59900496
_cell_angle_gamma   96.34663420
_symmetry_Int_Tables_number   1
_chemical_formula_structural   TePHO5
_chemical_formula_sum   'Te2 P2 H2 O10'
_cell_volume   206.96168769
_cell_formula_units_Z   2
loop_
 _symmetry_equiv_pos_site_id
 _symmetry_equiv_pos_as_xyz
  1  'x, y, z'
loop_
 _atom_site_type_symbol
 _atom_site_label
 _atom_site_symmetry_multiplicity
 _atom_site_fract_x
 _atom_site_fract_y
 _atom_site_fract_z
 _atom_site_occupancy
  Te  Te0  1  0.500000  0.000000  0.500000  1
  Te  Te1  1  0.000000  0.000000  0.000000  1
  P  P2  1  0.563088  0.643925  0.226487  1
  P  P3  1  0.436912  0.356075  0.773513  1
  H  H4  1  0.969665  0.961561  0.337886  1
  H  H5  1  0.030335  0.038439  0.662114  1
  O  O6  1  0.886819  0.951339  0.717662  1
  O  O7  1  0.676252  0.808708  0.362050  1
  O  O8  1  0.348845  0.644790  0.660111  1
  O  O9  1  0.680292  0.750811  0.057915  1
  O  O10  1  0.261855  0.660840  0.150125  1
  O  O11  1  0.738145  0.339160  0.849875  1
  O  O12  1  0.319708  0.249189  0.942085  1
  O  O13  1  0.651155  0.355210  0.339889  1
  O  O14  1  0.323748  0.191292  0.637950  1
  O  O15  1  0.113181  0.048661  0.282338  1
