# generated using pymatgen
data_LiV2O4
_symmetry_space_group_name_H-M   'P 1'
_cell_length_a   5.19468368
_cell_length_b   5.95392563
_cell_length_c   5.31283287
_cell_angle_alpha   90.00000000
_cell_angle_beta   90.70025629
_cell_angle_gamma   90.00000000
_symmetry_Int_Tables_number   1
_chemical_formula_structural   LiV2O4
_chemical_formula_sum   'Li2 V4 O8'
_cell_volume   164.30706203
_cell_formula_units_Z   2
loop_
 _symmetry_equiv_pos_site_id
 _symmetry_equiv_pos_as_xyz
  1  'x, y, z'
loop_
 _atom_site_type_symbol
 _atom_site_label
 _atom_site_symmetry_multiplicity
 _atom_site_fract_x
 _atom_site_fract_y
 _atom_site_fract_z
 _atom_site_occupancy
  Li  Li0  1  0.190011  0.750000  0.061005  1
  Li  Li1  1  0.809989  0.250000  0.938995  1
  V  V2  1  0.000000  0.000000  0.500000  1
  V  V3  1  0.511717  0.750000  0.519494  1
  V  V4  1  0.000000  0.500000  0.500000  1
  V  V5  1  0.488283  0.250000  0.480506  1
  O  O6  1  0.679271  0.013748  0.692579  1
  O  O7  1  0.320729  0.986252  0.307421  1
  O  O8  1  0.162935  0.750000  0.701396  1
  O  O9  1  0.858723  0.750000  0.304632  1
  O  O10  1  0.679271  0.486252  0.692579  1
  O  O11  1  0.320729  0.513748  0.307421  1
  O  O12  1  0.141277  0.250000  0.695368  1
  O  O13  1  0.837065  0.250000  0.298604  1
