# generated using pymatgen
data_Li8Mn5Fe3(BO3)8
_symmetry_space_group_name_H-M   'P 1'
_cell_length_a   5.24049211
_cell_length_b   5.25034177
_cell_length_c   20.93706419
_cell_angle_alpha   90.90966522
_cell_angle_beta   90.63498964
_cell_angle_gamma   119.76611855
_symmetry_Int_Tables_number   1
_chemical_formula_structural   Li8Mn5Fe3(BO3)8
_chemical_formula_sum   'Li8 Mn5 Fe3 B8 O24'
_cell_volume   499.88066373
_cell_formula_units_Z   1
loop_
 _symmetry_equiv_pos_site_id
 _symmetry_equiv_pos_as_xyz
  1  'x, y, z'
loop_
 _atom_site_type_symbol
 _atom_site_label
 _atom_site_symmetry_multiplicity
 _atom_site_fract_x
 _atom_site_fract_y
 _atom_site_fract_z
 _atom_site_occupancy
  Li  Li0  1  0.349687  0.325109  0.666454  1
  Li  Li1  1  0.321314  0.346971  0.915694  1
  Li  Li2  1  0.349099  0.320926  0.165964  1
  Li  Li3  1  0.322057  0.349180  0.416468  1
  Li  Li4  1  0.666314  0.655737  0.790424  1
  Li  Li5  1  0.651137  0.663491  0.541898  1
  Li  Li6  1  0.662232  0.651482  0.291321  1
  Li  Li7  1  0.651890  0.662110  0.040887  1
  Mn  Mn8  1  0.996605  0.329635  0.058002  1
  Mn  Mn9  1  0.999541  0.679423  0.932336  1
  Mn  Mn10  1  0.998000  0.674017  0.434659  1
  Mn  Mn11  1  0.677369  0.996526  0.183433  1
  Mn  Mn12  1  0.328658  0.996052  0.308697  1
  Fe  Fe13  1  0.995359  0.321619  0.559826  1
  Fe  Fe14  1  0.676206  0.010185  0.683116  1
  Fe  Fe15  1  0.325925  0.997660  0.807737  1
  B  B16  1  0.658556  0.003630  0.936119  1
  B  B17  1  0.659720  0.002637  0.438208  1
  B  B18  1  0.995498  0.330416  0.810937  1
  B  B19  1  0.995843  0.334167  0.312393  1
  B  B20  1  0.001836  0.662303  0.686945  1
  B  B21  1  0.001831  0.657904  0.187275  1
  B  B22  1  0.329198  0.991380  0.562561  1
  B  B23  1  0.334509  0.995113  0.061990  1
  O  O24  1  0.747584  0.069817  0.791910  1
  O  O25  1  0.753467  0.070567  0.291147  1
  O  O26  1  0.929529  0.254187  0.951483  1
  O  O27  1  0.421856  0.033397  0.915473  1
  O  O28  1  0.929604  0.252255  0.453750  1
  O  O29  1  0.421904  0.032203  0.417222  1
  O  O30  1  0.976092  0.582650  0.825383  1
  O  O31  1  0.345585  0.264683  0.568921  1
  O  O32  1  0.961979  0.577460  0.327829  1
  O  O33  1  0.358763  0.269056  0.069226  1
  O  O34  1  0.268211  0.347326  0.817288  1
  O  O35  1  0.268952  0.358354  0.319848  1
  O  O36  1  0.732325  0.643736  0.693103  1
  O  O37  1  0.726776  0.628148  0.194643  1
  O  O38  1  0.629495  0.727758  0.943556  1
  O  O39  1  0.024538  0.415755  0.667812  1
  O  O40  1  0.630481  0.726889  0.445346  1
  O  O41  1  0.033258  0.420566  0.166408  1
  O  O42  1  0.580164  0.971583  0.577088  1
  O  O43  1  0.577821  0.962089  0.077341  1
  O  O44  1  0.068624  0.743224  0.543503  1
  O  O45  1  0.070761  0.753354  0.040763  1
  O  O46  1  0.260135  0.927250  0.701538  1
  O  O47  1  0.252515  0.928825  0.202276  1
