# generated using pymatgen
data_Al3CrO6
_symmetry_space_group_name_H-M   'P 1'
_cell_length_a   5.24148363
_cell_length_b   4.87519992
_cell_length_c   7.17810008
_cell_angle_alpha   90.00000000
_cell_angle_beta   95.70325582
_cell_angle_gamma   90.00000000
_symmetry_Int_Tables_number   1
_chemical_formula_structural   Al3CrO6
_chemical_formula_sum   'Al6 Cr2 O12'
_cell_volume   182.51604283
_cell_formula_units_Z   2
loop_
 _symmetry_equiv_pos_site_id
 _symmetry_equiv_pos_as_xyz
  1  'x, y, z'
loop_
 _atom_site_type_symbol
 _atom_site_label
 _atom_site_symmetry_multiplicity
 _atom_site_fract_x
 _atom_site_fract_y
 _atom_site_fract_z
 _atom_site_occupancy
  Al  Al0  1  0.293752  0.998737  0.853027  1
  Al  Al1  1  0.800717  0.498674  0.850448  1
  Al  Al2  1  0.204614  0.497796  0.646658  1
  Al  Al3  1  0.293752  0.001263  0.353027  1
  Al  Al4  1  0.800717  0.501326  0.350448  1
  Al  Al5  1  0.204614  0.502204  0.146658  1
  Cr  Cr6  1  0.700265  0.998453  0.649341  1
  Cr  Cr7  1  0.700265  0.001547  0.149341  1
  O  O8  1  0.645767  0.834658  0.897259  1
  O  O9  1  0.853075  0.636170  0.595220  1
  O  O10  1  0.153204  0.657605  0.903170  1
  O  O11  1  0.337624  0.846061  0.594602  1
  O  O12  1  0.499285  0.311185  0.754196  1
  O  O13  1  0.011697  0.200972  0.756077  1
  O  O14  1  0.499285  0.688815  0.254196  1
  O  O15  1  0.645767  0.165342  0.397259  1
  O  O16  1  0.853075  0.363830  0.095220  1
  O  O17  1  0.153204  0.342395  0.403170  1
  O  O18  1  0.011697  0.799028  0.256077  1
  O  O19  1  0.337624  0.153939  0.094602  1
