# generated using pymatgen
data_LiFeF4
_symmetry_space_group_name_H-M   'P 1'
_cell_length_a   6.21270966
_cell_length_b   6.21270966
_cell_length_c   4.94635450
_cell_angle_alpha   71.01470335
_cell_angle_beta   108.98529665
_cell_angle_gamma   121.29428495
_symmetry_Int_Tables_number   1
_chemical_formula_structural   LiFeF4
_chemical_formula_sum   'Li2 Fe2 F8'
_cell_volume   151.35195649
_cell_formula_units_Z   2
loop_
 _symmetry_equiv_pos_site_id
 _symmetry_equiv_pos_as_xyz
  1  'x, y, z'
loop_
 _atom_site_type_symbol
 _atom_site_label
 _atom_site_symmetry_multiplicity
 _atom_site_fract_x
 _atom_site_fract_y
 _atom_site_fract_z
 _atom_site_occupancy
  Li  Li0  1  0.000000  0.500000  0.500000  1
  Li  Li1  1  0.500000  0.000000  0.000000  1
  Fe  Fe2  1  0.659467  0.659467  0.750000  1
  Fe  Fe3  1  0.340533  0.340533  0.250000  1
  F  F4  1  0.498990  0.288912  0.666506  1
  F  F5  1  0.965204  0.711231  0.687214  1
  F  F6  1  0.711088  0.501010  0.166506  1
  F  F7  1  0.288769  0.034796  0.187214  1
  F  F8  1  0.018429  0.267630  0.309184  1
  F  F9  1  0.484332  0.694907  0.334325  1
  F  F10  1  0.711231  0.965204  0.812786  1
  F  F11  1  0.288912  0.498990  0.833494  1
