# generated using pymatgen
data_Mn4TeO8
_symmetry_space_group_name_H-M   'P 1'
_cell_length_a   6.28204818
_cell_length_b   6.28204818
_cell_length_c   6.40512907
_cell_angle_alpha   59.78311569
_cell_angle_beta   120.21688431
_cell_angle_gamma   121.11466818
_symmetry_Int_Tables_number   1
_chemical_formula_structural   Mn4TeO8
_chemical_formula_sum   'Mn4 Te1 O8'
_cell_volume   176.60987759
_cell_formula_units_Z   1
loop_
 _symmetry_equiv_pos_site_id
 _symmetry_equiv_pos_as_xyz
  1  'x, y, z'
loop_
 _atom_site_type_symbol
 _atom_site_label
 _atom_site_symmetry_multiplicity
 _atom_site_fract_x
 _atom_site_fract_y
 _atom_site_fract_z
 _atom_site_occupancy
  Mn  Mn0  1  0.000000  0.000000  0.500000  1
  Mn  Mn1  1  0.000000  0.500000  0.500000  1
  Mn  Mn2  1  0.500000  1.000000  0.500000  1
  Mn  Mn3  1  0.500000  0.500000  0.000000  1
  Te  Te4  1  0.500000  0.500000  0.500000  1
  O  O5  1  0.721226  0.278774  0.688319  1
  O  O6  1  0.721682  0.723148  0.717336  1
  O  O7  1  0.276852  0.278318  0.717336  1
  O  O8  1  0.278774  0.721226  0.311681  1
  O  O9  1  0.249547  0.750453  0.685223  1
  O  O10  1  0.278318  0.276852  0.282664  1
  O  O11  1  0.723148  0.721682  0.282664  1
  O  O12  1  0.750453  0.249547  0.314777  1
