# generated using pymatgen
data_Hf2N2O
_symmetry_space_group_name_H-M   'P 1'
_cell_length_a   8.70553778
_cell_length_b   8.72499962
_cell_length_c   8.72867327
_cell_angle_alpha   109.37717519
_cell_angle_beta   109.35040345
_cell_angle_gamma   109.39098654
_symmetry_Int_Tables_number   1
_chemical_formula_structural   Hf2N2O
_chemical_formula_sum   'Hf16 N16 O8'
_cell_volume   512.22285920
_cell_formula_units_Z   8
loop_
 _symmetry_equiv_pos_site_id
 _symmetry_equiv_pos_as_xyz
  1  'x, y, z'
loop_
 _atom_site_type_symbol
 _atom_site_label
 _atom_site_symmetry_multiplicity
 _atom_site_fract_x
 _atom_site_fract_y
 _atom_site_fract_z
 _atom_site_occupancy
  Hf  Hf0  1  0.009929  0.497430  0.996261  1
  Hf  Hf1  1  0.748043  0.531801  0.288948  1
  Hf  Hf2  1  0.223943  0.753670  0.473291  1
  Hf  Hf3  1  0.704276  0.742546  0.957953  1
  Hf  Hf4  1  0.254518  0.963039  0.212520  1
  Hf  Hf5  1  0.043092  0.293307  0.257292  1
  Hf  Hf6  1  0.997557  0.005248  0.508425  1
  Hf  Hf7  1  0.491523  0.998186  0.996963  1
  Hf  Hf8  1  0.965315  0.713090  0.740323  1
  Hf  Hf9  1  0.528902  0.793080  0.248934  1
  Hf  Hf10  1  0.511931  0.509602  0.517227  1
  Hf  Hf11  1  0.464131  0.216448  0.757910  1
  Hf  Hf12  1  0.751847  0.032352  0.782652  1
  Hf  Hf13  1  0.282627  0.244849  0.026626  1
  Hf  Hf14  1  0.788667  0.249938  0.531011  1
  Hf  Hf15  1  0.248635  0.464176  0.713080  1
  N  N16  1  0.033997  0.263850  0.992873  1
  N  N17  1  0.549178  0.276290  0.035962  1
  N  N18  1  0.268268  0.725217  0.235806  1
  N  N19  1  0.468860  0.958269  0.726085  1
  N  N20  1  0.013490  0.771013  0.539950  1
  N  N21  1  0.458055  0.729560  0.967147  1
  N  N22  1  0.270999  0.542099  0.505033  1
  N  N23  1  0.984629  0.221130  0.446256  1
  N  N24  1  0.224489  0.232487  0.768927  1
  N  N25  1  0.760926  0.987986  0.534422  1
  N  N26  1  0.530496  0.046486  0.272597  1
  N  N27  1  0.739969  0.773443  0.733338  1
  N  N28  1  0.515852  0.464170  0.738965  1
  N  N29  1  0.223713  0.967164  0.957472  1
  N  N30  1  0.722956  0.452136  0.482937  1
  N  N31  1  0.043970  0.511571  0.774769  1
  O  O32  1  0.948534  0.483557  0.223671  1
  O  O33  1  0.961461  0.735738  0.018969  1
  O  O34  1  0.771401  0.758643  0.225512  1
  O  O35  1  0.237703  0.015863  0.460915  1
  O  O36  1  0.262798  0.227693  0.275517  1
  O  O37  1  0.729573  0.276615  0.764687  1
  O  O38  1  0.774055  0.034961  0.047868  1
  O  O39  1  0.489688  0.535295  0.260906  1
