# generated using pymatgen
data_Li4MnFe3(BO3)4
_symmetry_space_group_name_H-M   'P 1'
_cell_length_a   5.23693083
_cell_length_b   9.05210478
_cell_length_c   10.40760608
_cell_angle_alpha   88.83324440
_cell_angle_beta   89.11232139
_cell_angle_gamma   89.82431410
_symmetry_Int_Tables_number   1
_chemical_formula_structural   Li4MnFe3(BO3)4
_chemical_formula_sum   'Li8 Mn2 Fe6 B8 O24'
_cell_volume   493.21177336
_cell_formula_units_Z   2
loop_
 _symmetry_equiv_pos_site_id
 _symmetry_equiv_pos_as_xyz
  1  'x, y, z'
loop_
 _atom_site_type_symbol
 _atom_site_label
 _atom_site_symmetry_multiplicity
 _atom_site_fract_x
 _atom_site_fract_y
 _atom_site_fract_z
 _atom_site_occupancy
  Li  Li0  1  0.151280  0.174596  0.669399  1
  Li  Li1  1  0.184551  0.162945  0.165788  1
  Li  Li2  1  0.320761  0.331174  0.415919  1
  Li  Li3  1  0.335832  0.324239  0.916529  1
  Li  Li4  1  0.649840  0.673174  0.665809  1
  Li  Li5  1  0.687086  0.661468  0.168992  1
  Li  Li6  1  0.818825  0.830424  0.416737  1
  Li  Li7  1  0.835053  0.826366  0.917042  1
  Mn  Mn8  1  0.674487  0.999120  0.134618  1
  Mn  Mn9  1  0.832105  0.497524  0.884364  1
  Fe  Fe10  1  0.185171  0.500032  0.132993  1
  Fe  Fe11  1  0.155904  0.839809  0.631914  1
  Fe  Fe12  1  0.320461  0.666447  0.382523  1
  Fe  Fe13  1  0.338219  0.991829  0.879268  1
  Fe  Fe14  1  0.654902  0.339973  0.631575  1
  Fe  Fe15  1  0.837770  0.166137  0.385215  1
  B  B16  1  0.171635  0.830061  0.124671  1
  B  B17  1  0.160330  0.502163  0.625361  1
  B  B18  1  0.335946  0.996994  0.377465  1
  B  B19  1  0.329248  0.667723  0.875489  1
  B  B20  1  0.675083  0.332548  0.129077  1
  B  B21  1  0.663403  0.001724  0.625197  1
  B  B22  1  0.833048  0.496990  0.376268  1
  B  B23  1  0.826221  0.165057  0.874007  1
  O  O24  1  0.096172  0.483899  0.347489  1
  O  O25  1  0.088994  0.172374  0.861896  1
  O  O26  1  0.174072  0.790719  0.844915  1
  O  O27  1  0.196032  0.872723  0.417103  1
  O  O28  1  0.213894  0.132517  0.363244  1
  O  O29  1  0.218975  0.535326  0.918711  1
  O  O30  1  0.276523  0.364200  0.612614  1
  O  O31  1  0.285740  0.966505  0.094880  1
  O  O32  1  0.303022  0.629217  0.597216  1
  O  O33  1  0.319818  0.709818  0.165794  1
  O  O34  1  0.411291  0.320926  0.115351  1
  O  O35  1  0.407370  0.011729  0.663131  1
  O  O36  1  0.596296  0.985210  0.348747  1
  O  O37  1  0.590909  0.679702  0.860406  1
  O  O38  1  0.674812  0.288805  0.843651  1
  O  O39  1  0.692972  0.372497  0.416651  1
  O  O40  1  0.713873  0.632646  0.362424  1
  O  O41  1  0.707579  0.033946  0.915799  1
  O  O42  1  0.794968  0.466800  0.098161  1
  O  O43  1  0.778268  0.863990  0.613007  1
  O  O44  1  0.806253  0.129262  0.596334  1
  O  O45  1  0.818761  0.210739  0.168393  1
  O  O46  1  0.910327  0.815356  0.111231  1
  O  O47  1  0.905318  0.511980  0.664236  1
