# generated using pymatgen
data_Na5Ti3O8
_symmetry_space_group_name_H-M   'P 1'
_cell_length_a   6.47711600
_cell_length_b   6.47711600
_cell_length_c   6.47711600
_cell_angle_alpha   56.87106738
_cell_angle_beta   56.87106738
_cell_angle_gamma   56.87106738
_symmetry_Int_Tables_number   1
_chemical_formula_structural   Na5Ti3O8
_chemical_formula_sum   'Na5 Ti3 O8'
_cell_volume   178.27409512
_cell_formula_units_Z   1
loop_
 _symmetry_equiv_pos_site_id
 _symmetry_equiv_pos_as_xyz
  1  'x, y, z'
loop_
 _atom_site_type_symbol
 _atom_site_label
 _atom_site_symmetry_multiplicity
 _atom_site_fract_x
 _atom_site_fract_y
 _atom_site_fract_z
 _atom_site_occupancy
  Na  Na0  1  0.500000  0.000000  0.000000  1
  Na  Na1  1  0.000000  0.000000  0.000000  1
  Na  Na2  1  0.000000  0.500000  1.000000  1
  Na  Na3  1  1.000000  0.000000  0.500000  1
  Na  Na4  1  0.500000  0.500000  0.500000  1
  Ti  Ti5  1  0.500000  0.500000  0.000000  1
  Ti  Ti6  1  0.000000  0.500000  0.500000  1
  Ti  Ti7  1  0.500000  0.000000  0.500000  1
  O  O8  1  0.264337  0.264337  0.264337  1
  O  O9  1  0.750930  0.750930  0.298094  1
  O  O10  1  0.750930  0.298094  0.750930  1
  O  O11  1  0.249070  0.701906  0.249070  1
  O  O12  1  0.701906  0.249070  0.249070  1
  O  O13  1  0.735663  0.735663  0.735663  1
  O  O14  1  0.298094  0.750930  0.750930  1
  O  O15  1  0.249070  0.249070  0.701906  1
