# generated using pymatgen
data_LiVSiO4
_symmetry_space_group_name_H-M   'P 1'
_cell_length_a   4.78795132
_cell_length_b   5.80965587
_cell_length_c   10.42502238
_cell_angle_alpha   90.00000000
_cell_angle_beta   90.00000000
_cell_angle_gamma   90.00000000
_symmetry_Int_Tables_number   1
_chemical_formula_structural   LiVSiO4
_chemical_formula_sum   'Li4 V4 Si4 O16'
_cell_volume   289.98606600
_cell_formula_units_Z   4
loop_
 _symmetry_equiv_pos_site_id
 _symmetry_equiv_pos_as_xyz
  1  'x, y, z'
loop_
 _atom_site_type_symbol
 _atom_site_label
 _atom_site_symmetry_multiplicity
 _atom_site_fract_x
 _atom_site_fract_y
 _atom_site_fract_z
 _atom_site_occupancy
  Li  Li0  1  0.500000  0.500000  0.500000  1
  Li  Li1  1  0.500000  0.000000  0.500000  1
  Li  Li2  1  0.000000  0.000000  0.000000  1
  Li  Li3  1  0.000000  0.500000  0.000000  1
  V  V4  1  0.495556  0.750000  0.226616  1
  V  V5  1  0.004444  0.750000  0.726616  1
  V  V6  1  0.995556  0.250000  0.273384  1
  V  V7  1  0.504444  0.250000  0.773384  1
  Si  Si8  1  0.443056  0.250000  0.092204  1
  Si  Si9  1  0.056944  0.250000  0.592204  1
  Si  Si10  1  0.943056  0.750000  0.407796  1
  Si  Si11  1  0.556944  0.750000  0.907796  1
  O  O12  1  0.220303  0.750000  0.900790  1
  O  O13  1  0.691948  0.750000  0.051198  1
  O  O14  1  0.213612  0.464895  0.673409  1
  O  O15  1  0.213612  0.035105  0.673409  1
  O  O16  1  0.286388  0.464895  0.173409  1
  O  O17  1  0.286388  0.035105  0.173409  1
  O  O18  1  0.808052  0.750000  0.551198  1
  O  O19  1  0.279697  0.750000  0.400790  1
  O  O20  1  0.720303  0.250000  0.599210  1
  O  O21  1  0.191948  0.250000  0.448802  1
  O  O22  1  0.786388  0.964895  0.326591  1
  O  O23  1  0.786388  0.535105  0.326591  1
  O  O24  1  0.713612  0.964895  0.826591  1
  O  O25  1  0.713612  0.535105  0.826591  1
  O  O26  1  0.308052  0.250000  0.948802  1
  O  O27  1  0.779697  0.250000  0.099210  1
