# generated using pymatgen
data_Li2V3TeO8
_symmetry_space_group_name_H-M   'P 1'
_cell_length_a   8.61660386
_cell_length_b   8.67819318
_cell_length_c   8.84848192
_cell_angle_alpha   89.90587161
_cell_angle_beta   89.71003212
_cell_angle_gamma   89.77119419
_symmetry_Int_Tables_number   1
_chemical_formula_structural   Li2V3TeO8
_chemical_formula_sum   'Li8 V12 Te4 O32'
_cell_volume   661.64435553
_cell_formula_units_Z   4
loop_
 _symmetry_equiv_pos_site_id
 _symmetry_equiv_pos_as_xyz
  1  'x, y, z'
loop_
 _atom_site_type_symbol
 _atom_site_label
 _atom_site_symmetry_multiplicity
 _atom_site_fract_x
 _atom_site_fract_y
 _atom_site_fract_z
 _atom_site_occupancy
  Li  Li0  1  0.118814  0.117611  0.377393  1
  Li  Li1  1  0.254306  0.252275  0.753605  1
  Li  Li2  1  0.750892  0.253231  0.254075  1
  Li  Li3  1  0.881064  0.381353  0.878761  1
  Li  Li4  1  0.381605  0.618440  0.622370  1
  Li  Li5  1  0.248572  0.751674  0.245876  1
  Li  Li6  1  0.752904  0.750915  0.748809  1
  Li  Li7  1  0.615322  0.875365  0.120981  1
  V  V8  1  0.370160  0.113788  0.120627  1
  V  V9  1  0.619050  0.122631  0.891970  1
  V  V10  1  0.889693  0.117113  0.624024  1
  V  V11  1  0.110966  0.383551  0.122000  1
  V  V12  1  0.378279  0.372268  0.389882  1
  V  V13  1  0.628580  0.385886  0.624755  1
  V  V14  1  0.125359  0.612714  0.875157  1
  V  V15  1  0.878674  0.629020  0.109824  1
  V  V16  1  0.611091  0.615296  0.377829  1
  V  V17  1  0.387579  0.878641  0.873557  1
  V  V18  1  0.118038  0.867506  0.611356  1
  V  V19  1  0.872858  0.886211  0.376718  1
  Te  Te20  1  0.501777  0.002435  0.498758  1
  Te  Te21  1  0.497780  0.498040  0.997913  1
  Te  Te22  1  0.995893  0.500996  0.501730  1
  Te  Te23  1  0.003068  0.996710  0.001878  1
  O  O24  1  0.855855  0.109833  0.413669  1
  O  O25  1  0.098882  0.101676  0.641647  1
  O  O26  1  0.393818  0.120365  0.881072  1
  O  O27  1  0.597569  0.144621  0.100161  1
  O  O28  1  0.863878  0.136030  0.900138  1
  O  O29  1  0.677358  0.164579  0.681782  1
  O  O30  1  0.362514  0.111370  0.364480  1
  O  O31  1  0.106513  0.137108  0.139198  1
  O  O32  1  0.893938  0.360664  0.640744  1
  O  O33  1  0.639873  0.390996  0.865479  1
  O  O34  1  0.319471  0.334380  0.174510  1
  O  O35  1  0.132421  0.361927  0.398415  1
  O  O36  1  0.407431  0.360151  0.607521  1
  O  O37  1  0.621353  0.391443  0.384407  1
  O  O38  1  0.899224  0.398885  0.141897  1
  O  O39  1  0.140824  0.388691  0.911242  1
  O  O40  1  0.640297  0.609135  0.588962  1
  O  O41  1  0.398585  0.599697  0.359877  1
  O  O42  1  0.118420  0.608851  0.115848  1
  O  O43  1  0.903459  0.635785  0.890598  1
  O  O44  1  0.633111  0.638448  0.100648  1
  O  O45  1  0.818846  0.665829  0.325982  1
  O  O46  1  0.137925  0.608256  0.632703  1
  O  O47  1  0.394791  0.633598  0.857260  1
  O  O48  1  0.603470  0.863060  0.359960  1
  O  O49  1  0.861049  0.889218  0.135336  1
  O  O50  1  0.170069  0.831598  0.824908  1
  O  O51  1  0.365897  0.862405  0.603414  1
  O  O52  1  0.093944  0.862887  0.389322  1
  O  O53  1  0.881065  0.891026  0.616710  1
  O  O54  1  0.613986  0.910473  0.861581  1
  O  O55  1  0.361761  0.893343  0.090765  1
