# generated using pymatgen
data_CoTe2O5
_symmetry_space_group_name_H-M   'P 1'
_cell_length_a   6.04212744
_cell_length_b   7.41364899
_cell_length_c   10.76657895
_cell_angle_alpha   90.00000000
_cell_angle_beta   90.00000000
_cell_angle_gamma   90.00000000
_symmetry_Int_Tables_number   1
_chemical_formula_structural   CoTe2O5
_chemical_formula_sum   'Co4 Te8 O20'
_cell_volume   482.28041994
_cell_formula_units_Z   4
loop_
 _symmetry_equiv_pos_site_id
 _symmetry_equiv_pos_as_xyz
  1  'x, y, z'
loop_
 _atom_site_type_symbol
 _atom_site_label
 _atom_site_symmetry_multiplicity
 _atom_site_fract_x
 _atom_site_fract_y
 _atom_site_fract_z
 _atom_site_occupancy
  Co  Co0  1  0.750000  0.500000  0.560754  1
  Co  Co1  1  0.250000  0.500000  0.439246  1
  Co  Co2  1  0.750000  0.000000  0.060754  1
  Co  Co3  1  0.250000  0.000000  0.939246  1
  Te  Te4  1  0.990073  0.636060  0.846936  1
  Te  Te5  1  0.490073  0.636060  0.153064  1
  Te  Te6  1  0.490073  0.863940  0.653064  1
  Te  Te7  1  0.990073  0.863940  0.346936  1
  Te  Te8  1  0.009927  0.136060  0.653064  1
  Te  Te9  1  0.509927  0.136060  0.346936  1
  Te  Te10  1  0.009927  0.363940  0.153064  1
  Te  Te11  1  0.509927  0.363940  0.846936  1
  O  O12  1  0.750000  0.500000  0.941479  1
  O  O13  1  0.250000  0.500000  0.058521  1
  O  O14  1  0.448724  0.648067  0.563641  1
  O  O15  1  0.948724  0.648067  0.436359  1
  O  O16  1  0.810710  0.691960  0.706510  1
  O  O17  1  0.310710  0.691960  0.293490  1
  O  O18  1  0.310710  0.808040  0.793490  1
  O  O19  1  0.810710  0.808040  0.206510  1
  O  O20  1  0.948724  0.851933  0.936359  1
  O  O21  1  0.448724  0.851933  0.063641  1
  O  O22  1  0.750000  0.000000  0.441479  1
  O  O23  1  0.250000  0.000000  0.558521  1
  O  O24  1  0.551276  0.148067  0.936359  1
  O  O25  1  0.051276  0.148067  0.063641  1
  O  O26  1  0.189290  0.191960  0.793490  1
  O  O27  1  0.689290  0.191960  0.206510  1
  O  O28  1  0.689290  0.308040  0.706510  1
  O  O29  1  0.189290  0.308040  0.293490  1
  O  O30  1  0.051276  0.351933  0.563641  1
  O  O31  1  0.551276  0.351933  0.436359  1
