# generated using pymatgen
data_SrTaNO2
_symmetry_space_group_name_H-M   'P 1'
_cell_length_a   7.05208380
_cell_length_b   7.05208380
_cell_length_c   5.80719314
_cell_angle_alpha   89.96230964
_cell_angle_beta   90.03769036
_cell_angle_gamma   109.93683129
_symmetry_Int_Tables_number   1
_chemical_formula_structural   SrTaNO2
_chemical_formula_sum   'Sr4 Ta4 N4 O8'
_cell_volume   271.49438355
_cell_formula_units_Z   4
loop_
 _symmetry_equiv_pos_site_id
 _symmetry_equiv_pos_as_xyz
  1  'x, y, z'
loop_
 _atom_site_type_symbol
 _atom_site_label
 _atom_site_symmetry_multiplicity
 _atom_site_fract_x
 _atom_site_fract_y
 _atom_site_fract_z
 _atom_site_occupancy
  Sr  Sr0  1  0.747437  0.747437  0.000000  1
  Sr  Sr1  1  0.252563  0.252563  0.000000  1
  Sr  Sr2  1  0.000000  0.500000  0.500000  1
  Sr  Sr3  1  0.500000  1.000000  0.500000  1
  Ta  Ta4  1  0.751571  0.248429  0.973150  1
  Ta  Ta5  1  0.248429  0.751571  0.026850  1
  Ta  Ta6  1  0.000000  0.000000  0.500000  1
  Ta  Ta7  1  0.500000  0.500000  0.500000  1
  N  N8  1  0.632739  0.367261  0.734543  1
  N  N9  1  0.887093  0.112907  0.773198  1
  N  N10  1  0.112907  0.887093  0.226802  1
  N  N11  1  0.367261  0.632739  0.265457  1
  O  O12  1  0.136820  0.863180  0.719060  1
  O  O13  1  0.384320  0.615680  0.761845  1
  O  O14  1  0.500000  0.000000  0.000000  1
  O  O15  1  0.000000  0.500000  0.000000  1
  O  O16  1  0.615680  0.384320  0.238155  1
  O  O17  1  0.863180  0.136820  0.280940  1
  O  O18  1  0.249838  0.249838  0.500000  1
  O  O19  1  0.750162  0.750162  0.500000  1
