# generated using pymatgen
data_Li12MnNi3P4(CO7)4
_symmetry_space_group_name_H-M   'P 1'
_cell_length_a   8.37387714
_cell_length_b   6.46179125
_cell_length_c   9.98027934
_cell_angle_alpha   90.00000000
_cell_angle_beta   94.75159340
_cell_angle_gamma   90.00000000
_symmetry_Int_Tables_number   1
_chemical_formula_structural   Li12MnNi3P4(CO7)4
_chemical_formula_sum   'Li12 Mn1 Ni3 P4 C4 O28'
_cell_volume   538.17937614
_cell_formula_units_Z   1
loop_
 _symmetry_equiv_pos_site_id
 _symmetry_equiv_pos_as_xyz
  1  'x, y, z'
loop_
 _atom_site_type_symbol
 _atom_site_label
 _atom_site_symmetry_multiplicity
 _atom_site_fract_x
 _atom_site_fract_y
 _atom_site_fract_z
 _atom_site_occupancy
  Li  Li0  1  0.900834  0.000000  0.382542  1
  Li  Li1  1  0.907597  0.000000  0.881394  1
  Li  Li2  1  0.723296  0.228698  0.123682  1
  Li  Li3  1  0.723296  0.771302  0.123682  1
  Li  Li4  1  0.725110  0.228745  0.622771  1
  Li  Li5  1  0.725110  0.771255  0.622771  1
  Li  Li6  1  0.276929  0.728315  0.374330  1
  Li  Li7  1  0.276929  0.271685  0.374330  1
  Li  Li8  1  0.275533  0.727681  0.878862  1
  Li  Li9  1  0.275533  0.272319  0.878862  1
  Li  Li10  1  0.097108  0.500000  0.117447  1
  Li  Li11  1  0.097570  0.500000  0.616567  1
  Mn  Mn12  1  0.340714  0.000000  0.611243  1
  Ni  Ni13  1  0.667430  0.500000  0.395577  1
  Ni  Ni14  1  0.668076  0.500000  0.897165  1
  Ni  Ni15  1  0.333097  0.000000  0.102876  1
  P  P16  1  0.585222  0.000000  0.356822  1
  P  P17  1  0.590131  0.000000  0.864564  1
  P  P18  1  0.415485  0.500000  0.138988  1
  P  P19  1  0.414871  0.500000  0.638191  1
  C  C20  1  0.960187  0.500000  0.351398  1
  C  C21  1  0.960517  0.500000  0.851641  1
  C  C22  1  0.040148  0.000000  0.148989  1
  C  C23  1  0.030990  0.000000  0.649000  1
  O  O24  1  0.923470  0.500000  0.475016  1
  O  O25  1  0.893002  0.000000  0.179630  1
  O  O26  1  0.924460  0.500000  0.975320  1
  O  O27  1  0.843186  0.500000  0.257003  1
  O  O28  1  0.882961  0.000000  0.678641  1
  O  O29  1  0.842939  0.500000  0.757591  1
  O  O30  1  0.689598  0.186717  0.409405  1
  O  O31  1  0.689598  0.813283  0.409405  1
  O  O32  1  0.692494  0.187485  0.917301  1
  O  O33  1  0.692494  0.812515  0.917301  1
  O  O34  1  0.582231  0.500000  0.084270  1
  O  O35  1  0.564229  0.000000  0.199627  1
  O  O36  1  0.581656  0.500000  0.583212  1
  O  O37  1  0.573712  0.000000  0.707966  1
  O  O38  1  0.438812  0.500000  0.295809  1
  O  O39  1  0.417457  0.000000  0.409398  1
  O  O40  1  0.438924  0.500000  0.795112  1
  O  O41  1  0.418577  0.000000  0.912204  1
  O  O42  1  0.309809  0.313302  0.088068  1
  O  O43  1  0.309809  0.686698  0.088068  1
  O  O44  1  0.308462  0.684546  0.586938  1
  O  O45  1  0.308462  0.315454  0.586938  1
  O  O46  1  0.157349  0.000000  0.243176  1
  O  O47  1  0.107505  0.500000  0.320465  1
  O  O48  1  0.144347  0.000000  0.746614  1
  O  O49  1  0.077370  0.000000  0.025458  1
  O  O50  1  0.107715  0.500000  0.820360  1
  O  O51  1  0.067659  0.000000  0.526006  1
