# generated using pymatgen
data_Li12VNi3P4(CO7)4
_symmetry_space_group_name_H-M   'P 1'
_cell_length_a   8.36412884
_cell_length_b   6.48830260
_cell_length_c   10.01529943
_cell_angle_alpha   90.00000000
_cell_angle_beta   95.16884952
_cell_angle_gamma   90.00000000
_symmetry_Int_Tables_number   1
_chemical_formula_structural   Li12VNi3P4(CO7)4
_chemical_formula_sum   'Li12 V1 Ni3 P4 C4 O28'
_cell_volume   541.31006276
_cell_formula_units_Z   1
loop_
 _symmetry_equiv_pos_site_id
 _symmetry_equiv_pos_as_xyz
  1  'x, y, z'
loop_
 _atom_site_type_symbol
 _atom_site_label
 _atom_site_symmetry_multiplicity
 _atom_site_fract_x
 _atom_site_fract_y
 _atom_site_fract_z
 _atom_site_occupancy
  Li  Li0  1  0.901050  0.000000  0.384708  1
  Li  Li1  1  0.901485  0.000000  0.883987  1
  Li  Li2  1  0.721516  0.227761  0.124109  1
  Li  Li3  1  0.721516  0.772239  0.124109  1
  Li  Li4  1  0.720864  0.229338  0.623536  1
  Li  Li5  1  0.720864  0.770662  0.623536  1
  Li  Li6  1  0.279721  0.725552  0.370782  1
  Li  Li7  1  0.279721  0.274448  0.370782  1
  Li  Li8  1  0.278595  0.727982  0.879183  1
  Li  Li9  1  0.278595  0.272018  0.879183  1
  Li  Li10  1  0.099405  0.500000  0.115674  1
  Li  Li11  1  0.100235  0.500000  0.616192  1
  V  V12  1  0.328619  0.000000  0.603950  1
  Ni  Ni13  1  0.667527  0.500000  0.396078  1
  Ni  Ni14  1  0.667852  0.500000  0.896246  1
  Ni  Ni15  1  0.333957  0.000000  0.103746  1
  P  P16  1  0.587186  0.000000  0.360168  1
  P  P17  1  0.586535  0.000000  0.863183  1
  P  P18  1  0.415351  0.500000  0.137395  1
  P  P19  1  0.415171  0.500000  0.637992  1
  C  C20  1  0.960488  0.500000  0.350533  1
  C  C21  1  0.960444  0.500000  0.850658  1
  C  C22  1  0.041071  0.000000  0.149918  1
  C  C23  1  0.034172  0.000000  0.651372  1
  O  O24  1  0.925719  0.500000  0.474356  1
  O  O25  1  0.893987  0.000000  0.182275  1
  O  O26  1  0.925257  0.500000  0.974174  1
  O  O27  1  0.840894  0.500000  0.257359  1
  O  O28  1  0.885920  0.000000  0.679761  1
  O  O29  1  0.840896  0.500000  0.757168  1
  O  O30  1  0.691702  0.186967  0.411685  1
  O  O31  1  0.691702  0.813033  0.411685  1
  O  O32  1  0.690798  0.187245  0.914775  1
  O  O33  1  0.690798  0.812755  0.914775  1
  O  O34  1  0.582364  0.500000  0.083021  1
  O  O35  1  0.562886  0.000000  0.203539  1
  O  O36  1  0.581647  0.500000  0.582398  1
  O  O37  1  0.566070  0.000000  0.706917  1
  O  O38  1  0.439190  0.500000  0.294407  1
  O  O39  1  0.419894  0.000000  0.413187  1
  O  O40  1  0.440565  0.500000  0.794570  1
  O  O41  1  0.418578  0.000000  0.916411  1
  O  O42  1  0.310049  0.313217  0.087357  1
  O  O43  1  0.310049  0.686783  0.087357  1
  O  O44  1  0.308127  0.683192  0.586508  1
  O  O45  1  0.308127  0.316808  0.586508  1
  O  O46  1  0.160750  0.000000  0.243177  1
  O  O47  1  0.107145  0.500000  0.318427  1
  O  O48  1  0.150082  0.000000  0.747220  1
  O  O49  1  0.075405  0.000000  0.026492  1
  O  O50  1  0.107318  0.500000  0.819177  1
  O  O51  1  0.072141  0.000000  0.528290  1
