# generated using pymatgen
data_Li5VO3F2
_symmetry_space_group_name_H-M   'P 1'
_cell_length_a   5.24467168
_cell_length_b   5.24467168
_cell_length_c   5.97826522
_cell_angle_alpha   70.45150545
_cell_angle_beta   109.54849455
_cell_angle_gamma   134.88444459
_symmetry_Int_Tables_number   1
_chemical_formula_structural   Li5VO3F2
_chemical_formula_sum   'Li5 V1 O3 F2'
_cell_volume   108.59529197
_cell_formula_units_Z   1
loop_
 _symmetry_equiv_pos_site_id
 _symmetry_equiv_pos_as_xyz
  1  'x, y, z'
loop_
 _atom_site_type_symbol
 _atom_site_label
 _atom_site_symmetry_multiplicity
 _atom_site_fract_x
 _atom_site_fract_y
 _atom_site_fract_z
 _atom_site_occupancy
  Li  Li0  1  0.327654  0.672346  0.619242  1
  Li  Li1  1  0.295502  0.704498  0.191366  1
  Li  Li2  1  0.704498  0.295502  0.808634  1
  Li  Li3  1  0.672346  0.327654  0.380758  1
  Li  Li4  1  0.000000  0.000000  0.000000  1
  V  V5  1  0.000000  0.000000  0.500000  1
  O  O6  1  0.859207  0.140793  0.679550  1
  O  O7  1  0.140793  0.859207  0.320450  1
  O  O8  1  0.500000  0.500000  0.500000  1
  F  F9  1  0.825403  0.174597  0.156917  1
  F  F10  1  0.174597  0.825403  0.843083  1
