# generated using pymatgen
data_Li4MnO2F3
_symmetry_space_group_name_H-M   'P 1'
_cell_length_a   5.10701127
_cell_length_b   5.26303429
_cell_length_c   7.67620840
_cell_angle_alpha   109.59190168
_cell_angle_beta   103.69238251
_cell_angle_gamma   97.18992774
_symmetry_Int_Tables_number   1
_chemical_formula_structural   Li4MnO2F3
_chemical_formula_sum   'Li8 Mn2 O4 F6'
_cell_volume   184.07955630
_cell_formula_units_Z   2
loop_
 _symmetry_equiv_pos_site_id
 _symmetry_equiv_pos_as_xyz
  1  'x, y, z'
loop_
 _atom_site_type_symbol
 _atom_site_label
 _atom_site_symmetry_multiplicity
 _atom_site_fract_x
 _atom_site_fract_y
 _atom_site_fract_z
 _atom_site_occupancy
  Li  Li0  1  0.495503  0.573434  0.317974  1
  Li  Li1  1  0.500000  0.000000  0.500000  1
  Li  Li2  1  0.000000  0.500000  0.000000  1
  Li  Li3  1  0.510321  0.204061  0.090768  1
  Li  Li4  1  0.997101  0.674546  0.591569  1
  Li  Li5  1  0.002899  0.325454  0.408431  1
  Li  Li6  1  0.489679  0.795939  0.909232  1
  Li  Li7  1  0.504497  0.426566  0.682026  1
  Mn  Mn8  1  0.981368  0.103891  0.798861  1
  Mn  Mn9  1  0.018632  0.896109  0.201139  1
  O  O10  1  0.226237  0.866284  0.039890  1
  O  O11  1  0.758522  0.327576  0.566811  1
  O  O12  1  0.241478  0.672424  0.433189  1
  O  O13  1  0.773763  0.133716  0.960110  1
  F  F14  1  0.741239  0.737765  0.747230  1
  F  F15  1  0.765375  0.949561  0.341143  1
  F  F16  1  0.737827  0.534952  0.150056  1
  F  F17  1  0.262173  0.465048  0.849944  1
  F  F18  1  0.234625  0.050439  0.658857  1
  F  F19  1  0.258761  0.262235  0.252770  1
