# generated using pymatgen
data_Ca3Pb3I14
_symmetry_space_group_name_H-M   'P 1'
_cell_length_a   17.03386793
_cell_length_b   4.50978068
_cell_length_c   24.30752097
_cell_angle_alpha   90.00000000
_cell_angle_beta   103.91104376
_cell_angle_gamma   90.00000000
_symmetry_Int_Tables_number   1
_chemical_formula_structural   Ca3Pb3I14
_chemical_formula_sum   'Ca6 Pb6 I28'
_cell_volume   1812.51264573
_cell_formula_units_Z   2
loop_
 _symmetry_equiv_pos_site_id
 _symmetry_equiv_pos_as_xyz
  1  'x, y, z'
loop_
 _atom_site_type_symbol
 _atom_site_label
 _atom_site_symmetry_multiplicity
 _atom_site_fract_x
 _atom_site_fract_y
 _atom_site_fract_z
 _atom_site_occupancy
  Ca  Ca0  1  0.056175  0.250000  0.813057  1
  Ca  Ca1  1  0.295558  0.750000  0.541970  1
  Ca  Ca2  1  0.599016  0.750000  0.866471  1
  Ca  Ca3  1  0.400984  0.250000  0.133529  1
  Ca  Ca4  1  0.704442  0.250000  0.458030  1
  Ca  Ca5  1  0.943825  0.750000  0.186943  1
  Pb  Pb6  1  0.243429  0.750000  0.978456  1
  Pb  Pb7  1  0.125526  0.250000  0.364115  1
  Pb  Pb8  1  0.465843  0.250000  0.707301  1
  Pb  Pb9  1  0.534157  0.750000  0.292699  1
  Pb  Pb10  1  0.874474  0.750000  0.635885  1
  Pb  Pb11  1  0.756571  0.250000  0.021544  1
  I  I12  1  0.107916  0.250000  0.963761  1
  I  I13  1  0.054228  0.750000  0.708552  1
  I  I14  1  0.204461  0.750000  0.842395  1
  I  I15  1  0.095655  0.750000  0.449636  1
  I  I16  1  0.188196  0.250000  0.577480  1
  I  I17  1  0.047234  0.250000  0.148431  1
  I  I18  1  0.155330  0.750000  0.279488  1
  I  I19  1  0.329572  0.750000  0.687707  1
  I  I20  1  0.465021  0.250000  0.841465  1
  I  I21  1  0.303777  0.250000  0.439772  1
  I  I22  1  0.267763  0.750000  0.115339  1
  I  I23  1  0.445812  0.250000  0.574202  1
  I  I24  1  0.610493  0.750000  0.997870  1
  I  I25  1  0.391852  0.250000  0.262951  1
  I  I26  1  0.608148  0.750000  0.737049  1
  I  I27  1  0.389507  0.250000  0.002130  1
  I  I28  1  0.554188  0.750000  0.425798  1
  I  I29  1  0.732237  0.250000  0.884661  1
  I  I30  1  0.696223  0.750000  0.560228  1
  I  I31  1  0.534979  0.750000  0.158535  1
  I  I32  1  0.670428  0.250000  0.312293  1
  I  I33  1  0.844670  0.250000  0.720512  1
  I  I34  1  0.952766  0.750000  0.851569  1
  I  I35  1  0.811804  0.750000  0.422520  1
  I  I36  1  0.904345  0.250000  0.550364  1
  I  I37  1  0.795539  0.250000  0.157605  1
  I  I38  1  0.945772  0.250000  0.291448  1
  I  I39  1  0.892084  0.750000  0.036239  1
