# generated using pymatgen
data_Li2VSO4F3
_symmetry_space_group_name_H-M   'P 1'
_cell_length_a   7.09079382
_cell_length_b   10.04175269
_cell_length_c   7.88716475
_cell_angle_alpha   90.00000000
_cell_angle_beta   90.88789164
_cell_angle_gamma   90.00000000
_symmetry_Int_Tables_number   1
_chemical_formula_structural   Li2VSO4F3
_chemical_formula_sum   'Li8 V4 S4 O16 F12'
_cell_volume   561.53023117
_cell_formula_units_Z   4
loop_
 _symmetry_equiv_pos_site_id
 _symmetry_equiv_pos_as_xyz
  1  'x, y, z'
loop_
 _atom_site_type_symbol
 _atom_site_label
 _atom_site_symmetry_multiplicity
 _atom_site_fract_x
 _atom_site_fract_y
 _atom_site_fract_z
 _atom_site_occupancy
  Li  Li0  1  0.240430  0.276752  0.106775  1
  Li  Li1  1  0.240430  0.223248  0.606775  1
  Li  Li2  1  0.266820  0.723765  0.115018  1
  Li  Li3  1  0.266820  0.776235  0.615018  1
  Li  Li4  1  0.733180  0.223765  0.384982  1
  Li  Li5  1  0.733180  0.276235  0.884982  1
  Li  Li6  1  0.759570  0.776752  0.393225  1
  Li  Li7  1  0.759570  0.723248  0.893225  1
  V  V8  1  0.000000  0.500000  0.500000  1
  V  V9  1  0.000000  0.000000  0.000000  1
  V  V10  1  0.500000  0.500000  0.500000  1
  V  V11  1  0.500000  0.000000  0.000000  1
  S  S12  1  0.253911  0.998985  0.333630  1
  S  S13  1  0.253911  0.501015  0.833630  1
  S  S14  1  0.746089  0.498985  0.166370  1
  S  S15  1  0.746089  0.001015  0.666370  1
  O  O16  1  0.115767  0.074694  0.218035  1
  O  O17  1  0.115767  0.425306  0.718035  1
  O  O18  1  0.157572  0.901849  0.438910  1
  O  O19  1  0.157572  0.598151  0.938910  1
  O  O20  1  0.355606  0.100972  0.432320  1
  O  O21  1  0.355606  0.399028  0.932320  1
  O  O22  1  0.383121  0.921360  0.217239  1
  O  O23  1  0.383121  0.578640  0.717239  1
  O  O24  1  0.616879  0.421360  0.282761  1
  O  O25  1  0.616879  0.078640  0.782761  1
  O  O26  1  0.644394  0.600972  0.067680  1
  O  O27  1  0.644394  0.899028  0.567680  1
  O  O28  1  0.842428  0.401849  0.061090  1
  O  O29  1  0.842428  0.098151  0.561090  1
  O  O30  1  0.884233  0.574694  0.281965  1
  O  O31  1  0.884233  0.925306  0.781965  1
  F  F32  1  0.027661  0.819086  0.078023  1
  F  F33  1  0.027661  0.680914  0.578023  1
  F  F34  1  0.251225  0.497304  0.383203  1
  F  F35  1  0.251225  0.002696  0.883202  1
  F  F36  1  0.473606  0.179350  0.081976  1
  F  F37  1  0.473606  0.320650  0.581976  1
  F  F38  1  0.526394  0.679350  0.418024  1
  F  F39  1  0.526394  0.820650  0.918024  1
  F  F40  1  0.748775  0.997304  0.116797  1
  F  F41  1  0.748775  0.502696  0.616797  1
  F  F42  1  0.972339  0.319086  0.421977  1
  F  F43  1  0.972339  0.180914  0.921977  1
