# generated using pymatgen
data_CsVZn(PO3)6
_symmetry_space_group_name_H-M   'P 1'
_cell_length_a   10.29387882
_cell_length_b   10.29387882
_cell_length_c   10.98672801
_cell_angle_alpha   66.90486081
_cell_angle_beta   113.09513919
_cell_angle_gamma   98.65721924
_symmetry_Int_Tables_number   1
_chemical_formula_structural   CsVZn(PO3)6
_chemical_formula_sum   'Cs2 V2 Zn2 P12 O36'
_cell_volume   985.05758812
_cell_formula_units_Z   2
loop_
 _symmetry_equiv_pos_site_id
 _symmetry_equiv_pos_as_xyz
  1  'x, y, z'
loop_
 _atom_site_type_symbol
 _atom_site_label
 _atom_site_symmetry_multiplicity
 _atom_site_fract_x
 _atom_site_fract_y
 _atom_site_fract_z
 _atom_site_occupancy
  Cs  Cs0  1  0.205225  0.794775  0.254945  1
  Cs  Cs1  1  0.794775  0.205225  0.745055  1
  V  V2  1  0.719214  0.719214  0.000000  1
  V  V3  1  0.280786  0.280786  0.000000  1
  Zn  Zn4  1  0.770676  0.770676  0.500000  1
  Zn  Zn5  1  0.229324  0.229324  0.500000  1
  P  P6  1  0.474944  0.751790  0.707817  1
  P  P7  1  0.248210  0.525056  0.707817  1
  P  P8  1  0.085589  0.534933  0.792936  1
  P  P9  1  0.465067  0.914411  0.792936  1
  P  P10  1  0.260029  0.962661  0.793221  1
  P  P11  1  0.037339  0.739971  0.793221  1
  P  P12  1  0.739971  0.037339  0.206779  1
  P  P13  1  0.962661  0.260029  0.206779  1
  P  P14  1  0.534933  0.085589  0.207064  1
  P  P15  1  0.914411  0.465067  0.207064  1
  P  P16  1  0.751790  0.474944  0.292183  1
  P  P17  1  0.525056  0.248210  0.292183  1
  O  O18  1  0.626875  0.699952  0.815840  1
  O  O19  1  0.300048  0.373125  0.815840  1
  O  O20  1  0.371136  0.628864  0.767422  1
  O  O21  1  0.396208  0.446266  0.433314  1
  O  O22  1  0.553734  0.603792  0.433314  1
  O  O23  1  0.180092  0.445841  0.951871  1
  O  O24  1  0.554159  0.819908  0.951871  1
  O  O25  1  0.208932  0.549955  0.555371  1
  O  O26  1  0.450045  0.791068  0.555371  1
  O  O27  1  0.271845  0.947239  0.936637  1
  O  O28  1  0.052761  0.728155  0.936637  1
  O  O29  1  0.947066  0.476363  0.723311  1
  O  O30  1  0.523637  0.052934  0.723311  1
  O  O31  1  0.863552  0.825098  0.074892  1
  O  O32  1  0.174902  0.136448  0.074892  1
  O  O33  1  0.145700  0.854300  0.727486  1
  O  O34  1  0.890585  0.779211  0.673158  1
  O  O35  1  0.220789  0.109415  0.673158  1
  O  O36  1  0.779211  0.890585  0.326842  1
  O  O37  1  0.109415  0.220789  0.326842  1
  O  O38  1  0.854300  0.145700  0.272514  1
  O  O39  1  0.825098  0.863552  0.925108  1
  O  O40  1  0.136448  0.174902  0.925108  1
  O  O41  1  0.476363  0.947066  0.276689  1
  O  O42  1  0.052934  0.523637  0.276689  1
  O  O43  1  0.947239  0.271845  0.063363  1
  O  O44  1  0.728155  0.052761  0.063363  1
  O  O45  1  0.549955  0.208932  0.444629  1
  O  O46  1  0.791068  0.450045  0.444629  1
  O  O47  1  0.445841  0.180092  0.048129  1
  O  O48  1  0.819908  0.554159  0.048129  1
  O  O49  1  0.446266  0.396208  0.566686  1
  O  O50  1  0.603792  0.553734  0.566686  1
  O  O51  1  0.628864  0.371136  0.232578  1
  O  O52  1  0.373125  0.300048  0.184160  1
  O  O53  1  0.699952  0.626875  0.184160  1
