# generated using pymatgen
data_TaCrO4
_symmetry_space_group_name_H-M   'P 1'
_cell_length_a   4.67517022
_cell_length_b   4.67517022
_cell_length_c   3.09397162
_cell_angle_alpha   90.00000000
_cell_angle_beta   90.00000000
_cell_angle_gamma   91.20377253
_symmetry_Int_Tables_number   1
_chemical_formula_structural   TaCrO4
_chemical_formula_sum   'Ta1 Cr1 O4'
_cell_volume   67.61068319
_cell_formula_units_Z   1
loop_
 _symmetry_equiv_pos_site_id
 _symmetry_equiv_pos_as_xyz
  1  'x, y, z'
loop_
 _atom_site_type_symbol
 _atom_site_label
 _atom_site_symmetry_multiplicity
 _atom_site_fract_x
 _atom_site_fract_y
 _atom_site_fract_z
 _atom_site_occupancy
  Ta  Ta0  1  0.500000  0.500000  0.000000  1
  Cr  Cr1  1  0.000000  0.000000  0.500000  1
  O  O2  1  0.693676  0.306324  0.500000  1
  O  O3  1  0.801865  0.801865  0.000000  1
  O  O4  1  0.306324  0.693676  0.500000  1
  O  O5  1  0.198135  0.198135  1.000000  1
