# generated using pymatgen
data_Ca2Bi10O17
_symmetry_space_group_name_H-M   'P 1'
_cell_length_a   7.87911168
_cell_length_b   7.87911168
_cell_length_c   9.87009885
_cell_angle_alpha   80.72100913
_cell_angle_beta   99.27899087
_cell_angle_gamma   118.21889633
_symmetry_Int_Tables_number   1
_chemical_formula_structural   Ca2Bi10O17
_chemical_formula_sum   'Ca2 Bi10 O17'
_cell_volume   530.29774526
_cell_formula_units_Z   1
loop_
 _symmetry_equiv_pos_site_id
 _symmetry_equiv_pos_as_xyz
  1  'x, y, z'
loop_
 _atom_site_type_symbol
 _atom_site_label
 _atom_site_symmetry_multiplicity
 _atom_site_fract_x
 _atom_site_fract_y
 _atom_site_fract_z
 _atom_site_occupancy
  Ca  Ca0  1  0.004566  0.995434  0.016603  1
  Ca  Ca1  1  0.503272  0.496728  0.020531  1
  Bi  Bi2  1  0.875744  0.124256  0.318390  1
  Bi  Bi3  1  0.377498  0.622502  0.320658  1
  Bi  Bi4  1  0.651354  0.876652  0.686035  1
  Bi  Bi5  1  0.123348  0.348646  0.686035  1
  Bi  Bi6  1  0.998573  0.499533  0.017334  1
  Bi  Bi7  1  0.500467  0.001427  0.017334  1
  Bi  Bi8  1  0.903903  0.631392  0.324572  1
  Bi  Bi9  1  0.368608  0.096097  0.324572  1
  Bi  Bi10  1  0.609466  0.390534  0.676444  1
  Bi  Bi11  1  0.147439  0.852561  0.682259  1
  O  O12  1  0.834184  0.165816  0.099229  1
  O  O13  1  0.338750  0.661250  0.097992  1
  O  O14  1  0.381770  0.618230  0.707387  1
  O  O15  1  0.045085  0.443648  0.268614  1
  O  O16  1  0.556352  0.954915  0.268614  1
  O  O17  1  0.689899  0.856271  0.898079  1
  O  O18  1  0.143729  0.310101  0.898079  1
  O  O19  1  0.222067  0.777933  0.395458  1
  O  O20  1  0.764050  0.235950  0.655608  1
  O  O21  1  0.870700  0.653490  0.105936  1
  O  O22  1  0.346510  0.129300  0.105936  1
  O  O23  1  0.541181  0.458819  0.275968  1
  O  O24  1  0.640036  0.359964  0.893114  1
  O  O25  1  0.149857  0.850143  0.893490  1
  O  O26  1  0.027062  0.972938  0.277611  1
  O  O27  1  0.260201  0.164372  0.642416  1
  O  O28  1  0.835628  0.739799  0.642416  1
