# generated using pymatgen
data_Li3Sn3(PO4)4
_symmetry_space_group_name_H-M   'P 1'
_cell_length_a   8.63413594
_cell_length_b   9.23073243
_cell_length_c   13.40109803
_cell_angle_alpha   92.56704394
_cell_angle_beta   90.76337495
_cell_angle_gamma   90.97658556
_symmetry_Int_Tables_number   1
_chemical_formula_structural   Li3Sn3(PO4)4
_chemical_formula_sum   'Li9 Sn9 P12 O48'
_cell_volume   1066.72657365
_cell_formula_units_Z   3
loop_
 _symmetry_equiv_pos_site_id
 _symmetry_equiv_pos_as_xyz
  1  'x, y, z'
loop_
 _atom_site_type_symbol
 _atom_site_label
 _atom_site_symmetry_multiplicity
 _atom_site_fract_x
 _atom_site_fract_y
 _atom_site_fract_z
 _atom_site_occupancy
  Li  Li0  1  0.142884  0.235859  0.840570  1
  Li  Li1  1  0.856569  0.102481  0.487964  1
  Li  Li2  1  0.384701  0.738015  0.840630  1
  Li  Li3  1  0.380738  0.405912  0.502841  1
  Li  Li4  1  0.359036  0.052424  0.173824  1
  Li  Li5  1  0.625195  0.925648  0.832060  1
  Li  Li6  1  0.623023  0.595545  0.493257  1
  Li  Li7  1  0.121843  0.575181  0.178407  1
  Li  Li8  1  0.876831  0.761035  0.158508  1
  Sn  Sn9  1  0.481855  0.344044  0.837660  1
  Sn  Sn10  1  0.511469  0.993158  0.495757  1
  Sn  Sn11  1  0.870623  0.449453  0.808545  1
  Sn  Sn12  1  0.003877  0.827306  0.837356  1
  Sn  Sn13  1  0.002422  0.500832  0.495804  1
  Sn  Sn14  1  0.008077  0.166005  0.171874  1
  Sn  Sn15  1  0.624552  0.283030  0.122815  1
  Sn  Sn16  1  0.124621  0.881550  0.525923  1
  Sn  Sn17  1  0.498815  0.671409  0.167439  1
  P  P18  1  0.827603  0.136177  0.937036  1
  P  P19  1  0.302839  0.016176  0.732515  1
  P  P20  1  0.699816  0.662563  0.958099  1
  P  P21  1  0.702009  0.311411  0.596774  1
  P  P22  1  0.198790  0.531887  0.715946  1
  P  P23  1  0.184406  0.188932  0.397079  1
  P  P24  1  0.800671  0.803583  0.615426  1
  P  P25  1  0.812238  0.486210  0.278015  1
  P  P26  1  0.308610  0.672412  0.379846  1
  P  P27  1  0.280523  0.355785  0.063964  1
  P  P28  1  0.693432  0.983276  0.267611  1
  P  P29  1  0.189772  0.851563  0.061666  1
  O  O30  1  0.128005  0.980776  0.758938  1
  O  O31  1  0.653371  0.143581  0.917038  1
  O  O32  1  0.927375  0.246113  0.881964  1
  O  O33  1  0.259535  0.334490  0.951368  1
  O  O34  1  0.325645  0.177613  0.762955  1
  O  O35  1  0.677394  0.496745  0.943742  1
  O  O36  1  0.665659  0.150032  0.564991  1
  O  O37  1  0.702139  0.318845  0.712723  1
  O  O38  1  0.114777  0.400500  0.757955  1
  O  O39  1  0.702765  0.019384  0.381465  1
  O  O40  1  0.073115  0.083566  0.448389  1
  O  O41  1  0.368124  0.546356  0.750555  1
  O  O42  1  0.873933  0.697074  0.932257  1
  O  O43  1  0.354033  0.180083  0.433071  1
  O  O44  1  0.875378  0.335938  0.561071  1
  O  O45  1  0.585472  0.750789  0.901321  1
  O  O46  1  0.189286  0.828891  0.944267  1
  O  O47  1  0.589184  0.414361  0.552284  1
  O  O48  1  0.187927  0.515710  0.597800  1
  O  O49  1  0.581397  0.083557  0.213555  1
  O  O50  1  0.116292  0.675581  0.750119  1
  O  O51  1  0.177015  0.152772  0.280426  1
  O  O52  1  0.131643  0.347546  0.416093  1
  O  O53  1  0.149836  0.014351  0.091314  1
  O  O54  1  0.879524  0.980856  0.911105  1
  O  O55  1  0.879390  0.657546  0.580495  1
  O  O56  1  0.812305  0.819255  0.732567  1
  O  O57  1  0.851209  0.320200  0.251585  1
  O  O58  1  0.417555  0.917998  0.779776  1
  O  O59  1  0.817075  0.511846  0.394888  1
  O  O60  1  0.421585  0.580963  0.434381  1
  O  O61  1  0.853920  0.162867  0.054088  1
  O  O62  1  0.375291  0.233462  0.108776  1
  O  O63  1  0.133992  0.639937  0.405059  1
  O  O64  1  0.630251  0.795662  0.577246  1
  O  O65  1  0.119130  0.355130  0.118992  1
  O  O66  1  0.636623  0.506613  0.245137  1
  O  O67  1  0.883504  0.934463  0.570846  1
  O  O68  1  0.314900  0.003654  0.614293  1
  O  O69  1  0.919175  0.588392  0.227750  1
  O  O70  1  0.317677  0.641372  0.263077  1
  O  O71  1  0.336859  0.839559  0.399524  1
  O  O72  1  0.365039  0.506092  0.087672  1
  O  O73  1  0.636311  0.822024  0.253478  1
  O  O74  1  0.684561  0.700034  0.074885  1
  O  O75  1  0.081534  0.747138  0.109470  1
  O  O76  1  0.363466  0.836932  0.100702  1
  O  O77  1  0.861993  0.994492  0.223336  1
