# generated using pymatgen
data_Li4V2SiGeO10
_symmetry_space_group_name_H-M   'P 1'
_cell_length_a   6.50553909
_cell_length_b   6.50553909
_cell_length_c   4.57056236
_cell_angle_alpha   90.00000000
_cell_angle_beta   90.00000000
_cell_angle_gamma   90.00000000
_symmetry_Int_Tables_number   1
_chemical_formula_structural   Li4V2SiGeO10
_chemical_formula_sum   'Li4 V2 Si1 Ge1 O10'
_cell_volume   193.43551807
_cell_formula_units_Z   1
loop_
 _symmetry_equiv_pos_site_id
 _symmetry_equiv_pos_as_xyz
  1  'x, y, z'
loop_
 _atom_site_type_symbol
 _atom_site_label
 _atom_site_symmetry_multiplicity
 _atom_site_fract_x
 _atom_site_fract_y
 _atom_site_fract_z
 _atom_site_occupancy
  Li  Li0  1  0.754478  0.754478  0.500000  1
  Li  Li1  1  0.754478  0.245522  0.500000  1
  Li  Li2  1  0.245522  0.754478  0.500000  1
  Li  Li3  1  0.245522  0.245522  0.500000  1
  V  V4  1  0.000000  0.500000  0.090373  1
  V  V5  1  0.500000  0.000000  0.909627  1
  Si  Si6  1  0.000000  0.000000  0.000000  1
  Ge  Ge7  1  0.500000  0.500000  0.000000  1
  O  O8  1  0.795895  0.000000  0.785020  1
  O  O9  1  0.000000  0.500000  0.722981  1
  O  O10  1  0.000000  0.204105  0.214980  1
  O  O11  1  0.000000  0.795895  0.214980  1
  O  O12  1  0.204105  0.000000  0.785020  1
  O  O13  1  0.285064  0.500000  0.236774  1
  O  O14  1  0.500000  0.714936  0.763226  1
  O  O15  1  0.500000  0.285064  0.763226  1
  O  O16  1  0.500000  0.000000  0.277019  1
  O  O17  1  0.714936  0.500000  0.236774  1
