# generated using pymatgen
data_Li3SiBiO5
_symmetry_space_group_name_H-M   'P 1'
_cell_length_a   5.28622482
_cell_length_b   5.51991132
_cell_length_c   16.59562286
_cell_angle_alpha   90.00000000
_cell_angle_beta   90.00000000
_cell_angle_gamma   90.00000000
_symmetry_Int_Tables_number   1
_chemical_formula_structural   Li3SiBiO5
_chemical_formula_sum   'Li12 Si4 Bi4 O20'
_cell_volume   484.25184820
_cell_formula_units_Z   4
loop_
 _symmetry_equiv_pos_site_id
 _symmetry_equiv_pos_as_xyz
  1  'x, y, z'
loop_
 _atom_site_type_symbol
 _atom_site_label
 _atom_site_symmetry_multiplicity
 _atom_site_fract_x
 _atom_site_fract_y
 _atom_site_fract_z
 _atom_site_occupancy
  Li  Li0  1  0.997519  0.662562  0.578064  1
  Li  Li1  1  0.997519  0.162562  0.921936  1
  Li  Li2  1  0.515398  0.325323  0.984292  1
  Li  Li3  1  0.515398  0.825323  0.515708  1
  Li  Li4  1  0.482327  0.297755  0.806539  1
  Li  Li5  1  0.482327  0.797755  0.693461  1
  Li  Li6  1  0.497519  0.337438  0.421936  1
  Li  Li7  1  0.497519  0.837438  0.078064  1
  Li  Li8  1  0.015398  0.674677  0.015708  1
  Li  Li9  1  0.015398  0.174677  0.484292  1
  Li  Li10  1  0.982327  0.202245  0.306539  1
  Li  Li11  1  0.982327  0.702245  0.193461  1
  Si  Si12  1  0.005413  0.167614  0.094010  1
  Si  Si13  1  0.005413  0.667614  0.405990  1
  Si  Si14  1  0.505413  0.332386  0.594010  1
  Si  Si15  1  0.505413  0.832386  0.905990  1
  Bi  Bi16  1  0.034595  0.181403  0.682763  1
  Bi  Bi17  1  0.034595  0.681403  0.817237  1
  Bi  Bi18  1  0.534595  0.318597  0.182763  1
  Bi  Bi19  1  0.534595  0.818597  0.317237  1
  O  O20  1  0.103398  0.295196  0.811240  1
  O  O21  1  0.103398  0.795196  0.688760  1
  O  O22  1  0.130624  0.400706  0.392081  1
  O  O23  1  0.130624  0.900706  0.107919  1
  O  O24  1  0.151494  0.335765  0.027478  1
  O  O25  1  0.151494  0.835765  0.472522  1
  O  O26  1  0.975182  0.316063  0.184352  1
  O  O27  1  0.975182  0.816063  0.315648  1
  O  O28  1  0.199052  0.354878  0.569703  1
  O  O29  1  0.199052  0.854878  0.930297  1
  O  O30  1  0.603398  0.204804  0.311240  1
  O  O31  1  0.603398  0.704804  0.188760  1
  O  O32  1  0.630624  0.099294  0.892081  1
  O  O33  1  0.630624  0.599294  0.607919  1
  O  O34  1  0.651494  0.164235  0.527478  1
  O  O35  1  0.651494  0.664235  0.972522  1
  O  O36  1  0.475182  0.183937  0.684352  1
  O  O37  1  0.475182  0.683937  0.815648  1
  O  O38  1  0.699052  0.145122  0.069703  1
  O  O39  1  0.699052  0.645122  0.430297  1
