# generated using pymatgen
data_Li2Cr(Si2O5)2
_symmetry_space_group_name_H-M   'P 1'
_cell_length_a   6.93969129
_cell_length_b   7.61031792
_cell_length_c   9.70641696
_cell_angle_alpha   100.53401152
_cell_angle_beta   102.08096693
_cell_angle_gamma   116.61644470
_symmetry_Int_Tables_number   1
_chemical_formula_structural   Li2Cr(Si2O5)2
_chemical_formula_sum   'Li4 Cr2 Si8 O20'
_cell_volume   425.13185633
_cell_formula_units_Z   2
loop_
 _symmetry_equiv_pos_site_id
 _symmetry_equiv_pos_as_xyz
  1  'x, y, z'
loop_
 _atom_site_type_symbol
 _atom_site_label
 _atom_site_symmetry_multiplicity
 _atom_site_fract_x
 _atom_site_fract_y
 _atom_site_fract_z
 _atom_site_occupancy
  Li  Li0  1  0.382146  0.251040  0.051897  1
  Li  Li1  1  0.222918  0.686101  0.571218  1
  Li  Li2  1  0.777082  0.313899  0.428782  1
  Li  Li3  1  0.617854  0.748960  0.948103  1
  Cr  Cr4  1  0.238263  0.286252  0.429019  1
  Cr  Cr5  1  0.761737  0.713748  0.570981  1
  Si  Si6  1  0.242387  0.948101  0.184272  1
  Si  Si7  1  0.396948  0.650044  0.259111  1
  Si  Si8  1  0.806965  0.611562  0.238449  1
  Si  Si9  1  0.902349  0.279055  0.146246  1
  Si  Si10  1  0.097651  0.720945  0.853754  1
  Si  Si11  1  0.193035  0.388438  0.761551  1
  Si  Si12  1  0.603052  0.349956  0.740889  1
  Si  Si13  1  0.757613  0.051899  0.815728  1
  O  O14  1  0.213198  0.923050  0.005007  1
  O  O15  1  0.147644  0.457834  0.143694  1
  O  O16  1  0.416818  0.871113  0.251533  1
  O  O17  1  0.572771  0.621298  0.177154  1
  O  O18  1  0.992150  0.797049  0.194137  1
  O  O19  1  0.732924  0.380741  0.126599  1
  O  O20  1  0.448328  0.645943  0.427657  1
  O  O21  1  0.340978  0.190010  0.257874  1
  O  O22  1  0.075555  0.781197  0.704658  1
  O  O23  1  0.118104  0.381324  0.591512  1
  O  O24  1  0.881896  0.618676  0.408488  1
  O  O25  1  0.924445  0.218803  0.295342  1
  O  O26  1  0.659022  0.809990  0.742126  1
  O  O27  1  0.551672  0.354057  0.572343  1
  O  O28  1  0.267076  0.619259  0.873401  1
  O  O29  1  0.007850  0.202951  0.805863  1
  O  O30  1  0.427229  0.378702  0.822846  1
  O  O31  1  0.583182  0.128887  0.748467  1
  O  O32  1  0.852356  0.542166  0.856306  1
  O  O33  1  0.786802  0.076950  0.994993  1
