# generated using pymatgen
data_V2Co(PO4)3
_symmetry_space_group_name_H-M   'P 1'
_cell_length_a   8.54212616
_cell_length_b   8.54212616
_cell_length_c   8.54212616
_cell_angle_alpha   60.45547609
_cell_angle_beta   60.45547609
_cell_angle_gamma   60.45547609
_symmetry_Int_Tables_number   1
_chemical_formula_structural   V2Co(PO4)3
_chemical_formula_sum   'V4 Co2 P6 O24'
_cell_volume   445.27865888
_cell_formula_units_Z   2
loop_
 _symmetry_equiv_pos_site_id
 _symmetry_equiv_pos_as_xyz
  1  'x, y, z'
loop_
 _atom_site_type_symbol
 _atom_site_label
 _atom_site_symmetry_multiplicity
 _atom_site_fract_x
 _atom_site_fract_y
 _atom_site_fract_z
 _atom_site_occupancy
  V  V0  1  0.642935  0.642935  0.642935  1
  V  V1  1  0.142935  0.142935  0.142935  1
  V  V2  1  0.857065  0.857065  0.857065  1
  V  V3  1  0.357065  0.357065  0.357065  1
  Co  Co4  1  0.000000  0.000000  0.000000  1
  Co  Co5  1  0.500000  0.500000  0.500000  1
  P  P6  1  0.542598  0.957402  0.250000  1
  P  P7  1  0.250000  0.542598  0.957402  1
  P  P8  1  0.957402  0.250000  0.542598  1
  P  P9  1  0.042598  0.750000  0.457402  1
  P  P10  1  0.750000  0.457402  0.042598  1
  P  P11  1  0.457402  0.042598  0.750000  1
  O  O12  1  0.310745  0.505232  0.117189  1
  O  O13  1  0.117189  0.310745  0.505232  1
  O  O14  1  0.505232  0.117189  0.310745  1
  O  O15  1  0.738886  0.942354  0.086738  1
  O  O16  1  0.382811  0.994768  0.189255  1
  O  O17  1  0.557646  0.761114  0.413262  1
  O  O18  1  0.086738  0.738886  0.942354  1
  O  O19  1  0.413262  0.557646  0.761114  1
  O  O20  1  0.005232  0.810745  0.617189  1
  O  O21  1  0.761114  0.413262  0.557646  1
  O  O22  1  0.057646  0.913262  0.261114  1
  O  O23  1  0.810745  0.617189  0.005232  1
  O  O24  1  0.189255  0.382811  0.994768  1
  O  O25  1  0.942354  0.086738  0.738886  1
  O  O26  1  0.238886  0.586738  0.442354  1
  O  O27  1  0.994768  0.189255  0.382811  1
  O  O28  1  0.586738  0.442354  0.238886  1
  O  O29  1  0.913262  0.261114  0.057646  1
  O  O30  1  0.442354  0.238886  0.586738  1
  O  O31  1  0.617189  0.005232  0.810745  1
  O  O32  1  0.261114  0.057646  0.913262  1
  O  O33  1  0.494768  0.882811  0.689255  1
  O  O34  1  0.882811  0.689255  0.494768  1
  O  O35  1  0.689255  0.494768  0.882811  1
