# generated using pymatgen
data_SrLaBr5
_symmetry_space_group_name_H-M   'P 1'
_cell_length_a   7.96440123
_cell_length_b   4.41174248
_cell_length_c   13.96589247
_cell_angle_alpha   90.00000000
_cell_angle_beta   93.30910554
_cell_angle_gamma   90.00000000
_symmetry_Int_Tables_number   1
_chemical_formula_structural   SrLaBr5
_chemical_formula_sum   'Sr2 La2 Br10'
_cell_volume   489.89979304
_cell_formula_units_Z   2
loop_
 _symmetry_equiv_pos_site_id
 _symmetry_equiv_pos_as_xyz
  1  'x, y, z'
loop_
 _atom_site_type_symbol
 _atom_site_label
 _atom_site_symmetry_multiplicity
 _atom_site_fract_x
 _atom_site_fract_y
 _atom_site_fract_z
 _atom_site_occupancy
  Sr  Sr0  1  0.457023  0.750000  0.646894  1
  Sr  Sr1  1  0.542977  0.250000  0.353106  1
  La  La2  1  0.049614  0.250000  0.839847  1
  La  La3  1  0.950386  0.750000  0.160153  1
  Br  Br4  1  0.046624  0.750000  0.685363  1
  Br  Br5  1  0.148676  0.250000  0.064563  1
  Br  Br6  1  0.303063  0.250000  0.521776  1
  Br  Br7  1  0.325890  0.750000  0.878436  1
  Br  Br8  1  0.316933  0.750000  0.260782  1
  Br  Br9  1  0.683067  0.250000  0.739218  1
  Br  Br10  1  0.674110  0.250000  0.121564  1
  Br  Br11  1  0.696937  0.750000  0.478224  1
  Br  Br12  1  0.851324  0.750000  0.935437  1
  Br  Br13  1  0.953376  0.250000  0.314637  1
