# generated using pymatgen
data_LiFeSiO4
_symmetry_space_group_name_H-M   'P 1'
_cell_length_a   8.62420088
_cell_length_b   8.62420088
_cell_length_c   8.62420088
_cell_angle_alpha   107.78011157
_cell_angle_beta   107.78011157
_cell_angle_gamma   107.78011157
_symmetry_Int_Tables_number   1
_chemical_formula_structural   LiFeSiO4
_chemical_formula_sum   'Li6 Fe6 Si6 O24'
_cell_volume   522.41325990
_cell_formula_units_Z   6
loop_
 _symmetry_equiv_pos_site_id
 _symmetry_equiv_pos_as_xyz
  1  'x, y, z'
loop_
 _atom_site_type_symbol
 _atom_site_label
 _atom_site_symmetry_multiplicity
 _atom_site_fract_x
 _atom_site_fract_y
 _atom_site_fract_z
 _atom_site_occupancy
  Li  Li0  1  0.724371  0.893123  0.126558  1
  Li  Li1  1  0.607321  0.433597  0.210946  1
  Li  Li2  1  0.210946  0.607321  0.433597  1
  Li  Li3  1  0.126558  0.724371  0.893123  1
  Li  Li4  1  0.433597  0.210946  0.607321  1
  Li  Li5  1  0.893123  0.126558  0.724371  1
  Fe  Fe6  1  0.234288  0.458353  0.054510  1
  Fe  Fe7  1  0.945155  0.768436  0.534311  1
  Fe  Fe8  1  0.534311  0.945155  0.768436  1
  Fe  Fe9  1  0.458353  0.054510  0.234288  1
  Fe  Fe10  1  0.054510  0.234288  0.458353  1
  Fe  Fe11  1  0.768436  0.534311  0.945155  1
  Si  Si12  1  0.096891  0.873166  0.280585  1
  Si  Si13  1  0.567662  0.795752  0.387596  1
  Si  Si14  1  0.873166  0.280585  0.096891  1
  Si  Si15  1  0.795752  0.387596  0.567662  1
  Si  Si16  1  0.387596  0.567662  0.795752  1
  Si  Si17  1  0.280585  0.096891  0.873166  1
  O  O18  1  0.976052  0.986722  0.307969  1
  O  O19  1  0.007816  0.729573  0.064221  1
  O  O20  1  0.579558  0.908986  0.264873  1
  O  O21  1  0.087400  0.760403  0.404013  1
  O  O22  1  0.635426  0.936226  0.599912  1
  O  O23  1  0.359537  0.635308  0.300858  1
  O  O24  1  0.760403  0.404013  0.087400  1
  O  O25  1  0.702343  0.696246  0.377635  1
  O  O26  1  0.351977  0.306369  0.020538  1
  O  O27  1  0.729573  0.064221  0.007816  1
  O  O28  1  0.020538  0.351977  0.306369  1
  O  O29  1  0.377635  0.702343  0.696246  1
  O  O30  1  0.307969  0.976052  0.986722  1
  O  O31  1  0.936226  0.599912  0.635426  1
  O  O32  1  0.635308  0.300858  0.359537  1
  O  O33  1  0.300858  0.359537  0.635308  1
  O  O34  1  0.599912  0.635426  0.936226  1
  O  O35  1  0.908986  0.264873  0.579558  1
  O  O36  1  0.696246  0.377635  0.702343  1
  O  O37  1  0.306369  0.020538  0.351977  1
  O  O38  1  0.264873  0.579558  0.908986  1
  O  O39  1  0.986722  0.307969  0.976052  1
  O  O40  1  0.404013  0.087400  0.760403  1
  O  O41  1  0.064221  0.007816  0.729573  1
