# generated using pymatgen
data_Ba4Y2Cu5O14
_symmetry_space_group_name_H-M   'P 1'
_cell_length_a   5.49651945
_cell_length_b   5.49651945
_cell_length_c   12.70226801
_cell_angle_alpha   77.60329735
_cell_angle_beta   102.39670265
_cell_angle_gamma   89.82181327
_symmetry_Int_Tables_number   1
_chemical_formula_structural   Ba4Y2Cu5O14
_chemical_formula_sum   'Ba4 Y2 Cu5 O14'
_cell_volume   365.58398968
_cell_formula_units_Z   1
loop_
 _symmetry_equiv_pos_site_id
 _symmetry_equiv_pos_as_xyz
  1  'x, y, z'
loop_
 _atom_site_type_symbol
 _atom_site_label
 _atom_site_symmetry_multiplicity
 _atom_site_fract_x
 _atom_site_fract_y
 _atom_site_fract_z
 _atom_site_occupancy
  Ba  Ba0  1  0.598152  0.901525  0.198443  1
  Ba  Ba1  1  0.903697  0.596314  0.809987  1
  Ba  Ba2  1  0.098475  0.401848  0.198443  1
  Ba  Ba3  1  0.403686  0.096303  0.809987  1
  Y  Y4  1  0.744680  0.755419  0.490015  1
  Y  Y5  1  0.244581  0.255320  0.490015  1
  Cu  Cu6  1  0.995309  0.004691  0.993984  1
  Cu  Cu7  1  0.497422  0.502578  0.998009  1
  Cu  Cu8  1  0.820497  0.179503  0.642238  1
  Cu  Cu9  1  0.319864  0.680136  0.640915  1
  Cu  Cu10  1  0.688016  0.311984  0.376805  1
  O  O11  1  0.235992  0.263161  0.999745  1
  O  O12  1  0.454292  0.072965  0.382153  1
  O  O13  1  0.575262  0.424738  0.149693  1
  O  O14  1  0.453523  0.546477  0.381780  1
  O  O15  1  0.736839  0.764008  0.999745  1
  O  O16  1  0.061266  0.441161  0.621688  1
  O  O17  1  0.927035  0.545708  0.382153  1
  O  O18  1  0.920232  0.079768  0.840501  1
  O  O19  1  0.072569  0.927431  0.144254  1
  O  O20  1  0.061529  0.938471  0.622381  1
  O  O21  1  0.927466  0.072534  0.381805  1
  O  O22  1  0.558839  0.938734  0.621688  1
  O  O23  1  0.422496  0.577504  0.844471  1
  O  O24  1  0.559719  0.440281  0.622382  1
