# generated using pymatgen
data_Li2NiO2F
_symmetry_space_group_name_H-M   'P 1'
_cell_length_a   5.02067006
_cell_length_b   5.02067006
_cell_length_c   9.54962844
_cell_angle_alpha   70.27073736
_cell_angle_beta   109.72926264
_cell_angle_gamma   108.90700454
_symmetry_Int_Tables_number   1
_chemical_formula_structural   Li2NiO2F
_chemical_formula_sum   'Li8 Ni4 O8 F4'
_cell_volume   207.20545971
_cell_formula_units_Z   4
loop_
 _symmetry_equiv_pos_site_id
 _symmetry_equiv_pos_as_xyz
  1  'x, y, z'
loop_
 _atom_site_type_symbol
 _atom_site_label
 _atom_site_symmetry_multiplicity
 _atom_site_fract_x
 _atom_site_fract_y
 _atom_site_fract_z
 _atom_site_occupancy
  Li  Li0  1  0.490979  0.260731  0.994665  1
  Li  Li1  1  0.406514  0.836815  0.832066  1
  Li  Li2  1  0.347687  0.416070  0.669738  1
  Li  Li3  1  0.272208  0.013697  0.495446  1
  Li  Li4  1  0.739269  0.509021  0.494665  1
  Li  Li5  1  0.163185  0.593486  0.332066  1
  Li  Li6  1  0.583930  0.652313  0.169738  1
  Li  Li7  1  0.986303  0.727792  0.995446  1
  Ni  Ni8  1  0.907302  0.321910  0.834318  1
  Ni  Ni9  1  0.825419  0.919462  0.672281  1
  Ni  Ni10  1  0.678090  0.092698  0.334318  1
  Ni  Ni11  1  0.080538  0.174581  0.172281  1
  O  O12  1  0.120280  0.079703  0.824432  1
  O  O13  1  0.681592  0.563370  0.825883  1
  O  O14  1  0.617998  0.176066  0.674492  1
  O  O15  1  0.550145  0.796298  0.500420  1
  O  O16  1  0.436630  0.318408  0.325883  1
  O  O17  1  0.920297  0.879720  0.324432  1
  O  O18  1  0.823934  0.382002  0.174492  1
  O  O19  1  0.203702  0.449855  0.000420  1
  F  F20  1  0.100311  0.691179  0.664921  1
  F  F21  1  0.030690  0.283680  0.501107  1
  F  F22  1  0.308821  0.899689  0.164921  1
  F  F23  1  0.716320  0.969310  0.001107  1
