# generated using pymatgen
data_LiAg2F4
_symmetry_space_group_name_H-M   'P 1'
_cell_length_a   7.34706669
_cell_length_b   7.34706669
_cell_length_c   7.34706669
_cell_angle_alpha   133.20821331
_cell_angle_beta   133.20821331
_cell_angle_gamma   68.32735025
_symmetry_Int_Tables_number   1
_chemical_formula_structural   LiAg2F4
_chemical_formula_sum   'Li2 Ag4 F8'
_cell_volume   206.96523032
_cell_formula_units_Z   2
loop_
 _symmetry_equiv_pos_site_id
 _symmetry_equiv_pos_as_xyz
  1  'x, y, z'
loop_
 _atom_site_type_symbol
 _atom_site_label
 _atom_site_symmetry_multiplicity
 _atom_site_fract_x
 _atom_site_fract_y
 _atom_site_fract_z
 _atom_site_occupancy
  Li  Li0  1  0.750000  0.250000  0.500000  1
  Li  Li1  1  0.000000  0.000000  0.000000  1
  Ag  Ag2  1  0.875000  0.625000  0.250000  1
  Ag  Ag3  1  0.375000  0.625000  0.750000  1
  Ag  Ag4  1  0.375000  0.125000  0.750000  1
  Ag  Ag5  1  0.375000  0.625000  0.250000  1
  F  F6  1  0.963266  0.988707  0.406200  1
  F  F7  1  0.167493  0.692934  0.906200  1
  F  F8  1  0.442934  0.036734  0.025441  1
  F  F9  1  0.738707  0.832507  0.525441  1
  F  F10  1  0.011293  0.417493  0.974559  1
  F  F11  1  0.307066  0.213266  0.474559  1
  F  F12  1  0.582507  0.557066  0.593800  1
  F  F13  1  0.786734  0.261293  0.093800  1
