# generated using pymatgen
data_LiPH21S3N7
_symmetry_space_group_name_H-M   'P 1'
_cell_length_a   7.25208394
_cell_length_b   7.41591203
_cell_length_c   13.32009219
_cell_angle_alpha   87.72964579
_cell_angle_beta   89.12776935
_cell_angle_gamma   74.11162498
_symmetry_Int_Tables_number   1
_chemical_formula_structural   LiPH21S3N7
_chemical_formula_sum   'Li2 P2 H42 S6 N14'
_cell_volume   688.45004810
_cell_formula_units_Z   2
loop_
 _symmetry_equiv_pos_site_id
 _symmetry_equiv_pos_as_xyz
  1  'x, y, z'
loop_
 _atom_site_type_symbol
 _atom_site_label
 _atom_site_symmetry_multiplicity
 _atom_site_fract_x
 _atom_site_fract_y
 _atom_site_fract_z
 _atom_site_occupancy
  Li  Li0  1  0.435311  0.220928  0.091023  1
  Li  Li1  1  0.564689  0.779072  0.908977  1
  P  P2  1  0.043582  0.809399  0.697536  1
  P  P3  1  0.956418  0.190601  0.302464  1
  H  H4  1  0.087335  0.280728  0.056232  1
  H  H5  1  0.178462  0.150038  0.961071  1
  H  H6  1  0.044603  0.705814  0.467465  1
  H  H7  1  0.063415  0.745481  0.341176  1
  H  H8  1  0.109558  0.521780  0.391018  1
  H  H9  1  0.158364  0.374210  0.953589  1
  H  H10  1  0.365681  0.043337  0.790411  1
  H  H11  1  0.267918  0.553266  0.176838  1
  H  H12  1  0.320414  0.370827  0.254075  1
  H  H13  1  0.268620  0.654832  0.409627  1
  H  H14  1  0.229347  0.757599  0.934203  1
  H  H15  1  0.193755  0.930563  0.566607  1
  H  H16  1  0.264043  0.837218  0.044086  1
  H  H17  1  0.346804  0.613475  0.022363  1
  H  H18  1  0.388510  0.400996  0.630541  1
  H  H19  1  0.472030  0.148090  0.868051  1
  H  H20  1  0.447901  0.338212  0.514360  1
  H  H21  1  0.351243  0.801054  0.649938  1
  H  H22  1  0.521186  0.186050  0.607577  1
  H  H23  1  0.492957  0.466054  0.214596  1
  H  H24  1  0.599697  0.027329  0.777471  1
  H  H25  1  0.400303  0.972671  0.222529  1
  H  H26  1  0.507043  0.533946  0.785404  1
  H  H27  1  0.478814  0.813950  0.392423  1
  H  H28  1  0.648757  0.198946  0.350062  1
  H  H29  1  0.552099  0.661788  0.485640  1
  H  H30  1  0.527970  0.851910  0.131949  1
  H  H31  1  0.611490  0.599004  0.369459  1
  H  H32  1  0.653196  0.386525  0.977637  1
  H  H33  1  0.735957  0.162782  0.955914  1
  H  H34  1  0.806245  0.069437  0.433393  1
  H  H35  1  0.770653  0.242401  0.065797  1
  H  H36  1  0.731380  0.345168  0.590373  1
  H  H37  1  0.679586  0.629173  0.745925  1
  H  H38  1  0.732082  0.446734  0.823162  1
  H  H39  1  0.634319  0.956663  0.209589  1
  H  H40  1  0.841636  0.625790  0.046411  1
  H  H41  1  0.890442  0.478220  0.608982  1
  H  H42  1  0.936585  0.254519  0.658824  1
  H  H43  1  0.955397  0.294186  0.532535  1
  H  H44  1  0.821538  0.849962  0.038929  1
  H  H45  1  0.912665  0.719272  0.943768  1
  S  S46  1  0.183216  0.174222  0.396678  1
  S  S47  1  0.005619  0.968801  0.209762  1
  S  S48  1  0.134065  0.558079  0.772259  1
  S  S49  1  0.865935  0.441921  0.227741  1
  S  S50  1  0.994381  0.031199  0.790238  1
  S  S51  1  0.816784  0.825778  0.603322  1
  N  N52  1  0.192759  0.259274  0.002208  1
  N  N53  1  0.120159  0.656235  0.402695  1
  N  N54  1  0.224540  0.813537  0.614354  1
  N  N55  1  0.371693  0.431664  0.192998  1
  N  N56  1  0.491583  0.029444  0.828242  1
  N  N57  1  0.328225  0.744787  0.990428  1
  N  N58  1  0.497697  0.324664  0.586501  1
  N  N59  1  0.502303  0.675336  0.413499  1
  N  N60  1  0.671775  0.255213  0.009572  1
  N  N61  1  0.508417  0.970556  0.171758  1
  N  N62  1  0.628307  0.568336  0.807002  1
  N  N63  1  0.775460  0.186463  0.385646  1
  N  N64  1  0.879841  0.343765  0.597305  1
  N  N65  1  0.807241  0.740726  0.997792  1
