# generated using pymatgen
data_Rb14Na3Al17Si31O96
_symmetry_space_group_name_H-M   'P 1'
_cell_length_a   17.60675411
_cell_length_b   17.69619561
_cell_length_c   17.86837793
_cell_angle_alpha   60.48014597
_cell_angle_beta   60.58391010
_cell_angle_gamma   60.75125334
_symmetry_Int_Tables_number   1
_chemical_formula_structural   Rb14Na3Al17Si31O96
_chemical_formula_sum   'Rb14 Na3 Al17 Si31 O96'
_cell_volume   3990.42625953
_cell_formula_units_Z   1
loop_
 _symmetry_equiv_pos_site_id
 _symmetry_equiv_pos_as_xyz
  1  'x, y, z'
loop_
 _atom_site_type_symbol
 _atom_site_label
 _atom_site_symmetry_multiplicity
 _atom_site_fract_x
 _atom_site_fract_y
 _atom_site_fract_z
 _atom_site_occupancy
  Rb  Rb0  1  0.256932  0.256532  0.249923  1
  Rb  Rb1  1  0.249852  0.734561  0.261036  1
  Rb  Rb2  1  0.738147  0.254217  0.263381  1
  Rb  Rb3  1  0.263722  0.265267  0.743281  1
  Rb  Rb4  1  0.739775  0.738414  0.274937  1
  Rb  Rb5  1  0.752261  0.253699  0.742276  1
  Rb  Rb6  1  0.256625  0.753279  0.742971  1
  Rb  Rb7  1  0.977324  0.413267  0.685009  1
  Rb  Rb8  1  0.416742  0.979295  0.685386  1
  Rb  Rb9  1  0.699680  0.407320  0.961987  1
  Rb  Rb10  1  0.409473  0.702900  0.962896  1
  Rb  Rb11  1  0.751867  0.753168  0.743468  1
  Rb  Rb12  1  0.912052  0.738987  0.894292  1
  Rb  Rb13  1  0.933835  0.946788  0.902698  1
  Na  Na14  1  0.014524  0.477956  0.001811  1
  Na  Na15  1  0.527711  0.007365  0.974082  1
  Na  Na16  1  0.977553  0.976764  0.568973  1
  Al  Al17  1  0.850865  0.399559  0.219584  1
  Al  Al18  1  0.217421  0.400815  0.855079  1
  Al  Al19  1  0.401314  0.215996  0.854512  1
  Al  Al20  1  0.153917  0.969280  0.597712  1
  Al  Al21  1  0.970854  0.152991  0.597114  1
  Al  Al22  1  0.153552  0.965439  0.776629  1
  Al  Al23  1  0.966021  0.153649  0.776050  1
  Al  Al24  1  0.150373  0.602509  0.964207  1
  Al  Al25  1  0.601167  0.151390  0.964925  1
  Al  Al26  1  0.147369  0.782948  0.964153  1
  Al  Al27  1  0.782578  0.147907  0.963782  1
  Al  Al28  1  0.780389  0.965058  0.599509  1
  Al  Al29  1  0.967930  0.778212  0.598115  1
  Al  Al30  1  0.603254  0.961388  0.782040  1
  Al  Al31  1  0.962279  0.600752  0.781193  1
  Al  Al32  1  0.599389  0.778242  0.969619  1
  Al  Al33  1  0.777550  0.600065  0.969374  1
  Si  Si34  1  0.391685  0.210221  0.034761  1
  Si  Si35  1  0.212136  0.392167  0.034915  1
  Si  Si36  1  0.396232  0.034293  0.212854  1
  Si  Si37  1  0.033745  0.399473  0.210069  1
  Si  Si38  1  0.036523  0.216695  0.386856  1
  Si  Si39  1  0.214870  0.038241  0.387216  1
  Si  Si40  1  0.867296  0.205568  0.036113  1
  Si  Si41  1  0.204701  0.867765  0.037407  1
  Si  Si42  1  0.388433  0.863458  0.040742  1
  Si  Si43  1  0.860709  0.389649  0.038602  1
  Si  Si44  1  0.030032  0.857345  0.214200  1
  Si  Si45  1  0.856640  0.032044  0.214131  1
  Si  Si46  1  0.036097  0.859241  0.386909  1
  Si  Si47  1  0.860581  0.033349  0.388616  1
  Si  Si48  1  0.602267  0.787012  0.144782  1
  Si  Si49  1  0.780994  0.606026  0.147010  1
  Si  Si50  1  0.396364  0.855245  0.218530  1
  Si  Si51  1  0.214529  0.858556  0.392274  1
  Si  Si52  1  0.856598  0.212855  0.395466  1
  Si  Si53  1  0.603734  0.966681  0.144383  1
  Si  Si54  1  0.964676  0.605515  0.143787  1
  Si  Si55  1  0.033648  0.208966  0.865245  1
  Si  Si56  1  0.209245  0.033247  0.865221  1
  Si  Si57  1  0.783682  0.964223  0.144531  1
  Si  Si58  1  0.963151  0.784823  0.143636  1
  Si  Si59  1  0.030922  0.392573  0.864867  1
  Si  Si60  1  0.392694  0.031912  0.865162  1
  Si  Si61  1  0.146920  0.785433  0.599030  1
  Si  Si62  1  0.787067  0.141887  0.601885  1
  Si  Si63  1  0.144464  0.608458  0.781033  1
  Si  Si64  1  0.608511  0.141683  0.782282  1
  O  O65  1  0.224564  0.489544  0.998660  1
  O  O66  1  0.605415  0.033696  0.042530  1
  O  O67  1  0.031460  0.609147  0.040656  1
  O  O68  1  0.307200  0.306098  0.045996  1
  O  O69  1  0.368915  0.136980  0.141837  1
  O  O70  1  0.140305  0.373744  0.142165  1
  O  O71  1  0.031138  0.813756  0.041960  1
  O  O72  1  0.811724  0.032255  0.042824  1
  O  O73  1  0.499822  0.999678  0.217625  1
  O  O74  1  0.999571  0.502665  0.216643  1
  O  O75  1  0.221601  0.792823  0.000051  1
  O  O76  1  0.792433  0.221083  0.998951  1
  O  O77  1  0.039008  0.318994  0.308282  1
  O  O78  1  0.318243  0.040604  0.310433  1
  O  O79  1  0.141970  0.142832  0.354485  1
  O  O80  1  0.995076  0.785345  0.216903  1
  O  O81  1  0.784637  0.996385  0.216987  1
  O  O82  1  0.223493  0.009073  0.482469  1
  O  O83  1  0.839672  0.306550  0.041102  1
  O  O84  1  0.303207  0.840685  0.049307  1
  O  O85  1  0.133735  0.852801  0.141873  1
  O  O86  1  0.852600  0.135225  0.141186  1
  O  O87  1  0.480275  0.785255  0.006352  1
  O  O88  1  0.787402  0.483584  0.996836  1
  O  O89  1  0.039900  0.038733  0.604002  1
  O  O90  1  0.043109  0.826585  0.310108  1
  O  O91  1  0.827796  0.042503  0.310500  1
  O  O92  1  0.843905  0.371176  0.142255  1
  O  O93  1  0.368801  0.849862  0.146288  1
  O  O94  1  0.597194  0.820465  0.045570  1
  O  O95  1  0.814214  0.606754  0.044549  1
  O  O96  1  0.047462  0.047308  0.802839  1
  O  O97  1  0.499052  0.782533  0.222557  1
  O  O98  1  0.772738  0.508918  0.224538  1
  O  O99  1  0.395221  0.960125  0.183392  1
  O  O100  1  0.964218  0.403877  0.172566  1
  O  O101  1  0.681873  0.688773  0.173412  1
  O  O102  1  0.856829  0.137685  0.364955  1
  O  O103  1  0.143161  0.855419  0.359629  1
  O  O104  1  0.823974  0.312770  0.323086  1
  O  O105  1  0.318377  0.826812  0.317620  1
  O  O106  1  0.856187  0.633045  0.153475  1
  O  O107  1  0.626868  0.859416  0.156028  1
  O  O108  1  0.788318  0.999611  0.484422  1
  O  O109  1  0.006384  0.785169  0.482771  1
  O  O110  1  0.231395  0.990971  0.792627  1
  O  O111  1  0.186172  0.965011  0.381775  1
  O  O112  1  0.964007  0.183397  0.386690  1
  O  O113  1  0.140403  0.139785  0.849259  1
  O  O114  1  0.035707  0.309386  0.843940  1
  O  O115  1  0.310135  0.033685  0.844916  1
  O  O116  1  0.217651  0.783676  0.492264  1
  O  O117  1  0.782597  0.212180  0.497054  1
  O  O118  1  0.955147  0.682545  0.178681  1
  O  O119  1  0.680680  0.956044  0.180109  1
  O  O120  1  0.855153  0.856707  0.155083  1
  O  O121  1  0.485419  0.986382  0.794530  1
  O  O122  1  0.044069  0.818931  0.597438  1
  O  O123  1  0.821564  0.039497  0.599966  1
  O  O124  1  0.011192  0.223603  0.482061  1
  O  O125  1  0.134193  0.379121  0.847035  1
  O  O126  1  0.374469  0.135794  0.847975  1
  O  O127  1  0.686180  0.167227  0.679592  1
  O  O128  1  0.172412  0.684132  0.676690  1
  O  O129  1  0.162110  0.856065  0.617978  1
  O  O130  1  0.857869  0.158101  0.620206  1
  O  O131  1  0.318862  0.318408  0.825154  1
  O  O132  1  0.040951  0.603904  0.814866  1
  O  O133  1  0.602430  0.039161  0.818319  1
  O  O134  1  0.222161  0.510108  0.779460  1
  O  O135  1  0.510351  0.219497  0.776461  1
  O  O136  1  0.960660  0.961467  0.186160  1
  O  O137  1  0.203119  0.954438  0.669647  1
  O  O138  1  0.955763  0.202431  0.668857  1
  O  O139  1  0.141312  0.641179  0.854641  1
  O  O140  1  0.635456  0.143633  0.857096  1
  O  O141  1  0.169851  0.392283  0.972211  1
  O  O142  1  0.395398  0.167851  0.970739  1
  O  O143  1  0.969605  0.966835  0.372560  1
  O  O144  1  0.488018  0.222639  0.004541  1
  O  O145  1  0.146324  0.857738  0.856792  1
  O  O146  1  0.858302  0.145564  0.856933  1
  O  O147  1  0.670712  0.192267  0.966426  1
  O  O148  1  0.191017  0.671161  0.967609  1
  O  O149  1  0.991206  0.231334  0.792341  1
  O  O150  1  0.860524  0.857439  0.626453  1
  O  O151  1  0.669697  0.965014  0.671310  1
  O  O152  1  0.965667  0.668487  0.670861  1
  O  O153  1  0.983089  0.485149  0.795113  1
  O  O154  1  0.973806  0.170324  0.973176  1
  O  O155  1  0.170943  0.973400  0.973442  1
  O  O156  1  0.855443  0.635771  0.862086  1
  O  O157  1  0.630951  0.852306  0.860978  1
  O  O158  1  0.663457  0.664586  0.979713  1
  O  O159  1  0.968213  0.386884  0.973254  1
  O  O160  1  0.386898  0.968379  0.974137  1
