# generated using pymatgen
data_Li2Cu2F5
_symmetry_space_group_name_H-M   'P 1'
_cell_length_a   2.92750111
_cell_length_b   7.74674022
_cell_length_c   17.83559333
_cell_angle_alpha   90.00000000
_cell_angle_beta   90.00000000
_cell_angle_gamma   90.00000000
_symmetry_Int_Tables_number   1
_chemical_formula_structural   Li2Cu2F5
_chemical_formula_sum   'Li8 Cu8 F20'
_cell_volume   404.48611911
_cell_formula_units_Z   4
loop_
 _symmetry_equiv_pos_site_id
 _symmetry_equiv_pos_as_xyz
  1  'x, y, z'
loop_
 _atom_site_type_symbol
 _atom_site_label
 _atom_site_symmetry_multiplicity
 _atom_site_fract_x
 _atom_site_fract_y
 _atom_site_fract_z
 _atom_site_occupancy
  Li  Li0  1  0.750000  0.147029  0.025851  1
  Li  Li1  1  0.750000  0.862519  0.126956  1
  Li  Li2  1  0.250000  0.362519  0.373044  1
  Li  Li3  1  0.250000  0.647029  0.474149  1
  Li  Li4  1  0.750000  0.352971  0.525851  1
  Li  Li5  1  0.750000  0.637481  0.626956  1
  Li  Li6  1  0.250000  0.137481  0.873044  1
  Li  Li7  1  0.250000  0.852971  0.974149  1
  Cu  Cu8  1  0.250000  0.505530  0.086067  1
  Cu  Cu9  1  0.250000  0.176241  0.197865  1
  Cu  Cu10  1  0.750000  0.676241  0.302135  1
  Cu  Cu11  1  0.750000  0.005530  0.413933  1
  Cu  Cu12  1  0.250000  0.994470  0.586067  1
  Cu  Cu13  1  0.250000  0.323759  0.697865  1
  Cu  Cu14  1  0.750000  0.823759  0.802135  1
  Cu  Cu15  1  0.750000  0.494470  0.913933  1
  F  F16  1  0.250000  0.323804  0.013801  1
  F  F17  1  0.250000  0.992978  0.067751  1
  F  F18  1  0.250000  0.701856  0.146015  1
  F  F19  1  0.750000  0.325807  0.158226  1
  F  F20  1  0.750000  0.012191  0.214942  1
  F  F21  1  0.250000  0.512191  0.285058  1
  F  F22  1  0.250000  0.825807  0.341774  1
  F  F23  1  0.750000  0.201856  0.353985  1
  F  F24  1  0.750000  0.492978  0.432249  1
  F  F25  1  0.750000  0.823804  0.486199  1
  F  F26  1  0.250000  0.176196  0.513801  1
  F  F27  1  0.250000  0.507022  0.567751  1
  F  F28  1  0.250000  0.798144  0.646015  1
  F  F29  1  0.750000  0.174193  0.658226  1
  F  F30  1  0.750000  0.487809  0.714942  1
  F  F31  1  0.250000  0.987809  0.785058  1
  F  F32  1  0.250000  0.674193  0.841774  1
  F  F33  1  0.750000  0.298144  0.853985  1
  F  F34  1  0.750000  0.007022  0.932249  1
  F  F35  1  0.750000  0.676196  0.986199  1
