# generated using pymatgen
data_Li2MnV3O8
_symmetry_space_group_name_H-M   'P 1'
_cell_length_a   8.50221080
_cell_length_b   8.50221080
_cell_length_c   8.50221080
_cell_angle_alpha   90.00000000
_cell_angle_beta   90.00000000
_cell_angle_gamma   90.00000000
_symmetry_Int_Tables_number   1
_chemical_formula_structural   Li2MnV3O8
_chemical_formula_sum   'Li8 Mn4 V12 O32'
_cell_volume   614.60431615
_cell_formula_units_Z   4
loop_
 _symmetry_equiv_pos_site_id
 _symmetry_equiv_pos_as_xyz
  1  'x, y, z'
loop_
 _atom_site_type_symbol
 _atom_site_label
 _atom_site_symmetry_multiplicity
 _atom_site_fract_x
 _atom_site_fract_y
 _atom_site_fract_z
 _atom_site_occupancy
  Li  Li0  1  0.127360  0.872640  0.372640  1
  Li  Li1  1  0.251319  0.751319  0.748681  1
  Li  Li2  1  0.248681  0.248681  0.248681  1
  Li  Li3  1  0.372640  0.127360  0.872640  1
  Li  Li4  1  0.627360  0.627360  0.627360  1
  Li  Li5  1  0.751319  0.748681  0.251319  1
  Li  Li6  1  0.748681  0.251319  0.751319  1
  Li  Li7  1  0.872640  0.372640  0.127360  1
  Mn  Mn8  1  0.996011  0.503989  0.496011  1
  Mn  Mn9  1  0.503989  0.496011  0.996011  1
  Mn  Mn10  1  0.496011  0.996011  0.503989  1
  Mn  Mn11  1  0.003989  0.003989  0.003989  1
  V  V12  1  0.126211  0.619475  0.121495  1
  V  V13  1  0.119475  0.378505  0.873789  1
  V  V14  1  0.121495  0.126211  0.619475  1
  V  V15  1  0.378505  0.873789  0.119475  1
  V  V16  1  0.380525  0.621495  0.373789  1
  V  V17  1  0.373789  0.380525  0.621495  1
  V  V18  1  0.626211  0.880525  0.878505  1
  V  V19  1  0.619475  0.121495  0.126211  1
  V  V20  1  0.621495  0.373789  0.380525  1
  V  V21  1  0.878505  0.626211  0.880525  1
  V  V22  1  0.880525  0.878505  0.626211  1
  V  V23  1  0.873789  0.119475  0.378505  1
  O  O24  1  0.103134  0.130786  0.399342  1
  O  O25  1  0.100658  0.896866  0.630786  1
  O  O26  1  0.115269  0.615269  0.884731  1
  O  O27  1  0.130786  0.399342  0.103134  1
  O  O28  1  0.121985  0.147292  0.850125  1
  O  O29  1  0.135897  0.364103  0.635897  1
  O  O30  1  0.149875  0.621985  0.352708  1
  O  O31  1  0.147292  0.850125  0.121985  1
  O  O32  1  0.352708  0.149875  0.621985  1
  O  O33  1  0.350125  0.378015  0.852708  1
  O  O34  1  0.364103  0.635897  0.135897  1
  O  O35  1  0.378015  0.852708  0.350125  1
  O  O36  1  0.369214  0.600658  0.603134  1
  O  O37  1  0.384731  0.384731  0.384731  1
  O  O38  1  0.399342  0.103134  0.130786  1
  O  O39  1  0.396866  0.869214  0.899342  1
  O  O40  1  0.603134  0.369214  0.600658  1
  O  O41  1  0.600658  0.603134  0.369214  1
  O  O42  1  0.615269  0.884731  0.115269  1
  O  O43  1  0.630786  0.100658  0.896866  1
  O  O44  1  0.621985  0.352708  0.149875  1
  O  O45  1  0.635897  0.135897  0.364103  1
  O  O46  1  0.649875  0.878015  0.647292  1
  O  O47  1  0.647292  0.649875  0.878015  1
  O  O48  1  0.852708  0.350125  0.378015  1
  O  O49  1  0.850125  0.121985  0.147292  1
  O  O50  1  0.864103  0.864103  0.864103  1
  O  O51  1  0.878015  0.647292  0.649875  1
  O  O52  1  0.869214  0.899342  0.396866  1
  O  O53  1  0.884731  0.115269  0.615269  1
  O  O54  1  0.899342  0.396866  0.869214  1
  O  O55  1  0.896866  0.630786  0.100658  1
