# generated using pymatgen
data_Cu2(SO4)3
_symmetry_space_group_name_H-M   'P 1'
_cell_length_a   8.32382821
_cell_length_b   8.60412099
_cell_length_c   14.22001022
_cell_angle_alpha   90.00000000
_cell_angle_beta   124.61245083
_cell_angle_gamma   90.00000000
_symmetry_Int_Tables_number   1
_chemical_formula_structural   Cu2(SO4)3
_chemical_formula_sum   'Cu8 S12 O48'
_cell_volume   838.17788097
_cell_formula_units_Z   4
loop_
 _symmetry_equiv_pos_site_id
 _symmetry_equiv_pos_as_xyz
  1  'x, y, z'
loop_
 _atom_site_type_symbol
 _atom_site_label
 _atom_site_symmetry_multiplicity
 _atom_site_fract_x
 _atom_site_fract_y
 _atom_site_fract_z
 _atom_site_occupancy
  Cu  Cu0  1  0.359492  0.967956  0.108499  1
  Cu  Cu1  1  0.640508  0.467956  0.391501  1
  Cu  Cu2  1  0.867279  0.032004  0.614830  1
  Cu  Cu3  1  0.132721  0.532004  0.885170  1
  Cu  Cu4  1  0.867279  0.467996  0.114830  1
  Cu  Cu5  1  0.132721  0.967996  0.385170  1
  Cu  Cu6  1  0.359492  0.532044  0.608499  1
  Cu  Cu7  1  0.640508  0.032044  0.891501  1
  S  S8  1  0.548877  0.750798  0.506979  1
  S  S9  1  0.261866  0.621805  0.151159  1
  S  S10  1  0.971378  0.886345  0.854696  1
  S  S11  1  0.738134  0.121805  0.348841  1
  S  S12  1  0.028622  0.386345  0.645304  1
  S  S13  1  0.451123  0.250798  0.993021  1
  S  S14  1  0.548877  0.749202  0.006979  1
  S  S15  1  0.971378  0.613655  0.354696  1
  S  S16  1  0.261866  0.878195  0.651159  1
  S  S17  1  0.028622  0.113655  0.145304  1
  S  S18  1  0.738134  0.378195  0.848841  1
  S  S19  1  0.451123  0.249202  0.493021  1
  O  O20  1  0.598494  0.125914  0.552628  1
  O  O21  1  0.148296  0.117164  0.098808  1
  O  O22  1  0.451258  0.322857  0.398344  1
  O  O23  1  0.863997  0.423104  0.809854  1
  O  O24  1  0.512120  0.639284  0.417487  1
  O  O25  1  0.289480  0.793078  0.168657  1
  O  O26  1  0.157562  0.585543  0.028155  1
  O  O27  1  0.879724  0.997462  0.757416  1
  O  O28  1  0.976302  0.730198  0.811683  1
  O  O29  1  0.747485  0.817384  0.559659  1
  O  O30  1  0.448433  0.535410  0.216904  1
  O  O31  1  0.551567  0.035410  0.283096  1
  O  O32  1  0.174368  0.940303  0.940350  1
  O  O33  1  0.825632  0.440303  0.559650  1
  O  O34  1  0.252515  0.317384  0.940341  1
  O  O35  1  0.023698  0.230198  0.688317  1
  O  O36  1  0.842438  0.085543  0.471845  1
  O  O37  1  0.120276  0.497462  0.742584  1
  O  O38  1  0.710520  0.293078  0.331343  1
  O  O39  1  0.487880  0.139284  0.082513  1
  O  O40  1  0.548742  0.822857  0.101656  1
  O  O41  1  0.851704  0.617164  0.401192  1
  O  O42  1  0.136003  0.923104  0.690146  1
  O  O43  1  0.401506  0.625914  0.947372  1
  O  O44  1  0.598494  0.374086  0.052628  1
  O  O45  1  0.863997  0.076896  0.309854  1
  O  O46  1  0.148296  0.382836  0.598808  1
  O  O47  1  0.451258  0.177143  0.898344  1
  O  O48  1  0.512120  0.860716  0.917487  1
  O  O49  1  0.289480  0.706922  0.668657  1
  O  O50  1  0.879724  0.502538  0.257416  1
  O  O51  1  0.157562  0.914457  0.528155  1
  O  O52  1  0.976302  0.769802  0.311683  1
  O  O53  1  0.747485  0.682616  0.059659  1
  O  O54  1  0.174368  0.559697  0.440350  1
  O  O55  1  0.825632  0.059697  0.059650  1
  O  O56  1  0.448433  0.964590  0.716904  1
  O  O57  1  0.551567  0.464590  0.783096  1
  O  O58  1  0.252515  0.182616  0.440341  1
  O  O59  1  0.023698  0.269802  0.188317  1
  O  O60  1  0.120276  0.002538  0.242584  1
  O  O61  1  0.842438  0.414457  0.971845  1
  O  O62  1  0.710520  0.206922  0.831343  1
  O  O63  1  0.487880  0.360716  0.582513  1
  O  O64  1  0.136003  0.576896  0.190146  1
  O  O65  1  0.548742  0.677143  0.601656  1
  O  O66  1  0.851704  0.882836  0.901192  1
  O  O67  1  0.401506  0.874086  0.447372  1
