# generated using pymatgen
data_TiMn3Te2(PO4)6
_symmetry_space_group_name_H-M   'P 1'
_cell_length_a   8.89045168
_cell_length_b   8.89045168
_cell_length_c   8.89045168
_cell_angle_alpha   59.83387975
_cell_angle_beta   59.83387975
_cell_angle_gamma   59.83387975
_symmetry_Int_Tables_number   1
_chemical_formula_structural   TiMn3Te2(PO4)6
_chemical_formula_sum   'Ti1 Mn3 Te2 P6 O24'
_cell_volume   495.01228188
_cell_formula_units_Z   1
loop_
 _symmetry_equiv_pos_site_id
 _symmetry_equiv_pos_as_xyz
  1  'x, y, z'
loop_
 _atom_site_type_symbol
 _atom_site_label
 _atom_site_symmetry_multiplicity
 _atom_site_fract_x
 _atom_site_fract_y
 _atom_site_fract_z
 _atom_site_occupancy
  Ti  Ti0  1  0.146788  0.146788  0.146788  1
  Mn  Mn1  1  0.837518  0.837518  0.837518  1
  Mn  Mn2  1  0.651068  0.651068  0.651068  1
  Mn  Mn3  1  0.343970  0.343970  0.343970  1
  Te  Te4  1  0.981334  0.981334  0.981334  1
  Te  Te5  1  0.488801  0.488801  0.488801  1
  P  P6  1  0.251615  0.543654  0.955689  1
  P  P7  1  0.955689  0.251615  0.543654  1
  P  P8  1  0.543654  0.955689  0.251615  1
  P  P9  1  0.446493  0.056944  0.755941  1
  P  P10  1  0.056944  0.755941  0.446493  1
  P  P11  1  0.755941  0.446493  0.056944  1
  O  O12  1  0.700368  0.472066  0.908339  1
  O  O13  1  0.472066  0.908339  0.700368  1
  O  O14  1  0.081596  0.745065  0.935646  1
  O  O15  1  0.908339  0.700368  0.472066  1
  O  O16  1  0.394859  0.559962  0.760223  1
  O  O17  1  0.172239  0.392516  0.020846  1
  O  O18  1  0.935646  0.081596  0.745065  1
  O  O19  1  0.760223  0.394859  0.559962  1
  O  O20  1  0.559962  0.760223  0.394859  1
  O  O21  1  0.599490  0.032477  0.802989  1
  O  O22  1  0.254517  0.089422  0.915579  1
  O  O23  1  0.032477  0.802989  0.599490  1
  O  O24  1  0.020846  0.172239  0.392516  1
  O  O25  1  0.745065  0.935646  0.081596  1
  O  O26  1  0.392516  0.020846  0.172239  1
  O  O27  1  0.419922  0.256458  0.592277  1
  O  O28  1  0.256458  0.592277  0.419922  1
  O  O29  1  0.089422  0.915579  0.254517  1
  O  O30  1  0.802989  0.599490  0.032477  1
  O  O31  1  0.592277  0.419922  0.256458  1
  O  O32  1  0.093765  0.314732  0.524830  1
  O  O33  1  0.915579  0.254517  0.089422  1
  O  O34  1  0.524830  0.093765  0.314732  1
  O  O35  1  0.314732  0.524830  0.093765  1
