# generated using pymatgen
data_Mn3Fe(PO4)4
_symmetry_space_group_name_H-M   'P 1'
_cell_length_a   11.53339495
_cell_length_b   11.53339495
_cell_length_c   4.92890139
_cell_angle_alpha   89.99746340
_cell_angle_beta   90.00253660
_cell_angle_gamma   117.16324800
_symmetry_Int_Tables_number   1
_chemical_formula_structural   Mn3Fe(PO4)4
_chemical_formula_sum   'Mn6 Fe2 P8 O32'
_cell_volume   583.32774458
_cell_formula_units_Z   2
loop_
 _symmetry_equiv_pos_site_id
 _symmetry_equiv_pos_as_xyz
  1  'x, y, z'
loop_
 _atom_site_type_symbol
 _atom_site_label
 _atom_site_symmetry_multiplicity
 _atom_site_fract_x
 _atom_site_fract_y
 _atom_site_fract_z
 _atom_site_occupancy
  Mn  Mn0  1  0.517066  0.983530  0.069234  1
  Mn  Mn1  1  0.016470  0.482934  0.069234  1
  Mn  Mn2  1  0.265453  0.232059  0.431200  1
  Mn  Mn3  1  0.767941  0.734547  0.431200  1
  Mn  Mn4  1  0.732306  0.267694  0.571106  1
  Mn  Mn5  1  0.981686  0.018314  0.926206  1
  Fe  Fe6  1  0.236946  0.763054  0.542173  1
  Fe  Fe7  1  0.487534  0.512466  0.959719  1
  P  P8  1  0.825089  0.174911  0.084415  1
  P  P9  1  0.326479  0.673521  0.088135  1
  P  P10  1  0.576979  0.423021  0.414040  1
  P  P11  1  0.074633  0.925367  0.413009  1
  P  P12  1  0.926472  0.577051  0.583155  1
  P  P13  1  0.422949  0.073528  0.583155  1
  P  P14  1  0.672339  0.822949  0.917051  1
  P  P15  1  0.177051  0.327661  0.917051  1
  O  O16  1  0.901757  0.098243  0.144300  1
  O  O17  1  0.402079  0.597921  0.156685  1
  O  O18  1  0.387771  0.810093  0.235930  1
  O  O19  1  0.889749  0.310739  0.227401  1
  O  O20  1  0.689261  0.110251  0.227401  1
  O  O21  1  0.189907  0.612229  0.235930  1
  O  O22  1  0.683382  0.814914  0.227898  1
  O  O23  1  0.185086  0.316618  0.227898  1
  O  O24  1  0.434039  0.065457  0.272260  1
  O  O25  1  0.934543  0.565961  0.272260  1
  O  O26  1  0.639120  0.558752  0.264834  1
  O  O27  1  0.441248  0.360880  0.264834  1
  O  O28  1  0.138441  0.062026  0.271528  1
  O  O29  1  0.937974  0.861559  0.271528  1
  O  O30  1  0.150629  0.849371  0.351854  1
  O  O31  1  0.653225  0.346775  0.346963  1
  O  O32  1  0.847307  0.651610  0.642474  1
  O  O33  1  0.348390  0.152693  0.642474  1
  O  O34  1  0.559287  0.137565  0.725436  1
  O  O35  1  0.062760  0.643378  0.722332  1
  O  O36  1  0.356622  0.937240  0.722332  1
  O  O37  1  0.862435  0.440713  0.725436  1
  O  O38  1  0.064215  0.935785  0.723160  1
  O  O39  1  0.566173  0.433827  0.719476  1
  O  O40  1  0.815024  0.184976  0.774507  1
  O  O41  1  0.315082  0.684918  0.782789  1
  O  O42  1  0.313795  0.393169  0.778463  1
  O  O43  1  0.808357  0.887694  0.774054  1
  O  O44  1  0.606831  0.686205  0.778463  1
  O  O45  1  0.112306  0.191643  0.774054  1
  O  O46  1  0.595263  0.899557  0.857496  1
  O  O47  1  0.100443  0.404737  0.857496  1
