# generated using pymatgen
data_Li2Mn2P2O7F2
_symmetry_space_group_name_H-M   'P 1'
_cell_length_a   6.77493898
_cell_length_b   10.49499967
_cell_length_c   11.25935747
_cell_angle_alpha   90.00000000
_cell_angle_beta   90.00000000
_cell_angle_gamma   90.00000000
_symmetry_Int_Tables_number   1
_chemical_formula_structural   Li2Mn2P2O7F2
_chemical_formula_sum   'Li8 Mn8 P8 O28 F8'
_cell_volume   800.57389557
_cell_formula_units_Z   4
loop_
 _symmetry_equiv_pos_site_id
 _symmetry_equiv_pos_as_xyz
  1  'x, y, z'
loop_
 _atom_site_type_symbol
 _atom_site_label
 _atom_site_symmetry_multiplicity
 _atom_site_fract_x
 _atom_site_fract_y
 _atom_site_fract_z
 _atom_site_occupancy
  Li  Li0  1  0.519773  0.028109  0.789940  1
  Li  Li1  1  0.480227  0.471891  0.789940  1
  Li  Li2  1  0.980227  0.528109  0.710060  1
  Li  Li3  1  0.019773  0.971891  0.710060  1
  Li  Li4  1  0.980227  0.028109  0.289940  1
  Li  Li5  1  0.019773  0.471891  0.289940  1
  Li  Li6  1  0.519773  0.528109  0.210060  1
  Li  Li7  1  0.480227  0.971891  0.210060  1
  Mn  Mn8  1  0.000000  0.000000  0.000000  1
  Mn  Mn9  1  0.000000  0.500000  0.000000  1
  Mn  Mn10  1  0.000000  0.250000  0.830788  1
  Mn  Mn11  1  0.500000  0.750000  0.669212  1
  Mn  Mn12  1  0.500000  0.500000  0.500000  1
  Mn  Mn13  1  0.500000  0.000000  0.500000  1
  Mn  Mn14  1  0.500000  0.250000  0.330788  1
  Mn  Mn15  1  0.000000  0.750000  0.169212  1
  P  P16  1  0.282813  0.749682  0.922563  1
  P  P17  1  0.717187  0.750318  0.922563  1
  P  P18  1  0.217187  0.249682  0.577437  1
  P  P19  1  0.782813  0.250318  0.577437  1
  P  P20  1  0.217187  0.749682  0.422563  1
  P  P21  1  0.782813  0.750318  0.422563  1
  P  P22  1  0.282813  0.249682  0.077437  1
  P  P23  1  0.717187  0.250318  0.077437  1
  O  O24  1  0.166397  0.325210  0.983358  1
  O  O25  1  0.833603  0.174790  0.983358  1
  O  O26  1  0.500000  0.750000  0.984355  1
  O  O27  1  0.224361  0.609519  0.908174  1
  O  O28  1  0.775639  0.890481  0.908174  1
  O  O29  1  0.296701  0.820473  0.802928  1
  O  O30  1  0.703299  0.679527  0.802928  1
  O  O31  1  0.203299  0.320473  0.697072  1
  O  O32  1  0.796701  0.179527  0.697072  1
  O  O33  1  0.275639  0.109519  0.591826  1
  O  O34  1  0.724361  0.390481  0.591826  1
  O  O35  1  0.000000  0.250000  0.515645  1
  O  O36  1  0.666397  0.674790  0.516642  1
  O  O37  1  0.333603  0.825210  0.516642  1
  O  O38  1  0.333603  0.325210  0.483358  1
  O  O39  1  0.666397  0.174790  0.483358  1
  O  O40  1  0.000000  0.750000  0.484355  1
  O  O41  1  0.275639  0.609519  0.408174  1
  O  O42  1  0.724361  0.890481  0.408174  1
  O  O43  1  0.796701  0.679527  0.302928  1
  O  O44  1  0.203299  0.820473  0.302928  1
  O  O45  1  0.296701  0.320473  0.197072  1
  O  O46  1  0.703299  0.179527  0.197072  1
  O  O47  1  0.224361  0.109519  0.091826  1
  O  O48  1  0.775639  0.390481  0.091826  1
  O  O49  1  0.500000  0.250000  0.015645  1
  O  O50  1  0.166397  0.825210  0.016642  1
  O  O51  1  0.833603  0.674790  0.016642  1
  F  F52  1  0.128106  0.063777  0.834024  1
  F  F53  1  0.871894  0.436223  0.834024  1
  F  F54  1  0.371894  0.563777  0.665976  1
  F  F55  1  0.628106  0.936223  0.665976  1
  F  F56  1  0.371894  0.063777  0.334024  1
  F  F57  1  0.628106  0.436223  0.334024  1
  F  F58  1  0.128106  0.563777  0.165976  1
  F  F59  1  0.871894  0.936223  0.165976  1
