# generated using pymatgen
data_CaFe3Si2HO9
_symmetry_space_group_name_H-M   'P 1'
_cell_length_a   5.97948510
_cell_length_b   8.89644692
_cell_length_c   13.10407834
_cell_angle_alpha   90.00000000
_cell_angle_beta   90.40122481
_cell_angle_gamma   90.00000000
_symmetry_Int_Tables_number   1
_chemical_formula_structural   CaFe3Si2HO9
_chemical_formula_sum   'Ca4 Fe12 Si8 H4 O36'
_cell_volume   697.06971109
_cell_formula_units_Z   4
loop_
 _symmetry_equiv_pos_site_id
 _symmetry_equiv_pos_as_xyz
  1  'x, y, z'
loop_
 _atom_site_type_symbol
 _atom_site_label
 _atom_site_symmetry_multiplicity
 _atom_site_fract_x
 _atom_site_fract_y
 _atom_site_fract_z
 _atom_site_occupancy
  Ca  Ca0  1  0.246476  0.368594  0.188042  1
  Ca  Ca1  1  0.753524  0.868594  0.311958  1
  Ca  Ca2  1  0.753524  0.631406  0.811958  1
  Ca  Ca3  1  0.246476  0.131406  0.688042  1
  Fe  Fe4  1  0.996680  0.048626  0.110516  1
  Fe  Fe5  1  0.003320  0.548626  0.389484  1
  Fe  Fe6  1  0.003320  0.951374  0.889484  1
  Fe  Fe7  1  0.996680  0.451374  0.610516  1
  Fe  Fe8  1  0.502606  0.051820  0.110631  1
  Fe  Fe9  1  0.497394  0.551820  0.389369  1
  Fe  Fe10  1  0.497394  0.948180  0.889369  1
  Fe  Fe11  1  0.502606  0.448180  0.610631  1
  Fe  Fe12  1  0.249500  0.240644  0.441636  1
  Fe  Fe13  1  0.750500  0.740644  0.058364  1
  Fe  Fe14  1  0.750500  0.759356  0.558364  1
  Fe  Fe15  1  0.249500  0.259356  0.941636  1
  Si  Si16  1  0.751745  0.368741  0.041629  1
  Si  Si17  1  0.248255  0.868741  0.458371  1
  Si  Si18  1  0.248255  0.631259  0.958371  1
  Si  Si19  1  0.751745  0.131259  0.541629  1
  Si  Si20  1  0.747428  0.225716  0.320745  1
  Si  Si21  1  0.252572  0.725716  0.179255  1
  Si  Si22  1  0.252572  0.774284  0.679255  1
  Si  Si23  1  0.747428  0.274284  0.820745  1
  H  H24  1  0.259453  0.065379  0.274350  1
  H  H25  1  0.740547  0.565379  0.225650  1
  H  H26  1  0.740547  0.934621  0.725650  1
  H  H27  1  0.259453  0.434621  0.774350  1
  O  O28  1  0.271887  0.468901  0.489273  1
  O  O29  1  0.728113  0.968901  0.010727  1
  O  O30  1  0.728113  0.531099  0.510727  1
  O  O31  1  0.271887  0.031099  0.989273  1
  O  O32  1  0.983981  0.273778  0.063912  1
  O  O33  1  0.016019  0.773778  0.436088  1
  O  O34  1  0.016019  0.726222  0.936088  1
  O  O35  1  0.983981  0.226222  0.563912  1
  O  O36  1  0.520166  0.272758  0.066209  1
  O  O37  1  0.479834  0.772758  0.433791  1
  O  O38  1  0.479834  0.727242  0.933791  1
  O  O39  1  0.520166  0.227242  0.566209  1
  O  O40  1  0.738978  0.106601  0.222770  1
  O  O41  1  0.261022  0.606601  0.277230  1
  O  O42  1  0.261022  0.893399  0.777230  1
  O  O43  1  0.738978  0.393399  0.722770  1
  O  O44  1  0.979384  0.325170  0.328339  1
  O  O45  1  0.020616  0.825170  0.171661  1
  O  O46  1  0.020616  0.674830  0.671661  1
  O  O47  1  0.979384  0.174830  0.828339  1
  O  O48  1  0.520694  0.331517  0.329950  1
  O  O49  1  0.479306  0.831517  0.170050  1
  O  O50  1  0.479306  0.668483  0.670050  1
  O  O51  1  0.520694  0.168483  0.829950  1
  O  O52  1  0.746203  0.099529  0.415774  1
  O  O53  1  0.253797  0.599529  0.084226  1
  O  O54  1  0.253797  0.900471  0.584226  1
  O  O55  1  0.746203  0.400471  0.915774  1
  O  O56  1  0.249017  0.026488  0.397226  1
  O  O57  1  0.750983  0.526488  0.102774  1
  O  O58  1  0.750983  0.973512  0.602774  1
  O  O59  1  0.249017  0.473512  0.897226  1
  O  O60  1  0.260985  0.109221  0.203753  1
  O  O61  1  0.739015  0.609221  0.296247  1
  O  O62  1  0.739015  0.890779  0.796247  1
  O  O63  1  0.260985  0.390779  0.703753  1
