# generated using pymatgen
data_LiMnB2O5
_symmetry_space_group_name_H-M   'P 1'
_cell_length_a   5.47050558
_cell_length_b   11.45566321
_cell_length_c   11.76305464
_cell_angle_alpha   90.00000000
_cell_angle_beta   101.32581214
_cell_angle_gamma   90.00000000
_symmetry_Int_Tables_number   1
_chemical_formula_structural   LiMnB2O5
_chemical_formula_sum   'Li8 Mn8 B16 O40'
_cell_volume   722.81483440
_cell_formula_units_Z   8
loop_
 _symmetry_equiv_pos_site_id
 _symmetry_equiv_pos_as_xyz
  1  'x, y, z'
loop_
 _atom_site_type_symbol
 _atom_site_label
 _atom_site_symmetry_multiplicity
 _atom_site_fract_x
 _atom_site_fract_y
 _atom_site_fract_z
 _atom_site_occupancy
  Li  Li0  1  0.367833  0.639012  0.920966  1
  Li  Li1  1  0.867833  0.860988  0.920966  1
  Li  Li2  1  0.130785  0.121384  0.577883  1
  Li  Li3  1  0.630785  0.378616  0.577883  1
  Li  Li4  1  0.369215  0.621384  0.422117  1
  Li  Li5  1  0.869215  0.878616  0.422117  1
  Li  Li6  1  0.132167  0.139012  0.079034  1
  Li  Li7  1  0.632167  0.360988  0.079034  1
  Mn  Mn8  1  0.264108  0.376834  0.765415  1
  Mn  Mn9  1  0.253610  0.876250  0.736642  1
  Mn  Mn10  1  0.764108  0.123166  0.765415  1
  Mn  Mn11  1  0.753610  0.623750  0.736642  1
  Mn  Mn12  1  0.246390  0.376250  0.263358  1
  Mn  Mn13  1  0.235892  0.876834  0.234585  1
  Mn  Mn14  1  0.746390  0.123750  0.263358  1
  Mn  Mn15  1  0.735892  0.623166  0.234585  1
  B  B16  1  0.136980  0.369050  0.995745  1
  B  B17  1  0.636980  0.130950  0.995745  1
  B  B18  1  0.299277  0.115800  0.829572  1
  B  B19  1  0.799277  0.384200  0.829572  1
  B  B20  1  0.210035  0.628556  0.668918  1
  B  B21  1  0.710035  0.871444  0.668918  1
  B  B22  1  0.149868  0.384921  0.493355  1
  B  B23  1  0.350132  0.884921  0.506645  1
  B  B24  1  0.649868  0.115079  0.493355  1
  B  B25  1  0.850132  0.615079  0.506645  1
  B  B26  1  0.289965  0.128556  0.331082  1
  B  B27  1  0.789965  0.371444  0.331082  1
  B  B28  1  0.200723  0.615800  0.170428  1
  B  B29  1  0.700723  0.884200  0.170428  1
  B  B30  1  0.363020  0.869050  0.004255  1
  B  B31  1  0.863020  0.630950  0.004255  1
  O  O32  1  0.316350  0.387670  0.931234  1
  O  O33  1  0.380103  0.111761  0.950185  1
  O  O34  1  0.289485  0.826092  0.895686  1
  O  O35  1  0.816350  0.112330  0.931234  1
  O  O36  1  0.880103  0.388239  0.950185  1
  O  O37  1  0.789485  0.673908  0.895686  1
  O  O38  1  0.096431  0.052756  0.775905  1
  O  O39  1  0.102236  0.569631  0.750040  1
  O  O40  1  0.427770  0.181347  0.762135  1
  O  O41  1  0.596431  0.447244  0.775905  1
  O  O42  1  0.418749  0.693835  0.707163  1
  O  O43  1  0.602236  0.930369  0.750040  1
  O  O44  1  0.927770  0.318653  0.762135  1
  O  O45  1  0.918749  0.806165  0.707163  1
  O  O46  1  0.253549  0.352883  0.602614  1
  O  O47  1  0.109874  0.626631  0.548876  1
  O  O48  1  0.191718  0.922198  0.576672  1
  O  O49  1  0.753549  0.147117  0.602614  1
  O  O50  1  0.609874  0.873369  0.548876  1
  O  O51  1  0.691718  0.577802  0.576672  1
  O  O52  1  0.308282  0.422198  0.423328  1
  O  O53  1  0.390126  0.126631  0.451124  1
  O  O54  1  0.246451  0.852883  0.397386  1
  O  O55  1  0.808282  0.077802  0.423328  1
  O  O56  1  0.890126  0.373369  0.451124  1
  O  O57  1  0.746451  0.647117  0.397386  1
  O  O58  1  0.081251  0.193835  0.292837  1
  O  O59  1  0.072230  0.681347  0.237865  1
  O  O60  1  0.397764  0.069631  0.249960  1
  O  O61  1  0.581251  0.306165  0.292837  1
  O  O62  1  0.403569  0.552756  0.224095  1
  O  O63  1  0.572230  0.818653  0.237865  1
  O  O64  1  0.897764  0.430369  0.249960  1
  O  O65  1  0.903569  0.947244  0.224095  1
  O  O66  1  0.210515  0.326092  0.104314  1
  O  O67  1  0.119897  0.611761  0.049815  1
  O  O68  1  0.183650  0.887670  0.068766  1
  O  O69  1  0.710515  0.173908  0.104314  1
  O  O70  1  0.619897  0.888239  0.049815  1
  O  O71  1  0.683650  0.612330  0.068766  1
