# generated using pymatgen
data_Li5V3Cu(PO4)4
_symmetry_space_group_name_H-M   'P 1'
_cell_length_a   7.81651562
_cell_length_b   7.81651562
_cell_length_c   10.61839469
_cell_angle_alpha   89.84299064
_cell_angle_beta   90.15700936
_cell_angle_gamma   77.26966512
_symmetry_Int_Tables_number   1
_chemical_formula_structural   Li5V3Cu(PO4)4
_chemical_formula_sum   'Li10 V6 Cu2 P8 O32'
_cell_volume   632.80784158
_cell_formula_units_Z   2
loop_
 _symmetry_equiv_pos_site_id
 _symmetry_equiv_pos_as_xyz
  1  'x, y, z'
loop_
 _atom_site_type_symbol
 _atom_site_label
 _atom_site_symmetry_multiplicity
 _atom_site_fract_x
 _atom_site_fract_y
 _atom_site_fract_z
 _atom_site_occupancy
  Li  Li0  1  0.949213  0.789845  0.861597  1
  Li  Li1  1  0.721285  0.010454  0.507014  1
  Li  Li2  1  0.989546  0.278715  0.507014  1
  Li  Li3  1  0.743769  0.505033  0.995458  1
  Li  Li4  1  0.494967  0.256231  0.995458  1
  Li  Li5  1  0.210155  0.050787  0.861597  1
  Li  Li6  1  0.084331  0.915669  0.075784  1
  Li  Li7  1  0.273215  0.474701  0.461366  1
  Li  Li8  1  0.525299  0.726785  0.461366  1
  Li  Li9  1  0.368643  0.631357  0.674302  1
  V  V10  1  0.882125  0.117875  0.227859  1
  V  V11  1  0.894877  0.611567  0.267113  1
  V  V12  1  0.388433  0.105123  0.267113  1
  V  V13  1  0.398920  0.601080  0.212027  1
  V  V14  1  0.604542  0.893106  0.776975  1
  V  V15  1  0.106894  0.395458  0.776975  1
  Cu  Cu16  1  0.050758  0.949242  0.645780  1
  Cu  Cu17  1  0.630933  0.369067  0.717292  1
  P  P18  1  0.684266  0.833062  0.088649  1
  P  P19  1  0.822270  0.177730  0.916811  1
  P  P20  1  0.675735  0.324265  0.403719  1
  P  P21  1  0.185892  0.814108  0.395048  1
  P  P22  1  0.329546  0.181361  0.592309  1
  P  P23  1  0.818639  0.670454  0.592309  1
  P  P24  1  0.166938  0.315734  0.088649  1
  P  P25  1  0.330947  0.669053  0.914741  1
  O  O26  1  0.981683  0.018317  0.915967  1
  O  O27  1  0.858420  0.831949  0.670999  1
  O  O28  1  0.857016  0.863072  0.156502  1
  O  O29  1  0.731525  0.776236  0.949887  1
  O  O30  1  0.763155  0.236845  0.052757  1
  O  O31  1  0.659794  0.133636  0.848612  1
  O  O32  1  0.369976  0.828985  0.838544  1
  O  O33  1  0.866364  0.340206  0.848612  1
  O  O34  1  0.531026  0.990411  0.100258  1
  O  O35  1  0.843816  0.361728  0.337164  1
  O  O36  1  0.638272  0.156184  0.337164  1
  O  O37  1  0.354445  0.848507  0.326102  1
  O  O38  1  0.490090  0.029249  0.603948  1
  O  O39  1  0.970751  0.509910  0.603948  1
  O  O40  1  0.731143  0.268857  0.539730  1
  O  O41  1  0.247374  0.752626  0.530216  1
  O  O42  1  0.781207  0.732350  0.453494  1
  O  O43  1  0.267650  0.218793  0.453494  1
  O  O44  1  0.029264  0.970736  0.390484  1
  O  O45  1  0.517715  0.482285  0.392191  1
  O  O46  1  0.488361  0.511639  0.914380  1
  O  O47  1  0.350528  0.360629  0.649900  1
  O  O48  1  0.168051  0.141580  0.670999  1
  O  O49  1  0.639371  0.649472  0.649900  1
  O  O50  1  0.336792  0.349515  0.157405  1
  O  O51  1  0.136928  0.142984  0.156502  1
  O  O52  1  0.650485  0.663208  0.157405  1
  O  O53  1  0.223764  0.268475  0.949887  1
  O  O54  1  0.272267  0.727733  0.049681  1
  O  O55  1  0.171015  0.630024  0.838544  1
  O  O56  1  0.009589  0.468974  0.100258  1
  O  O57  1  0.151493  0.645555  0.326102  1
