# generated using pymatgen
data_Mn4O7F
_symmetry_space_group_name_H-M   'P 1'
_cell_length_a   5.49795136
_cell_length_b   6.65606647
_cell_length_c   6.70555708
_cell_angle_alpha   96.04333666
_cell_angle_beta   91.12941310
_cell_angle_gamma   90.66789932
_symmetry_Int_Tables_number   1
_chemical_formula_structural   Mn4O7F
_chemical_formula_sum   'Mn8 O14 F2'
_cell_volume   243.95363830
_cell_formula_units_Z   2
loop_
 _symmetry_equiv_pos_site_id
 _symmetry_equiv_pos_as_xyz
  1  'x, y, z'
loop_
 _atom_site_type_symbol
 _atom_site_label
 _atom_site_symmetry_multiplicity
 _atom_site_fract_x
 _atom_site_fract_y
 _atom_site_fract_z
 _atom_site_occupancy
  Mn  Mn0  1  0.353240  0.862612  0.626403  1
  Mn  Mn1  1  0.651993  0.621967  0.877290  1
  Mn  Mn2  1  0.168099  0.863467  0.119780  1
  Mn  Mn3  1  0.129412  0.389334  0.630103  1
  Mn  Mn4  1  0.857933  0.124289  0.861959  1
  Mn  Mn5  1  0.851666  0.627992  0.370793  1
  Mn  Mn6  1  0.648973  0.126104  0.375799  1
  Mn  Mn7  1  0.355720  0.371656  0.125878  1
  O  O8  1  0.117880  0.919615  0.842808  1
  O  O9  1  0.613025  0.905932  0.828417  1
  O  O10  1  0.387840  0.590192  0.670931  1
  O  O11  1  0.610301  0.845210  0.428831  1
  O  O12  1  0.613477  0.341038  0.921804  1
  O  O13  1  0.884591  0.582916  0.654522  1
  O  O14  1  0.108153  0.330946  0.905793  1
  O  O15  1  0.114640  0.829994  0.404253  1
  O  O16  1  0.887088  0.175386  0.594383  1
  O  O17  1  0.105889  0.423746  0.346473  1
  O  O18  1  0.887616  0.676581  0.094588  1
  O  O19  1  0.395460  0.650196  0.074848  1
  O  O20  1  0.609996  0.408719  0.329517  1
  O  O21  1  0.386198  0.092011  0.177478  1
  F  F22  1  0.366098  0.160951  0.592196  1
  F  F23  1  0.894715  0.079146  0.145152  1
