# generated using pymatgen
data_YBrO
_symmetry_space_group_name_H-M   'P 1'
_cell_length_a   10.34657343
_cell_length_b   10.34657343
_cell_length_c   10.34657343
_cell_angle_alpha   21.53661845
_cell_angle_beta   21.53661845
_cell_angle_gamma   21.53661845
_symmetry_Int_Tables_number   1
_chemical_formula_structural   YBrO
_chemical_formula_sum   'Y2 Br2 O2'
_cell_volume   130.78584876
_cell_formula_units_Z   2
loop_
 _symmetry_equiv_pos_site_id
 _symmetry_equiv_pos_as_xyz
  1  'x, y, z'
loop_
 _atom_site_type_symbol
 _atom_site_label
 _atom_site_symmetry_multiplicity
 _atom_site_fract_x
 _atom_site_fract_y
 _atom_site_fract_z
 _atom_site_occupancy
  Y  Y0  1  0.713905  0.713905  0.713905  1
  Y  Y1  1  0.286095  0.286095  0.286095  1
  Br  Br2  1  0.888835  0.888835  0.888835  1
  Br  Br3  1  0.111165  0.111165  0.111165  1
  O  O4  1  0.638182  0.638182  0.638182  1
  O  O5  1  0.361818  0.361818  0.361818  1
