# generated using pymatgen
data_Mn5Cu(PO4)6
_symmetry_space_group_name_H-M   'P 1'
_cell_length_a   8.58600434
_cell_length_b   8.58600434
_cell_length_c   8.58600434
_cell_angle_alpha   59.78178524
_cell_angle_beta   59.78178524
_cell_angle_gamma   59.78178524
_symmetry_Int_Tables_number   1
_chemical_formula_structural   Mn5Cu(PO4)6
_chemical_formula_sum   'Mn5 Cu1 P6 O24'
_cell_volume   445.34991659
_cell_formula_units_Z   1
loop_
 _symmetry_equiv_pos_site_id
 _symmetry_equiv_pos_as_xyz
  1  'x, y, z'
loop_
 _atom_site_type_symbol
 _atom_site_label
 _atom_site_symmetry_multiplicity
 _atom_site_fract_x
 _atom_site_fract_y
 _atom_site_fract_z
 _atom_site_occupancy
  Mn  Mn0  1  0.002677  0.002677  0.002677  1
  Mn  Mn1  1  0.643561  0.643561  0.643561  1
  Mn  Mn2  1  0.500152  0.500152  0.500152  1
  Mn  Mn3  1  0.856942  0.856942  0.856942  1
  Mn  Mn4  1  0.356280  0.356280  0.356280  1
  Cu  Cu5  1  0.144629  0.144629  0.144629  1
  P  P6  1  0.249543  0.540580  0.959923  1
  P  P7  1  0.959923  0.249543  0.540580  1
  P  P8  1  0.540580  0.959923  0.249543  1
  P  P9  1  0.460507  0.038088  0.749322  1
  P  P10  1  0.038088  0.749322  0.460507  1
  P  P11  1  0.749322  0.460507  0.038088  1
  O  O12  1  0.121729  0.301256  0.511300  1
  O  O13  1  0.511300  0.121729  0.301256  1
  O  O14  1  0.301256  0.511300  0.121729  1
  O  O15  1  0.084363  0.739489  0.942804  1
  O  O16  1  0.197915  0.384937  0.981774  1
  O  O17  1  0.419159  0.560060  0.763050  1
  O  O18  1  0.942804  0.084363  0.739489  1
  O  O19  1  0.763050  0.419159  0.560060  1
  O  O20  1  0.621510  0.010485  0.800796  1
  O  O21  1  0.560060  0.763050  0.419159  1
  O  O22  1  0.265180  0.052769  0.912338  1
  O  O23  1  0.010485  0.800796  0.621510  1
  O  O24  1  0.981774  0.197915  0.384937  1
  O  O25  1  0.739489  0.942804  0.084363  1
  O  O26  1  0.446672  0.234620  0.580200  1
  O  O27  1  0.384937  0.981774  0.197915  1
  O  O28  1  0.234620  0.580200  0.446672  1
  O  O29  1  0.052769  0.912338  0.265180  1
  O  O30  1  0.580200  0.446672  0.234620  1
  O  O31  1  0.800796  0.621510  0.010485  1
  O  O32  1  0.912338  0.265180  0.052769  1
  O  O33  1  0.692902  0.495386  0.877128  1
  O  O34  1  0.495386  0.877128  0.692902  1
  O  O35  1  0.877128  0.692902  0.495386  1
