# generated using pymatgen
data_Co2O3F
_symmetry_space_group_name_H-M   'P 1'
_cell_length_a   4.37610493
_cell_length_b   4.37610493
_cell_length_c   14.75506411
_cell_angle_alpha   90.00000000
_cell_angle_beta   90.00000000
_cell_angle_gamma   92.53426037
_symmetry_Int_Tables_number   1
_chemical_formula_structural   Co2O3F
_chemical_formula_sum   'Co10 O15 F5'
_cell_volume   282.28746263
_cell_formula_units_Z   5
loop_
 _symmetry_equiv_pos_site_id
 _symmetry_equiv_pos_as_xyz
  1  'x, y, z'
loop_
 _atom_site_type_symbol
 _atom_site_label
 _atom_site_symmetry_multiplicity
 _atom_site_fract_x
 _atom_site_fract_y
 _atom_site_fract_z
 _atom_site_occupancy
  Co  Co0  1  0.998527  0.001473  0.800221  1
  Co  Co1  1  0.998826  0.001174  0.599984  1
  Co  Co2  1  0.998826  0.001174  0.400016  1
  Co  Co3  1  0.998527  0.001473  0.199779  1
  Co  Co4  1  0.987946  0.012054  1.000000  1
  Co  Co5  1  0.473208  0.526792  0.700160  1
  Co  Co6  1  0.473208  0.526792  0.299840  1
  Co  Co7  1  0.524332  0.475668  0.500000  1
  Co  Co8  1  0.522432  0.477568  0.899881  1
  Co  Co9  1  0.522432  0.477568  0.100119  1
  O  O10  1  0.807840  0.192160  0.500000  1
  O  O11  1  0.804410  0.195590  0.100860  1
  O  O12  1  0.804410  0.195590  0.899140  1
  O  O13  1  0.302787  0.310446  0.800162  1
  O  O14  1  0.305361  0.306370  0.600038  1
  O  O15  1  0.302787  0.310446  0.199838  1
  O  O16  1  0.314535  0.294280  0.000000  1
  O  O17  1  0.305361  0.306370  0.399962  1
  O  O18  1  0.689554  0.697213  0.800162  1
  O  O19  1  0.693630  0.694639  0.600038  1
  O  O20  1  0.693630  0.694639  0.399962  1
  O  O21  1  0.689554  0.697213  0.199838  1
  O  O22  1  0.705720  0.685465  0.000000  1
  O  O23  1  0.190592  0.809408  0.700080  1
  O  O24  1  0.190592  0.809408  0.299920  1
  F  F25  1  0.779731  0.220269  0.700492  1
  F  F26  1  0.779731  0.220269  0.299508  1
  F  F27  1  0.218549  0.781451  0.500000  1
  F  F28  1  0.211481  0.788519  0.902791  1
  F  F29  1  0.211481  0.788519  0.097209  1
