# generated using pymatgen
data_LiMn3(PO4)3
_symmetry_space_group_name_H-M   'P 1'
_cell_length_a   9.05897865
_cell_length_b   9.05897865
_cell_length_c   6.72827369
_cell_angle_alpha   64.52385965
_cell_angle_beta   115.47614035
_cell_angle_gamma   95.69315458
_symmetry_Int_Tables_number   1
_chemical_formula_structural   LiMn3(PO4)3
_chemical_formula_sum   'Li2 Mn6 P6 O24'
_cell_volume   447.49685676
_cell_formula_units_Z   2
loop_
 _symmetry_equiv_pos_site_id
 _symmetry_equiv_pos_as_xyz
  1  'x, y, z'
loop_
 _atom_site_type_symbol
 _atom_site_label
 _atom_site_symmetry_multiplicity
 _atom_site_fract_x
 _atom_site_fract_y
 _atom_site_fract_z
 _atom_site_occupancy
  Li  Li0  1  0.500000  0.500000  0.500000  1
  Li  Li1  1  0.500000  0.500000  0.000000  1
  Mn  Mn2  1  0.067244  0.614873  0.804576  1
  Mn  Mn3  1  0.259095  0.259095  0.750000  1
  Mn  Mn4  1  0.385127  0.932756  0.304576  1
  Mn  Mn5  1  0.614873  0.067244  0.695424  1
  Mn  Mn6  1  0.740905  0.740905  0.250000  1
  Mn  Mn7  1  0.932756  0.385127  0.195424  1
  P  P8  1  0.350693  0.865446  0.852304  1
  P  P9  1  0.712443  0.712443  0.750000  1
  P  P10  1  0.134554  0.649307  0.352304  1
  P  P11  1  0.865446  0.350693  0.647696  1
  P  P12  1  0.287557  0.287557  0.250000  1
  P  P13  1  0.649307  0.134554  0.147696  1
  O  O14  1  0.181436  0.807799  0.743590  1
  O  O15  1  0.733911  0.834006  0.864566  1
  O  O16  1  0.409607  0.955533  0.642096  1
  O  O17  1  0.726510  0.536536  0.954673  1
  O  O18  1  0.520680  0.279303  0.937848  1
  O  O19  1  0.330673  0.997285  0.930570  1
  O  O20  1  0.997285  0.330673  0.569430  1
  O  O21  1  0.279303  0.520680  0.562152  1
  O  O22  1  0.536536  0.726510  0.545327  1
  O  O23  1  0.955533  0.409607  0.857904  1
  O  O24  1  0.834006  0.733911  0.635434  1
  O  O25  1  0.192201  0.818564  0.243590  1
  O  O26  1  0.807799  0.181436  0.756410  1
  O  O27  1  0.165994  0.266089  0.364566  1
  O  O28  1  0.044467  0.590393  0.142096  1
  O  O29  1  0.463464  0.273490  0.454673  1
  O  O30  1  0.720697  0.479320  0.437848  1
  O  O31  1  0.002715  0.669327  0.430570  1
  O  O32  1  0.669327  0.002715  0.069430  1
  O  O33  1  0.479320  0.720697  0.062152  1
  O  O34  1  0.273490  0.463464  0.045327  1
  O  O35  1  0.590393  0.044467  0.357904  1
  O  O36  1  0.266089  0.165994  0.135434  1
  O  O37  1  0.818564  0.192201  0.256410  1
