# generated using pymatgen
data_Hf2N2O
_symmetry_space_group_name_H-M   'P 1'
_cell_length_a   8.72354472
_cell_length_b   8.72698142
_cell_length_c   8.72707336
_cell_angle_alpha   109.38089045
_cell_angle_beta   109.33160029
_cell_angle_gamma   109.48250167
_symmetry_Int_Tables_number   1
_chemical_formula_structural   Hf2N2O
_chemical_formula_sum   'Hf16 N16 O8'
_cell_volume   512.82560313
_cell_formula_units_Z   8
loop_
 _symmetry_equiv_pos_site_id
 _symmetry_equiv_pos_as_xyz
  1  'x, y, z'
loop_
 _atom_site_type_symbol
 _atom_site_label
 _atom_site_symmetry_multiplicity
 _atom_site_fract_x
 _atom_site_fract_y
 _atom_site_fract_z
 _atom_site_occupancy
  Hf  Hf0  1  0.996529  0.489160  0.990941  1
  Hf  Hf1  1  0.218870  0.258195  0.969960  1
  Hf  Hf2  1  0.753918  0.974402  0.723392  1
  Hf  Hf3  1  0.243645  0.531503  0.781771  1
  Hf  Hf4  1  0.032758  0.282047  0.253630  1
  Hf  Hf5  1  0.534485  0.787191  0.250382  1
  Hf  Hf6  1  0.290917  0.755005  0.541771  1
  Hf  Hf7  1  0.713865  0.248280  0.464532  1
  Hf  Hf8  1  0.986080  0.988921  0.480246  1
  Hf  Hf9  1  0.510284  0.018046  0.013309  1
  Hf  Hf10  1  0.507372  0.499969  0.510688  1
  Hf  Hf11  1  0.468005  0.210093  0.750756  1
  Hf  Hf12  1  0.953054  0.706476  0.739642  1
  Hf  Hf13  1  0.257328  0.037259  0.297591  1
  Hf  Hf14  1  0.743720  0.463583  0.209111  1
  Hf  Hf15  1  0.786257  0.746851  0.032623  1
  N  N16  1  0.276563  0.533228  0.046708  1
  N  N17  1  0.260058  0.489421  0.534509  1
  N  N18  1  0.448968  0.983473  0.221179  1
  N  N19  1  0.774542  0.045990  0.517662  1
  N  N20  1  0.462919  0.237765  0.010910  1
  N  N21  1  0.223081  0.949297  0.488313  1
  N  N22  1  0.728351  0.740246  0.772375  1
  N  N23  1  0.970390  0.460482  0.730049  1
  N  N24  1  0.773576  0.229371  0.237130  1
  N  N25  1  0.991889  0.033558  0.259132  1
  N  N26  1  0.542489  0.005587  0.770627  1
  N  N27  1  0.739405  0.517021  0.466332  1
  N  N28  1  0.757616  0.728245  0.268417  1
  N  N29  1  0.958437  0.227359  0.969446  1
  N  N30  1  0.730832  0.465300  0.952813  1
  N  N31  1  0.507049  0.273238  0.543596  1
  O  O32  1  0.481857  0.725024  0.449326  1
  O  O33  1  0.044794  0.772173  0.034245  1
  O  O34  1  0.234740  0.271699  0.727993  1
  O  O35  1  0.227254  0.773346  0.762848  1
  O  O36  1  0.021546  0.966507  0.741549  1
  O  O37  1  0.531829  0.759924  0.984163  1
  O  O38  1  0.276998  0.264799  0.227527  1
  O  O39  1  0.037731  0.549968  0.272807  1
