# generated using pymatgen
data_VCu3(PO4)4
_symmetry_space_group_name_H-M   'P 1'
_cell_length_a   4.85388526
_cell_length_b   5.91198429
_cell_length_c   9.78967227
_cell_angle_alpha   90.00000000
_cell_angle_beta   90.60921057
_cell_angle_gamma   90.00000000
_symmetry_Int_Tables_number   1
_chemical_formula_structural   VCu3(PO4)4
_chemical_formula_sum   'V1 Cu3 P4 O16'
_cell_volume   280.90947036
_cell_formula_units_Z   1
loop_
 _symmetry_equiv_pos_site_id
 _symmetry_equiv_pos_as_xyz
  1  'x, y, z'
loop_
 _atom_site_type_symbol
 _atom_site_label
 _atom_site_symmetry_multiplicity
 _atom_site_fract_x
 _atom_site_fract_y
 _atom_site_fract_z
 _atom_site_occupancy
  V  V0  1  0.027555  0.000000  0.277679  1
  Cu  Cu1  1  0.961399  0.500000  0.723899  1
  Cu  Cu2  1  0.578757  0.500000  0.215663  1
  Cu  Cu3  1  0.432635  0.000000  0.777872  1
  P  P4  1  0.917371  0.000000  0.602353  1
  P  P5  1  0.594835  0.000000  0.096005  1
  P  P6  1  0.418241  0.500000  0.903297  1
  P  P7  1  0.067797  0.500000  0.405786  1
  O  O8  1  0.853975  0.000000  0.438886  1
  O  O9  1  0.770782  0.207674  0.662441  1
  O  O10  1  0.770782  0.792326  0.662441  1
  O  O11  1  0.754967  0.500000  0.389226  1
  O  O12  1  0.730625  0.500000  0.886647  1
  O  O13  1  0.757348  0.194542  0.174251  1
  O  O14  1  0.757348  0.805458  0.174251  1
  O  O15  1  0.647042  0.000000  0.944562  1
  O  O16  1  0.353609  0.500000  0.057517  1
  O  O17  1  0.262028  0.701152  0.829947  1
  O  O18  1  0.262028  0.298848  0.829947  1
  O  O19  1  0.288455  0.000000  0.133273  1
  O  O20  1  0.232010  0.000000  0.608411  1
  O  O21  1  0.194081  0.713934  0.326804  1
  O  O22  1  0.194081  0.286066  0.326804  1
  O  O23  1  0.172251  0.500000  0.552040  1
