# generated using pymatgen
data_K4Sb2O5
_symmetry_space_group_name_H-M   'P 1'
_cell_length_a   6.45030172
_cell_length_b   7.97489945
_cell_length_c   18.36148695
_cell_angle_alpha   90.00000000
_cell_angle_beta   90.00000000
_cell_angle_gamma   90.00000000
_symmetry_Int_Tables_number   1
_chemical_formula_structural   K4Sb2O5
_chemical_formula_sum   'K16 Sb8 O20'
_cell_volume   944.52420982
_cell_formula_units_Z   4
loop_
 _symmetry_equiv_pos_site_id
 _symmetry_equiv_pos_as_xyz
  1  'x, y, z'
loop_
 _atom_site_type_symbol
 _atom_site_label
 _atom_site_symmetry_multiplicity
 _atom_site_fract_x
 _atom_site_fract_y
 _atom_site_fract_z
 _atom_site_occupancy
  K  K0  1  0.250000  0.624906  0.847758  1
  K  K1  1  0.750000  0.625077  0.986740  1
  K  K2  1  0.750000  0.625077  0.651899  1
  K  K3  1  0.250000  0.624924  0.512067  1
  K  K4  1  0.250000  0.875076  0.012067  1
  K  K5  1  0.750000  0.874923  0.151899  1
  K  K6  1  0.250000  0.875094  0.347758  1
  K  K7  1  0.750000  0.874923  0.486740  1
  K  K8  1  0.250000  0.125077  0.848101  1
  K  K9  1  0.750000  0.124924  0.987933  1
  K  K10  1  0.750000  0.124906  0.652242  1
  K  K11  1  0.250000  0.125077  0.513260  1
  K  K12  1  0.250000  0.374923  0.348101  1
  K  K13  1  0.750000  0.375076  0.487933  1
  K  K14  1  0.750000  0.375094  0.152242  1
  K  K15  1  0.250000  0.374923  0.013260  1
  Sb  Sb16  1  0.250000  0.621850  0.167511  1
  Sb  Sb17  1  0.750000  0.628159  0.332476  1
  Sb  Sb18  1  0.750000  0.871841  0.832476  1
  Sb  Sb19  1  0.250000  0.878150  0.667511  1
  Sb  Sb20  1  0.250000  0.128159  0.167524  1
  Sb  Sb21  1  0.750000  0.121850  0.332489  1
  Sb  Sb22  1  0.250000  0.371841  0.667524  1
  Sb  Sb23  1  0.750000  0.378150  0.832489  1
  O  O24  1  0.750000  0.625031  0.802660  1
  O  O25  1  0.478007  0.625919  0.098347  1
  O  O26  1  0.522012  0.624097  0.401651  1
  O  O27  1  0.021993  0.625919  0.098347  1
  O  O28  1  0.977988  0.624097  0.401651  1
  O  O29  1  0.750000  0.874969  0.302660  1
  O  O30  1  0.021993  0.874081  0.598347  1
  O  O31  1  0.478007  0.874081  0.598347  1
  O  O32  1  0.977988  0.875903  0.901651  1
  O  O33  1  0.522012  0.875903  0.901651  1
  O  O34  1  0.521993  0.125919  0.401653  1
  O  O35  1  0.022012  0.124097  0.098349  1
  O  O36  1  0.477988  0.124097  0.098349  1
  O  O37  1  0.978007  0.125919  0.401653  1
  O  O38  1  0.250000  0.125031  0.697340  1
  O  O39  1  0.022012  0.375903  0.598349  1
  O  O40  1  0.477988  0.375903  0.598349  1
  O  O41  1  0.521993  0.374081  0.901653  1
  O  O42  1  0.978007  0.374081  0.901653  1
  O  O43  1  0.250000  0.374969  0.197340  1
