# generated using pymatgen
data_Li2V3(PO4)3
_symmetry_space_group_name_H-M   'P 1'
_cell_length_a   8.57751064
_cell_length_b   8.57751064
_cell_length_c   8.51725313
_cell_angle_alpha   63.19951491
_cell_angle_beta   116.80048509
_cell_angle_gamma   116.85267733
_symmetry_Int_Tables_number   1
_chemical_formula_structural   Li2V3(PO4)3
_chemical_formula_sum   'Li4 V6 P6 O24'
_cell_volume   474.36387020
_cell_formula_units_Z   2
loop_
 _symmetry_equiv_pos_site_id
 _symmetry_equiv_pos_as_xyz
  1  'x, y, z'
loop_
 _atom_site_type_symbol
 _atom_site_label
 _atom_site_symmetry_multiplicity
 _atom_site_fract_x
 _atom_site_fract_y
 _atom_site_fract_z
 _atom_site_occupancy
  Li  Li0  1  0.860250  0.860250  0.000000  1
  Li  Li1  1  0.154610  0.154610  0.500000  1
  Li  Li2  1  0.751424  0.348607  0.899402  1
  Li  Li3  1  0.348607  0.751424  0.100598  1
  V  V4  1  0.000980  0.497902  0.256731  1
  V  V5  1  0.644365  0.851997  0.607617  1
  V  V6  1  0.151687  0.350695  0.102691  1
  V  V7  1  0.497902  0.000980  0.743269  1
  V  V8  1  0.851997  0.644365  0.392383  1
  V  V9  1  0.350695  0.151687  0.897309  1
  P  P10  1  0.252838  0.939336  0.312212  1
  P  P11  1  0.939336  0.252838  0.687788  1
  P  P12  1  0.558948  0.558948  0.000000  1
  P  P13  1  0.455769  0.455769  0.500000  1
  P  P14  1  0.041683  0.751500  0.802129  1
  P  P15  1  0.751500  0.041683  0.197871  1
  O  O16  1  0.094769  0.193307  0.712279  1
  O  O17  1  0.534283  0.406045  0.938387  1
  O  O18  1  0.311727  0.966214  0.154289  1
  O  O19  1  0.089922  0.752319  0.321267  1
  O  O20  1  0.193307  0.094769  0.287721  1
  O  O21  1  0.409037  0.917679  0.503122  1
  O  O22  1  0.917679  0.409037  0.496878  1
  O  O23  1  0.752319  0.089922  0.678733  1
  O  O24  1  0.606390  0.500493  0.424367  1
  O  O25  1  0.585568  0.756544  0.849475  1
  O  O26  1  0.259919  0.436475  0.350102  1
  O  O27  1  0.981674  0.688506  0.637735  1
  O  O28  1  0.966214  0.311727  0.845711  1
  O  O29  1  0.756544  0.585568  0.150525  1
  O  O30  1  0.436475  0.259919  0.649898  1
  O  O31  1  0.406045  0.534283  0.061613  1
  O  O32  1  0.235954  0.902414  0.812808  1
  O  O33  1  0.069311  0.597717  0.995541  1
  O  O34  1  0.597717  0.069311  0.004459  1
  O  O35  1  0.819114  0.895030  0.212668  1
  O  O36  1  0.902414  0.235954  0.187192  1
  O  O37  1  0.688506  0.981674  0.362265  1
  O  O38  1  0.500493  0.606390  0.575633  1
  O  O39  1  0.895030  0.819114  0.787332  1
