# generated using pymatgen
data_Mn7V(PO4)12
_symmetry_space_group_name_H-M   'P 1'
_cell_length_a   8.45042600
_cell_length_b   8.47939294
_cell_length_c   11.78100118
_cell_angle_alpha   90.05504757
_cell_angle_beta   90.02836600
_cell_angle_gamma   90.04000876
_symmetry_Int_Tables_number   1
_chemical_formula_structural   Mn7V(PO4)12
_chemical_formula_sum   'Mn7 V1 P12 O48'
_cell_volume   844.16084427
_cell_formula_units_Z   1
loop_
 _symmetry_equiv_pos_site_id
 _symmetry_equiv_pos_as_xyz
  1  'x, y, z'
loop_
 _atom_site_type_symbol
 _atom_site_label
 _atom_site_symmetry_multiplicity
 _atom_site_fract_x
 _atom_site_fract_y
 _atom_site_fract_z
 _atom_site_occupancy
  Mn  Mn0  1  0.966218  0.250038  0.380860  1
  Mn  Mn1  1  0.534375  0.250595  0.618581  1
  Mn  Mn2  1  0.034918  0.249818  0.881781  1
  Mn  Mn3  1  0.466211  0.249747  0.118471  1
  Mn  Mn4  1  0.534580  0.750177  0.880868  1
  Mn  Mn5  1  0.966292  0.750388  0.117953  1
  Mn  Mn6  1  0.034007  0.749733  0.618312  1
  V  V7  1  0.469277  0.749715  0.377940  1
  P  P8  1  0.247908  0.037442  0.500679  1
  P  P9  1  0.391347  0.106185  0.854727  1
  P  P10  1  0.108695  0.106517  0.145026  1
  P  P11  1  0.608584  0.389376  0.354513  1
  P  P12  1  0.891566  0.393278  0.644843  1
  P  P13  1  0.750158  0.463813  0.999832  1
  P  P14  1  0.250414  0.536668  0.999854  1
  P  P15  1  0.392124  0.605858  0.645624  1
  P  P16  1  0.105209  0.605097  0.354722  1
  P  P17  1  0.610591  0.896488  0.142412  1
  P  P18  1  0.891643  0.893532  0.854579  1
  P  P19  1  0.752678  0.965478  0.501354  1
  O  O20  1  0.643611  0.062043  0.578084  1
  O  O21  1  0.857717  0.059300  0.420222  1
  O  O22  1  0.900854  0.075250  0.839842  1
  O  O23  1  0.601394  0.076254  0.157621  1
  O  O24  1  0.159373  0.144944  0.416806  1
  O  O25  1  0.341204  0.145725  0.581407  1
  O  O26  1  0.438586  0.158842  0.973436  1
  O  O27  1  0.061482  0.158655  0.026043  1
  O  O28  1  0.220948  0.151095  0.823687  1
  O  O29  1  0.279359  0.150730  0.175972  1
  O  O30  1  0.513587  0.179297  0.772376  1
  O  O31  1  0.985993  0.179595  0.226800  1
  O  O32  1  0.014056  0.320607  0.727465  1
  O  O33  1  0.486224  0.317858  0.272769  1
  O  O34  1  0.780545  0.351639  0.324054  1
  O  O35  1  0.721036  0.349305  0.676336  1
  O  O36  1  0.563115  0.339993  0.474178  1
  O  O37  1  0.939231  0.339898  0.526297  1
  O  O38  1  0.840656  0.353340  0.918146  1
  O  O39  1  0.659076  0.354887  0.081547  1
  O  O40  1  0.101268  0.424283  0.340172  1
  O  O41  1  0.399462  0.424500  0.657581  1
  O  O42  1  0.140652  0.440642  0.922608  1
  O  O43  1  0.358938  0.440509  0.077414  1
  O  O44  1  0.641350  0.559719  0.922065  1
  O  O45  1  0.859677  0.559978  0.077080  1
  O  O46  1  0.590959  0.572517  0.344009  1
  O  O47  1  0.900868  0.574815  0.659776  1
  O  O48  1  0.340507  0.646265  0.917492  1
  O  O49  1  0.160299  0.646530  0.082282  1
  O  O50  1  0.058744  0.657426  0.473804  1
  O  O51  1  0.438999  0.662872  0.526218  1
  O  O52  1  0.221664  0.651769  0.674967  1
  O  O53  1  0.279069  0.653047  0.329650  1
  O  O54  1  0.514477  0.679725  0.726945  1
  O  O55  1  0.986821  0.682158  0.272617  1
  O  O56  1  0.014243  0.820158  0.772641  1
  O  O57  1  0.493022  0.822211  0.230569  1
  O  O58  1  0.721051  0.849206  0.823751  1
  O  O59  1  0.779235  0.848314  0.175186  1
  O  O60  1  0.558912  0.839157  0.026134  1
  O  O61  1  0.938888  0.841712  0.973518  1
  O  O62  1  0.651699  0.855646  0.423249  1
  O  O63  1  0.841158  0.853363  0.581561  1
  O  O64  1  0.100386  0.925052  0.159113  1
  O  O65  1  0.400206  0.924633  0.840092  1
  O  O66  1  0.138568  0.941844  0.578119  1
  O  O67  1  0.354041  0.932749  0.425367  1
