# generated using pymatgen
data_Li5CoHO4
_symmetry_space_group_name_H-M   'P 1'
_cell_length_a   8.80857182
_cell_length_b   8.94509338
_cell_length_c   10.69823024
_cell_angle_alpha   90.00000000
_cell_angle_beta   90.00000000
_cell_angle_gamma   90.00000000
_symmetry_Int_Tables_number   1
_chemical_formula_structural   Li5CoHO4
_chemical_formula_sum   'Li40 Co8 H8 O32'
_cell_volume   842.95097740
_cell_formula_units_Z   8
loop_
 _symmetry_equiv_pos_site_id
 _symmetry_equiv_pos_as_xyz
  1  'x, y, z'
loop_
 _atom_site_type_symbol
 _atom_site_label
 _atom_site_symmetry_multiplicity
 _atom_site_fract_x
 _atom_site_fract_y
 _atom_site_fract_z
 _atom_site_occupancy
  Li  Li0  1  0.972175  0.583939  0.700449  1
  Li  Li1  1  0.972175  0.916061  0.700449  1
  Li  Li2  1  0.077323  0.435227  0.927227  1
  Li  Li3  1  0.077323  0.064773  0.927227  1
  Li  Li4  1  0.076257  0.750000  0.938436  1
  Li  Li5  1  0.120702  0.250000  0.482039  1
  Li  Li6  1  0.113318  0.568649  0.485739  1
  Li  Li7  1  0.113318  0.931351  0.485739  1
  Li  Li8  1  0.207002  0.582588  0.143142  1
  Li  Li9  1  0.207002  0.917412  0.143142  1
  Li  Li10  1  0.292998  0.082588  0.643142  1
  Li  Li11  1  0.292998  0.417412  0.643142  1
  Li  Li12  1  0.386682  0.068649  0.985739  1
  Li  Li13  1  0.386682  0.431351  0.985739  1
  Li  Li14  1  0.379298  0.750000  0.982039  1
  Li  Li15  1  0.423743  0.250000  0.438436  1
  Li  Li16  1  0.422677  0.564773  0.427227  1
  Li  Li17  1  0.422677  0.935227  0.427227  1
  Li  Li18  1  0.527825  0.083939  0.200449  1
  Li  Li19  1  0.527825  0.416061  0.200449  1
  Li  Li20  1  0.472175  0.583939  0.799551  1
  Li  Li21  1  0.472175  0.916061  0.799551  1
  Li  Li22  1  0.577323  0.064773  0.572773  1
  Li  Li23  1  0.577323  0.435227  0.572773  1
  Li  Li24  1  0.576257  0.750000  0.561564  1
  Li  Li25  1  0.620702  0.250000  0.017961  1
  Li  Li26  1  0.613318  0.568649  0.014261  1
  Li  Li27  1  0.613318  0.931351  0.014261  1
  Li  Li28  1  0.707002  0.582588  0.356858  1
  Li  Li29  1  0.707002  0.917412  0.356858  1
  Li  Li30  1  0.792998  0.082588  0.856858  1
  Li  Li31  1  0.792998  0.417412  0.856858  1
  Li  Li32  1  0.886682  0.068649  0.514261  1
  Li  Li33  1  0.886682  0.431351  0.514261  1
  Li  Li34  1  0.879298  0.750000  0.517961  1
  Li  Li35  1  0.923743  0.250000  0.061564  1
  Li  Li36  1  0.922677  0.935227  0.072773  1
  Li  Li37  1  0.922677  0.564773  0.072773  1
  Li  Li38  1  0.027825  0.083939  0.299551  1
  Li  Li39  1  0.027825  0.416061  0.299551  1
  Co  Co40  1  0.019777  0.250000  0.718461  1
  Co  Co41  1  0.213943  0.250000  0.120237  1
  Co  Co42  1  0.286057  0.750000  0.620237  1
  Co  Co43  1  0.480223  0.750000  0.218461  1
  Co  Co44  1  0.519777  0.250000  0.781539  1
  Co  Co45  1  0.713943  0.250000  0.379763  1
  Co  Co46  1  0.786057  0.750000  0.879763  1
  Co  Co47  1  0.980223  0.750000  0.281539  1
  H  H48  1  0.209703  0.904204  0.811112  1
  H  H49  1  0.209703  0.595796  0.811112  1
  H  H50  1  0.290297  0.095796  0.311112  1
  H  H51  1  0.290297  0.404204  0.311112  1
  H  H52  1  0.709703  0.595796  0.688888  1
  H  H53  1  0.709703  0.904204  0.688888  1
  H  H54  1  0.790297  0.095796  0.188888  1
  H  H55  1  0.790297  0.404204  0.188888  1
  O  O56  1  0.059735  0.750000  0.124205  1
  O  O57  1  0.074277  0.086494  0.617854  1
  O  O58  1  0.074277  0.413506  0.617854  1
  O  O59  1  0.076409  0.411198  0.116302  1
  O  O60  1  0.076409  0.088802  0.116302  1
  O  O61  1  0.080725  0.750000  0.609177  1
  O  O62  1  0.241527  0.072406  0.391322  1
  O  O63  1  0.241527  0.427594  0.391322  1
  O  O64  1  0.258473  0.572406  0.891322  1
  O  O65  1  0.258473  0.927594  0.891322  1
  O  O66  1  0.419275  0.250000  0.109177  1
  O  O67  1  0.423591  0.588802  0.616302  1
  O  O68  1  0.423591  0.911198  0.616302  1
  O  O69  1  0.425723  0.586494  0.117854  1
  O  O70  1  0.425723  0.913506  0.117854  1
  O  O71  1  0.440265  0.250000  0.624205  1
  O  O72  1  0.559735  0.750000  0.375795  1
  O  O73  1  0.574277  0.086494  0.882146  1
  O  O74  1  0.574277  0.413506  0.882146  1
  O  O75  1  0.576409  0.088802  0.383698  1
  O  O76  1  0.576409  0.411198  0.383698  1
  O  O77  1  0.580725  0.750000  0.890823  1
  O  O78  1  0.741527  0.072406  0.108678  1
  O  O79  1  0.741527  0.427594  0.108678  1
  O  O80  1  0.758473  0.572406  0.608678  1
  O  O81  1  0.758473  0.927594  0.608678  1
  O  O82  1  0.919275  0.250000  0.390823  1
  O  O83  1  0.923591  0.911198  0.883698  1
  O  O84  1  0.923591  0.588802  0.883698  1
  O  O85  1  0.925723  0.913506  0.382146  1
  O  O86  1  0.925723  0.586494  0.382146  1
  O  O87  1  0.940265  0.250000  0.875795  1
