# generated using pymatgen
data_Li3Mn4CuO8
_symmetry_space_group_name_H-M   'P 1'
_cell_length_a   5.99346244
_cell_length_b   5.99346244
_cell_length_c   6.15734649
_cell_angle_alpha   59.29034787
_cell_angle_beta   120.70965213
_cell_angle_gamma   118.21643998
_symmetry_Int_Tables_number   1
_chemical_formula_structural   Li3Mn4CuO8
_chemical_formula_sum   'Li3 Mn4 Cu1 O8'
_cell_volume   156.62865451
_cell_formula_units_Z   1
loop_
 _symmetry_equiv_pos_site_id
 _symmetry_equiv_pos_as_xyz
  1  'x, y, z'
loop_
 _atom_site_type_symbol
 _atom_site_label
 _atom_site_symmetry_multiplicity
 _atom_site_fract_x
 _atom_site_fract_y
 _atom_site_fract_z
 _atom_site_occupancy
  Li  Li0  1  0.500000  1.000000  0.500000  1
  Li  Li1  1  0.000000  0.000000  0.500000  1
  Li  Li2  1  1.000000  0.500000  0.500000  1
  Mn  Mn3  1  0.500000  0.500000  0.500000  1
  Mn  Mn4  1  0.000000  0.000000  0.000000  1
  Mn  Mn5  1  0.500000  0.000000  0.000000  1
  Mn  Mn6  1  0.000000  0.500000  0.000000  1
  Cu  Cu7  1  0.500000  0.500000  0.000000  1
  O  O8  1  0.261099  0.738901  0.803553  1
  O  O9  1  0.769903  0.744145  0.757528  1
  O  O10  1  0.255855  0.230097  0.757528  1
  O  O11  1  0.745521  0.254479  0.726609  1
  O  O12  1  0.254479  0.745521  0.273391  1
  O  O13  1  0.744145  0.769903  0.242472  1
  O  O14  1  0.230097  0.255855  0.242472  1
  O  O15  1  0.738901  0.261099  0.196447  1
