# generated using pymatgen
data_Li3VF6
_symmetry_space_group_name_H-M   'P 1'
_cell_length_a   9.14842861
_cell_length_b   9.14842861
_cell_length_c   9.43202761
_cell_angle_alpha   88.17808609
_cell_angle_beta   91.82191391
_cell_angle_gamma   146.09760004
_symmetry_Int_Tables_number   1
_chemical_formula_structural   Li3VF6
_chemical_formula_sum   'Li12 V4 F24'
_cell_volume   440.06912083
_cell_formula_units_Z   4
loop_
 _symmetry_equiv_pos_site_id
 _symmetry_equiv_pos_as_xyz
  1  'x, y, z'
loop_
 _atom_site_type_symbol
 _atom_site_label
 _atom_site_symmetry_multiplicity
 _atom_site_fract_x
 _atom_site_fract_y
 _atom_site_fract_z
 _atom_site_occupancy
  Li  Li0  1  0.298662  0.138535  0.450115  1
  Li  Li1  1  0.861465  0.701338  0.950115  1
  Li  Li2  1  0.960864  0.607812  0.319867  1
  Li  Li3  1  0.396227  0.178763  0.100708  1
  Li  Li4  1  0.392188  0.039136  0.819867  1
  Li  Li5  1  0.821237  0.603773  0.600708  1
  Li  Li6  1  0.178763  0.396227  0.399292  1
  Li  Li7  1  0.607812  0.960864  0.180133  1
  Li  Li8  1  0.603773  0.821237  0.899292  1
  Li  Li9  1  0.039136  0.392188  0.680133  1
  Li  Li10  1  0.138535  0.298662  0.049885  1
  Li  Li11  1  0.701338  0.861465  0.549885  1
  V  V12  1  1.000000  0.500000  0.000000  1
  V  V13  1  0.500000  0.000000  0.500000  1
  V  V14  1  0.796338  0.796338  0.250000  1
  V  V15  1  0.203662  0.203662  0.750000  1
  F  F16  1  0.784297  0.748545  0.461870  1
  F  F17  1  0.150718  0.998494  0.260462  1
  F  F18  1  0.676810  0.501249  0.214230  1
  F  F19  1  0.251455  0.215703  0.961870  1
  F  F20  1  0.001506  0.849282  0.760462  1
  F  F21  1  0.498751  0.323190  0.714230  1
  F  F22  1  0.651346  0.322508  0.460148  1
  F  F23  1  0.677492  0.348654  0.960148  1
  F  F24  1  0.175621  0.845835  0.015132  1
  F  F25  1  0.154165  0.824379  0.515132  1
  F  F26  1  0.390075  0.892342  0.304643  1
  F  F27  1  0.892342  0.390075  0.195357  1
  F  F28  1  0.107658  0.609925  0.804642  1
  F  F29  1  0.609925  0.107658  0.695358  1
  F  F30  1  0.845835  0.175621  0.484868  1
  F  F31  1  0.824379  0.154165  0.984868  1
  F  F32  1  0.322508  0.651346  0.039852  1
  F  F33  1  0.348654  0.677492  0.539852  1
  F  F34  1  0.501249  0.676810  0.285770  1
  F  F35  1  0.998494  0.150718  0.239538  1
  F  F36  1  0.748545  0.784297  0.038130  1
  F  F37  1  0.323190  0.498751  0.785770  1
  F  F38  1  0.849282  0.001506  0.739538  1
  F  F39  1  0.215703  0.251455  0.538130  1
