# generated using pymatgen
data_CeHfO4
_symmetry_space_group_name_H-M   'P 1'
_cell_length_a   6.60674320
_cell_length_b   6.60674320
_cell_length_c   6.60674320
_cell_angle_alpha   132.58706063
_cell_angle_beta   132.58706063
_cell_angle_gamma   69.30339389
_symmetry_Int_Tables_number   1
_chemical_formula_structural   CeHfO4
_chemical_formula_sum   'Ce2 Hf2 O8'
_cell_volume   153.38614494
_cell_formula_units_Z   2
loop_
 _symmetry_equiv_pos_site_id
 _symmetry_equiv_pos_as_xyz
  1  'x, y, z'
loop_
 _atom_site_type_symbol
 _atom_site_label
 _atom_site_symmetry_multiplicity
 _atom_site_fract_x
 _atom_site_fract_y
 _atom_site_fract_z
 _atom_site_occupancy
  Ce  Ce0  1  0.250000  0.750000  0.500000  1
  Ce  Ce1  1  0.500000  0.500000  0.000000  1
  Hf  Hf2  1  0.000000  0.000000  1.000000  1
  Hf  Hf3  1  0.750000  0.250000  0.500000  1
  O  O4  1  0.095739  0.140794  0.534312  1
  O  O5  1  0.890794  0.856481  0.545054  1
  O  O6  1  0.311427  0.345739  0.454946  1
  O  O7  1  0.143519  0.688573  0.034312  1
  O  O8  1  0.606481  0.561427  0.465688  1
  O  O9  1  0.438573  0.904261  0.045054  1
  O  O10  1  0.859206  0.393519  0.954946  1
  O  O11  1  0.654261  0.109206  0.965688  1
