# generated using pymatgen
data_Li7Ti5O12
_symmetry_space_group_name_H-M   'P 1'
_cell_length_a   5.08089807
_cell_length_b   5.08089807
_cell_length_c   9.98184154
_cell_angle_alpha   85.16189258
_cell_angle_beta   94.83810742
_cell_angle_gamma   59.98641633
_symmetry_Int_Tables_number   1
_chemical_formula_structural   Li7Ti5O12
_chemical_formula_sum   'Li7 Ti5 O12'
_cell_volume   219.93382367
_cell_formula_units_Z   1
loop_
 _symmetry_equiv_pos_site_id
 _symmetry_equiv_pos_as_xyz
  1  'x, y, z'
loop_
 _atom_site_type_symbol
 _atom_site_label
 _atom_site_symmetry_multiplicity
 _atom_site_fract_x
 _atom_site_fract_y
 _atom_site_fract_z
 _atom_site_occupancy
  Li  Li0  1  0.754231  0.245769  0.243113  1
  Li  Li1  1  0.589570  0.078273  0.755670  1
  Li  Li2  1  0.245769  0.754231  0.756887  1
  Li  Li3  1  0.078273  0.589570  0.244330  1
  Li  Li4  1  0.410430  0.921727  0.244330  1
  Li  Li5  1  0.921727  0.410430  0.755670  1
  Li  Li6  1  0.000000  0.000000  0.000000  1
  Ti  Ti7  1  0.666727  0.666727  0.000000  1
  Ti  Ti8  1  0.500000  0.500000  0.500000  1
  Ti  Ti9  1  0.828871  0.828871  0.500000  1
  Ti  Ti10  1  0.333273  0.333273  0.000000  1
  Ti  Ti11  1  0.171129  0.171129  0.500000  1
  O  O12  1  0.608063  0.391937  0.887017  1
  O  O13  1  0.391937  0.608063  0.112983  1
  O  O14  1  0.682861  0.962271  0.113073  1
  O  O15  1  0.455570  0.201910  0.381261  1
  O  O16  1  0.544430  0.798090  0.618739  1
  O  O17  1  0.201910  0.455570  0.618739  1
  O  O18  1  0.317139  0.037729  0.886927  1
  O  O19  1  0.962271  0.682861  0.886927  1
  O  O20  1  0.037729  0.317139  0.113073  1
  O  O21  1  0.798090  0.544430  0.381261  1
  O  O22  1  0.126516  0.873484  0.378561  1
  O  O23  1  0.873484  0.126516  0.621439  1
