# generated using pymatgen
data_LiCu3F10
_symmetry_space_group_name_H-M   'P 1'
_cell_length_a   8.11394391
_cell_length_b   8.11394391
_cell_length_c   14.06546147
_cell_angle_alpha   83.13138195
_cell_angle_beta   96.86861805
_cell_angle_gamma   55.88301578
_symmetry_Int_Tables_number   1
_chemical_formula_structural   LiCu3F10
_chemical_formula_sum   'Li4 Cu12 F40'
_cell_volume   741.25140659
_cell_formula_units_Z   4
loop_
 _symmetry_equiv_pos_site_id
 _symmetry_equiv_pos_as_xyz
  1  'x, y, z'
loop_
 _atom_site_type_symbol
 _atom_site_label
 _atom_site_symmetry_multiplicity
 _atom_site_fract_x
 _atom_site_fract_y
 _atom_site_fract_z
 _atom_site_occupancy
  Li  Li0  1  0.810534  0.697711  0.863374  1
  Li  Li1  1  0.535929  0.250623  0.790015  1
  Li  Li2  1  0.302289  0.189466  0.363374  1
  Li  Li3  1  0.749377  0.464071  0.290015  1
  Cu  Cu4  1  0.413103  0.054230  0.969103  1
  Cu  Cu5  1  0.059654  0.680420  0.211168  1
  Cu  Cu6  1  0.491662  0.395534  0.521182  1
  Cu  Cu7  1  0.559108  0.192035  0.201304  1
  Cu  Cu8  1  0.988991  0.925219  0.524978  1
  Cu  Cu9  1  0.994233  0.876872  0.783976  1
  Cu  Cu10  1  0.123128  0.005767  0.283976  1
  Cu  Cu11  1  0.604466  0.508338  0.021182  1
  Cu  Cu12  1  0.319580  0.940346  0.711168  1
  Cu  Cu13  1  0.074781  0.011009  0.024978  1
  Cu  Cu14  1  0.807965  0.440892  0.701304  1
  Cu  Cu15  1  0.945770  0.586897  0.469103  1
  F  F16  1  0.377554  0.093830  0.647216  1
  F  F17  1  0.738282  0.964971  0.799911  1
  F  F18  1  0.999814  0.618068  0.324776  1
  F  F19  1  0.405456  0.302355  0.433323  1
  F  F20  1  0.681328  0.905837  0.987436  1
  F  F21  1  0.521707  0.273265  0.648589  1
  F  F22  1  0.902490  0.541970  0.621412  1
  F  F23  1  0.067166  0.611013  0.826578  1
  F  F24  1  0.819863  0.009537  0.192323  1
  F  F25  1  0.399936  0.267918  0.903914  1
  F  F26  1  0.800532  0.866333  0.457847  1
  F  F27  1  0.233188  0.724887  0.282615  1
  F  F28  1  0.167053  0.600048  0.524240  1
  F  F29  1  0.930053  0.877954  0.648826  1
  F  F30  1  0.785012  0.236299  0.003197  1
  F  F31  1  0.315627  0.342040  0.234888  1
  F  F32  1  0.555026  0.557025  0.566921  1
  F  F33  1  0.442975  0.444974  0.066921  1
  F  F34  1  0.662026  0.273337  0.288876  1
  F  F35  1  0.042743  0.929300  0.910334  1
  F  F36  1  0.070700  0.957257  0.410334  1
  F  F37  1  0.275113  0.766812  0.782615  1
  F  F38  1  0.232181  0.895051  0.594951  1
  F  F39  1  0.763701  0.214988  0.503197  1
  F  F40  1  0.104949  0.767819  0.094951  1
  F  F41  1  0.657960  0.684373  0.734888  1
  F  F42  1  0.726735  0.478293  0.148589  1
  F  F43  1  0.697645  0.594544  0.933323  1
  F  F44  1  0.399952  0.832947  0.024240  1
  F  F45  1  0.035029  0.261718  0.299911  1
  F  F46  1  0.990463  0.180137  0.692323  1
  F  F47  1  0.726663  0.337974  0.788876  1
  F  F48  1  0.094163  0.318672  0.487436  1
  F  F49  1  0.732082  0.600064  0.403914  1
  F  F50  1  0.906170  0.622446  0.147216  1
  F  F51  1  0.122046  0.069947  0.148826  1
  F  F52  1  0.133667  0.199468  0.957847  1
  F  F53  1  0.381932  0.000186  0.824776  1
  F  F54  1  0.458030  0.097510  0.121412  1
  F  F55  1  0.388987  0.932834  0.326578  1
