# generated using pymatgen
data_NaNiBO3
_symmetry_space_group_name_H-M   'P 1'
_cell_length_a   5.05110060
_cell_length_b   5.05110060
_cell_length_c   5.59756352
_cell_angle_alpha   84.52226940
_cell_angle_beta   95.47773060
_cell_angle_gamma   59.38074793
_symmetry_Int_Tables_number   1
_chemical_formula_structural   NaNiBO3
_chemical_formula_sum   'Na2 Ni2 B2 O6'
_cell_volume   120.59761061
_cell_formula_units_Z   2
loop_
 _symmetry_equiv_pos_site_id
 _symmetry_equiv_pos_as_xyz
  1  'x, y, z'
loop_
 _atom_site_type_symbol
 _atom_site_label
 _atom_site_symmetry_multiplicity
 _atom_site_fract_x
 _atom_site_fract_y
 _atom_site_fract_z
 _atom_site_occupancy
  Na  Na0  1  0.335282  0.335282  0.750000  1
  Na  Na1  1  0.664718  0.664718  0.250000  1
  Ni  Ni2  1  0.000000  0.000000  0.500000  1
  Ni  Ni3  1  0.000000  0.000000  0.000000  1
  B  B4  1  0.669860  0.669860  0.750000  1
  B  B5  1  0.330140  0.330140  0.250000  1
  O  O6  1  0.827327  0.827327  0.750000  1
  O  O7  1  0.172673  0.172673  0.250000  1
  O  O8  1  0.818221  0.368259  0.699744  1
  O  O9  1  0.368259  0.818221  0.800256  1
  O  O10  1  0.631741  0.181779  0.199744  1
  O  O11  1  0.181779  0.631741  0.300256  1
