# generated using pymatgen
data_LiZr2(PO4)3
_symmetry_space_group_name_H-M   'P 1'
_cell_length_a   9.08579675
_cell_length_b   9.08579675
_cell_length_c   9.05235553
_cell_angle_alpha   59.51951613
_cell_angle_beta   120.48048387
_cell_angle_gamma   119.97422997
_symmetry_Int_Tables_number   1
_chemical_formula_structural   LiZr2(PO4)3
_chemical_formula_sum   'Li2 Zr4 P6 O24'
_cell_volume   524.64235806
_cell_formula_units_Z   2
loop_
 _symmetry_equiv_pos_site_id
 _symmetry_equiv_pos_as_xyz
  1  'x, y, z'
loop_
 _atom_site_type_symbol
 _atom_site_label
 _atom_site_symmetry_multiplicity
 _atom_site_fract_x
 _atom_site_fract_y
 _atom_site_fract_z
 _atom_site_occupancy
  Li  Li0  1  0.649911  0.149533  0.538933  1
  Li  Li1  1  0.850467  0.350089  0.038933  1
  Zr  Zr2  1  0.635289  0.853205  0.361119  1
  Zr  Zr3  1  0.864445  0.646511  0.140788  1
  Zr  Zr4  1  0.353489  0.135555  0.640788  1
  Zr  Zr5  1  0.146795  0.364711  0.861119  1
  P  P6  1  0.540500  0.530860  0.754219  1
  P  P7  1  0.751216  0.042714  0.958977  1
  P  P8  1  0.036550  0.750094  0.537059  1
  P  P9  1  0.957286  0.248784  0.458977  1
  P  P10  1  0.249906  0.963450  0.037059  1
  P  P11  1  0.469140  0.459500  0.254219  1
  O  O12  1  0.718270  0.538985  0.921990  1
  O  O13  1  0.381265  0.499436  0.797698  1
  O  O14  1  0.057332  0.586107  0.714160  1
  O  O15  1  0.798336  0.882684  0.999766  1
  O  O16  1  0.295501  0.997508  0.877258  1
  O  O17  1  0.568144  0.711638  0.595884  1
  O  O18  1  0.911459  0.224424  0.942678  1
  O  O19  1  0.597858  0.067817  0.769805  1
  O  O20  1  0.875485  0.796905  0.496566  1
  O  O21  1  0.500564  0.618735  0.297698  1
  O  O22  1  0.002492  0.704499  0.377258  1
  O  O23  1  0.211767  0.911682  0.560133  1
  O  O24  1  0.775576  0.088541  0.442678  1
  O  O25  1  0.983487  0.300443  0.610942  1
  O  O26  1  0.501954  0.371924  0.706626  1
  O  O27  1  0.117316  0.201664  0.499766  1
  O  O28  1  0.088318  0.788233  0.060133  1
  O  O29  1  0.413893  0.942668  0.214160  1
  O  O30  1  0.461015  0.281730  0.421990  1
  O  O31  1  0.699557  0.016513  0.110942  1
  O  O32  1  0.203095  0.124515  0.996566  1
  O  O33  1  0.932183  0.402142  0.269805  1
  O  O34  1  0.628076  0.498046  0.206626  1
  O  O35  1  0.288362  0.431856  0.095884  1
