# generated using pymatgen
data_Ba3LaBr9
_symmetry_space_group_name_H-M   'P 1'
_cell_length_a   8.10088380
_cell_length_b   7.53896065
_cell_length_c   31.53521202
_cell_angle_alpha   90.00000000
_cell_angle_beta   92.06204057
_cell_angle_gamma   90.00000000
_symmetry_Int_Tables_number   1
_chemical_formula_structural   Ba3LaBr9
_chemical_formula_sum   'Ba12 La4 Br36'
_cell_volume   1924.67903960
_cell_formula_units_Z   4
loop_
 _symmetry_equiv_pos_site_id
 _symmetry_equiv_pos_as_xyz
  1  'x, y, z'
loop_
 _atom_site_type_symbol
 _atom_site_label
 _atom_site_symmetry_multiplicity
 _atom_site_fract_x
 _atom_site_fract_y
 _atom_site_fract_z
 _atom_site_occupancy
  Ba  Ba0  1  0.680455  0.971804  0.066821  1
  Ba  Ba1  1  0.708902  0.003671  0.308069  1
  Ba  Ba2  1  0.680455  0.028196  0.566821  1
  Ba  Ba3  1  0.708902  0.996329  0.808069  1
  Ba  Ba4  1  0.314866  0.987626  0.430049  1
  Ba  Ba5  1  0.282646  0.984301  0.191563  1
  Ba  Ba6  1  0.314866  0.012374  0.930049  1
  Ba  Ba7  1  0.282646  0.015699  0.691563  1
  Ba  Ba8  1  0.217283  0.524869  0.307993  1
  Ba  Ba9  1  0.180727  0.516102  0.069135  1
  Ba  Ba10  1  0.217283  0.475131  0.807993  1
  Ba  Ba11  1  0.180727  0.483898  0.569135  1
  La  La12  1  0.796111  0.519713  0.193341  1
  La  La13  1  0.820480  0.544897  0.433037  1
  La  La14  1  0.796111  0.480287  0.693341  1
  La  La15  1  0.820480  0.455103  0.933037  1
  Br  Br16  1  0.977339  0.795052  0.131783  1
  Br  Br17  1  0.983249  0.813568  0.247218  1
  Br  Br18  1  0.992466  0.809004  0.372732  1
  Br  Br19  1  0.977339  0.204948  0.631783  1
  Br  Br20  1  0.983249  0.186432  0.747218  1
  Br  Br21  1  0.890661  0.702320  0.005910  1
  Br  Br22  1  0.992466  0.190996  0.872732  1
  Br  Br23  1  0.847046  0.334213  0.108355  1
  Br  Br24  1  0.890661  0.297680  0.505910  1
  Br  Br25  1  0.840760  0.401180  0.291690  1
  Br  Br26  1  0.847046  0.665787  0.608355  1
  Br  Br27  1  0.840760  0.598820  0.791690  1
  Br  Br28  1  0.647208  0.162759  0.204048  1
  Br  Br29  1  0.650695  0.212512  0.400699  1
  Br  Br30  1  0.647208  0.837241  0.704048  1
  Br  Br31  1  0.650695  0.787488  0.900699  1
  Br  Br32  1  0.588504  0.742572  0.488398  1
  Br  Br33  1  0.509942  0.677812  0.133455  1
  Br  Br34  1  0.515418  0.691046  0.247637  1
  Br  Br35  1  0.528107  0.697358  0.372377  1
  Br  Br36  1  0.588504  0.257428  0.988398  1
  Br  Br37  1  0.509942  0.322188  0.633455  1
  Br  Br38  1  0.515418  0.308954  0.747637  1
  Br  Br39  1  0.528107  0.302642  0.872377  1
  Br  Br40  1  0.399151  0.762918  0.009905  1
  Br  Br41  1  0.399151  0.237082  0.509905  1
  Br  Br42  1  0.343609  0.149340  0.099154  1
  Br  Br43  1  0.322354  0.108407  0.301382  1
  Br  Br44  1  0.343609  0.850660  0.599154  1
  Br  Br45  1  0.322354  0.891593  0.801382  1
  Br  Br46  1  0.146196  0.395200  0.202384  1
  Br  Br47  1  0.122086  0.357056  0.401568  1
  Br  Br48  1  0.146196  0.604800  0.702384  1
  Br  Br49  1  0.122086  0.642944  0.901568  1
  Br  Br50  1  0.063001  0.755094  0.489483  1
  Br  Br51  1  0.063001  0.244906  0.989483  1
