# generated using pymatgen
data_SrLaBr5
_symmetry_space_group_name_H-M   'P 1'
_cell_length_a   8.65464768
_cell_length_b   4.47242132
_cell_length_c   14.08298552
_cell_angle_alpha   90.00000000
_cell_angle_beta   92.80010829
_cell_angle_gamma   90.00000000
_symmetry_Int_Tables_number   1
_chemical_formula_structural   SrLaBr5
_chemical_formula_sum   'Sr2 La2 Br10'
_cell_volume   544.46253033
_cell_formula_units_Z   2
loop_
 _symmetry_equiv_pos_site_id
 _symmetry_equiv_pos_as_xyz
  1  'x, y, z'
loop_
 _atom_site_type_symbol
 _atom_site_label
 _atom_site_symmetry_multiplicity
 _atom_site_fract_x
 _atom_site_fract_y
 _atom_site_fract_z
 _atom_site_occupancy
  Sr  Sr0  1  0.077697  0.750000  0.142316  1
  Sr  Sr1  1  0.922303  0.250000  0.857684  1
  La  La2  1  0.423301  0.250000  0.347726  1
  La  La3  1  0.576699  0.750000  0.652274  1
  Br  Br4  1  0.080604  0.250000  0.320147  1
  Br  Br5  1  0.142685  0.750000  0.927158  1
  Br  Br6  1  0.323766  0.750000  0.481852  1
  Br  Br7  1  0.346902  0.250000  0.139302  1
  Br  Br8  1  0.375966  0.250000  0.708789  1
  Br  Br9  1  0.624034  0.750000  0.291211  1
  Br  Br10  1  0.653098  0.750000  0.860698  1
  Br  Br11  1  0.676234  0.250000  0.518148  1
  Br  Br12  1  0.857315  0.250000  0.072842  1
  Br  Br13  1  0.919396  0.750000  0.679853  1
