# generated using pymatgen
data_LiFeCo3O8
_symmetry_space_group_name_H-M   'P 1'
_cell_length_a   5.89353219
_cell_length_b   5.89353219
_cell_length_c   5.89353219
_cell_angle_alpha   58.59364389
_cell_angle_beta   58.59364389
_cell_angle_gamma   58.59364389
_symmetry_Int_Tables_number   1
_chemical_formula_structural   LiFeCo3O8
_chemical_formula_sum   'Li1 Fe1 Co3 O8'
_cell_volume   140.09349035
_cell_formula_units_Z   1
loop_
 _symmetry_equiv_pos_site_id
 _symmetry_equiv_pos_as_xyz
  1  'x, y, z'
loop_
 _atom_site_type_symbol
 _atom_site_label
 _atom_site_symmetry_multiplicity
 _atom_site_fract_x
 _atom_site_fract_y
 _atom_site_fract_z
 _atom_site_occupancy
  Li  Li0  1  0.500000  0.500000  0.500000  1
  Fe  Fe1  1  0.000000  0.000000  0.000000  1
  Co  Co2  1  0.000000  0.500000  0.500000  1
  Co  Co3  1  0.500000  0.500000  0.000000  1
  Co  Co4  1  0.500000  0.000000  0.500000  1
  O  O5  1  0.755868  0.286329  0.755868  1
  O  O6  1  0.732087  0.732087  0.732087  1
  O  O7  1  0.755868  0.755868  0.286329  1
  O  O8  1  0.286329  0.755868  0.755868  1
  O  O9  1  0.713671  0.244132  0.244132  1
  O  O10  1  0.244132  0.244132  0.713671  1
  O  O11  1  0.267913  0.267913  0.267913  1
  O  O12  1  0.244132  0.713671  0.244132  1
