# generated using pymatgen
data_Li2MnPO4F
_symmetry_space_group_name_H-M   'P 1'
_cell_length_a   13.17634605
_cell_length_b   5.14087113
_cell_length_c   13.18498829
_cell_angle_alpha   90.00000000
_cell_angle_beta   119.54403822
_cell_angle_gamma   90.00000000
_symmetry_Int_Tables_number   1
_chemical_formula_structural   Li2MnPO4F
_chemical_formula_sum   'Li16 Mn8 P8 O32 F8'
_cell_volume   776.99675857
_cell_formula_units_Z   8
loop_
 _symmetry_equiv_pos_site_id
 _symmetry_equiv_pos_as_xyz
  1  'x, y, z'
loop_
 _atom_site_type_symbol
 _atom_site_label
 _atom_site_symmetry_multiplicity
 _atom_site_fract_x
 _atom_site_fract_y
 _atom_site_fract_z
 _atom_site_occupancy
  Li  Li0  1  0.172574  0.733325  0.351292  1
  Li  Li1  1  0.401416  0.730838  0.579022  1
  Li  Li2  1  0.098584  0.230838  0.420978  1
  Li  Li3  1  0.678000  0.718747  0.850658  1
  Li  Li4  1  0.327426  0.233325  0.648708  1
  Li  Li5  1  0.825831  0.274170  0.918111  1
  Li  Li6  1  0.674169  0.774170  0.081889  1
  Li  Li7  1  0.178000  0.781253  0.850658  1
  Li  Li8  1  0.822000  0.218747  0.149342  1
  Li  Li9  1  0.325831  0.225830  0.918111  1
  Li  Li10  1  0.174169  0.725830  0.081889  1
  Li  Li11  1  0.672574  0.766675  0.351292  1
  Li  Li12  1  0.322000  0.281253  0.149342  1
  Li  Li13  1  0.901416  0.769162  0.579022  1
  Li  Li14  1  0.598584  0.269162  0.420978  1
  Li  Li15  1  0.827426  0.266675  0.648708  1
  Mn  Mn16  1  0.329613  0.274245  0.421090  1
  Mn  Mn17  1  0.170387  0.774245  0.578910  1
  Mn  Mn18  1  0.593609  0.229369  0.922732  1
  Mn  Mn19  1  0.906391  0.729369  0.077268  1
  Mn  Mn20  1  0.093609  0.270631  0.922732  1
  Mn  Mn21  1  0.406391  0.770631  0.077268  1
  Mn  Mn22  1  0.829613  0.225755  0.421090  1
  Mn  Mn23  1  0.670387  0.725755  0.578910  1
  P  P24  1  0.081157  0.217859  0.166781  1
  P  P25  1  0.583551  0.214880  0.667247  1
  P  P26  1  0.083551  0.285120  0.667247  1
  P  P27  1  0.418843  0.717859  0.833219  1
  P  P28  1  0.581157  0.282141  0.166781  1
  P  P29  1  0.916449  0.714880  0.332753  1
  P  P30  1  0.416449  0.785120  0.332753  1
  P  P31  1  0.918843  0.782141  0.833219  1
  O  O32  1  0.077988  0.912450  0.157582  1
  O  O33  1  0.353501  0.675745  0.396894  1
  O  O34  1  0.144609  0.303335  0.296121  1
  O  O35  1  0.585895  0.909451  0.663370  1
  O  O36  1  0.455605  0.313159  0.606922  1
  O  O37  1  0.044395  0.813159  0.393078  1
  O  O38  1  0.646935  0.312836  0.795347  1
  O  O39  1  0.853568  0.667197  0.894277  1
  O  O40  1  0.355391  0.803335  0.703879  1
  O  O41  1  0.146499  0.175745  0.603106  1
  O  O42  1  0.085895  0.590549  0.663370  1
  O  O43  1  0.546075  0.823173  0.893196  1
  O  O44  1  0.422012  0.412450  0.842418  1
  O  O45  1  0.953925  0.323173  0.106804  1
  O  O46  1  0.146935  0.187164  0.795347  1
  O  O47  1  0.353568  0.832803  0.894277  1
  O  O48  1  0.646432  0.167197  0.105723  1
  O  O49  1  0.853065  0.812836  0.204653  1
  O  O50  1  0.046075  0.676827  0.893196  1
  O  O51  1  0.577988  0.587550  0.157582  1
  O  O52  1  0.453925  0.176827  0.106804  1
  O  O53  1  0.914105  0.409451  0.336630  1
  O  O54  1  0.853501  0.824255  0.396894  1
  O  O55  1  0.644609  0.196665  0.296121  1
  O  O56  1  0.146432  0.332803  0.105723  1
  O  O57  1  0.353065  0.687164  0.204653  1
  O  O58  1  0.955605  0.186841  0.606922  1
  O  O59  1  0.544395  0.686841  0.393078  1
  O  O60  1  0.414105  0.090549  0.336630  1
  O  O61  1  0.855391  0.696665  0.703879  1
  O  O62  1  0.646499  0.324255  0.603106  1
  O  O63  1  0.922012  0.087550  0.842418  1
  F  F64  1  0.263095  0.989178  0.490563  1
  F  F65  1  0.236905  0.489178  0.509437  1
  F  F66  1  0.767032  0.013688  0.987889  1
  F  F67  1  0.732968  0.513688  0.012111  1
  F  F68  1  0.267032  0.486312  0.987889  1
  F  F69  1  0.232968  0.986312  0.012111  1
  F  F70  1  0.763095  0.510822  0.490563  1
  F  F71  1  0.736905  0.010822  0.509437  1
