# generated using pymatgen
data_Li10Ge(PSe6)2
_symmetry_space_group_name_H-M   'P 1'
_cell_length_a   9.05284816
_cell_length_b   9.39981286
_cell_length_c   13.69120445
_cell_angle_alpha   91.92888685
_cell_angle_beta   90.68956577
_cell_angle_gamma   90.31837394
_symmetry_Int_Tables_number   1
_chemical_formula_structural   Li10Ge(PSe6)2
_chemical_formula_sum   'Li20 Ge2 P4 Se24'
_cell_volume   1164.28892153
_cell_formula_units_Z   2
loop_
 _symmetry_equiv_pos_site_id
 _symmetry_equiv_pos_as_xyz
  1  'x, y, z'
loop_
 _atom_site_type_symbol
 _atom_site_label
 _atom_site_symmetry_multiplicity
 _atom_site_fract_x
 _atom_site_fract_y
 _atom_site_fract_z
 _atom_site_occupancy
  Li  Li0  1  0.988746  0.516120  0.954203  1
  Li  Li1  1  0.965557  0.516915  0.425775  1
  Li  Li2  1  0.509186  0.965927  0.546876  1
  Li  Li3  1  0.496775  0.993504  0.049429  1
  Li  Li4  1  0.257243  0.291259  0.158198  1
  Li  Li5  1  0.744747  0.747273  0.281854  1
  Li  Li6  1  0.217535  0.817680  0.755048  1
  Li  Li7  1  0.231193  0.756560  0.251687  1
  Li  Li8  1  0.753235  0.218812  0.350358  1
  Li  Li9  1  0.462265  0.515178  0.751544  1
  Li  Li10  1  0.230361  0.226451  0.364685  1
  Li  Li11  1  0.733136  0.257406  0.857006  1
  Li  Li12  1  0.247790  0.759715  0.006580  1
  Li  Li13  1  0.741566  0.264360  0.132497  1
  Li  Li14  1  0.763717  0.725814  0.689697  1
  Li  Li15  1  0.223454  0.261539  0.919822  1
  Li  Li16  1  0.745585  0.759297  0.009040  1
  Li  Li17  1  0.241902  0.721286  0.484147  1
  Li  Li18  1  0.784406  0.214148  0.625344  1
  Li  Li19  1  0.241070  0.211538  0.649480  1
  Ge  Ge20  1  0.996754  0.487142  0.182995  1
  Ge  Ge21  1  0.508876  0.991787  0.816442  1
  P  P22  1  0.992682  0.965601  0.501582  1
  P  P23  1  0.492460  0.515104  0.992937  1
  P  P24  1  0.009111  0.481987  0.684280  1
  P  P25  1  0.487912  0.009802  0.310695  1
  Se  Se26  1  0.988407  0.183106  0.443580  1
  Se  Se27  1  0.005391  0.790284  0.386182  1
  Se  Se28  1  0.289350  0.533902  0.898179  1
  Se  Se29  1  0.689510  0.533986  0.896169  1
  Se  Se30  1  0.496623  0.698559  0.101372  1
  Se  Se31  1  0.485540  0.304810  0.060769  1
  Se  Se32  1  0.202412  0.945436  0.590396  1
  Se  Se33  1  0.795907  0.945736  0.593334  1
  Se  Se34  1  0.005485  0.291335  0.064627  1
  Se  Se35  1  0.000387  0.712031  0.104166  1
  Se  Se36  1  0.218507  0.485319  0.598868  1
  Se  Se37  1  0.809211  0.491408  0.586961  1
  Se  Se38  1  0.486887  0.795381  0.376074  1
  Se  Se39  1  0.496143  0.183894  0.425900  1
  Se  Se40  1  0.280682  0.990078  0.906181  1
  Se  Se41  1  0.719070  0.999569  0.922126  1
  Se  Se42  1  0.991555  0.666181  0.791344  1
  Se  Se43  1  0.003507  0.275245  0.761046  1
  Se  Se44  1  0.775402  0.466624  0.273471  1
  Se  Se45  1  0.204199  0.479763  0.292929  1
  Se  Se46  1  0.517337  0.203503  0.721092  1
  Se  Se47  1  0.491048  0.793488  0.700552  1
  Se  Se48  1  0.691148  0.014175  0.219084  1
  Se  Se49  1  0.286431  0.031084  0.216603  1
