# generated using pymatgen
data_Fe2O3F
_symmetry_space_group_name_H-M   'P 1'
_cell_length_a   5.58877172
_cell_length_b   5.58877172
_cell_length_c   5.58877172
_cell_angle_alpha   114.79178073
_cell_angle_beta   110.12147371
_cell_angle_gamma   103.68987850
_symmetry_Int_Tables_number   1
_chemical_formula_structural   Fe2O3F
_chemical_formula_sum   'Fe4 O6 F2'
_cell_volume   133.11809017
_cell_formula_units_Z   2
loop_
 _symmetry_equiv_pos_site_id
 _symmetry_equiv_pos_as_xyz
  1  'x, y, z'
loop_
 _atom_site_type_symbol
 _atom_site_label
 _atom_site_symmetry_multiplicity
 _atom_site_fract_x
 _atom_site_fract_y
 _atom_site_fract_z
 _atom_site_occupancy
  Fe  Fe0  1  0.534639  0.784639  0.250000  1
  Fe  Fe1  1  0.465361  0.215361  0.750000  1
  Fe  Fe2  1  0.000000  0.500000  0.500000  1
  Fe  Fe3  1  0.000000  0.000000  0.000000  1
  O  O4  1  0.821728  0.071728  0.250000  1
  O  O5  1  0.693110  0.500000  0.193110  1
  O  O6  1  0.693110  0.000000  0.693110  1
  O  O7  1  0.306890  0.500000  0.806890  1
  O  O8  1  0.306890  0.000000  0.306890  1
  O  O9  1  0.178272  0.928272  0.750000  1
  F  F10  1  0.797511  0.547511  0.750000  1
  F  F11  1  0.202489  0.452489  0.250000  1
