# generated using pymatgen
data_TmClO
_symmetry_space_group_name_H-M   'P 1'
_cell_length_a   9.68006608
_cell_length_b   9.68006608
_cell_length_c   9.68006608
_cell_angle_alpha   22.37066317
_cell_angle_beta   22.37066317
_cell_angle_gamma   22.37066317
_symmetry_Int_Tables_number   1
_chemical_formula_structural   TmClO
_chemical_formula_sum   'Tm2 Cl2 O2'
_cell_volume   115.23282302
_cell_formula_units_Z   2
loop_
 _symmetry_equiv_pos_site_id
 _symmetry_equiv_pos_as_xyz
  1  'x, y, z'
loop_
 _atom_site_type_symbol
 _atom_site_label
 _atom_site_symmetry_multiplicity
 _atom_site_fract_x
 _atom_site_fract_y
 _atom_site_fract_z
 _atom_site_occupancy
  Tm  Tm0  1  0.283408  0.283408  0.283408  1
  Tm  Tm1  1  0.716592  0.716592  0.716592  1
  Cl  Cl2  1  0.110900  0.110900  0.110900  1
  Cl  Cl3  1  0.889100  0.889100  0.889100  1
  O  O4  1  0.363096  0.363096  0.363096  1
  O  O5  1  0.636904  0.636904  0.636904  1
