# generated using pymatgen
data_Li2Fe3F8
_symmetry_space_group_name_H-M   'P 1'
_cell_length_a   5.36609751
_cell_length_b   6.21212929
_cell_length_c   9.78262348
_cell_angle_alpha   90.00000000
_cell_angle_beta   90.00000000
_cell_angle_gamma   90.00000000
_symmetry_Int_Tables_number   1
_chemical_formula_structural   Li2Fe3F8
_chemical_formula_sum   'Li4 Fe6 F16'
_cell_volume   326.10269267
_cell_formula_units_Z   2
loop_
 _symmetry_equiv_pos_site_id
 _symmetry_equiv_pos_as_xyz
  1  'x, y, z'
loop_
 _atom_site_type_symbol
 _atom_site_label
 _atom_site_symmetry_multiplicity
 _atom_site_fract_x
 _atom_site_fract_y
 _atom_site_fract_z
 _atom_site_occupancy
  Li  Li0  1  0.514512  0.500000  0.807772  1
  Li  Li1  1  0.985488  0.000000  0.307772  1
  Li  Li2  1  0.014512  0.000000  0.692228  1
  Li  Li3  1  0.485488  0.500000  0.192228  1
  Fe  Fe4  1  0.500000  0.768350  0.500000  1
  Fe  Fe5  1  0.500000  0.231650  0.500000  1
  Fe  Fe6  1  0.500000  0.000000  0.000000  1
  Fe  Fe7  1  0.000000  0.500000  0.500000  1
  Fe  Fe8  1  0.000000  0.731650  0.000000  1
  Fe  Fe9  1  0.000000  0.268350  0.000000  1
  F  F10  1  0.347954  0.500000  0.383868  1
  F  F11  1  0.320577  0.758435  0.109924  1
  F  F12  1  0.320577  0.241565  0.109924  1
  F  F13  1  0.331033  0.000000  0.378476  1
  F  F14  1  0.168967  0.500000  0.878476  1
  F  F15  1  0.179423  0.741565  0.609924  1
  F  F16  1  0.179423  0.258435  0.609924  1
  F  F17  1  0.152046  0.000000  0.883868  1
  F  F18  1  0.847954  0.000000  0.116132  1
  F  F19  1  0.820577  0.741565  0.390076  1
  F  F20  1  0.820577  0.258435  0.390076  1
  F  F21  1  0.831033  0.500000  0.121524  1
  F  F22  1  0.668967  0.000000  0.621524  1
  F  F23  1  0.679423  0.758435  0.890076  1
  F  F24  1  0.679423  0.241565  0.890076  1
  F  F25  1  0.652046  0.500000  0.616132  1
