# generated using pymatgen
data_CaH2I2O7
_symmetry_space_group_name_H-M   'P 1'
_cell_length_a   7.62754927
_cell_length_b   10.16259526
_cell_length_c   8.60601105
_cell_angle_alpha   90.00000000
_cell_angle_beta   95.07420378
_cell_angle_gamma   90.00000000
_symmetry_Int_Tables_number   1
_chemical_formula_structural   CaH2I2O7
_chemical_formula_sum   'Ca4 H8 I8 O28'
_cell_volume   664.48655974
_cell_formula_units_Z   4
loop_
 _symmetry_equiv_pos_site_id
 _symmetry_equiv_pos_as_xyz
  1  'x, y, z'
loop_
 _atom_site_type_symbol
 _atom_site_label
 _atom_site_symmetry_multiplicity
 _atom_site_fract_x
 _atom_site_fract_y
 _atom_site_fract_z
 _atom_site_occupancy
  Ca  Ca0  1  0.163553  0.008060  0.212658  1
  Ca  Ca1  1  0.336447  0.508060  0.787342  1
  Ca  Ca2  1  0.836447  0.991940  0.787342  1
  Ca  Ca3  1  0.663553  0.491940  0.212658  1
  H  H4  1  0.818719  0.005238  0.368918  1
  H  H5  1  0.681281  0.505238  0.631082  1
  H  H6  1  0.181281  0.994762  0.631082  1
  H  H7  1  0.318719  0.494762  0.368918  1
  H  H8  1  0.779222  0.098009  0.221289  1
  H  H9  1  0.720778  0.598009  0.778711  1
  H  H10  1  0.220778  0.901991  0.778711  1
  H  H11  1  0.279222  0.401991  0.221289  1
  I  I12  1  0.043259  0.690081  0.028025  1
  I  I13  1  0.456741  0.190081  0.971975  1
  I  I14  1  0.956741  0.309919  0.971975  1
  I  I15  1  0.543259  0.809919  0.028025  1
  I  I16  1  0.445662  0.186496  0.514794  1
  I  I17  1  0.054338  0.686496  0.485206  1
  I  I18  1  0.554338  0.813504  0.485206  1
  I  I19  1  0.945662  0.313504  0.514794  1
  O  O20  1  0.957860  0.859652  0.021871  1
  O  O21  1  0.542140  0.359652  0.978129  1
  O  O22  1  0.042140  0.140348  0.978129  1
  O  O23  1  0.457860  0.640348  0.021871  1
  O  O24  1  0.104023  0.669859  0.830136  1
  O  O25  1  0.395977  0.169859  0.169864  1
  O  O26  1  0.895977  0.330141  0.169864  1
  O  O27  1  0.604023  0.830141  0.830136  1
  O  O28  1  0.831057  0.602267  0.008494  1
  O  O29  1  0.668943  0.102267  0.991506  1
  O  O30  1  0.168943  0.397733  0.991506  1
  O  O31  1  0.331057  0.897733  0.008494  1
  O  O32  1  0.114765  0.813345  0.350197  1
  O  O33  1  0.385235  0.313345  0.649803  1
  O  O34  1  0.885235  0.186655  0.649803  1
  O  O35  1  0.614765  0.686655  0.350197  1
  O  O36  1  0.480337  0.936766  0.338545  1
  O  O37  1  0.019663  0.436766  0.661455  1
  O  O38  1  0.519663  0.063234  0.661455  1
  O  O39  1  0.980337  0.563234  0.338545  1
  O  O40  1  0.222651  0.122160  0.461312  1
  O  O41  1  0.277349  0.622160  0.538688  1
  O  O42  1  0.777349  0.877840  0.538688  1
  O  O43  1  0.722651  0.377840  0.461312  1
  O  O44  1  0.870251  0.071939  0.303704  1
  O  O45  1  0.629749  0.571939  0.696296  1
  O  O46  1  0.129749  0.928061  0.696296  1
  O  O47  1  0.370251  0.428061  0.303704  1
