# generated using pymatgen
data_Y4H9NO13
_symmetry_space_group_name_H-M   'P 1'
_cell_length_a   3.66030241
_cell_length_b   16.66607822
_cell_length_c   9.47365204
_cell_angle_alpha   90.00000000
_cell_angle_beta   99.94350232
_cell_angle_gamma   90.00000000
_symmetry_Int_Tables_number   1
_chemical_formula_structural   Y4H9NO13
_chemical_formula_sum   'Y8 H18 N2 O26'
_cell_volume   569.23889346
_cell_formula_units_Z   2
loop_
 _symmetry_equiv_pos_site_id
 _symmetry_equiv_pos_as_xyz
  1  'x, y, z'
loop_
 _atom_site_type_symbol
 _atom_site_label
 _atom_site_symmetry_multiplicity
 _atom_site_fract_x
 _atom_site_fract_y
 _atom_site_fract_z
 _atom_site_occupancy
  Y  Y0  1  0.631139  0.500572  0.268987  1
  Y  Y1  1  0.368861  0.000572  0.731013  1
  Y  Y2  1  0.881974  0.790274  0.731836  1
  Y  Y3  1  0.118026  0.290274  0.268164  1
  Y  Y4  1  0.546676  0.689637  0.060658  1
  Y  Y5  1  0.453324  0.189637  0.939342  1
  Y  Y6  1  0.199459  0.682172  0.403467  1
  Y  Y7  1  0.800541  0.182172  0.596533  1
  H  H8  1  0.520826  0.523954  0.957674  1
  H  H9  1  0.479174  0.023954  0.042326  1
  H  H10  1  0.089905  0.810845  0.174805  1
  H  H11  1  0.910095  0.310845  0.825195  1
  H  H12  1  0.265389  0.511478  0.514208  1
  H  H13  1  0.734611  0.011478  0.485792  1
  H  H14  1  0.334731  0.649322  0.706639  1
  H  H15  1  0.665269  0.149322  0.293361  1
  H  H16  1  0.468005  0.853348  0.950256  1
  H  H17  1  0.531995  0.353348  0.049744  1
  H  H18  1  0.957391  0.620182  0.861325  1
  H  H19  1  0.042609  0.120182  0.138675  1
  H  H20  1  0.709464  0.819110  0.406277  1
  H  H21  1  0.290536  0.319110  0.593723  1
  H  H22  1  0.958003  0.940159  0.934814  1
  H  H23  1  0.041997  0.440159  0.065186  1
  H  H24  1  0.320718  0.863857  0.533189  1
  H  H25  1  0.679282  0.363857  0.466811  1
  N  N26  1  0.174722  0.960842  0.253183  1
  N  N27  1  0.825278  0.460842  0.746817  1
  O  O28  1  0.552067  0.554382  0.045802  1
  O  O29  1  0.447933  0.054382  0.954198  1
  O  O30  1  0.644740  0.636329  0.286366  1
  O  O31  1  0.355260  0.136329  0.713634  1
  O  O32  1  0.100522  0.751647  0.182336  1
  O  O33  1  0.899478  0.251647  0.817664  1
  O  O34  1  0.190501  0.536689  0.420373  1
  O  O35  1  0.809499  0.036689  0.579627  1
  O  O36  1  0.335536  0.698070  0.650934  1
  O  O37  1  0.664464  0.198070  0.349066  1
  O  O38  1  0.464041  0.800220  0.907574  1
  O  O39  1  0.535959  0.300220  0.092426  1
  O  O40  1  0.972590  0.674153  0.902289  1
  O  O41  1  0.027410  0.174153  0.097711  1
  O  O42  1  0.744639  0.771708  0.467546  1
  O  O43  1  0.255361  0.271708  0.532454  1
  O  O44  1  0.915950  0.931921  0.831437  1
  O  O45  1  0.084050  0.431921  0.168563  1
  O  O46  1  0.342053  0.868412  0.636474  1
  O  O47  1  0.657947  0.368412  0.363526  1
  O  O48  1  0.042965  0.918948  0.143681  1
  O  O49  1  0.957035  0.418948  0.856319  1
  O  O50  1  0.065235  0.032083  0.265332  1
  O  O51  1  0.934765  0.532083  0.734668  1
  O  O52  1  0.416456  0.930686  0.350706  1
  O  O53  1  0.583544  0.430686  0.649294  1
