# generated using pymatgen
data_Rb3FeO3
_symmetry_space_group_name_H-M   'P 1'
_cell_length_a   5.04271249
_cell_length_b   12.50107877
_cell_length_c   11.58676208
_cell_angle_alpha   90.00000000
_cell_angle_beta   102.96854016
_cell_angle_gamma   90.00000000
_symmetry_Int_Tables_number   1
_chemical_formula_structural   Rb3FeO3
_chemical_formula_sum   'Rb12 Fe4 O12'
_cell_volume   711.79135009
_cell_formula_units_Z   4
loop_
 _symmetry_equiv_pos_site_id
 _symmetry_equiv_pos_as_xyz
  1  'x, y, z'
loop_
 _atom_site_type_symbol
 _atom_site_label
 _atom_site_symmetry_multiplicity
 _atom_site_fract_x
 _atom_site_fract_y
 _atom_site_fract_z
 _atom_site_occupancy
  Rb  Rb0  1  0.104760  0.415131  0.638801  1
  Rb  Rb1  1  0.270046  0.989526  0.623330  1
  Rb  Rb2  1  0.491242  0.234543  0.962909  1
  Rb  Rb3  1  0.104760  0.084869  0.138801  1
  Rb  Rb4  1  0.270046  0.510474  0.123330  1
  Rb  Rb5  1  0.508758  0.734543  0.537091  1
  Rb  Rb6  1  0.491242  0.265457  0.462909  1
  Rb  Rb7  1  0.729954  0.489526  0.876670  1
  Rb  Rb8  1  0.895240  0.915131  0.861199  1
  Rb  Rb9  1  0.508758  0.765457  0.037091  1
  Rb  Rb10  1  0.729954  0.010474  0.376670  1
  Rb  Rb11  1  0.895240  0.584869  0.361199  1
  Fe  Fe12  1  0.194580  0.682400  0.757040  1
  Fe  Fe13  1  0.194580  0.817600  0.257040  1
  Fe  Fe14  1  0.805420  0.182400  0.742960  1
  Fe  Fe15  1  0.805420  0.317600  0.242960  1
  O  O16  1  0.048478  0.636680  0.607137  1
  O  O17  1  0.233045  0.588558  0.882672  1
  O  O18  1  0.048478  0.863320  0.107137  1
  O  O19  1  0.358103  0.814959  0.783347  1
  O  O20  1  0.233045  0.911442  0.382672  1
  O  O21  1  0.358103  0.685041  0.283347  1
  O  O22  1  0.641897  0.314959  0.716653  1
  O  O23  1  0.766955  0.088558  0.617328  1
  O  O24  1  0.641897  0.185041  0.216653  1
  O  O25  1  0.951522  0.136680  0.892863  1
  O  O26  1  0.766955  0.411442  0.117328  1
  O  O27  1  0.951522  0.363320  0.392863  1
