# generated using pymatgen
data_LiVF5
_symmetry_space_group_name_H-M   'P 1'
_cell_length_a   5.72976470
_cell_length_b   7.70916823
_cell_length_c   16.81361516
_cell_angle_alpha   90.00000000
_cell_angle_beta   90.00000000
_cell_angle_gamma   90.00000000
_symmetry_Int_Tables_number   1
_chemical_formula_structural   LiVF5
_chemical_formula_sum   'Li8 V8 F40'
_cell_volume   742.68630094
_cell_formula_units_Z   8
loop_
 _symmetry_equiv_pos_site_id
 _symmetry_equiv_pos_as_xyz
  1  'x, y, z'
loop_
 _atom_site_type_symbol
 _atom_site_label
 _atom_site_symmetry_multiplicity
 _atom_site_fract_x
 _atom_site_fract_y
 _atom_site_fract_z
 _atom_site_occupancy
  Li  Li0  1  0.250000  0.315584  0.083731  1
  Li  Li1  1  0.250000  0.815584  0.416269  1
  Li  Li2  1  0.250000  0.779955  0.930636  1
  Li  Li3  1  0.250000  0.279955  0.569364  1
  Li  Li4  1  0.750000  0.220045  0.069364  1
  Li  Li5  1  0.750000  0.720045  0.430636  1
  Li  Li6  1  0.750000  0.184416  0.583731  1
  Li  Li7  1  0.750000  0.684416  0.916269  1
  V  V8  1  0.250000  0.442428  0.357813  1
  V  V9  1  0.250000  0.942428  0.142187  1
  V  V10  1  0.250000  0.387880  0.876114  1
  V  V11  1  0.250000  0.887880  0.623886  1
  V  V12  1  0.750000  0.112120  0.376114  1
  V  V13  1  0.750000  0.057572  0.857813  1
  V  V14  1  0.750000  0.557572  0.642187  1
  V  V15  1  0.750000  0.612120  0.123886  1
  F  F16  1  0.001062  0.229048  0.839779  1
  F  F17  1  0.001062  0.729048  0.660221  1
  F  F18  1  0.027376  0.116379  0.118480  1
  F  F19  1  0.027376  0.616379  0.381520  1
  F  F20  1  0.028772  0.547191  0.916107  1
  F  F21  1  0.028772  0.047191  0.583893  1
  F  F22  1  0.250000  0.977508  0.246195  1
  F  F23  1  0.250000  0.482484  0.780346  1
  F  F24  1  0.250000  0.477508  0.253805  1
  F  F25  1  0.250000  0.366798  0.461852  1
  F  F26  1  0.250000  0.866798  0.038148  1
  F  F27  1  0.250000  0.982484  0.719654  1
  F  F28  1  0.250000  0.263342  0.969544  1
  F  F29  1  0.250000  0.763342  0.530456  1
  F  F30  1  0.471228  0.047191  0.583893  1
  F  F31  1  0.471228  0.547191  0.916107  1
  F  F32  1  0.472624  0.116379  0.118480  1
  F  F33  1  0.472624  0.616379  0.381520  1
  F  F34  1  0.498938  0.229048  0.839779  1
  F  F35  1  0.498938  0.729048  0.660221  1
  F  F36  1  0.501062  0.270952  0.339779  1
  F  F37  1  0.501062  0.770952  0.160221  1
  F  F38  1  0.527376  0.383621  0.618480  1
  F  F39  1  0.527376  0.883621  0.881520  1
  F  F40  1  0.528772  0.452809  0.083893  1
  F  F41  1  0.528772  0.952809  0.416107  1
  F  F42  1  0.750000  0.022492  0.753805  1
  F  F43  1  0.750000  0.017516  0.280346  1
  F  F44  1  0.750000  0.133202  0.961852  1
  F  F45  1  0.750000  0.517516  0.219654  1
  F  F46  1  0.750000  0.736658  0.030456  1
  F  F47  1  0.750000  0.236658  0.469544  1
  F  F48  1  0.750000  0.633202  0.538148  1
  F  F49  1  0.750000  0.522492  0.746195  1
  F  F50  1  0.971228  0.952809  0.416107  1
  F  F51  1  0.971228  0.452809  0.083893  1
  F  F52  1  0.972624  0.383621  0.618480  1
  F  F53  1  0.972624  0.883621  0.881520  1
  F  F54  1  0.998938  0.270952  0.339779  1
  F  F55  1  0.998938  0.770952  0.160221  1
