# generated using pymatgen
data_Na2NiCSO7
_symmetry_space_group_name_H-M   'P 1'
_cell_length_a   5.23095664
_cell_length_b   6.66859088
_cell_length_c   8.92099107
_cell_angle_alpha   90.00000000
_cell_angle_beta   91.17310221
_cell_angle_gamma   90.00000000
_symmetry_Int_Tables_number   1
_chemical_formula_structural   Na2NiCSO7
_chemical_formula_sum   'Na4 Ni2 C2 S2 O14'
_cell_volume   311.12668659
_cell_formula_units_Z   2
loop_
 _symmetry_equiv_pos_site_id
 _symmetry_equiv_pos_as_xyz
  1  'x, y, z'
loop_
 _atom_site_type_symbol
 _atom_site_label
 _atom_site_symmetry_multiplicity
 _atom_site_fract_x
 _atom_site_fract_y
 _atom_site_fract_z
 _atom_site_occupancy
  Na  Na0  1  0.768078  0.004368  0.221663  1
  Na  Na1  1  0.768078  0.495632  0.221663  1
  Na  Na2  1  0.231922  0.504368  0.778337  1
  Na  Na3  1  0.231922  0.995632  0.778337  1
  Ni  Ni4  1  0.226148  0.250000  0.350852  1
  Ni  Ni5  1  0.773852  0.750000  0.649148  1
  C  C6  1  0.272229  0.250000  0.076910  1
  C  C7  1  0.727771  0.750000  0.923090  1
  S  S8  1  0.285781  0.750000  0.421851  1
  S  S9  1  0.714219  0.250000  0.578149  1
  O  O10  1  0.703900  0.750000  0.063216  1
  O  O11  1  0.050352  0.250000  0.142776  1
  O  O12  1  0.468383  0.250000  0.172083  1
  O  O13  1  0.207137  0.929743  0.334855  1
  O  O14  1  0.207137  0.570257  0.334855  1
  O  O15  1  0.836985  0.250000  0.428140  1
  O  O16  1  0.572313  0.750000  0.445168  1
  O  O17  1  0.427687  0.250000  0.554832  1
  O  O18  1  0.163015  0.750000  0.571860  1
  O  O19  1  0.792863  0.429743  0.665145  1
  O  O20  1  0.792863  0.070257  0.665145  1
  O  O21  1  0.531617  0.750000  0.827917  1
  O  O22  1  0.949648  0.750000  0.857224  1
  O  O23  1  0.296100  0.250000  0.936784  1
