# generated using pymatgen
data_Fe5O3F7
_symmetry_space_group_name_H-M   'P 1'
_cell_length_a   4.79232525
_cell_length_b   4.79612617
_cell_length_c   15.63097536
_cell_angle_alpha   89.50352498
_cell_angle_beta   89.97932498
_cell_angle_gamma   88.54820685
_symmetry_Int_Tables_number   1
_chemical_formula_structural   Fe5O3F7
_chemical_formula_sum   'Fe10 O6 F14'
_cell_volume   359.14284767
_cell_formula_units_Z   2
loop_
 _symmetry_equiv_pos_site_id
 _symmetry_equiv_pos_as_xyz
  1  'x, y, z'
loop_
 _atom_site_type_symbol
 _atom_site_label
 _atom_site_symmetry_multiplicity
 _atom_site_fract_x
 _atom_site_fract_y
 _atom_site_fract_z
 _atom_site_occupancy
  Fe  Fe0  1  0.998938  0.002831  0.998781  1
  Fe  Fe1  1  0.001657  0.003746  0.802381  1
  Fe  Fe2  1  0.950433  0.966590  0.605538  1
  Fe  Fe3  1  0.031246  0.038377  0.394893  1
  Fe  Fe4  1  0.974705  0.020841  0.199182  1
  Fe  Fe5  1  0.467399  0.530444  0.900126  1
  Fe  Fe6  1  0.493702  0.503149  0.499762  1
  Fe  Fe7  1  0.539284  0.474931  0.694297  1
  Fe  Fe8  1  0.519580  0.468114  0.305841  1
  Fe  Fe9  1  0.520290  0.482504  0.100260  1
  O  O10  1  0.805666  0.181253  0.695982  1
  O  O11  1  0.809089  0.204280  0.295128  1
  O  O12  1  0.819233  0.177660  0.099641  1
  O  O13  1  0.322409  0.326614  0.404463  1
  O  O14  1  0.687000  0.679013  0.595125  1
  O  O15  1  0.175646  0.824777  0.905179  1
  F  F16  1  0.777881  0.221126  0.906443  1
  F  F17  1  0.798944  0.194595  0.505893  1
  F  F18  1  0.284734  0.308067  0.000388  1
  F  F19  1  0.308447  0.321407  0.789691  1
  F  F20  1  0.300486  0.291013  0.595623  1
  F  F21  1  0.308220  0.297369  0.205140  1
  F  F22  1  0.692431  0.710679  0.002872  1
  F  F23  1  0.682766  0.691049  0.792224  1
  F  F24  1  0.708264  0.704696  0.404319  1
  F  F25  1  0.705982  0.697142  0.209683  1
  F  F26  1  0.190206  0.806145  0.505213  1
  F  F27  1  0.206022  0.779083  0.688944  1
  F  F28  1  0.199974  0.799108  0.104704  1
  F  F29  1  0.219362  0.793398  0.292282  1
