# generated using pymatgen
data_KTa2PO8
_symmetry_space_group_name_H-M   'P 1'
_cell_length_a   8.46414550
_cell_length_b   8.46414550
_cell_length_c   8.46414550
_cell_angle_alpha   104.05720408
_cell_angle_beta   104.05720408
_cell_angle_gamma   104.05720408
_symmetry_Int_Tables_number   1
_chemical_formula_structural   KTa2PO8
_chemical_formula_sum   'K3 Ta6 P3 O24'
_cell_volume   540.45094409
_cell_formula_units_Z   3
loop_
 _symmetry_equiv_pos_site_id
 _symmetry_equiv_pos_as_xyz
  1  'x, y, z'
loop_
 _atom_site_type_symbol
 _atom_site_label
 _atom_site_symmetry_multiplicity
 _atom_site_fract_x
 _atom_site_fract_y
 _atom_site_fract_z
 _atom_site_occupancy
  K  K0  1  0.911538  0.601425  0.300953  1
  K  K1  1  0.300953  0.911538  0.601425  1
  K  K2  1  0.601425  0.300953  0.911538  1
  Ta  Ta3  1  0.161184  0.351473  0.034358  1
  Ta  Ta4  1  0.351473  0.034358  0.161184  1
  Ta  Ta5  1  0.839762  0.967110  0.649773  1
  Ta  Ta6  1  0.034358  0.161184  0.351473  1
  Ta  Ta7  1  0.967110  0.649773  0.839762  1
  Ta  Ta8  1  0.649773  0.839762  0.967110  1
  P  P9  1  0.500076  0.723259  0.276005  1
  P  P10  1  0.723259  0.276005  0.500076  1
  P  P11  1  0.276005  0.500076  0.723259  1
  O  O12  1  0.499434  0.974050  0.024688  1
  O  O13  1  0.153501  0.846687  0.999838  1
  O  O14  1  0.583341  0.706922  0.130991  1
  O  O15  1  0.315655  0.207578  0.063587  1
  O  O16  1  0.846687  0.999838  0.153501  1
  O  O17  1  0.417775  0.869037  0.292989  1
  O  O18  1  0.356565  0.552640  0.234143  1
  O  O19  1  0.643523  0.764562  0.446529  1
  O  O20  1  0.063587  0.315655  0.207578  1
  O  O21  1  0.869037  0.292989  0.417775  1
  O  O22  1  0.552640  0.234143  0.356565  1
  O  O23  1  0.207578  0.063587  0.315655  1
  O  O24  1  0.974050  0.024688  0.499434  1
  O  O25  1  0.936455  0.791973  0.683005  1
  O  O26  1  0.764562  0.446529  0.643523  1
  O  O27  1  0.706922  0.130991  0.583341  1
  O  O28  1  0.683005  0.936455  0.791973  1
  O  O29  1  0.234143  0.356565  0.552640  1
  O  O30  1  0.446529  0.643523  0.764562  1
  O  O31  1  0.130991  0.583341  0.706922  1
  O  O32  1  0.791973  0.683005  0.936455  1
  O  O33  1  0.292989  0.417775  0.869037  1
  O  O34  1  0.999838  0.153501  0.846687  1
  O  O35  1  0.024688  0.499434  0.974050  1
