# generated using pymatgen
data_Li2Mn3(SeO3)4
_symmetry_space_group_name_H-M   'P 1'
_cell_length_a   7.69999239
_cell_length_b   8.54762980
_cell_length_c   10.80446706
_cell_angle_alpha   105.84676758
_cell_angle_beta   88.11800702
_cell_angle_gamma   116.02827691
_symmetry_Int_Tables_number   1
_chemical_formula_structural   Li2Mn3(SeO3)4
_chemical_formula_sum   'Li4 Mn6 Se8 O24'
_cell_volume   611.58662135
_cell_formula_units_Z   2
loop_
 _symmetry_equiv_pos_site_id
 _symmetry_equiv_pos_as_xyz
  1  'x, y, z'
loop_
 _atom_site_type_symbol
 _atom_site_label
 _atom_site_symmetry_multiplicity
 _atom_site_fract_x
 _atom_site_fract_y
 _atom_site_fract_z
 _atom_site_occupancy
  Li  Li0  1  0.751193  0.543792  0.929597  1
  Li  Li1  1  0.648386  0.545090  0.415733  1
  Li  Li2  1  0.351614  0.454910  0.584267  1
  Li  Li3  1  0.248807  0.456208  0.070403  1
  Mn  Mn4  1  0.000000  0.000000  0.000000  1
  Mn  Mn5  1  0.000000  0.000000  0.500000  1
  Mn  Mn6  1  0.938855  0.283956  0.783243  1
  Mn  Mn7  1  0.945431  0.625915  0.673326  1
  Mn  Mn8  1  0.054569  0.374085  0.326674  1
  Mn  Mn9  1  0.061145  0.716044  0.216757  1
  Se  Se10  1  0.712177  0.212237  0.479145  1
  Se  Se11  1  0.726944  0.245791  0.067155  1
  Se  Se12  1  0.676711  0.741181  0.204483  1
  Se  Se13  1  0.680432  0.817853  0.729870  1
  Se  Se14  1  0.319568  0.182147  0.270130  1
  Se  Se15  1  0.323289  0.258819  0.795517  1
  Se  Se16  1  0.273056  0.754209  0.932845  1
  Se  Se17  1  0.287823  0.787763  0.520855  1
  O  O18  1  0.902393  0.160624  0.427483  1
  O  O19  1  0.958217  0.409712  0.151799  1
  O  O20  1  0.751323  0.049269  0.025127  1
  O  O21  1  0.785758  0.336211  0.640639  1
  O  O22  1  0.740578  0.299391  0.923151  1
  O  O23  1  0.778300  0.384190  0.407144  1
  O  O24  1  0.868380  0.814232  0.813272  1
  O  O25  1  0.857024  0.749636  0.096299  1
  O  O26  1  0.808106  0.739611  0.336359  1
  O  O27  1  0.642915  0.628887  0.604045  1
  O  O28  1  0.799158  0.993506  0.659457  1
  O  O29  1  0.490229  0.478410  0.846608  1
  O  O30  1  0.509771  0.521590  0.153392  1
  O  O31  1  0.200842  0.006494  0.340543  1
  O  O32  1  0.357085  0.371113  0.395955  1
  O  O33  1  0.191894  0.260389  0.663641  1
  O  O34  1  0.142976  0.250364  0.903701  1
  O  O35  1  0.131620  0.185768  0.186728  1
  O  O36  1  0.221700  0.615810  0.592856  1
  O  O37  1  0.259422  0.700609  0.076849  1
  O  O38  1  0.214242  0.663789  0.359361  1
  O  O39  1  0.248677  0.950731  0.974873  1
  O  O40  1  0.041783  0.590288  0.848201  1
  O  O41  1  0.097607  0.839376  0.572517  1
