# generated using pymatgen
data_Li2Sn5
_symmetry_space_group_name_H-M   'P 1'
_cell_length_a   10.34605147
_cell_length_b   10.34605147
_cell_length_c   3.15854963
_cell_angle_alpha   90.00000000
_cell_angle_beta   90.00000000
_cell_angle_gamma   90.00000000
_symmetry_Int_Tables_number   1
_chemical_formula_structural   Li2Sn5
_chemical_formula_sum   'Li4 Sn10'
_cell_volume   338.09361929
_cell_formula_units_Z   2
loop_
 _symmetry_equiv_pos_site_id
 _symmetry_equiv_pos_as_xyz
  1  'x, y, z'
loop_
 _atom_site_type_symbol
 _atom_site_label
 _atom_site_symmetry_multiplicity
 _atom_site_fract_x
 _atom_site_fract_y
 _atom_site_fract_z
 _atom_site_occupancy
  Li  Li0  1  0.325075  0.825075  0.500000  1
  Li  Li1  1  0.825075  0.674925  0.500000  1
  Li  Li2  1  0.174925  0.325075  0.500000  1
  Li  Li3  1  0.674925  0.174925  0.500000  1
  Sn  Sn4  1  0.068179  0.795179  0.000000  1
  Sn  Sn5  1  0.931821  0.204821  0.000000  1
  Sn  Sn6  1  0.795179  0.931821  0.000000  1
  Sn  Sn7  1  0.204821  0.068179  0.000000  1
  Sn  Sn8  1  0.500000  0.000000  0.000000  1
  Sn  Sn9  1  0.000000  0.500000  0.000000  1
  Sn  Sn10  1  0.568179  0.704821  0.000000  1
  Sn  Sn11  1  0.704821  0.431821  0.000000  1
  Sn  Sn12  1  0.295179  0.568179  0.000000  1
  Sn  Sn13  1  0.431821  0.295179  0.000000  1
