# generated using pymatgen
data_Ga7(Fe3O8)3
_symmetry_space_group_name_H-M   'P 1'
_cell_length_a   5.17916640
_cell_length_b   8.86258967
_cell_length_c   9.54794693
_cell_angle_alpha   89.99329621
_cell_angle_beta   89.82767625
_cell_angle_gamma   89.90248034
_symmetry_Int_Tables_number   1
_chemical_formula_structural   Ga7(Fe3O8)3
_chemical_formula_sum   'Ga7 Fe9 O24'
_cell_volume   438.25603659
_cell_formula_units_Z   1
loop_
 _symmetry_equiv_pos_site_id
 _symmetry_equiv_pos_as_xyz
  1  'x, y, z'
loop_
 _atom_site_type_symbol
 _atom_site_label
 _atom_site_symmetry_multiplicity
 _atom_site_fract_x
 _atom_site_fract_y
 _atom_site_fract_z
 _atom_site_occupancy
  Ga  Ga0  1  0.824435  0.153778  0.420462  1
  Ga  Ga1  1  0.812594  0.148082  0.833460  1
  Ga  Ga2  1  0.688495  0.339716  0.112752  1
  Ga  Ga3  1  0.326508  0.346448  0.419732  1
  Ga  Ga4  1  0.675406  0.653615  0.921481  1
  Ga  Ga5  1  0.813180  0.841185  0.614643  1
  Ga  Ga6  1  0.172241  0.847291  0.920774  1
  Fe  Fe7  1  0.324516  0.032384  0.623528  1
  Fe  Fe8  1  0.186498  0.161266  0.112838  1
  Fe  Fe9  1  0.313303  0.347078  0.839275  1
  Fe  Fe10  1  0.827372  0.465748  0.625091  1
  Fe  Fe11  1  0.174158  0.529499  0.121650  1
  Fe  Fe12  1  0.687882  0.651484  0.336785  1
  Fe  Fe13  1  0.314794  0.661146  0.613078  1
  Fe  Fe14  1  0.184439  0.845438  0.340752  1
  Fe  Fe15  1  0.670366  0.969554  0.123009  1
  O  O16  1  0.339978  0.997972  0.219596  1
  O  O17  1  0.978453  0.012960  0.984250  1
  O  O18  1  0.842695  0.161018  0.223495  1
  O  O19  1  0.486563  0.169512  0.481342  1
  O  O20  1  0.531036  0.176517  0.995774  1
  O  O21  1  0.151356  0.170541  0.750653  1
  O  O22  1  0.659373  0.325740  0.750999  1
  O  O23  1  0.026604  0.329247  0.997704  1
  O  O24  1  0.988509  0.330810  0.480536  1
  O  O25  1  0.348809  0.340388  0.223151  1
  O  O26  1  0.487691  0.489193  0.988296  1
  O  O27  1  0.844457  0.497547  0.218500  1
  O  O28  1  0.157051  0.497909  0.719295  1
  O  O29  1  0.519619  0.508591  0.488254  1
  O  O30  1  0.659353  0.659585  0.723865  1
  O  O31  1  0.012886  0.670264  0.980962  1
  O  O32  1  0.976620  0.681029  0.495613  1
  O  O33  1  0.344513  0.668506  0.249843  1
  O  O34  1  0.842704  0.830461  0.248644  1
  O  O35  1  0.480517  0.827357  0.496749  1
  O  O36  1  0.509668  0.830683  0.980810  1
  O  O37  1  0.151039  0.842005  0.723844  1
  O  O38  1  0.012852  0.990459  0.489987  1
  O  O39  1  0.651467  0.997995  0.720530  1
