# generated using pymatgen
data_LiMn2OF3
_symmetry_space_group_name_H-M   'P 1'
_cell_length_a   6.31410467
_cell_length_b   6.31410467
_cell_length_c   5.25635869
_cell_angle_alpha   90.00000000
_cell_angle_beta   90.00000000
_cell_angle_gamma   120.00000000
_symmetry_Int_Tables_number   1
_chemical_formula_structural   LiMn2OF3
_chemical_formula_sum   'Li2 Mn4 O2 F6'
_cell_volume   181.48434946
_cell_formula_units_Z   2
loop_
 _symmetry_equiv_pos_site_id
 _symmetry_equiv_pos_as_xyz
  1  'x, y, z'
loop_
 _atom_site_type_symbol
 _atom_site_label
 _atom_site_symmetry_multiplicity
 _atom_site_fract_x
 _atom_site_fract_y
 _atom_site_fract_z
 _atom_site_occupancy
  Li  Li0  1  0.333333  0.666667  0.522342  1
  Li  Li1  1  0.666667  0.333333  0.477658  1
  Mn  Mn2  1  0.000000  0.500000  0.000000  1
  Mn  Mn3  1  0.500000  0.500000  0.000000  1
  Mn  Mn4  1  0.500000  0.000000  0.000000  1
  Mn  Mn5  1  0.000000  0.000000  0.500000  1
  O  O6  1  0.333333  0.666667  0.166815  1
  O  O7  1  0.666667  0.333333  0.833185  1
  F  F8  1  0.173488  0.826512  0.714378  1
  F  F9  1  0.653024  0.826512  0.714378  1
  F  F10  1  0.826512  0.653024  0.285622  1
  F  F11  1  0.173488  0.346976  0.714378  1
  F  F12  1  0.826512  0.173488  0.285622  1
  F  F13  1  0.346976  0.173488  0.285622  1
