# generated using pymatgen
data_Li5Cu(HO2)2
_symmetry_space_group_name_H-M   'P 1'
_cell_length_a   5.50873076
_cell_length_b   7.47306685
_cell_length_c   10.79269303
_cell_angle_alpha   90.00000000
_cell_angle_beta   90.00000000
_cell_angle_gamma   90.00000000
_symmetry_Int_Tables_number   1
_chemical_formula_structural   Li5Cu(HO2)2
_chemical_formula_sum   'Li20 Cu4 H8 O16'
_cell_volume   444.30401600
_cell_formula_units_Z   4
loop_
 _symmetry_equiv_pos_site_id
 _symmetry_equiv_pos_as_xyz
  1  'x, y, z'
loop_
 _atom_site_type_symbol
 _atom_site_label
 _atom_site_symmetry_multiplicity
 _atom_site_fract_x
 _atom_site_fract_y
 _atom_site_fract_z
 _atom_site_occupancy
  Li  Li0  1  0.047490  0.750000  0.046971  1
  Li  Li1  1  0.065869  0.250000  0.217486  1
  Li  Li2  1  0.052821  0.250000  0.726122  1
  Li  Li3  1  0.278380  0.506023  0.345556  1
  Li  Li4  1  0.278380  0.993977  0.345556  1
  Li  Li5  1  0.221620  0.006023  0.845556  1
  Li  Li6  1  0.221620  0.493977  0.845556  1
  Li  Li7  1  0.447179  0.750000  0.226122  1
  Li  Li8  1  0.434131  0.750000  0.717486  1
  Li  Li9  1  0.452510  0.250000  0.546971  1
  Li  Li10  1  0.547490  0.750000  0.453029  1
  Li  Li11  1  0.565869  0.250000  0.282514  1
  Li  Li12  1  0.552821  0.250000  0.773878  1
  Li  Li13  1  0.778380  0.506023  0.154444  1
  Li  Li14  1  0.778380  0.993977  0.154444  1
  Li  Li15  1  0.721620  0.006023  0.654444  1
  Li  Li16  1  0.721620  0.493977  0.654444  1
  Li  Li17  1  0.947179  0.750000  0.273878  1
  Li  Li18  1  0.934131  0.750000  0.782514  1
  Li  Li19  1  0.952510  0.250000  0.953029  1
  Cu  Cu20  1  0.997052  0.750000  0.523834  1
  Cu  Cu21  1  0.502948  0.250000  0.023834  1
  Cu  Cu22  1  0.497052  0.750000  0.976166  1
  Cu  Cu23  1  0.002948  0.250000  0.476166  1
  H  H24  1  0.248152  0.487849  0.109810  1
  H  H25  1  0.248152  0.012151  0.109810  1
  H  H26  1  0.251848  0.987849  0.609810  1
  H  H27  1  0.251848  0.512151  0.609810  1
  H  H28  1  0.748152  0.487849  0.390190  1
  H  H29  1  0.748152  0.012151  0.390190  1
  H  H30  1  0.751848  0.987849  0.890190  1
  H  H31  1  0.751848  0.512151  0.890190  1
  O  O32  1  0.145487  0.543153  0.173758  1
  O  O33  1  0.145487  0.956847  0.173758  1
  O  O34  1  0.216786  0.750000  0.401082  1
  O  O35  1  0.263460  0.250000  0.372373  1
  O  O36  1  0.236540  0.750000  0.872373  1
  O  O37  1  0.283214  0.250000  0.901082  1
  O  O38  1  0.354513  0.043153  0.673758  1
  O  O39  1  0.354513  0.456847  0.673758  1
  O  O40  1  0.645487  0.956847  0.326242  1
  O  O41  1  0.645487  0.543153  0.326242  1
  O  O42  1  0.716786  0.750000  0.098918  1
  O  O43  1  0.763460  0.250000  0.127627  1
  O  O44  1  0.736540  0.750000  0.627627  1
  O  O45  1  0.783214  0.250000  0.598918  1
  O  O46  1  0.854513  0.043153  0.826242  1
  O  O47  1  0.854513  0.456847  0.826242  1
