# generated using pymatgen
data_NaTi6O12
_symmetry_space_group_name_H-M   'P 1'
_cell_length_a   5.95768646
_cell_length_b   5.96498635
_cell_length_c   7.16528217
_cell_angle_alpha   85.28273833
_cell_angle_beta   102.05088782
_cell_angle_gamma   119.92731727
_symmetry_Int_Tables_number   1
_chemical_formula_structural   NaTi6O12
_chemical_formula_sum   'Na1 Ti6 O12'
_cell_volume   215.74738875
_cell_formula_units_Z   1
loop_
 _symmetry_equiv_pos_site_id
 _symmetry_equiv_pos_as_xyz
  1  'x, y, z'
loop_
 _atom_site_type_symbol
 _atom_site_label
 _atom_site_symmetry_multiplicity
 _atom_site_fract_x
 _atom_site_fract_y
 _atom_site_fract_z
 _atom_site_occupancy
  Na  Na0  1  0.363518  0.954221  0.557316  1
  Ti  Ti1  1  0.001177  0.994827  0.993944  1
  Ti  Ti2  1  0.414484  0.481426  0.698903  1
  Ti  Ti3  1  0.071260  0.483324  0.301724  1
  Ti  Ti4  1  0.497116  0.002547  0.015354  1
  Ti  Ti5  1  0.913449  0.473212  0.699988  1
  Ti  Ti6  1  0.602507  0.546523  0.310607  1
  O  O7  1  0.043839  0.311463  0.549588  1
  O  O8  1  0.206740  0.310521  0.187580  1
  O  O9  1  0.296092  0.687614  0.809271  1
  O  O10  1  0.448665  0.683186  0.446651  1
  O  O11  1  0.697001  0.825672  0.134450  1
  O  O12  1  0.191266  0.815102  0.135944  1
  O  O13  1  0.305216  0.172173  0.856732  1
  O  O14  1  0.799132  0.176874  0.860253  1
  O  O15  1  0.558796  0.342936  0.550696  1
  O  O16  1  0.695239  0.307060  0.191385  1
  O  O17  1  0.797940  0.689359  0.812862  1
  O  O18  1  0.955863  0.680962  0.445951  1
