# generated using pymatgen
data_Mn3OF5
_symmetry_space_group_name_H-M   'P 1'
_cell_length_a   5.90200133
_cell_length_b   4.85541984
_cell_length_c   8.11396008
_cell_angle_alpha   90.00000000
_cell_angle_beta   92.14356290
_cell_angle_gamma   90.00000000
_symmetry_Int_Tables_number   1
_chemical_formula_structural   Mn3OF5
_chemical_formula_sum   'Mn6 O2 F10'
_cell_volume   232.35656737
_cell_formula_units_Z   2
loop_
 _symmetry_equiv_pos_site_id
 _symmetry_equiv_pos_as_xyz
  1  'x, y, z'
loop_
 _atom_site_type_symbol
 _atom_site_label
 _atom_site_symmetry_multiplicity
 _atom_site_fract_x
 _atom_site_fract_y
 _atom_site_fract_z
 _atom_site_occupancy
  Mn  Mn0  1  0.407983  0.474911  0.669331  1
  Mn  Mn1  1  0.747095  0.516321  0.013274  1
  Mn  Mn2  1  0.067921  0.516884  0.328054  1
  Mn  Mn3  1  0.932079  0.016884  0.671946  1
  Mn  Mn4  1  0.592017  0.974911  0.330669  1
  Mn  Mn5  1  0.252905  0.016321  0.986726  1
  O  O6  1  0.223775  0.192298  0.778975  1
  O  O7  1  0.776225  0.692298  0.221025  1
  F  F8  1  0.551247  0.205433  0.099576  1
  F  F9  1  0.876618  0.188249  0.434835  1
  F  F10  1  0.716805  0.317493  0.785725  1
  F  F11  1  0.049738  0.296874  0.096003  1
  F  F12  1  0.379839  0.291538  0.428764  1
  F  F13  1  0.123382  0.688249  0.565165  1
  F  F14  1  0.448753  0.705433  0.900424  1
  F  F15  1  0.283195  0.817493  0.214275  1
  F  F16  1  0.950262  0.796874  0.903997  1
  F  F17  1  0.620161  0.791538  0.571236  1
