# generated using pymatgen
data_Na3LiMn5O9
_symmetry_space_group_name_H-M   'P 1'
_cell_length_a   5.34110361
_cell_length_b   5.35129400
_cell_length_c   8.47587326
_cell_angle_alpha   90.04093217
_cell_angle_beta   108.26112828
_cell_angle_gamma   118.91527834
_symmetry_Int_Tables_number   1
_chemical_formula_structural   Na3LiMn5O9
_chemical_formula_sum   'Na3 Li1 Mn5 O9'
_cell_volume   197.97036659
_cell_formula_units_Z   1
loop_
 _symmetry_equiv_pos_site_id
 _symmetry_equiv_pos_as_xyz
  1  'x, y, z'
loop_
 _atom_site_type_symbol
 _atom_site_label
 _atom_site_symmetry_multiplicity
 _atom_site_fract_x
 _atom_site_fract_y
 _atom_site_fract_z
 _atom_site_occupancy
  Na  Na0  1  0.298071  0.151378  0.478702  1
  Na  Na1  1  0.642632  0.821420  0.481712  1
  Na  Na2  1  0.967393  0.474354  0.479822  1
  Li  Li3  1  0.771361  0.051084  0.169480  1
  Mn  Mn4  1  0.447001  0.396235  0.154053  1
  Mn  Mn5  1  0.109173  0.734144  0.153703  1
  Mn  Mn6  1  0.198978  0.930441  0.819494  1
  Mn  Mn7  1  0.528112  0.602426  0.820143  1
  Mn  Mn8  1  0.867645  0.269989  0.823679  1
  O  O9  1  0.674774  0.394470  0.993228  1
  O  O10  1  0.322958  0.678446  0.962930  1
  O  O11  1  0.830690  0.736863  0.284059  1
  O  O12  1  0.494072  0.073441  0.284093  1
  O  O13  1  0.198657  0.448214  0.267108  1
  O  O14  1  0.431273  0.876583  0.693547  1
  O  O15  1  0.748617  0.555413  0.687791  1
  O  O16  1  0.109882  0.197467  0.687867  1
  O  O17  1  0.049934  0.017880  0.993181  1
