# generated using pymatgen
data_Nb4Tl4O13
_symmetry_space_group_name_H-M   'P 1'
_cell_length_a   7.63270283
_cell_length_b   7.63270283
_cell_length_c   7.63270283
_cell_angle_alpha   60.00000000
_cell_angle_beta   60.00000000
_cell_angle_gamma   60.00000000
_symmetry_Int_Tables_number   1
_chemical_formula_structural   Nb4Tl4O13
_chemical_formula_sum   'Nb4 Tl4 O13'
_cell_volume   314.42716804
_cell_formula_units_Z   1
loop_
 _symmetry_equiv_pos_site_id
 _symmetry_equiv_pos_as_xyz
  1  'x, y, z'
loop_
 _atom_site_type_symbol
 _atom_site_label
 _atom_site_symmetry_multiplicity
 _atom_site_fract_x
 _atom_site_fract_y
 _atom_site_fract_z
 _atom_site_occupancy
  Nb  Nb0  1  0.624823  0.624823  0.125531  1
  Nb  Nb1  1  0.624823  0.125531  0.624823  1
  Nb  Nb2  1  0.125531  0.624823  0.624823  1
  Nb  Nb3  1  0.624823  0.624823  0.624823  1
  Tl  Tl4  1  0.127030  0.127030  0.618909  1
  Tl  Tl5  1  0.127030  0.618909  0.127030  1
  Tl  Tl6  1  0.127030  0.127030  0.127030  1
  Tl  Tl7  1  0.618909  0.127030  0.127030  1
  O  O8  1  0.564060  0.935940  0.935940  1
  O  O9  1  0.313975  0.686025  0.686025  1
  O  O10  1  0.935940  0.935940  0.564060  1
  O  O11  1  0.935940  0.564060  0.935940  1
  O  O12  1  0.564060  0.935940  0.564060  1
  O  O13  1  0.564060  0.564060  0.935940  1
  O  O14  1  0.313975  0.313975  0.686025  1
  O  O15  1  0.313975  0.686025  0.313975  1
  O  O16  1  0.686025  0.686025  0.313975  1
  O  O17  1  0.000000  0.000000  1.000000  1
  O  O18  1  0.686025  0.313975  0.686025  1
  O  O19  1  0.935940  0.564060  0.564060  1
  O  O20  1  0.686025  0.313975  0.313975  1
