# generated using pymatgen
data_Li6Mn5Fe(BO3)6
_symmetry_space_group_name_H-M   'P 1'
_cell_length_a   8.27969220
_cell_length_b   3.18330650
_cell_length_c   16.54243870
_cell_angle_alpha   90.00000000
_cell_angle_beta   120.07085563
_cell_angle_gamma   90.00000000
_symmetry_Int_Tables_number   1
_chemical_formula_structural   Li6Mn5Fe(BO3)6
_chemical_formula_sum   'Li6 Mn5 Fe1 B6 O18'
_cell_volume   377.32214058
_cell_formula_units_Z   1
loop_
 _symmetry_equiv_pos_site_id
 _symmetry_equiv_pos_as_xyz
  1  'x, y, z'
loop_
 _atom_site_type_symbol
 _atom_site_label
 _atom_site_symmetry_multiplicity
 _atom_site_fract_x
 _atom_site_fract_y
 _atom_site_fract_z
 _atom_site_occupancy
  Li  Li0  1  0.698679  0.500000  0.991196  1
  Li  Li1  1  0.019216  0.500000  0.358495  1
  Li  Li2  1  0.284933  0.500000  0.650237  1
  Li  Li3  1  0.698434  0.500000  0.491269  1
  Li  Li4  1  0.016678  0.500000  0.857723  1
  Li  Li5  1  0.283878  0.500000  0.150931  1
  Mn  Mn6  1  0.640301  0.000000  0.813972  1
  Mn  Mn7  1  0.988488  0.000000  0.179864  1
  Mn  Mn8  1  0.371103  0.000000  0.005821  1
  Mn  Mn9  1  0.639831  0.000000  0.314093  1
  Mn  Mn10  1  0.987795  0.000000  0.679882  1
  Fe  Fe11  1  0.366183  0.000000  0.504037  1
  B  B12  1  0.664491  0.500000  0.665174  1
  B  B13  1  0.999964  0.000000  0.999971  1
  B  B14  1  0.333423  0.500000  0.334523  1
  B  B15  1  0.667052  0.500000  0.166861  1
  B  B16  1  0.001713  0.000000  0.500692  1
  B  B17  1  0.333421  0.500000  0.833312  1
  O  O18  1  0.418347  0.500000  0.431402  1
  O  O19  1  0.747102  0.500000  0.762345  1
  O  O20  1  0.471442  0.500000  0.608697  1
  O  O21  1  0.140115  0.500000  0.279984  1
  O  O22  1  0.806547  0.000000  0.960872  1
  O  O23  1  0.777665  0.500000  0.125427  1
  O  O24  1  0.440403  0.500000  0.790145  1
  O  O25  1  0.082972  0.000000  0.444012  1
  O  O26  1  0.115746  0.000000  0.597271  1
  O  O27  1  0.419899  0.500000  0.930202  1
  O  O28  1  0.749975  0.500000  0.263884  1
  O  O29  1  0.473328  0.500000  0.111499  1
  O  O30  1  0.139996  0.500000  0.779833  1
  O  O31  1  0.808274  0.000000  0.460520  1
  O  O32  1  0.777766  0.500000  0.625001  1
  O  O33  1  0.441336  0.500000  0.291702  1
  O  O34  1  0.077991  0.000000  0.942268  1
  O  O35  1  0.115510  0.000000  0.096885  1
