# generated using pymatgen
data_Mn3H24(O3F2)4
_symmetry_space_group_name_H-M   'P 1'
_cell_length_a   6.27509858
_cell_length_b   8.99772000
_cell_length_c   9.40801178
_cell_angle_alpha   110.61197132
_cell_angle_beta   103.36232961
_cell_angle_gamma   106.90465016
_symmetry_Int_Tables_number   1
_chemical_formula_structural   Mn3H24(O3F2)4
_chemical_formula_sum   'Mn3 H24 O12 F8'
_cell_volume   441.49336340
_cell_formula_units_Z   1
loop_
 _symmetry_equiv_pos_site_id
 _symmetry_equiv_pos_as_xyz
  1  'x, y, z'
loop_
 _atom_site_type_symbol
 _atom_site_label
 _atom_site_symmetry_multiplicity
 _atom_site_fract_x
 _atom_site_fract_y
 _atom_site_fract_z
 _atom_site_occupancy
  Mn  Mn0  1  0.000000  0.000000  0.000000  1
  Mn  Mn1  1  0.850214  0.303792  0.621809  1
  Mn  Mn2  1  0.149786  0.696208  0.378191  1
  H  H3  1  0.803393  0.637281  0.825130  1
  H  H4  1  0.196607  0.362719  0.174870  1
  H  H5  1  0.896904  0.678548  0.012907  1
  H  H6  1  0.103096  0.321452  0.987093  1
  H  H7  1  0.550756  0.913624  0.774388  1
  H  H8  1  0.449244  0.086376  0.225612  1
  H  H9  1  0.613639  0.089909  0.930040  1
  H  H10  1  0.386361  0.910091  0.069960  1
  H  H11  1  0.215351  0.442358  0.523964  1
  H  H12  1  0.784649  0.557642  0.476036  1
  H  H13  1  0.322081  0.360276  0.633502  1
  H  H14  1  0.677919  0.639724  0.366498  1
  H  H15  1  0.882526  0.122606  0.290503  1
  H  H16  1  0.117474  0.877394  0.709497  1
  H  H17  1  0.025629  0.003000  0.299953  1
  H  H18  1  0.974371  0.997000  0.700047  1
  H  H19  1  0.355988  0.110851  0.573062  1
  H  H20  1  0.644012  0.889149  0.426938  1
  H  H21  1  0.510988  0.238382  0.765204  1
  H  H22  1  0.489012  0.761618  0.234796  1
  H  H23  1  0.464040  0.299236  0.019271  1
  H  H24  1  0.535960  0.700764  0.980729  1
  H  H25  1  0.735757  0.389243  0.042713  1
  H  H26  1  0.264243  0.610757  0.957287  1
  O  O27  1  0.817094  0.715468  0.936061  1
  O  O28  1  0.182906  0.284532  0.063939  1
  O  O29  1  0.656975  0.989068  0.890380  1
  O  O30  1  0.343025  0.010932  0.109620  1
  O  O31  1  0.210685  0.416783  0.617510  1
  O  O32  1  0.789315  0.583217  0.382490  1
  O  O33  1  0.966073  0.057719  0.234713  1
  O  O34  1  0.033927  0.942281  0.765287  1
  O  O35  1  0.481914  0.228336  0.652481  1
  O  O36  1  0.518086  0.771664  0.347519  1
  O  O37  1  0.585049  0.285151  0.970495  1
  O  O38  1  0.414951  0.714849  0.029505  1
  F  F39  1  0.817723  0.514752  0.647821  1
  F  F40  1  0.182277  0.485248  0.352179  1
  F  F41  1  0.001519  0.393690  0.850637  1
  F  F42  1  0.998481  0.606310  0.149363  1
  F  F43  1  0.857374  0.083886  0.590681  1
  F  F44  1  0.142626  0.916114  0.409319  1
  F  F45  1  0.704133  0.207956  0.392662  1
  F  F46  1  0.295867  0.792044  0.607338  1
