# generated using pymatgen
data_Li3Cu3(PO4)2
_symmetry_space_group_name_H-M   'P 1'
_cell_length_a   5.11569389
_cell_length_b   5.40563709
_cell_length_c   6.24287311
_cell_angle_alpha   90.15041236
_cell_angle_beta   90.07596587
_cell_angle_gamma   90.32362800
_symmetry_Int_Tables_number   1
_chemical_formula_structural   Li3Cu3(PO4)2
_chemical_formula_sum   'Li3 Cu3 P2 O8'
_cell_volume   172.63431592
_cell_formula_units_Z   1
loop_
 _symmetry_equiv_pos_site_id
 _symmetry_equiv_pos_as_xyz
  1  'x, y, z'
loop_
 _atom_site_type_symbol
 _atom_site_label
 _atom_site_symmetry_multiplicity
 _atom_site_fract_x
 _atom_site_fract_y
 _atom_site_fract_z
 _atom_site_occupancy
  Li  Li0  1  0.493700  0.154641  0.000073  1
  Li  Li1  1  0.996014  0.326883  0.751745  1
  Li  Li2  1  0.493156  0.674105  0.254033  1
  Cu  Cu3  1  0.492880  0.663998  0.739370  1
  Cu  Cu4  1  0.993906  0.817352  0.500235  1
  Cu  Cu5  1  0.005457  0.332044  0.250843  1
  P  P6  1  0.998734  0.830857  0.000460  1
  P  P7  1  0.498092  0.180510  0.500498  1
  O  O8  1  0.889260  0.098846  0.987861  1
  O  O9  1  0.301737  0.830882  0.011494  1
  O  O10  1  0.905858  0.679223  0.799553  1
  O  O11  1  0.382177  0.298999  0.708622  1
  O  O12  1  0.800929  0.189572  0.512211  1
  O  O13  1  0.404473  0.904710  0.487788  1
  O  O14  1  0.407362  0.318142  0.293603  1
  O  O15  1  0.878857  0.699236  0.201612  1
