# generated using pymatgen
data_Li4Cr2Co3Sn3O16
_symmetry_space_group_name_H-M   'P 1'
_cell_length_a   5.96420886
_cell_length_b   5.96420886
_cell_length_c   9.54484770
_cell_angle_alpha   89.26394181
_cell_angle_beta   90.73605819
_cell_angle_gamma   119.52370317
_symmetry_Int_Tables_number   1
_chemical_formula_structural   Li4Cr2Co3Sn3O16
_chemical_formula_sum   'Li4 Cr2 Co3 Sn3 O16'
_cell_volume   295.40765792
_cell_formula_units_Z   1
loop_
 _symmetry_equiv_pos_site_id
 _symmetry_equiv_pos_as_xyz
  1  'x, y, z'
loop_
 _atom_site_type_symbol
 _atom_site_label
 _atom_site_symmetry_multiplicity
 _atom_site_fract_x
 _atom_site_fract_y
 _atom_site_fract_z
 _atom_site_occupancy
  Li  Li0  1  0.673535  0.326465  0.113960  1
  Li  Li1  1  0.970185  0.029815  0.008347  1
  Li  Li2  1  0.979977  0.020023  0.496804  1
  Li  Li3  1  0.333661  0.666339  0.600954  1
  Cr  Cr4  1  0.663735  0.336265  0.509653  1
  Cr  Cr5  1  0.334790  0.665210  0.018617  1
  Co  Co6  1  0.826546  0.173454  0.783198  1
  Co  Co7  1  0.663714  0.840275  0.288848  1
  Co  Co8  1  0.159725  0.336286  0.288848  1
  Sn  Sn9  1  0.833173  0.669996  0.787288  1
  Sn  Sn10  1  0.330004  0.166827  0.787288  1
  Sn  Sn11  1  0.165238  0.834762  0.287200  1
  O  O12  1  0.823287  0.686972  0.400507  1
  O  O13  1  0.515544  0.484456  0.649284  1
  O  O14  1  0.674266  0.325734  0.900951  1
  O  O15  1  0.985792  0.014208  0.682830  1
  O  O16  1  0.984938  0.015062  0.192872  1
  O  O17  1  0.313028  0.176713  0.400507  1
  O  O18  1  0.964223  0.477683  0.656343  1
  O  O19  1  0.522317  0.035777  0.656343  1
  O  O20  1  0.158810  0.841190  0.912804  1
  O  O21  1  0.829989  0.170011  0.385310  1
  O  O22  1  0.498735  0.963358  0.160196  1
  O  O23  1  0.036642  0.501265  0.160196  1
  O  O24  1  0.341443  0.658557  0.392616  1
  O  O25  1  0.670713  0.850498  0.898994  1
  O  O26  1  0.478547  0.521453  0.173175  1
  O  O27  1  0.149502  0.329287  0.898994  1
