# generated using pymatgen
data_Na2Ni2(B4O7)3
_symmetry_space_group_name_H-M   'P 1'
_cell_length_a   11.73914607
_cell_length_b   11.73914607
_cell_length_c   17.14224372
_cell_angle_alpha   56.76203620
_cell_angle_beta   123.23796380
_cell_angle_gamma   157.84278553
_symmetry_Int_Tables_number   1
_chemical_formula_structural   Na2Ni2(B4O7)3
_chemical_formula_sum   'Na4 Ni4 B24 O42'
_cell_volume   739.03256824
_cell_formula_units_Z   2
loop_
 _symmetry_equiv_pos_site_id
 _symmetry_equiv_pos_as_xyz
  1  'x, y, z'
loop_
 _atom_site_type_symbol
 _atom_site_label
 _atom_site_symmetry_multiplicity
 _atom_site_fract_x
 _atom_site_fract_y
 _atom_site_fract_z
 _atom_site_occupancy
  Na  Na0  1  0.408169  0.697052  0.007100  1
  Na  Na1  1  0.302948  0.591831  0.507100  1
  Na  Na2  1  0.591831  0.302948  0.992900  1
  Na  Na3  1  0.697052  0.408169  0.492900  1
  Ni  Ni4  1  0.539596  0.444334  0.606415  1
  Ni  Ni5  1  0.460404  0.555666  0.393585  1
  Ni  Ni6  1  0.555666  0.460404  0.106415  1
  Ni  Ni7  1  0.444334  0.539596  0.893585  1
  B  B8  1  0.049564  0.937867  0.993366  1
  B  B9  1  0.029592  0.057704  0.172277  1
  B  B10  1  0.619905  0.112017  0.680800  1
  B  B11  1  0.942296  0.970408  0.672277  1
  B  B12  1  0.087541  0.420210  0.704479  1
  B  B13  1  0.420210  0.087541  0.795521  1
  B  B14  1  0.579790  0.912459  0.204479  1
  B  B15  1  0.380095  0.887983  0.319200  1
  B  B16  1  0.811290  0.132020  0.344318  1
  B  B17  1  0.887983  0.380095  0.180800  1
  B  B18  1  0.062133  0.950436  0.493366  1
  B  B19  1  0.261952  0.438148  0.200573  1
  B  B20  1  0.937867  0.049564  0.506634  1
  B  B21  1  0.057704  0.029592  0.327723  1
  B  B22  1  0.738048  0.561852  0.799427  1
  B  B23  1  0.867980  0.188710  0.844318  1
  B  B24  1  0.188710  0.867980  0.655681  1
  B  B25  1  0.132020  0.811290  0.155682  1
  B  B26  1  0.438148  0.261952  0.299427  1
  B  B27  1  0.561852  0.738048  0.700573  1
  B  B28  1  0.112017  0.619905  0.819200  1
  B  B29  1  0.912459  0.579790  0.295521  1
  B  B30  1  0.970408  0.942296  0.827723  1
  B  B31  1  0.950436  0.062133  0.006634  1
  O  O32  1  0.039310  0.246595  0.424629  1
  O  O33  1  0.688552  0.784781  0.794353  1
  O  O34  1  0.834922  0.887117  0.093037  1
  O  O35  1  0.605280  0.314009  0.835618  1
  O  O36  1  0.215219  0.311448  0.294353  1
  O  O37  1  0.690256  0.845691  0.636943  1
  O  O38  1  0.017455  0.406981  0.879590  1
  O  O39  1  0.394720  0.685991  0.164382  1
  O  O40  1  0.314009  0.605280  0.664382  1
  O  O41  1  0.246595  0.039310  0.075371  1
  O  O42  1  0.154309  0.309744  0.136943  1
  O  O43  1  0.702827  0.147290  0.142828  1
  O  O44  1  0.784781  0.688552  0.705647  1
  O  O45  1  0.020174  0.606204  0.725211  1
  O  O46  1  0.865646  0.865646  0.250000  1
  O  O47  1  0.673427  0.747437  0.503774  1
  O  O48  1  0.593019  0.982545  0.379590  1
  O  O49  1  0.165078  0.112883  0.906963  1
  O  O50  1  0.252563  0.326573  0.003774  1
  O  O51  1  0.982545  0.593019  0.120410  1
  O  O52  1  0.406981  0.017455  0.620410  1
  O  O53  1  0.753405  0.960690  0.924629  1
  O  O54  1  0.634206  0.899604  0.300606  1
  O  O55  1  0.100396  0.365794  0.800606  1
  O  O56  1  0.134354  0.134354  0.750000  1
  O  O57  1  0.685991  0.394720  0.335618  1
  O  O58  1  0.326573  0.252563  0.496226  1
  O  O59  1  0.365794  0.100396  0.699394  1
  O  O60  1  0.845691  0.690256  0.863057  1
  O  O61  1  0.747437  0.673427  0.996226  1
  O  O62  1  0.979826  0.393796  0.274789  1
  O  O63  1  0.606204  0.020174  0.774789  1
  O  O64  1  0.112883  0.165078  0.593037  1
  O  O65  1  0.960690  0.753405  0.575371  1
  O  O66  1  0.899604  0.634206  0.199394  1
  O  O67  1  0.311448  0.215219  0.205647  1
  O  O68  1  0.309744  0.154309  0.363057  1
  O  O69  1  0.852710  0.297173  0.642828  1
  O  O70  1  0.393796  0.979826  0.225211  1
  O  O71  1  0.147290  0.702827  0.357172  1
  O  O72  1  0.887117  0.834922  0.406963  1
  O  O73  1  0.297173  0.852710  0.857172  1
