# generated using pymatgen
data_Dy2Sb2O7
_symmetry_space_group_name_H-M   'P 1'
_cell_length_a   7.53495687
_cell_length_b   7.53495687
_cell_length_c   7.53495687
_cell_angle_alpha   60.00000000
_cell_angle_beta   60.00000000
_cell_angle_gamma   60.00000000
_symmetry_Int_Tables_number   1
_chemical_formula_structural   Dy2Sb2O7
_chemical_formula_sum   'Dy4 Sb4 O14'
_cell_volume   302.50134833
_cell_formula_units_Z   2
loop_
 _symmetry_equiv_pos_site_id
 _symmetry_equiv_pos_as_xyz
  1  'x, y, z'
loop_
 _atom_site_type_symbol
 _atom_site_label
 _atom_site_symmetry_multiplicity
 _atom_site_fract_x
 _atom_site_fract_y
 _atom_site_fract_z
 _atom_site_occupancy
  Dy  Dy0  1  0.625000  0.125000  0.125000  1
  Dy  Dy1  1  0.125000  0.125000  0.125000  1
  Dy  Dy2  1  0.125000  0.125000  0.625000  1
  Dy  Dy3  1  0.125000  0.625000  0.125000  1
  Sb  Sb4  1  0.625000  0.125000  0.625000  1
  Sb  Sb5  1  0.625000  0.625000  0.125000  1
  Sb  Sb6  1  0.125000  0.625000  0.625000  1
  Sb  Sb7  1  0.625000  0.625000  0.625000  1
  O  O8  1  0.531290  0.968710  0.968710  1
  O  O9  1  0.281290  0.718710  0.718710  1
  O  O10  1  0.968710  0.968710  0.531290  1
  O  O11  1  0.968710  0.531290  0.968710  1
  O  O12  1  0.531290  0.968710  0.531290  1
  O  O13  1  0.250000  0.250000  0.250000  1
  O  O14  1  0.531290  0.531290  0.968710  1
  O  O15  1  0.718710  0.718710  0.281290  1
  O  O16  1  0.281290  0.718710  0.281290  1
  O  O17  1  0.718710  0.281290  0.718710  1
  O  O18  1  0.000000  1.000000  1.000000  1
  O  O19  1  0.281290  0.281290  0.718710  1
  O  O20  1  0.968710  0.531290  0.531290  1
  O  O21  1  0.718710  0.281290  0.281290  1
