# generated using pymatgen
data_LiNb(PO3)4
_symmetry_space_group_name_H-M   'P 1'
_cell_length_a   7.18096612
_cell_length_b   8.32131901
_cell_length_c   7.70903719
_cell_angle_alpha   90.00000000
_cell_angle_beta   93.91072558
_cell_angle_gamma   90.00000000
_symmetry_Int_Tables_number   1
_chemical_formula_structural   LiNb(PO3)4
_chemical_formula_sum   'Li2 Nb2 P8 O24'
_cell_volume   459.58174462
_cell_formula_units_Z   2
loop_
 _symmetry_equiv_pos_site_id
 _symmetry_equiv_pos_as_xyz
  1  'x, y, z'
loop_
 _atom_site_type_symbol
 _atom_site_label
 _atom_site_symmetry_multiplicity
 _atom_site_fract_x
 _atom_site_fract_y
 _atom_site_fract_z
 _atom_site_occupancy
  Li  Li0  1  0.340786  0.387498  0.643913  1
  Li  Li1  1  0.659214  0.887498  0.356087  1
  Nb  Nb2  1  0.250831  0.780340  0.223204  1
  Nb  Nb3  1  0.749169  0.280340  0.776796  1
  P  P4  1  0.006611  0.876183  0.583249  1
  P  P5  1  0.085534  0.173003  0.104736  1
  P  P6  1  0.377929  0.012751  0.590051  1
  P  P7  1  0.420411  0.391048  0.099459  1
  P  P8  1  0.579589  0.891048  0.900541  1
  P  P9  1  0.622071  0.512751  0.409949  1
  P  P10  1  0.914466  0.673003  0.895264  1
  P  P11  1  0.993389  0.376183  0.416751  1
  O  O12  1  0.023596  0.788970  0.770874  1
  O  O13  1  0.005172  0.203695  0.922675  1
  O  O14  1  0.078813  0.767641  0.448461  1
  O  O15  1  0.087721  0.005095  0.176698  1
  O  O16  1  0.161418  0.016765  0.624060  1
  O  O17  1  0.183814  0.446352  0.448987  1
  O  O18  1  0.298940  0.231110  0.116351  1
  O  O19  1  0.305961  0.541574  0.095953  1
  O  O20  1  0.405113  0.960489  0.405154  1
  O  O21  1  0.457000  0.866962  0.047603  1
  O  O22  1  0.457005  0.873085  0.717587  1
  O  O23  1  0.459048  0.172939  0.646291  1
  O  O24  1  0.540952  0.672939  0.353709  1
  O  O25  1  0.542995  0.373085  0.282413  1
  O  O26  1  0.543000  0.366962  0.952397  1
  O  O27  1  0.594887  0.460489  0.594846  1
  O  O28  1  0.694039  0.041574  0.904047  1
  O  O29  1  0.701060  0.731110  0.883649  1
  O  O30  1  0.816186  0.946352  0.551013  1
  O  O31  1  0.838582  0.516765  0.375940  1
  O  O32  1  0.912279  0.505095  0.823302  1
  O  O33  1  0.921187  0.267641  0.551539  1
  O  O34  1  0.994828  0.703695  0.077325  1
  O  O35  1  0.976404  0.288970  0.229126  1
