# generated using pymatgen
data_Na6Co2As(CO4)4
_symmetry_space_group_name_H-M   'P 1'
_cell_length_a   9.92093438
_cell_length_b   9.92093438
_cell_length_c   9.92093438
_cell_angle_alpha   60.00000000
_cell_angle_beta   60.00000000
_cell_angle_gamma   60.00000000
_symmetry_Int_Tables_number   1
_chemical_formula_structural   Na6Co2As(CO4)4
_chemical_formula_sum   'Na12 Co4 As2 C8 O32'
_cell_volume   690.46669255
_cell_formula_units_Z   2
loop_
 _symmetry_equiv_pos_site_id
 _symmetry_equiv_pos_as_xyz
  1  'x, y, z'
loop_
 _atom_site_type_symbol
 _atom_site_label
 _atom_site_symmetry_multiplicity
 _atom_site_fract_x
 _atom_site_fract_y
 _atom_site_fract_z
 _atom_site_occupancy
  Na  Na0  1  0.539290  0.960710  0.960710  1
  Na  Na1  1  0.960710  0.539290  0.960710  1
  Na  Na2  1  0.539290  0.539290  0.960710  1
  Na  Na3  1  0.289290  0.710710  0.710710  1
  Na  Na4  1  0.960710  0.960710  0.539290  1
  Na  Na5  1  0.539290  0.960710  0.539290  1
  Na  Na6  1  0.289290  0.289290  0.710710  1
  Na  Na7  1  0.710710  0.289290  0.710710  1
  Na  Na8  1  0.960710  0.539290  0.539290  1
  Na  Na9  1  0.289290  0.710710  0.289290  1
  Na  Na10  1  0.710710  0.710710  0.289290  1
  Na  Na11  1  0.710710  0.289290  0.289290  1
  Co  Co12  1  0.625000  0.125000  0.125000  1
  Co  Co13  1  0.125000  0.125000  0.125000  1
  Co  Co14  1  0.125000  0.625000  0.125000  1
  Co  Co15  1  0.125000  0.125000  0.625000  1
  As  As16  1  0.500000  0.500000  0.500000  1
  As  As17  1  0.750000  0.750000  0.750000  1
  C  C18  1  0.339633  0.339633  0.981102  1
  C  C19  1  0.910367  0.910367  0.910367  1
  C  C20  1  0.268898  0.910367  0.910367  1
  C  C21  1  0.910367  0.268898  0.910367  1
  C  C22  1  0.339633  0.981102  0.339633  1
  C  C23  1  0.981102  0.339633  0.339633  1
  C  C24  1  0.339633  0.339633  0.339633  1
  C  C25  1  0.910367  0.910367  0.268898  1
  O  O26  1  0.312528  0.226192  0.978146  1
  O  O27  1  0.483133  0.312528  0.978146  1
  O  O28  1  0.226192  0.483133  0.978146  1
  O  O29  1  0.937472  0.766867  0.023808  1
  O  O30  1  0.570869  0.287393  0.570869  1
  O  O31  1  0.271854  0.766867  0.937472  1
  O  O32  1  0.271854  0.937472  0.023808  1
  O  O33  1  0.570869  0.570869  0.570869  1
  O  O34  1  0.287393  0.570869  0.570869  1
  O  O35  1  0.766867  0.023808  0.937472  1
  O  O36  1  0.023808  0.937472  0.766867  1
  O  O37  1  0.570869  0.570869  0.287393  1
  O  O38  1  0.766867  0.271854  0.023808  1
  O  O39  1  0.271854  0.023808  0.766867  1
  O  O40  1  0.023808  0.271854  0.937472  1
  O  O41  1  0.312528  0.978146  0.483133  1
  O  O42  1  0.937472  0.271854  0.766867  1
  O  O43  1  0.226192  0.978146  0.312528  1
  O  O44  1  0.978146  0.226192  0.483133  1
  O  O45  1  0.483133  0.978146  0.226192  1
  O  O46  1  0.679131  0.679131  0.962607  1
  O  O47  1  0.226192  0.312528  0.483133  1
  O  O48  1  0.483133  0.226192  0.312528  1
  O  O49  1  0.679131  0.679131  0.679131  1
  O  O50  1  0.962607  0.679131  0.679131  1
  O  O51  1  0.978146  0.312528  0.226192  1
  O  O52  1  0.978146  0.483133  0.312528  1
  O  O53  1  0.679131  0.962607  0.679131  1
  O  O54  1  0.312528  0.483133  0.226192  1
  O  O55  1  0.023808  0.766867  0.271854  1
  O  O56  1  0.766867  0.937472  0.271854  1
  O  O57  1  0.937472  0.023808  0.271854  1
