# generated using pymatgen
data_P2H16N4O7
_symmetry_space_group_name_H-M   'P 1'
_cell_length_a   6.76780133
_cell_length_b   6.76780133
_cell_length_c   13.78735816
_cell_angle_alpha   76.95208306
_cell_angle_beta   103.04791694
_cell_angle_gamma   122.43318238
_symmetry_Int_Tables_number   1
_chemical_formula_structural   P2H16N4O7
_chemical_formula_sum   'P4 H32 N8 O14'
_cell_volume   515.01378354
_cell_formula_units_Z   2
loop_
 _symmetry_equiv_pos_site_id
 _symmetry_equiv_pos_as_xyz
  1  'x, y, z'
loop_
 _atom_site_type_symbol
 _atom_site_label
 _atom_site_symmetry_multiplicity
 _atom_site_fract_x
 _atom_site_fract_y
 _atom_site_fract_z
 _atom_site_occupancy
  P  P0  1  0.552224  0.739192  0.652413  1
  P  P1  1  0.739192  0.552224  0.847587  1
  P  P2  1  0.447776  0.260808  0.347587  1
  P  P3  1  0.260808  0.447776  0.152413  1
  H  H4  1  0.043543  0.472278  0.612929  1
  H  H5  1  0.472278  0.043543  0.887071  1
  H  H6  1  0.956457  0.527722  0.387071  1
  H  H7  1  0.527722  0.956457  0.112929  1
  H  H8  1  0.854651  0.495970  0.664909  1
  H  H9  1  0.495970  0.854651  0.835091  1
  H  H10  1  0.145349  0.504030  0.335091  1
  H  H11  1  0.504030  0.145349  0.164909  1
  H  H12  1  0.778180  0.224668  0.648303  1
  H  H13  1  0.224668  0.778180  0.851697  1
  H  H14  1  0.221820  0.775332  0.351697  1
  H  H15  1  0.775332  0.221820  0.148303  1
  H  H16  1  0.777814  0.414456  0.544906  1
  H  H17  1  0.414456  0.777814  0.955094  1
  H  H18  1  0.222186  0.585544  0.455094  1
  H  H19  1  0.585544  0.222186  0.044906  1
  H  H20  1  0.358831  0.045083  0.649274  1
  H  H21  1  0.045083  0.358831  0.850726  1
  H  H22  1  0.641169  0.954917  0.350726  1
  H  H23  1  0.954917  0.641169  0.149274  1
  H  H24  1  0.071210  0.992264  0.618798  1
  H  H25  1  0.992264  0.071210  0.881202  1
  H  H26  1  0.928790  0.007736  0.381202  1
  H  H27  1  0.007736  0.928790  0.118798  1
  H  H28  1  0.255065  0.111924  0.529349  1
  H  H29  1  0.111924  0.255065  0.970651  1
  H  H30  1  0.744935  0.888076  0.470651  1
  H  H31  1  0.888076  0.744935  0.029349  1
  H  H32  1  0.299197  0.275739  0.614067  1
  H  H33  1  0.275739  0.299197  0.885933  1
  H  H34  1  0.700803  0.724261  0.385933  1
  H  H35  1  0.724261  0.700803  0.114067  1
  N  N36  1  0.863414  0.402729  0.617612  1
  N  N37  1  0.402729  0.863414  0.882388  1
  N  N38  1  0.136586  0.597271  0.382388  1
  N  N39  1  0.597271  0.136586  0.117612  1
  N  N40  1  0.248510  0.105331  0.605497  1
  N  N41  1  0.105331  0.248510  0.894503  1
  N  N42  1  0.751490  0.894669  0.394503  1
  N  N43  1  0.894669  0.751490  0.105497  1
  O  O44  1  0.545147  0.545147  0.750000  1
  O  O45  1  0.454853  0.454853  0.250000  1
  O  O46  1  0.771784  0.829908  0.602950  1
  O  O47  1  0.829908  0.771784  0.897050  1
  O  O48  1  0.228216  0.170092  0.397050  1
  O  O49  1  0.170092  0.228216  0.102950  1
  O  O50  1  0.322369  0.583989  0.587299  1
  O  O51  1  0.583989  0.322369  0.912701  1
  O  O52  1  0.677631  0.416011  0.412701  1
  O  O53  1  0.416011  0.677631  0.087299  1
  O  O54  1  0.552904  0.933969  0.692510  1
  O  O55  1  0.933969  0.552904  0.807490  1
  O  O56  1  0.447096  0.066031  0.307490  1
  O  O57  1  0.066031  0.447096  0.192510  1
