# generated using pymatgen
data_Li3VF5
_symmetry_space_group_name_H-M   'P 1'
_cell_length_a   5.66175650
_cell_length_b   12.01635020
_cell_length_c   12.04326932
_cell_angle_alpha   90.00000000
_cell_angle_beta   90.00000000
_cell_angle_gamma   90.00000000
_symmetry_Int_Tables_number   1
_chemical_formula_structural   Li3VF5
_chemical_formula_sum   'Li24 V8 F40'
_cell_volume   819.34755594
_cell_formula_units_Z   8
loop_
 _symmetry_equiv_pos_site_id
 _symmetry_equiv_pos_as_xyz
  1  'x, y, z'
loop_
 _atom_site_type_symbol
 _atom_site_label
 _atom_site_symmetry_multiplicity
 _atom_site_fract_x
 _atom_site_fract_y
 _atom_site_fract_z
 _atom_site_occupancy
  Li  Li0  1  0.542936  0.300987  0.330023  1
  Li  Li1  1  0.542936  0.199013  0.830023  1
  Li  Li2  1  0.662714  0.082662  0.579865  1
  Li  Li3  1  0.662714  0.417338  0.079865  1
  Li  Li4  1  0.730564  0.537492  0.316093  1
  Li  Li5  1  0.730564  0.962508  0.816093  1
  Li  Li6  1  0.769436  0.037492  0.316093  1
  Li  Li7  1  0.769436  0.462508  0.816093  1
  Li  Li8  1  0.837286  0.917338  0.079865  1
  Li  Li9  1  0.837286  0.582662  0.579865  1
  Li  Li10  1  0.957064  0.699013  0.830023  1
  Li  Li11  1  0.957064  0.800987  0.330023  1
  Li  Li12  1  0.042936  0.300987  0.169977  1
  Li  Li13  1  0.042936  0.199013  0.669977  1
  Li  Li14  1  0.162714  0.417338  0.420135  1
  Li  Li15  1  0.162714  0.082662  0.920135  1
  Li  Li16  1  0.230564  0.537492  0.183907  1
  Li  Li17  1  0.230564  0.962508  0.683907  1
  Li  Li18  1  0.269436  0.462508  0.683907  1
  Li  Li19  1  0.269436  0.037492  0.183907  1
  Li  Li20  1  0.337286  0.582662  0.920135  1
  Li  Li21  1  0.337286  0.917338  0.420135  1
  Li  Li22  1  0.457064  0.800987  0.169977  1
  Li  Li23  1  0.457064  0.699013  0.669977  1
  V  V24  1  0.719162  0.166484  0.072420  1
  V  V25  1  0.719162  0.333516  0.572420  1
  V  V26  1  0.780838  0.666484  0.072420  1
  V  V27  1  0.780838  0.833516  0.572420  1
  V  V28  1  0.219162  0.166484  0.427580  1
  V  V29  1  0.219162  0.333516  0.927580  1
  V  V30  1  0.280838  0.666484  0.427580  1
  V  V31  1  0.280838  0.833516  0.927580  1
  F  F32  1  0.458944  0.642479  0.146812  1
  F  F33  1  0.458944  0.857521  0.646812  1
  F  F34  1  0.609218  0.687173  0.507276  1
  F  F35  1  0.609218  0.812827  0.007276  1
  F  F36  1  0.616980  0.481581  0.661281  1
  F  F37  1  0.616980  0.018419  0.161281  1
  F  F38  1  0.685148  0.299134  0.192381  1
  F  F39  1  0.685148  0.200866  0.692381  1
  F  F40  1  0.817717  0.072126  0.930238  1
  F  F41  1  0.817717  0.427874  0.430238  1
  F  F42  1  0.682283  0.572126  0.930238  1
  F  F43  1  0.682283  0.927874  0.430238  1
  F  F44  1  0.814852  0.799134  0.192381  1
  F  F45  1  0.814852  0.700866  0.692381  1
  F  F46  1  0.883020  0.981581  0.661281  1
  F  F47  1  0.883020  0.518419  0.161281  1
  F  F48  1  0.890782  0.187173  0.507276  1
  F  F49  1  0.890782  0.312827  0.007276  1
  F  F50  1  0.041056  0.142479  0.146812  1
  F  F51  1  0.041056  0.357521  0.646812  1
  F  F52  1  0.958944  0.857521  0.853188  1
  F  F53  1  0.958944  0.642479  0.353188  1
  F  F54  1  0.109218  0.687173  0.992724  1
  F  F55  1  0.109218  0.812827  0.492724  1
  F  F56  1  0.116980  0.481581  0.838719  1
  F  F57  1  0.116980  0.018419  0.338719  1
  F  F58  1  0.185148  0.200866  0.807619  1
  F  F59  1  0.185148  0.299134  0.307619  1
  F  F60  1  0.317717  0.427874  0.069762  1
  F  F61  1  0.317717  0.072126  0.569762  1
  F  F62  1  0.182283  0.572126  0.569762  1
  F  F63  1  0.182283  0.927874  0.069762  1
  F  F64  1  0.314852  0.799134  0.307619  1
  F  F65  1  0.314852  0.700866  0.807619  1
  F  F66  1  0.383020  0.518419  0.338719  1
  F  F67  1  0.383020  0.981581  0.838719  1
  F  F68  1  0.390782  0.312827  0.492724  1
  F  F69  1  0.390782  0.187173  0.992724  1
  F  F70  1  0.541056  0.142479  0.353188  1
  F  F71  1  0.541056  0.357521  0.853188  1
