# generated using pymatgen
data_Li4Ti2Nb3Cu3O16
_symmetry_space_group_name_H-M   'P 1'
_cell_length_a   6.14938683
_cell_length_b   6.14938683
_cell_length_c   9.87946112
_cell_angle_alpha   86.62628120
_cell_angle_beta   93.37371880
_cell_angle_gamma   121.13104469
_symmetry_Int_Tables_number   1
_chemical_formula_structural   Li4Ti2Nb3Cu3O16
_chemical_formula_sum   'Li4 Ti2 Nb3 Cu3 O16'
_cell_volume   319.05854238
_cell_formula_units_Z   1
loop_
 _symmetry_equiv_pos_site_id
 _symmetry_equiv_pos_as_xyz
  1  'x, y, z'
loop_
 _atom_site_type_symbol
 _atom_site_label
 _atom_site_symmetry_multiplicity
 _atom_site_fract_x
 _atom_site_fract_y
 _atom_site_fract_z
 _atom_site_occupancy
  Li  Li0  1  0.667084  0.332916  0.087838  1
  Li  Li1  1  0.005269  0.994731  0.000135  1
  Li  Li2  1  0.025648  0.974352  0.521388  1
  Li  Li3  1  0.337456  0.662544  0.605128  1
  Ti  Ti4  1  0.636531  0.363469  0.527293  1
  Ti  Ti5  1  0.324505  0.675495  0.991060  1
  Nb  Nb6  1  0.823715  0.176285  0.771410  1
  Nb  Nb7  1  0.659054  0.839739  0.282038  1
  Nb  Nb8  1  0.160261  0.340946  0.282038  1
  Cu  Cu9  1  0.829423  0.661955  0.795784  1
  Cu  Cu10  1  0.338045  0.170577  0.795784  1
  Cu  Cu11  1  0.171374  0.828626  0.293467  1
  O  O12  1  0.811500  0.663264  0.412696  1
  O  O13  1  0.521860  0.478140  0.652804  1
  O  O14  1  0.671995  0.328005  0.887419  1
  O  O15  1  0.997504  0.002496  0.707937  1
  O  O16  1  0.998527  0.001473  0.190391  1
  O  O17  1  0.336736  0.188500  0.412696  1
  O  O18  1  0.967615  0.457843  0.640520  1
  O  O19  1  0.542157  0.032385  0.640520  1
  O  O20  1  0.165836  0.834164  0.913245  1
  O  O21  1  0.844903  0.155097  0.390452  1
  O  O22  1  0.501476  0.958299  0.151329  1
  O  O23  1  0.041701  0.498524  0.151329  1
  O  O24  1  0.346267  0.653733  0.397117  1
  O  O25  1  0.643492  0.852904  0.909882  1
  O  O26  1  0.484315  0.515685  0.170557  1
  O  O27  1  0.147096  0.356508  0.909882  1
