# generated using pymatgen
data_BaY3F11
_symmetry_space_group_name_H-M   'P 1'
_cell_length_a   7.73761936
_cell_length_b   8.25426068
_cell_length_c   8.28676211
_cell_angle_alpha   80.48616848
_cell_angle_beta   114.92246848
_cell_angle_gamma   116.24729222
_symmetry_Int_Tables_number   1
_chemical_formula_structural   BaY3F11
_chemical_formula_sum   'Ba2 Y6 F22'
_cell_volume   430.34307550
_cell_formula_units_Z   2
loop_
 _symmetry_equiv_pos_site_id
 _symmetry_equiv_pos_as_xyz
  1  'x, y, z'
loop_
 _atom_site_type_symbol
 _atom_site_label
 _atom_site_symmetry_multiplicity
 _atom_site_fract_x
 _atom_site_fract_y
 _atom_site_fract_z
 _atom_site_occupancy
  Ba  Ba0  1  0.688968  0.247055  0.662663  1
  Ba  Ba1  1  0.311032  0.752945  0.337337  1
  Y  Y2  1  0.728969  0.250791  0.210216  1
  Y  Y3  1  0.229305  0.266124  0.712595  1
  Y  Y4  1  0.193078  0.250109  0.159991  1
  Y  Y5  1  0.806922  0.749891  0.840009  1
  Y  Y6  1  0.770695  0.733876  0.287405  1
  Y  Y7  1  0.271031  0.749209  0.789784  1
  F  F8  1  0.002904  0.047168  0.830882  1
  F  F9  1  0.643538  0.950231  0.226927  1
  F  F10  1  0.903546  0.196760  0.501261  1
  F  F11  1  0.427483  0.276739  0.022384  1
  F  F12  1  0.548940  0.877126  0.688221  1
  F  F13  1  0.282099  0.234190  0.468114  1
  F  F14  1  0.068590  0.401250  0.258312  1
  F  F15  1  0.816442  0.190839  0.006993  1
  F  F16  1  0.857141  0.605298  0.109921  1
  F  F17  1  0.565821  0.459735  0.767226  1
  F  F18  1  0.237090  0.540945  0.620622  1
  F  F19  1  0.762910  0.459055  0.379378  1
  F  F20  1  0.434179  0.540265  0.232774  1
  F  F21  1  0.142859  0.394702  0.890079  1
  F  F22  1  0.183558  0.809161  0.993007  1
  F  F23  1  0.931410  0.598750  0.741688  1
  F  F24  1  0.717901  0.765810  0.531886  1
  F  F25  1  0.451060  0.122874  0.311779  1
  F  F26  1  0.572517  0.723261  0.977616  1
  F  F27  1  0.096454  0.803240  0.498739  1
  F  F28  1  0.356462  0.049769  0.773073  1
  F  F29  1  0.997096  0.952832  0.169118  1
