# generated using pymatgen
data_Li12V3CrP4(CO7)4
_symmetry_space_group_name_H-M   'P 1'
_cell_length_a   8.54037420
_cell_length_b   6.58877538
_cell_length_c   10.00941826
_cell_angle_alpha   90.00000000
_cell_angle_beta   94.98406350
_cell_angle_gamma   90.00000000
_symmetry_Int_Tables_number   1
_chemical_formula_structural   Li12V3CrP4(CO7)4
_chemical_formula_sum   'Li12 V3 Cr1 P4 C4 O28'
_cell_volume   561.10639305
_cell_formula_units_Z   1
loop_
 _symmetry_equiv_pos_site_id
 _symmetry_equiv_pos_as_xyz
  1  'x, y, z'
loop_
 _atom_site_type_symbol
 _atom_site_label
 _atom_site_symmetry_multiplicity
 _atom_site_fract_x
 _atom_site_fract_y
 _atom_site_fract_z
 _atom_site_occupancy
  Li  Li0  1  0.898359  0.000000  0.381153  1
  Li  Li1  1  0.904366  0.000000  0.884156  1
  Li  Li2  1  0.721016  0.223473  0.124610  1
  Li  Li3  1  0.721016  0.776527  0.124610  1
  Li  Li4  1  0.722833  0.221666  0.624659  1
  Li  Li5  1  0.722833  0.778334  0.624659  1
  Li  Li6  1  0.278007  0.727150  0.374405  1
  Li  Li7  1  0.278007  0.272850  0.374405  1
  Li  Li8  1  0.278277  0.724291  0.876009  1
  Li  Li9  1  0.278277  0.275709  0.876009  1
  Li  Li10  1  0.096590  0.500000  0.116156  1
  Li  Li11  1  0.093814  0.500000  0.616764  1
  V  V12  1  0.670753  0.500000  0.395511  1
  V  V13  1  0.671630  0.500000  0.896811  1
  V  V14  1  0.329736  0.000000  0.103063  1
  Cr  Cr15  1  0.334037  0.000000  0.607614  1
  P  P16  1  0.587400  0.000000  0.359319  1
  P  P17  1  0.591823  0.000000  0.861757  1
  P  P18  1  0.411195  0.500000  0.139946  1
  P  P19  1  0.413003  0.500000  0.640924  1
  C  C20  1  0.964567  0.500000  0.348558  1
  C  C21  1  0.964804  0.500000  0.848586  1
  C  C22  1  0.036409  0.000000  0.151070  1
  C  C23  1  0.030644  0.000000  0.647970  1
  O  O24  1  0.924915  0.500000  0.471244  1
  O  O25  1  0.890693  0.000000  0.178586  1
  O  O26  1  0.925961  0.500000  0.971615  1
  O  O27  1  0.851546  0.500000  0.251781  1
  O  O28  1  0.887251  0.000000  0.683011  1
  O  O29  1  0.851541  0.500000  0.752261  1
  O  O30  1  0.690197  0.182697  0.412183  1
  O  O31  1  0.690197  0.817303  0.412183  1
  O  O32  1  0.692659  0.183146  0.916979  1
  O  O33  1  0.692659  0.816854  0.916979  1
  O  O34  1  0.577336  0.500000  0.089308  1
  O  O35  1  0.568930  0.000000  0.202404  1
  O  O36  1  0.578161  0.500000  0.589103  1
  O  O37  1  0.578413  0.000000  0.705794  1
  O  O38  1  0.431125  0.500000  0.296700  1
  O  O39  1  0.421493  0.000000  0.410147  1
  O  O40  1  0.432029  0.500000  0.797397  1
  O  O41  1  0.423350  0.000000  0.908709  1
  O  O42  1  0.308424  0.317364  0.087019  1
  O  O43  1  0.308424  0.682636  0.087019  1
  O  O44  1  0.311197  0.685384  0.588766  1
  O  O45  1  0.311197  0.314616  0.588766  1
  O  O46  1  0.149593  0.000000  0.247081  1
  O  O47  1  0.110016  0.500000  0.321512  1
  O  O48  1  0.147823  0.000000  0.741581  1
  O  O49  1  0.075116  0.000000  0.028004  1
  O  O50  1  0.110113  0.500000  0.821036  1
  O  O51  1  0.060251  0.000000  0.524106  1
