# generated using pymatgen
data_MnH2(SeO4)2
_symmetry_space_group_name_H-M   'P 1'
_cell_length_a   7.01165430
_cell_length_b   10.71948420
_cell_length_c   10.02582934
_cell_angle_alpha   90.00000000
_cell_angle_beta   110.41133024
_cell_angle_gamma   90.00000000
_symmetry_Int_Tables_number   1
_chemical_formula_structural   MnH2(SeO4)2
_chemical_formula_sum   'Mn4 H8 Se8 O32'
_cell_volume   706.24114387
_cell_formula_units_Z   4
loop_
 _symmetry_equiv_pos_site_id
 _symmetry_equiv_pos_as_xyz
  1  'x, y, z'
loop_
 _atom_site_type_symbol
 _atom_site_label
 _atom_site_symmetry_multiplicity
 _atom_site_fract_x
 _atom_site_fract_y
 _atom_site_fract_z
 _atom_site_occupancy
  Mn  Mn0  1  0.869681  0.528991  0.698622  1
  Mn  Mn1  1  0.130319  0.028991  0.801378  1
  Mn  Mn2  1  0.130319  0.471009  0.301378  1
  Mn  Mn3  1  0.869681  0.971009  0.198622  1
  H  H4  1  0.321619  0.780640  0.713019  1
  H  H5  1  0.678381  0.280640  0.786981  1
  H  H6  1  0.678381  0.219360  0.286981  1
  H  H7  1  0.321619  0.719360  0.213019  1
  H  H8  1  0.691996  0.543995  0.098239  1
  H  H9  1  0.308004  0.043995  0.401761  1
  H  H10  1  0.308004  0.456005  0.901761  1
  H  H11  1  0.691996  0.956005  0.598239  1
  Se  Se12  1  0.343959  0.579514  0.648271  1
  Se  Se13  1  0.656041  0.079514  0.851729  1
  Se  Se14  1  0.656041  0.420486  0.351729  1
  Se  Se15  1  0.343959  0.920486  0.148271  1
  Se  Se16  1  0.872345  0.681883  0.015021  1
  Se  Se17  1  0.127655  0.181883  0.484979  1
  Se  Se18  1  0.127655  0.318117  0.984979  1
  Se  Se19  1  0.872345  0.818117  0.515021  1
  O  O20  1  0.204332  0.526431  0.742224  1
  O  O21  1  0.795668  0.026431  0.757776  1
  O  O22  1  0.795668  0.473569  0.257776  1
  O  O23  1  0.204332  0.973569  0.242224  1
  O  O24  1  0.550281  0.495131  0.676733  1
  O  O25  1  0.449719  0.995131  0.823267  1
  O  O26  1  0.449719  0.504869  0.323267  1
  O  O27  1  0.550281  0.004869  0.176733  1
  O  O28  1  0.199717  0.602434  0.480040  1
  O  O29  1  0.800283  0.102434  0.019960  1
  O  O30  1  0.800283  0.397566  0.519960  1
  O  O31  1  0.199717  0.897566  0.980040  1
  O  O32  1  0.439602  0.726373  0.718644  1
  O  O33  1  0.560398  0.226373  0.781356  1
  O  O34  1  0.560398  0.273627  0.281356  1
  O  O35  1  0.439602  0.773627  0.218644  1
  O  O36  1  0.910972  0.668141  0.862769  1
  O  O37  1  0.089028  0.168141  0.637231  1
  O  O38  1  0.089028  0.331859  0.137231  1
  O  O39  1  0.910972  0.831859  0.362769  1
  O  O40  1  0.799218  0.824388  0.038055  1
  O  O41  1  0.200782  0.324388  0.461945  1
  O  O42  1  0.200782  0.175612  0.961945  1
  O  O43  1  0.799218  0.675612  0.538055  1
  O  O44  1  0.072491  0.634131  0.154512  1
  O  O45  1  0.927509  0.134131  0.345488  1
  O  O46  1  0.927509  0.365869  0.845488  1
  O  O47  1  0.072491  0.865869  0.654512  1
  O  O48  1  0.670137  0.579927  0.000554  1
  O  O49  1  0.329863  0.079927  0.499446  1
  O  O50  1  0.329863  0.420073  0.999446  1
  O  O51  1  0.670137  0.920073  0.500554  1
