# generated using pymatgen
data_Li6CrFe3(PO4)6
_symmetry_space_group_name_H-M   'P 1'
_cell_length_a   8.57212313
_cell_length_b   8.62095065
_cell_length_c   8.62247944
_cell_angle_alpha   61.36711314
_cell_angle_beta   61.38789730
_cell_angle_gamma   61.40404399
_symmetry_Int_Tables_number   1
_chemical_formula_structural   Li6CrFe3(PO4)6
_chemical_formula_sum   'Li6 Cr1 Fe3 P6 O24'
_cell_volume   464.60113835
_cell_formula_units_Z   1
loop_
 _symmetry_equiv_pos_site_id
 _symmetry_equiv_pos_as_xyz
  1  'x, y, z'
loop_
 _atom_site_type_symbol
 _atom_site_label
 _atom_site_symmetry_multiplicity
 _atom_site_fract_x
 _atom_site_fract_y
 _atom_site_fract_z
 _atom_site_occupancy
  Li  Li0  1  0.025172  0.006854  0.997413  1
  Li  Li1  1  0.750250  0.153250  0.347042  1
  Li  Li2  1  0.475734  0.503117  0.493786  1
  Li  Li3  1  0.249884  0.843088  0.652525  1
  Li  Li4  1  0.654859  0.251574  0.841123  1
  Li  Li5  1  0.840727  0.654933  0.249483  1
  Cr  Cr6  1  0.856107  0.854493  0.854465  1
  Fe  Fe7  1  0.146276  0.144568  0.137120  1
  Fe  Fe8  1  0.353004  0.362975  0.354546  1
  Fe  Fe9  1  0.646997  0.647850  0.648740  1
  P  P10  1  0.048485  0.750997  0.452684  1
  P  P11  1  0.453522  0.049378  0.748075  1
  P  P12  1  0.749613  0.455648  0.046340  1
  P  P13  1  0.249346  0.541583  0.957626  1
  P  P14  1  0.543997  0.961754  0.250141  1
  P  P15  1  0.955402  0.248373  0.537584  1
  O  O16  1  0.126864  0.291290  0.496086  1
  O  O17  1  0.301035  0.509899  0.118813  1
  O  O18  1  0.044801  0.922935  0.271107  1
  O  O19  1  0.529885  0.120386  0.296385  1
  O  O20  1  0.238884  0.593097  0.429878  1
  O  O21  1  0.019100  0.803246  0.615307  1
  O  O22  1  0.263916  0.067696  0.907863  1
  O  O23  1  0.452297  0.231745  0.577161  1
  O  O24  1  0.592657  0.431153  0.240064  1
  O  O25  1  0.196779  0.380610  0.990503  1
  O  O26  1  0.087600  0.734883  0.935007  1
  O  O27  1  0.372419  0.003632  0.207303  1
  O  O28  1  0.615519  0.016091  0.804767  1
  O  O29  1  0.907680  0.262496  0.067275  1
  O  O30  1  0.804973  0.615531  0.016094  1
  O  O31  1  0.410284  0.566767  0.763971  1
  O  O32  1  0.565998  0.768374  0.410704  1
  O  O33  1  0.733655  0.934068  0.085643  1
  O  O34  1  0.969898  0.201476  0.379395  1
  O  O35  1  0.765251  0.411514  0.568427  1
  O  O36  1  0.486401  0.886363  0.693224  1
  O  O37  1  0.936571  0.086544  0.730360  1
  O  O38  1  0.691173  0.488442  0.887104  1
  O  O39  1  0.886980  0.690327  0.489864  1
