# generated using pymatgen
data_Ti3Nb2Cr3O16
_symmetry_space_group_name_H-M   'P 1'
_cell_length_a   5.94744777
_cell_length_b   5.97570227
_cell_length_c   9.38887012
_cell_angle_alpha   90.15140738
_cell_angle_beta   90.63583724
_cell_angle_gamma   119.74109402
_symmetry_Int_Tables_number   1
_chemical_formula_structural   Ti3Nb2Cr3O16
_chemical_formula_sum   'Ti3 Nb2 Cr3 O16'
_cell_volume   289.69754627
_cell_formula_units_Z   1
loop_
 _symmetry_equiv_pos_site_id
 _symmetry_equiv_pos_as_xyz
  1  'x, y, z'
loop_
 _atom_site_type_symbol
 _atom_site_label
 _atom_site_symmetry_multiplicity
 _atom_site_fract_x
 _atom_site_fract_y
 _atom_site_fract_z
 _atom_site_occupancy
  Ti  Ti0  1  0.654325  0.820196  0.717172  1
  Ti  Ti1  1  0.824433  0.166427  0.219448  1
  Ti  Ti2  1  0.824729  0.656898  0.220978  1
  Nb  Nb3  1  0.658561  0.326932  0.499150  1
  Nb  Nb4  1  0.319638  0.656682  0.998050  1
  Cr  Cr5  1  0.338441  0.168694  0.207596  1
  Cr  Cr6  1  0.167803  0.338252  0.709145  1
  Cr  Cr7  1  0.175375  0.835874  0.717868  1
  O  O8  1  0.825193  0.167522  0.599522  1
  O  O9  1  0.960753  0.479201  0.335518  1
  O  O10  1  0.679476  0.339599  0.105641  1
  O  O11  1  0.997842  0.998602  0.305649  1
  O  O12  1  0.006401  0.996508  0.802289  1
  O  O13  1  0.828748  0.657691  0.600052  1
  O  O14  1  0.529666  0.045837  0.336198  1
  O  O15  1  0.529144  0.484084  0.336024  1
  O  O16  1  0.656934  0.829191  0.098731  1
  O  O17  1  0.337944  0.167600  0.599008  1
  O  O18  1  0.487554  0.531708  0.834839  1
  O  O19  1  0.478783  0.958616  0.833296  1
  O  O20  1  0.331824  0.675955  0.607114  1
  O  O21  1  0.167102  0.337896  0.098164  1
  O  O22  1  0.050256  0.531433  0.835175  1
  O  O23  1  0.169073  0.828406  0.099093  1
