# generated using pymatgen
data_CaLaI5
_symmetry_space_group_name_H-M   'P 1'
_cell_length_a   4.47663416
_cell_length_b   15.54323268
_cell_length_c   19.00277405
_cell_angle_alpha   90.00000000
_cell_angle_beta   90.00000000
_cell_angle_gamma   90.00000000
_symmetry_Int_Tables_number   1
_chemical_formula_structural   CaLaI5
_chemical_formula_sum   'Ca4 La4 I20'
_cell_volume   1322.23898326
_cell_formula_units_Z   4
loop_
 _symmetry_equiv_pos_site_id
 _symmetry_equiv_pos_as_xyz
  1  'x, y, z'
loop_
 _atom_site_type_symbol
 _atom_site_label
 _atom_site_symmetry_multiplicity
 _atom_site_fract_x
 _atom_site_fract_y
 _atom_site_fract_z
 _atom_site_occupancy
  Ca  Ca0  1  0.750000  0.746220  0.155670  1
  Ca  Ca1  1  0.250000  0.246220  0.344330  1
  Ca  Ca2  1  0.750000  0.753780  0.655670  1
  Ca  Ca3  1  0.250000  0.253780  0.844330  1
  La  La4  1  0.750000  0.239099  0.093276  1
  La  La5  1  0.250000  0.739099  0.406724  1
  La  La6  1  0.750000  0.260901  0.593276  1
  La  La7  1  0.250000  0.760901  0.906724  1
  I  I8  1  0.250000  0.361422  0.031409  1
  I  I9  1  0.250000  0.857419  0.055253  1
  I  I10  1  0.250000  0.610681  0.153830  1
  I  I11  1  0.250000  0.117772  0.156747  1
  I  I12  1  0.750000  0.344331  0.237880  1
  I  I13  1  0.250000  0.844331  0.262120  1
  I  I14  1  0.750000  0.617772  0.343253  1
  I  I15  1  0.750000  0.110681  0.346170  1
  I  I16  1  0.750000  0.357419  0.444747  1
  I  I17  1  0.750000  0.861422  0.468591  1
  I  I18  1  0.250000  0.138578  0.531409  1
  I  I19  1  0.250000  0.642581  0.555253  1
  I  I20  1  0.250000  0.889319  0.653830  1
  I  I21  1  0.250000  0.382228  0.656747  1
  I  I22  1  0.750000  0.155669  0.737880  1
  I  I23  1  0.250000  0.655669  0.762120  1
  I  I24  1  0.750000  0.882228  0.843253  1
  I  I25  1  0.750000  0.389319  0.846170  1
  I  I26  1  0.750000  0.142581  0.944747  1
  I  I27  1  0.750000  0.638578  0.968591  1
