# generated using pymatgen
data_UNb6O16
_symmetry_space_group_name_H-M   'P 1'
_cell_length_a   11.53698749
_cell_length_b   11.53698749
_cell_length_c   7.43761351
_cell_angle_alpha   83.85898331
_cell_angle_beta   96.14101669
_cell_angle_gamma   160.90514098
_symmetry_Int_Tables_number   1
_chemical_formula_structural   UNb6O16
_chemical_formula_sum   'U1 Nb6 O16'
_cell_volume   321.93819399
_cell_formula_units_Z   1
loop_
 _symmetry_equiv_pos_site_id
 _symmetry_equiv_pos_as_xyz
  1  'x, y, z'
loop_
 _atom_site_type_symbol
 _atom_site_label
 _atom_site_symmetry_multiplicity
 _atom_site_fract_x
 _atom_site_fract_y
 _atom_site_fract_z
 _atom_site_occupancy
  U  U0  1  0.993210  0.993210  0.000000  1
  Nb  Nb1  1  0.902984  0.048055  0.469207  1
  Nb  Nb2  1  0.321704  0.586667  0.109164  1
  Nb  Nb3  1  0.874639  0.317849  0.675774  1
  Nb  Nb4  1  0.317849  0.874639  0.324226  1
  Nb  Nb5  1  0.586667  0.321704  0.890836  1
  Nb  Nb6  1  0.048055  0.902984  0.530793  1
  O  O7  1  0.970532  0.998440  0.674725  1
  O  O8  1  0.396737  0.554448  0.386472  1
  O  O9  1  0.441767  0.553691  0.980239  1
  O  O10  1  0.862566  0.077146  0.173114  1
  O  O11  1  0.862712  0.144268  0.580143  1
  O  O12  1  0.333129  0.743474  0.213668  1
  O  O13  1  0.109227  0.461386  0.891688  1
  O  O14  1  0.349310  0.817338  0.595328  1
  O  O15  1  0.817338  0.349310  0.404672  1
  O  O16  1  0.461386  0.109227  0.108312  1
  O  O17  1  0.743474  0.333129  0.786332  1
  O  O18  1  0.144268  0.862712  0.419857  1
  O  O19  1  0.077146  0.862566  0.826886  1
  O  O20  1  0.553691  0.441767  0.019761  1
  O  O21  1  0.554448  0.396737  0.613528  1
  O  O22  1  0.998440  0.970532  0.325275  1
