# generated using pymatgen
data_Rb4Ge9(H3N)5
_symmetry_space_group_name_H-M   'P 1'
_cell_length_a   9.18025717
_cell_length_b   15.33013262
_cell_length_c   17.29504065
_cell_angle_alpha   90.00000000
_cell_angle_beta   91.92671968
_cell_angle_gamma   90.00000000
_symmetry_Int_Tables_number   1
_chemical_formula_structural   Rb4Ge9(H3N)5
_chemical_formula_sum   'Rb16 Ge36 H60 N20'
_cell_volume   2432.63385522
_cell_formula_units_Z   4
loop_
 _symmetry_equiv_pos_site_id
 _symmetry_equiv_pos_as_xyz
  1  'x, y, z'
loop_
 _atom_site_type_symbol
 _atom_site_label
 _atom_site_symmetry_multiplicity
 _atom_site_fract_x
 _atom_site_fract_y
 _atom_site_fract_z
 _atom_site_occupancy
  Rb  Rb0  1  0.313283  0.279331  0.092665  1
  Rb  Rb1  1  0.313283  0.220669  0.592665  1
  Rb  Rb2  1  0.246914  0.550829  0.246776  1
  Rb  Rb3  1  0.246914  0.949171  0.746776  1
  Rb  Rb4  1  0.223314  0.226928  0.352757  1
  Rb  Rb5  1  0.223314  0.273072  0.852757  1
  Rb  Rb6  1  0.050563  0.647562  0.449814  1
  Rb  Rb7  1  0.050563  0.852438  0.949814  1
  Rb  Rb8  1  0.949437  0.147562  0.050186  1
  Rb  Rb9  1  0.949437  0.352438  0.550186  1
  Rb  Rb10  1  0.776686  0.726928  0.147243  1
  Rb  Rb11  1  0.776686  0.773072  0.647243  1
  Rb  Rb12  1  0.753086  0.050829  0.253224  1
  Rb  Rb13  1  0.753086  0.449171  0.753224  1
  Rb  Rb14  1  0.686717  0.779331  0.407335  1
  Rb  Rb15  1  0.686717  0.720669  0.907335  1
  Ge  Ge16  1  0.459555  0.845055  0.235281  1
  Ge  Ge17  1  0.459555  0.654945  0.735281  1
  Ge  Ge18  1  0.396491  0.990858  0.309606  1
  Ge  Ge19  1  0.396491  0.509142  0.809606  1
  Ge  Ge20  1  0.317045  0.920271  0.119771  1
  Ge  Ge21  1  0.317045  0.579729  0.619771  1
  Ge  Ge22  1  0.275661  0.841492  0.347547  1
  Ge  Ge23  1  0.275661  0.658508  0.847547  1
  Ge  Ge24  1  0.227617  0.057193  0.198315  1
  Ge  Ge25  1  0.204593  0.782036  0.189464  1
  Ge  Ge26  1  0.227617  0.442807  0.698315  1
  Ge  Ge27  1  0.204593  0.717964  0.689464  1
  Ge  Ge28  1  0.115965  0.992882  0.325461  1
  Ge  Ge29  1  0.115965  0.507118  0.825461  1
  Ge  Ge30  1  0.046235  0.931616  0.160907  1
  Ge  Ge31  1  0.046235  0.568384  0.660907  1
  Ge  Ge32  1  0.012421  0.839474  0.286687  1
  Ge  Ge33  1  0.987579  0.339474  0.213313  1
  Ge  Ge34  1  0.012421  0.660526  0.786687  1
  Ge  Ge35  1  0.987579  0.160526  0.713313  1
  Ge  Ge36  1  0.953765  0.431616  0.339093  1
  Ge  Ge37  1  0.953765  0.068384  0.839093  1
  Ge  Ge38  1  0.884035  0.492882  0.174539  1
  Ge  Ge39  1  0.884035  0.007118  0.674539  1
  Ge  Ge40  1  0.795407  0.282036  0.310536  1
  Ge  Ge41  1  0.772383  0.557193  0.301685  1
  Ge  Ge42  1  0.795407  0.217964  0.810536  1
  Ge  Ge43  1  0.772383  0.942807  0.801685  1
  Ge  Ge44  1  0.724339  0.341492  0.152453  1
  Ge  Ge45  1  0.724339  0.158508  0.652453  1
  Ge  Ge46  1  0.682955  0.420271  0.380229  1
  Ge  Ge47  1  0.682955  0.079729  0.880229  1
  Ge  Ge48  1  0.603509  0.490858  0.190394  1
  Ge  Ge49  1  0.603509  0.009142  0.690394  1
  Ge  Ge50  1  0.540445  0.345055  0.264719  1
  Ge  Ge51  1  0.540445  0.154945  0.764719  1
  H  H52  1  0.495544  0.134167  0.414480  1
  H  H53  1  0.477526  0.580269  0.392537  1
  H  H54  1  0.495544  0.365833  0.914480  1
  H  H55  1  0.477526  0.919731  0.892537  1
  H  H56  1  0.425994  0.659492  0.002188  1
  H  H57  1  0.420485  0.728279  0.074154  1
  H  H58  1  0.425994  0.840508  0.502188  1
  H  H59  1  0.420485  0.771721  0.574154  1
  H  H60  1  0.379212  0.671115  0.390595  1
  H  H61  1  0.378622  0.377253  0.453002  1
  H  H62  1  0.379212  0.828885  0.890595  1
  H  H63  1  0.334062  0.500181  0.001326  1
  H  H64  1  0.355151  0.595940  0.458094  1
  H  H65  1  0.378622  0.122747  0.953002  1
  H  H66  1  0.338692  0.478920  0.094143  1
  H  H67  1  0.334062  0.999819  0.501326  1
  H  H68  1  0.355151  0.904060  0.958094  1
  H  H69  1  0.338692  0.021080  0.594143  1
  H  H70  1  0.296188  0.074974  0.023736  1
  H  H71  1  0.296188  0.425026  0.523736  1
  H  H72  1  0.211665  0.413928  0.439422  1
  H  H73  1  0.184979  0.510479  0.049532  1
  H  H74  1  0.211665  0.086072  0.939422  1
  H  H75  1  0.184979  0.989521  0.549532  1
  H  H76  1  0.074965  0.660932  0.054674  1
  H  H77  1  0.074965  0.839068  0.554674  1
  H  H78  1  0.073133  0.111391  0.479366  1
  H  H79  1  0.073133  0.388609  0.979366  1
  H  H80  1  0.040934  0.845865  0.460911  1
  H  H81  1  0.040934  0.654135  0.960911  1
  H  H82  1  0.959066  0.345865  0.039089  1
  H  H83  1  0.959066  0.154135  0.539089  1
  H  H84  1  0.926867  0.611391  0.020634  1
  H  H85  1  0.926867  0.888609  0.520634  1
  H  H86  1  0.925035  0.160932  0.445326  1
  H  H87  1  0.925035  0.339068  0.945326  1
  H  H88  1  0.815021  0.010479  0.450468  1
  H  H89  1  0.788335  0.913928  0.060578  1
  H  H90  1  0.815021  0.489521  0.950468  1
  H  H91  1  0.788335  0.586072  0.560578  1
  H  H92  1  0.703812  0.574974  0.476264  1
  H  H93  1  0.703812  0.925026  0.976264  1
  H  H94  1  0.661308  0.978920  0.405857  1
  H  H95  1  0.644849  0.095940  0.041906  1
  H  H96  1  0.665938  0.000181  0.498674  1
  H  H97  1  0.661308  0.521080  0.905857  1
  H  H98  1  0.621378  0.877253  0.046998  1
  H  H99  1  0.644849  0.404060  0.541906  1
  H  H100  1  0.665938  0.499819  0.998674  1
  H  H101  1  0.620788  0.171115  0.109405  1
  H  H102  1  0.621378  0.622747  0.546998  1
  H  H103  1  0.620788  0.328885  0.609405  1
  H  H104  1  0.579515  0.228279  0.425846  1
  H  H105  1  0.574006  0.159492  0.497812  1
  H  H106  1  0.579515  0.271721  0.925846  1
  H  H107  1  0.574006  0.340508  0.997812  1
  H  H108  1  0.522474  0.080269  0.107463  1
  H  H109  1  0.504456  0.634167  0.085520  1
  H  H110  1  0.522474  0.419731  0.607463  1
  H  H111  1  0.504456  0.865833  0.585520  1
  N  N112  1  0.487968  0.685091  0.047334  1
  N  N113  1  0.487968  0.814909  0.547334  1
  N  N114  1  0.374938  0.604976  0.400254  1
  N  N115  1  0.374938  0.895024  0.900254  1
  N  N116  1  0.275405  0.472213  0.044211  1
  N  N117  1  0.279508  0.381875  0.478901  1
  N  N118  1  0.275405  0.027787  0.544211  1
  N  N119  1  0.279508  0.118125  0.978901  1
  N  N120  1  0.992632  0.664497  0.013194  1
  N  N121  1  0.007368  0.164497  0.486806  1
  N  N122  1  0.992632  0.835503  0.513194  1
  N  N123  1  0.007368  0.335503  0.986806  1
  N  N124  1  0.720492  0.881875  0.021099  1
  N  N125  1  0.724595  0.972213  0.455789  1
  N  N126  1  0.720492  0.618125  0.521099  1
  N  N127  1  0.724595  0.527787  0.955789  1
  N  N128  1  0.625062  0.104976  0.099746  1
  N  N129  1  0.625062  0.395024  0.599746  1
  N  N130  1  0.512032  0.185091  0.452666  1
  N  N131  1  0.512032  0.314909  0.952666  1
