# generated using pymatgen
data_Li4Fe3OF11
_symmetry_space_group_name_H-M   'P 1'
_cell_length_a   5.87147491
_cell_length_b   5.96300374
_cell_length_c   6.16867986
_cell_angle_alpha   99.93134972
_cell_angle_beta   100.01993328
_cell_angle_gamma   98.26805097
_symmetry_Int_Tables_number   1
_chemical_formula_structural   Li4Fe3OF11
_chemical_formula_sum   'Li4 Fe3 O1 F11'
_cell_volume   206.10354055
_cell_formula_units_Z   1
loop_
 _symmetry_equiv_pos_site_id
 _symmetry_equiv_pos_as_xyz
  1  'x, y, z'
loop_
 _atom_site_type_symbol
 _atom_site_label
 _atom_site_symmetry_multiplicity
 _atom_site_fract_x
 _atom_site_fract_y
 _atom_site_fract_z
 _atom_site_occupancy
  Li  Li0  1  0.123130  0.334303  0.583192  1
  Li  Li1  1  0.601995  0.132439  0.309802  1
  Li  Li2  1  0.859860  0.662996  0.401267  1
  Li  Li3  1  0.329091  0.602910  0.145855  1
  Fe  Fe4  1  0.687065  0.373755  0.866845  1
  Fe  Fe5  1  0.994068  0.003599  0.007191  1
  Fe  Fe6  1  0.409095  0.857146  0.658391  1
  O  O7  1  0.679045  0.045533  0.873310  1
  F  F8  1  0.079900  0.321527  0.953680  1
  F  F9  1  0.398779  0.179628  0.593164  1
  F  F10  1  0.437183  0.592641  0.816890  1
  F  F11  1  0.946230  0.117623  0.306279  1
  F  F12  1  0.809514  0.430769  0.605616  1
  F  F13  1  0.193483  0.601490  0.421622  1
  F  F14  1  0.081449  0.892505  0.708659  1
  F  F15  1  0.582283  0.399238  0.157098  1
  F  F16  1  0.600114  0.823090  0.428671  1
  F  F17  1  0.882513  0.682501  0.045013  1
  F  F18  1  0.305205  0.946305  0.117452  1
