# generated using pymatgen
data_K6U2Mo4O21
_symmetry_space_group_name_H-M   'P 1'
_cell_length_a   7.97543730
_cell_length_b   8.09593197
_cell_length_c   10.58581308
_cell_angle_alpha   71.42570445
_cell_angle_beta   84.16288797
_cell_angle_gamma   80.25291197
_symmetry_Int_Tables_number   1
_chemical_formula_structural   K6U2Mo4O21
_chemical_formula_sum   'K6 U2 Mo4 O21'
_cell_volume   637.71977237
_cell_formula_units_Z   1
loop_
 _symmetry_equiv_pos_site_id
 _symmetry_equiv_pos_as_xyz
  1  'x, y, z'
loop_
 _atom_site_type_symbol
 _atom_site_label
 _atom_site_symmetry_multiplicity
 _atom_site_fract_x
 _atom_site_fract_y
 _atom_site_fract_z
 _atom_site_occupancy
  K  K0  1  0.930470  0.390388  0.277163  1
  K  K1  1  0.705565  0.840840  0.025926  1
  K  K2  1  0.598869  0.275285  0.658632  1
  K  K3  1  0.069530  0.609612  0.722837  1
  K  K4  1  0.294435  0.159160  0.974074  1
  K  K5  1  0.401131  0.724715  0.341368  1
  U  U6  1  0.483997  0.215745  0.315320  1
  U  U7  1  0.516003  0.784255  0.684680  1
  Mo  Mo8  1  0.255966  0.637089  0.032376  1
  Mo  Mo9  1  0.846791  0.846753  0.393143  1
  Mo  Mo10  1  0.153209  0.153247  0.606857  1
  Mo  Mo11  1  0.744034  0.362911  0.967624  1
  O  O12  1  0.207846  0.231572  0.427598  1
  O  O13  1  0.535580  0.372381  0.395199  1
  O  O14  1  0.033862  0.701550  0.012893  1
  O  O15  1  0.464420  0.627619  0.604801  1
  O  O16  1  0.930101  0.201383  0.623198  1
  O  O17  1  0.717821  0.567366  0.829900  1
  O  O18  1  0.652282  0.199018  0.930090  1
  O  O19  1  0.347718  0.800982  0.069910  1
  O  O20  1  0.644914  0.398754  0.121496  1
  O  O21  1  0.282179  0.432634  0.170100  1
  O  O22  1  0.242330  0.272174  0.693232  1
  O  O23  1  0.069899  0.798617  0.376802  1
  O  O24  1  0.966138  0.298450  0.987107  1
  O  O25  1  0.792154  0.768428  0.572402  1
  O  O26  1  0.779092  0.084085  0.320033  1
  O  O27  1  0.441774  0.071110  0.221199  1
  O  O28  1  0.558226  0.928890  0.778801  1
  O  O29  1  0.355086  0.601246  0.878504  1
  O  O30  1  0.220908  0.915915  0.679967  1
  O  O31  1  0.757670  0.727826  0.306768  1
  O  O32  1  0.500000  0.000000  0.500000  1
