# generated using pymatgen
data_La4FeO8
_symmetry_space_group_name_H-M   'P 1'
_cell_length_a   7.01055274
_cell_length_b   7.01055274
_cell_length_c   5.35578316
_cell_angle_alpha   90.00000000
_cell_angle_beta   90.00000000
_cell_angle_gamma   135.23663119
_symmetry_Int_Tables_number   1
_chemical_formula_structural   La4FeO8
_chemical_formula_sum   'La4 Fe1 O8'
_cell_volume   185.35804794
_cell_formula_units_Z   1
loop_
 _symmetry_equiv_pos_site_id
 _symmetry_equiv_pos_as_xyz
  1  'x, y, z'
loop_
 _atom_site_type_symbol
 _atom_site_label
 _atom_site_symmetry_multiplicity
 _atom_site_fract_x
 _atom_site_fract_y
 _atom_site_fract_z
 _atom_site_occupancy
  La  La0  1  0.636236  0.363764  0.500000  1
  La  La1  1  0.137689  0.862311  0.000000  1
  La  La2  1  0.862311  0.137689  1.000000  1
  La  La3  1  0.363764  0.636236  0.500000  1
  Fe  Fe4  1  0.000000  0.000000  0.500000  1
  O  O5  1  0.244837  0.244837  0.260341  1
  O  O6  1  0.244837  0.244837  0.739659  1
  O  O7  1  0.755163  0.755163  0.260341  1
  O  O8  1  0.755163  0.755163  0.739659  1
  O  O9  1  0.686944  0.313056  0.000000  1
  O  O10  1  0.174789  0.825211  0.500000  1
  O  O11  1  0.825211  0.174789  0.500000  1
  O  O12  1  0.313056  0.686944  0.000000  1
