# generated using pymatgen
data_Li2VF6
_symmetry_space_group_name_H-M   'P 1'
_cell_length_a   5.05648606
_cell_length_b   8.68750754
_cell_length_c   9.78624289
_cell_angle_alpha   90.00000000
_cell_angle_beta   90.00000000
_cell_angle_gamma   90.00000000
_symmetry_Int_Tables_number   1
_chemical_formula_structural   Li2VF6
_chemical_formula_sum   'Li8 V4 F24'
_cell_volume   429.89262965
_cell_formula_units_Z   4
loop_
 _symmetry_equiv_pos_site_id
 _symmetry_equiv_pos_as_xyz
  1  'x, y, z'
loop_
 _atom_site_type_symbol
 _atom_site_label
 _atom_site_symmetry_multiplicity
 _atom_site_fract_x
 _atom_site_fract_y
 _atom_site_fract_z
 _atom_site_occupancy
  Li  Li0  1  0.505897  0.547189  0.104814  1
  Li  Li1  1  0.984839  0.134240  0.113133  1
  Li  Li2  1  0.484839  0.634240  0.386867  1
  Li  Li3  1  0.005897  0.047189  0.395186  1
  Li  Li4  1  0.505897  0.952811  0.604814  1
  Li  Li5  1  0.984839  0.365760  0.613133  1
  Li  Li6  1  0.484839  0.865760  0.886867  1
  Li  Li7  1  0.005897  0.452811  0.895186  1
  V  V8  1  0.001278  0.762464  0.131156  1
  V  V9  1  0.501278  0.262464  0.368844  1
  V  V10  1  0.001278  0.737536  0.631156  1
  V  V11  1  0.501278  0.237536  0.868844  1
  F  F12  1  0.161900  0.898950  0.012214  1
  F  F13  1  0.690501  0.745433  0.016667  1
  F  F14  1  0.156155  0.594714  0.027754  1
  F  F15  1  0.882158  0.939137  0.226829  1
  F  F16  1  0.299587  0.752864  0.244409  1
  F  F17  1  0.312523  0.127663  0.259607  1
  F  F18  1  0.812523  0.627663  0.240393  1
  F  F19  1  0.799587  0.252864  0.255591  1
  F  F20  1  0.382158  0.439137  0.273171  1
  F  F21  1  0.656155  0.094714  0.472246  1
  F  F22  1  0.190501  0.245433  0.483333  1
  F  F23  1  0.661900  0.398950  0.487786  1
  F  F24  1  0.161900  0.601050  0.512214  1
  F  F25  1  0.690501  0.754567  0.516667  1
  F  F26  1  0.156155  0.905286  0.527754  1
  F  F27  1  0.882158  0.560863  0.726829  1
  F  F28  1  0.299587  0.747136  0.744409  1
  F  F29  1  0.312523  0.372337  0.759607  1
  F  F30  1  0.812523  0.872337  0.740393  1
  F  F31  1  0.799587  0.247136  0.755591  1
  F  F32  1  0.382158  0.060863  0.773171  1
  F  F33  1  0.656155  0.405286  0.972246  1
  F  F34  1  0.190501  0.254567  0.983333  1
  F  F35  1  0.661900  0.101050  0.987786  1
