# generated using pymatgen
data_Li5Co2Cu2(PO4)4
_symmetry_space_group_name_H-M   'P 1'
_cell_length_a   4.85815365
_cell_length_b   6.21431469
_cell_length_c   10.23574956
_cell_angle_alpha   87.84349362
_cell_angle_beta   86.97638613
_cell_angle_gamma   89.11036472
_symmetry_Int_Tables_number   1
_chemical_formula_structural   Li5Co2Cu2(PO4)4
_chemical_formula_sum   'Li5 Co2 Cu2 P4 O16'
_cell_volume   308.34112146
_cell_formula_units_Z   1
loop_
 _symmetry_equiv_pos_site_id
 _symmetry_equiv_pos_as_xyz
  1  'x, y, z'
loop_
 _atom_site_type_symbol
 _atom_site_label
 _atom_site_symmetry_multiplicity
 _atom_site_fract_x
 _atom_site_fract_y
 _atom_site_fract_z
 _atom_site_occupancy
  Li  Li0  1  0.044883  0.485981  0.018793  1
  Li  Li1  1  0.106813  0.978517  0.131996  1
  Li  Li2  1  0.534871  0.999598  0.462330  1
  Li  Li3  1  0.459402  0.509178  0.524402  1
  Li  Li4  1  0.894648  0.023470  0.869549  1
  Co  Co5  1  0.544830  0.731622  0.214368  1
  Co  Co6  1  0.455591  0.261587  0.784281  1
  Cu  Cu7  1  0.085257  0.270958  0.302038  1
  Cu  Cu8  1  0.915850  0.731012  0.703797  1
  P  P9  1  0.603256  0.245977  0.095888  1
  P  P10  1  0.086309  0.753959  0.401801  1
  P  P11  1  0.911091  0.252192  0.600705  1
  P  P12  1  0.399999  0.754060  0.903953  1
  O  O13  1  0.300147  0.744883  0.053203  1
  O  O14  1  0.283483  0.255084  0.112249  1
  O  O15  1  0.720651  0.034040  0.160553  1
  O  O16  1  0.733152  0.444019  0.158005  1
  O  O17  1  0.243412  0.556587  0.339526  1
  O  O18  1  0.224579  0.947933  0.320243  1
  O  O19  1  0.771502  0.748953  0.393715  1
  O  O20  1  0.819559  0.230068  0.458685  1
  O  O21  1  0.180897  0.762653  0.544089  1
  O  O22  1  0.224995  0.270926  0.607394  1
  O  O23  1  0.787252  0.060756  0.687477  1
  O  O24  1  0.745798  0.451210  0.657869  1
  O  O25  1  0.271321  0.553042  0.844847  1
  O  O26  1  0.276150  0.965652  0.842304  1
  O  O27  1  0.717489  0.749980  0.888067  1
  O  O28  1  0.700987  0.252631  0.948265  1
