# generated using pymatgen
data_RbTaO3
_symmetry_space_group_name_H-M   'P 1'
_cell_length_a   5.17377975
_cell_length_b   8.57985203
_cell_length_c   9.11195733
_cell_angle_alpha   114.19379086
_cell_angle_beta   93.74136809
_cell_angle_gamma   94.58255134
_symmetry_Int_Tables_number   1
_chemical_formula_structural   RbTaO3
_chemical_formula_sum   'Rb4 Ta4 O12'
_cell_volume   365.63261935
_cell_formula_units_Z   4
loop_
 _symmetry_equiv_pos_site_id
 _symmetry_equiv_pos_as_xyz
  1  'x, y, z'
loop_
 _atom_site_type_symbol
 _atom_site_label
 _atom_site_symmetry_multiplicity
 _atom_site_fract_x
 _atom_site_fract_y
 _atom_site_fract_z
 _atom_site_occupancy
  Rb  Rb0  1  0.500000  0.500000  0.000000  1
  Rb  Rb1  1  0.914349  0.203883  0.597898  1
  Rb  Rb2  1  0.500000  0.500000  0.500000  1
  Rb  Rb3  1  0.085651  0.796117  0.402102  1
  Ta  Ta4  1  0.528402  0.010544  0.815930  1
  Ta  Ta5  1  0.000876  0.788284  0.856577  1
  Ta  Ta6  1  0.999124  0.211716  0.143423  1
  Ta  Ta7  1  0.471598  0.989456  0.184070  1
  O  O8  1  0.262566  0.073257  0.990632  1
  O  O9  1  0.780499  0.214197  0.958203  1
  O  O10  1  0.406431  0.106363  0.684723  1
  O  O11  1  0.854858  0.565265  0.771951  1
  O  O12  1  0.287931  0.783622  0.729457  1
  O  O13  1  0.800659  0.877781  0.708390  1
  O  O14  1  0.199341  0.122219  0.291610  1
  O  O15  1  0.712069  0.216378  0.270543  1
  O  O16  1  0.145142  0.434735  0.228049  1
  O  O17  1  0.593569  0.893637  0.315277  1
  O  O18  1  0.219501  0.785803  0.041797  1
  O  O19  1  0.737434  0.926743  0.009368  1
