# generated using pymatgen
data_Co15O28
_symmetry_space_group_name_H-M   'P 1'
_cell_length_a   7.62718896
_cell_length_b   8.14510081
_cell_length_c   8.62208700
_cell_angle_alpha   104.90696613
_cell_angle_beta   105.96886397
_cell_angle_gamma   103.24558488
_symmetry_Int_Tables_number   1
_chemical_formula_structural   Co15O28
_chemical_formula_sum   'Co15 O28'
_cell_volume   470.99936305
_cell_formula_units_Z   1
loop_
 _symmetry_equiv_pos_site_id
 _symmetry_equiv_pos_as_xyz
  1  'x, y, z'
loop_
 _atom_site_type_symbol
 _atom_site_label
 _atom_site_symmetry_multiplicity
 _atom_site_fract_x
 _atom_site_fract_y
 _atom_site_fract_z
 _atom_site_occupancy
  Co  Co0  1  0.141344  0.927019  0.571766  1
  Co  Co1  1  0.428821  0.789030  0.715201  1
  Co  Co2  1  0.080687  0.219573  0.784797  1
  Co  Co3  1  0.706401  0.638597  0.859393  1
  Co  Co4  1  0.213759  0.642412  0.356248  1
  Co  Co5  1  0.636262  0.925505  0.072790  1
  Co  Co6  1  0.000000  0.500000  0.000000  1
  Co  Co7  1  0.363738  0.074495  0.927210  1
  Co  Co8  1  0.500000  0.500000  0.500000  1
  Co  Co9  1  0.919313  0.780427  0.215203  1
  Co  Co10  1  0.786241  0.357588  0.643752  1
  Co  Co11  1  0.293599  0.361403  0.140607  1
  Co  Co12  1  0.571179  0.210970  0.284799  1
  Co  Co13  1  0.000000  0.000000  0.000000  1
  Co  Co14  1  0.858656  0.072981  0.428234  1
  O  O15  1  0.095009  0.991518  0.788763  1
  O  O16  1  0.381645  0.845067  0.919040  1
  O  O17  1  0.169827  0.702463  0.566187  1
  O  O18  1  0.028180  0.263392  0.993371  1
  O  O19  1  0.182500  0.867833  0.363390  1
  O  O20  1  0.047714  0.442483  0.793690  1
  O  O21  1  0.699883  0.872925  0.869526  1
  O  O22  1  0.598271  0.988946  0.284335  1
  O  O23  1  0.452860  0.559949  0.708663  1
  O  O24  1  0.336897  0.303412  0.933550  1
  O  O25  1  0.471547  0.725302  0.503042  1
  O  O26  1  0.880152  0.844849  0.423938  1
  O  O27  1  0.741912  0.417147  0.854353  1
  O  O28  1  0.241844  0.415964  0.348402  1
  O  O29  1  0.758156  0.584036  0.651598  1
  O  O30  1  0.258088  0.582853  0.145647  1
  O  O31  1  0.119848  0.155151  0.576062  1
  O  O32  1  0.663103  0.696588  0.066450  1
  O  O33  1  0.401729  0.011054  0.715665  1
  O  O34  1  0.528453  0.274698  0.496958  1
  O  O35  1  0.547140  0.440051  0.291337  1
  O  O36  1  0.817500  0.132167  0.636610  1
  O  O37  1  0.300117  0.127075  0.130474  1
  O  O38  1  0.830173  0.297537  0.433813  1
  O  O39  1  0.971820  0.736608  0.006629  1
  O  O40  1  0.952286  0.557517  0.206310  1
  O  O41  1  0.618355  0.154933  0.080960  1
  O  O42  1  0.904991  0.008482  0.211237  1
