# generated using pymatgen
data_FeHO2
_symmetry_space_group_name_H-M   'P 1'
_cell_length_a   6.13695482
_cell_length_b   6.13695482
_cell_length_c   3.95847411
_cell_angle_alpha   90.00000000
_cell_angle_beta   90.00000000
_cell_angle_gamma   150.78323972
_symmetry_Int_Tables_number   1
_chemical_formula_structural   FeHO2
_chemical_formula_sum   'Fe2 H2 O4'
_cell_volume   72.77057453
_cell_formula_units_Z   2
loop_
 _symmetry_equiv_pos_site_id
 _symmetry_equiv_pos_as_xyz
  1  'x, y, z'
loop_
 _atom_site_type_symbol
 _atom_site_label
 _atom_site_symmetry_multiplicity
 _atom_site_fract_x
 _atom_site_fract_y
 _atom_site_fract_z
 _atom_site_occupancy
  Fe  Fe0  1  0.673586  0.326414  0.750000  1
  Fe  Fe1  1  0.326414  0.673586  0.250000  1
  H  H2  1  0.000000  0.000000  0.500000  1
  H  H3  1  0.000000  0.000000  0.000000  1
  O  O4  1  0.293117  0.706883  0.750000  1
  O  O5  1  0.706883  0.293117  0.250000  1
  O  O6  1  0.060417  0.939583  0.750000  1
  O  O7  1  0.939583  0.060417  0.250000  1
