# generated using pymatgen
data_Mn2Ni3Sb(PO4)6
_symmetry_space_group_name_H-M   'P 1'
_cell_length_a   8.64101809
_cell_length_b   8.64101809
_cell_length_c   8.64101809
_cell_angle_alpha   60.47072837
_cell_angle_beta   60.47072837
_cell_angle_gamma   60.47072837
_symmetry_Int_Tables_number   1
_chemical_formula_structural   Mn2Ni3Sb(PO4)6
_chemical_formula_sum   'Mn2 Ni3 Sb1 P6 O24'
_cell_volume   461.08014261
_cell_formula_units_Z   1
loop_
 _symmetry_equiv_pos_site_id
 _symmetry_equiv_pos_as_xyz
  1  'x, y, z'
loop_
 _atom_site_type_symbol
 _atom_site_label
 _atom_site_symmetry_multiplicity
 _atom_site_fract_x
 _atom_site_fract_y
 _atom_site_fract_z
 _atom_site_occupancy
  Mn  Mn0  1  0.993781  0.993781  0.993781  1
  Mn  Mn1  1  0.500626  0.500626  0.500626  1
  Ni  Ni2  1  0.855572  0.855572  0.855572  1
  Ni  Ni3  1  0.643305  0.643305  0.643305  1
  Ni  Ni4  1  0.357831  0.357831  0.357831  1
  Sb  Sb5  1  0.143079  0.143079  0.143079  1
  P  P6  1  0.954353  0.253994  0.544636  1
  P  P7  1  0.544636  0.954353  0.253994  1
  P  P8  1  0.253994  0.544636  0.954353  1
  P  P9  1  0.746431  0.459540  0.047147  1
  P  P10  1  0.459540  0.047147  0.746431  1
  P  P11  1  0.047147  0.746431  0.459540  1
  O  O12  1  0.892991  0.689855  0.487040  1
  O  O13  1  0.689855  0.487040  0.892991  1
  O  O14  1  0.939214  0.092418  0.736194  1
  O  O15  1  0.487040  0.892991  0.689855  1
  O  O16  1  0.990822  0.186786  0.385916  1
  O  O17  1  0.758513  0.410204  0.554805  1
  O  O18  1  0.736194  0.939214  0.092418  1
  O  O19  1  0.554805  0.758513  0.410204  1
  O  O20  1  0.815181  0.608255  0.011962  1
  O  O21  1  0.410204  0.554805  0.758513  1
  O  O22  1  0.912771  0.255928  0.064699  1
  O  O23  1  0.608255  0.011962  0.815181  1
  O  O24  1  0.385916  0.990822  0.186786  1
  O  O25  1  0.092418  0.736194  0.939214  1
  O  O26  1  0.590364  0.440560  0.244824  1
  O  O27  1  0.186786  0.385916  0.990822  1
  O  O28  1  0.440560  0.244824  0.590364  1
  O  O29  1  0.255928  0.064699  0.912771  1
  O  O30  1  0.244824  0.590364  0.440560  1
  O  O31  1  0.011962  0.815181  0.608255  1
  O  O32  1  0.501981  0.107917  0.320502  1
  O  O33  1  0.064699  0.912771  0.255928  1
  O  O34  1  0.320502  0.501981  0.107917  1
  O  O35  1  0.107917  0.320502  0.501981  1
