# generated using pymatgen
data_Li8Mn3Fe5(BO3)8
_symmetry_space_group_name_H-M   'P 1'
_cell_length_a   5.22858558
_cell_length_b   6.02856350
_cell_length_c   16.20040504
_cell_angle_alpha   81.61439335
_cell_angle_beta   89.17997261
_cell_angle_gamma   88.92713585
_symmetry_Int_Tables_number   1
_chemical_formula_structural   Li8Mn3Fe5(BO3)8
_chemical_formula_sum   'Li8 Mn3 Fe5 B8 O24'
_cell_volume   505.06814999
_cell_formula_units_Z   1
loop_
 _symmetry_equiv_pos_site_id
 _symmetry_equiv_pos_as_xyz
  1  'x, y, z'
loop_
 _atom_site_type_symbol
 _atom_site_label
 _atom_site_symmetry_multiplicity
 _atom_site_fract_x
 _atom_site_fract_y
 _atom_site_fract_z
 _atom_site_occupancy
  Li  Li0  1  0.847977  0.063078  0.390611  1
  Li  Li1  1  0.152190  0.433925  0.109740  1
  Li  Li2  1  0.652554  0.187836  0.856958  1
  Li  Li3  1  0.347865  0.314655  0.640872  1
  Li  Li4  1  0.652196  0.686122  0.360186  1
  Li  Li5  1  0.347621  0.813415  0.141561  1
  Li  Li6  1  0.846561  0.567014  0.888877  1
  Li  Li7  1  0.150368  0.934487  0.610281  1
  Mn  Mn8  1  0.670042  0.274288  0.041097  1
  Mn  Mn9  1  0.168881  0.519513  0.291328  1
  Mn  Mn10  1  0.329659  0.724778  0.959497  1
  Fe  Fe11  1  0.166277  0.028945  0.791722  1
  Fe  Fe12  1  0.331179  0.222270  0.462357  1
  Fe  Fe13  1  0.834294  0.475737  0.706868  1
  Fe  Fe14  1  0.664014  0.775398  0.539387  1
  Fe  Fe15  1  0.838398  0.972515  0.209246  1
  B  B16  1  0.331107  0.036255  0.298021  1
  B  B17  1  0.829722  0.287997  0.546392  1
  B  B18  1  0.671194  0.462272  0.203291  1
  B  B19  1  0.167660  0.215500  0.950934  1
  B  B20  1  0.830341  0.785207  0.049050  1
  B  B21  1  0.329127  0.539536  0.795902  1
  B  B22  1  0.171835  0.712091  0.454271  1
  B  B23  1  0.668889  0.962470  0.701944  1
  O  O24  1  0.591770  0.012101  0.308840  1
  O  O25  1  0.185519  0.165761  0.347199  1
  O  O26  1  0.709118  0.175633  0.489060  1
  O  O27  1  0.287336  0.329198  0.008096  1
  O  O28  1  0.794280  0.077544  0.757833  1
  O  O29  1  0.821337  0.327635  0.157172  1
  O  O30  1  0.316500  0.082578  0.903105  1
  O  O31  1  0.092532  0.264051  0.557819  1
  O  O32  1  0.410399  0.485202  0.189307  1
  O  O33  1  0.906993  0.236770  0.938442  1
  O  O34  1  0.685831  0.419338  0.595404  1
  O  O35  1  0.204158  0.423079  0.740221  1
  O  O36  1  0.787306  0.580299  0.259903  1
  O  O37  1  0.317083  0.579712  0.406580  1
  O  O38  1  0.091276  0.764246  0.061723  1
  O  O39  1  0.589602  0.514120  0.807806  1
  O  O40  1  0.910440  0.736984  0.443193  1
  O  O41  1  0.680949  0.917783  0.096635  1
  O  O42  1  0.181608  0.672962  0.843513  1
  O  O43  1  0.206694  0.925163  0.240517  1
  O  O44  1  0.712503  0.670269  0.991800  1
  O  O45  1  0.294260  0.826879  0.511312  1
  O  O46  1  0.814837  0.829339  0.653713  1
  O  O47  1  0.407722  0.988050  0.690409  1
