# generated using pymatgen
data_Sr3Ta4(O6F)2
_symmetry_space_group_name_H-M   'P 1'
_cell_length_a   7.48843468
_cell_length_b   7.48843468
_cell_length_c   7.48843468
_cell_angle_alpha   61.16398807
_cell_angle_beta   61.16398807
_cell_angle_gamma   61.16398807
_symmetry_Int_Tables_number   1
_chemical_formula_structural   Sr3Ta4(O6F)2
_chemical_formula_sum   'Sr3 Ta4 O12 F2'
_cell_volume   304.70927765
_cell_formula_units_Z   1
loop_
 _symmetry_equiv_pos_site_id
 _symmetry_equiv_pos_as_xyz
  1  'x, y, z'
loop_
 _atom_site_type_symbol
 _atom_site_label
 _atom_site_symmetry_multiplicity
 _atom_site_fract_x
 _atom_site_fract_y
 _atom_site_fract_z
 _atom_site_occupancy
  Sr  Sr0  1  0.000000  0.500000  0.500000  1
  Sr  Sr1  1  0.500000  0.500000  0.000000  1
  Sr  Sr2  1  0.500000  0.000000  0.500000  1
  Ta  Ta3  1  0.000000  0.500000  0.000000  1
  Ta  Ta4  1  0.000000  0.000000  0.000000  1
  Ta  Ta5  1  0.000000  0.000000  0.500000  1
  Ta  Ta6  1  0.500000  0.000000  0.000000  1
  O  O7  1  0.932873  0.314186  0.932873  1
  O  O8  1  0.067127  0.685814  0.067127  1
  O  O9  1  0.948205  0.309222  0.309222  1
  O  O10  1  0.309222  0.309222  0.948205  1
  O  O11  1  0.932873  0.932873  0.314186  1
  O  O12  1  0.314186  0.932873  0.932873  1
  O  O13  1  0.309222  0.948205  0.309222  1
  O  O14  1  0.690778  0.690778  0.051795  1
  O  O15  1  0.685814  0.067127  0.067127  1
  O  O16  1  0.051795  0.690778  0.690778  1
  O  O17  1  0.067127  0.067127  0.685814  1
  O  O18  1  0.690778  0.051795  0.690778  1
  F  F19  1  0.375015  0.375015  0.375015  1
  F  F20  1  0.624985  0.624985  0.624985  1
