# generated using pymatgen
data_LiV4OF11
_symmetry_space_group_name_H-M   'P 1'
_cell_length_a   5.40940087
_cell_length_b   5.64701046
_cell_length_c   16.67548657
_cell_angle_alpha   82.92338505
_cell_angle_beta   81.16071369
_cell_angle_gamma   61.63212772
_symmetry_Int_Tables_number   1
_chemical_formula_structural   LiV4OF11
_chemical_formula_sum   'Li2 V8 O2 F22'
_cell_volume   442.15394374
_cell_formula_units_Z   2
loop_
 _symmetry_equiv_pos_site_id
 _symmetry_equiv_pos_as_xyz
  1  'x, y, z'
loop_
 _atom_site_type_symbol
 _atom_site_label
 _atom_site_symmetry_multiplicity
 _atom_site_fract_x
 _atom_site_fract_y
 _atom_site_fract_z
 _atom_site_occupancy
  Li  Li0  1  0.037128  0.100905  0.818049  1
  Li  Li1  1  0.858426  0.703066  0.575220  1
  V  V2  1  0.505937  0.495731  0.498630  1
  V  V3  1  0.615632  0.629203  0.124321  1
  V  V4  1  0.737693  0.757447  0.747623  1
  V  V5  1  0.246641  0.251796  0.249171  1
  V  V6  1  0.878826  0.876972  0.373437  1
  V  V7  1  0.160841  0.104423  0.626024  1
  V  V8  1  0.399945  0.360361  0.881582  1
  V  V9  1  0.983580  0.008723  0.999821  1
  O  O10  1  0.519398  0.908551  0.660881  1
  O  O11  1  0.740978  0.170152  0.911955  1
  F  F12  1  0.233229  0.839854  0.086890  1
  F  F13  1  0.187419  0.800489  0.563886  1
  F  F14  1  0.702144  0.315868  0.064934  1
  F  F15  1  0.530309  0.940031  0.187904  1
  F  F16  1  0.564951  0.511866  0.784827  1
  F  F17  1  0.034276  0.040719  0.284175  1
  F  F18  1  0.753346  0.345852  0.588672  1
  F  F19  1  0.783803  0.786516  0.037186  1
  F  F20  1  0.722287  0.723648  0.471426  1
  F  F21  1  0.003902  0.418146  0.162597  1
  F  F22  1  0.960909  0.560552  0.315160  1
  F  F23  1  0.046924  0.455559  0.678191  1
  F  F24  1  0.001694  0.571233  0.834525  1
  F  F25  1  0.283942  0.287768  0.531732  1
  F  F26  1  0.487808  0.084621  0.339505  1
  F  F27  1  0.192639  0.225937  0.964989  1
  F  F28  1  0.965449  0.978188  0.723269  1
  F  F29  1  0.265812  0.670439  0.408682  1
  F  F30  1  0.454179  0.465136  0.213669  1
  F  F31  1  0.425947  0.061376  0.815541  1
  F  F32  1  0.275294  0.708764  0.930590  1
  F  F33  1  0.801407  0.182308  0.436874  1
