# generated using pymatgen
data_Li3BiH8O7
_symmetry_space_group_name_H-M   'P 1'
_cell_length_a   6.46780680
_cell_length_b   7.06820617
_cell_length_c   8.05449047
_cell_angle_alpha   92.58688290
_cell_angle_beta   91.35367116
_cell_angle_gamma   115.79623828
_symmetry_Int_Tables_number   1
_chemical_formula_structural   Li3BiH8O7
_chemical_formula_sum   'Li6 Bi2 H16 O14'
_cell_volume   330.80233935
_cell_formula_units_Z   2
loop_
 _symmetry_equiv_pos_site_id
 _symmetry_equiv_pos_as_xyz
  1  'x, y, z'
loop_
 _atom_site_type_symbol
 _atom_site_label
 _atom_site_symmetry_multiplicity
 _atom_site_fract_x
 _atom_site_fract_y
 _atom_site_fract_z
 _atom_site_occupancy
  Li  Li0  1  0.025443  0.342021  0.385503  1
  Li  Li1  1  0.323079  0.837517  0.370106  1
  Li  Li2  1  0.211973  0.110100  0.600131  1
  Li  Li3  1  0.788027  0.889900  0.399869  1
  Li  Li4  1  0.676921  0.162483  0.629894  1
  Li  Li5  1  0.974557  0.657979  0.614497  1
  Bi  Bi6  1  0.464325  0.620783  0.679403  1
  Bi  Bi7  1  0.535675  0.379217  0.320597  1
  H  H8  1  0.984921  0.318186  0.032304  1
  H  H9  1  0.015809  0.335058  0.740725  1
  H  H10  1  0.320770  0.934109  0.756487  1
  H  H11  1  0.379193  0.834175  0.065756  1
  H  H12  1  0.178038  0.547312  0.100672  1
  H  H13  1  0.125817  0.032673  0.256250  1
  H  H14  1  0.213763  0.027360  0.969807  1
  H  H15  1  0.236563  0.258242  0.963270  1
  H  H16  1  0.763437  0.741758  0.036730  1
  H  H17  1  0.786237  0.972640  0.030193  1
  H  H18  1  0.874183  0.967327  0.743750  1
  H  H19  1  0.821962  0.452688  0.899328  1
  H  H20  1  0.620807  0.165825  0.934244  1
  H  H21  1  0.679230  0.065891  0.243513  1
  H  H22  1  0.984191  0.664942  0.259275  1
  H  H23  1  0.015079  0.681814  0.967696  1
  O  O24  1  0.226969  0.815990  0.098826  1
  O  O25  1  0.070213  0.390503  0.632202  1
  O  O26  1  0.321576  0.881464  0.642706  1
  O  O27  1  0.137286  0.393321  0.099671  1
  O  O28  1  0.163100  0.114057  0.363064  1
  O  O29  1  0.448051  0.638436  0.416298  1
  O  O30  1  0.249840  0.143844  0.893617  1
  O  O31  1  0.750160  0.856156  0.106383  1
  O  O32  1  0.551949  0.361564  0.583702  1
  O  O33  1  0.836900  0.885943  0.636936  1
  O  O34  1  0.862714  0.606679  0.900329  1
  O  O35  1  0.678424  0.118536  0.357294  1
  O  O36  1  0.929787  0.609497  0.367798  1
  O  O37  1  0.773031  0.184010  0.901174  1
