# generated using pymatgen
data_Li2NiSnO4
_symmetry_space_group_name_H-M   'P 1'
_cell_length_a   5.22336838
_cell_length_b   3.09806008
_cell_length_c   5.25601182
_cell_angle_alpha   90.00000000
_cell_angle_beta   109.00050563
_cell_angle_gamma   90.00000000
_symmetry_Int_Tables_number   1
_chemical_formula_structural   Li2NiSnO4
_chemical_formula_sum   'Li2 Ni1 Sn1 O4'
_cell_volume   80.42027818
_cell_formula_units_Z   1
loop_
 _symmetry_equiv_pos_site_id
 _symmetry_equiv_pos_as_xyz
  1  'x, y, z'
loop_
 _atom_site_type_symbol
 _atom_site_label
 _atom_site_symmetry_multiplicity
 _atom_site_fract_x
 _atom_site_fract_y
 _atom_site_fract_z
 _atom_site_occupancy
  Li  Li0  1  0.500000  0.000000  0.500000  1
  Li  Li1  1  0.500000  0.500000  0.000000  1
  Ni  Ni2  1  0.000000  0.500000  0.500000  1
  Sn  Sn3  1  0.000000  0.000000  0.000000  1
  O  O4  1  0.229658  0.000000  0.748029  1
  O  O5  1  0.238282  0.500000  0.241474  1
  O  O6  1  0.770342  0.000000  0.251971  1
  O  O7  1  0.761718  0.500000  0.758526  1
