# generated using pymatgen
data_RbB3Te2O9
_symmetry_space_group_name_H-M   'P 1'
_cell_length_a   6.24648694
_cell_length_b   5.69515579
_cell_length_c   13.56357780
_cell_angle_alpha   90.00000000
_cell_angle_beta   104.30289974
_cell_angle_gamma   90.00000000
_symmetry_Int_Tables_number   1
_chemical_formula_structural   RbB3Te2O9
_chemical_formula_sum   'Rb2 B6 Te4 O18'
_cell_volume   467.56385674
_cell_formula_units_Z   2
loop_
 _symmetry_equiv_pos_site_id
 _symmetry_equiv_pos_as_xyz
  1  'x, y, z'
loop_
 _atom_site_type_symbol
 _atom_site_label
 _atom_site_symmetry_multiplicity
 _atom_site_fract_x
 _atom_site_fract_y
 _atom_site_fract_z
 _atom_site_occupancy
  Rb  Rb0  1  0.000000  0.675853  0.750000  1
  Rb  Rb1  1  0.000000  0.324147  0.250000  1
  B  B2  1  0.199149  0.156868  0.942269  1
  B  B3  1  0.199149  0.843132  0.442269  1
  B  B4  1  0.500000  0.160691  0.750000  1
  B  B5  1  0.500000  0.839309  0.250000  1
  B  B6  1  0.800851  0.156868  0.557731  1
  B  B7  1  0.800851  0.843132  0.057731  1
  Te  Te8  1  0.297314  0.294762  0.564631  1
  Te  Te9  1  0.297314  0.705238  0.064631  1
  Te  Te10  1  0.702686  0.294762  0.935369  1
  Te  Te11  1  0.702686  0.705238  0.435369  1
  O  O12  1  0.020631  0.300196  0.904689  1
  O  O13  1  0.020631  0.699804  0.404689  1
  O  O14  1  0.163956  0.913683  0.949830  1
  O  O15  1  0.163956  0.086317  0.449830  1
  O  O16  1  0.404353  0.741995  0.470210  1
  O  O17  1  0.404353  0.258005  0.970210  1
  O  O18  1  0.380218  0.036156  0.664754  1
  O  O19  1  0.380218  0.963844  0.164754  1
  O  O20  1  0.500000  0.398457  0.750000  1
  O  O21  1  0.500000  0.601543  0.250000  1
  O  O22  1  0.619782  0.036156  0.835246  1
  O  O23  1  0.619782  0.963844  0.335246  1
  O  O24  1  0.595647  0.741995  0.029790  1
  O  O25  1  0.595647  0.258005  0.529790  1
  O  O26  1  0.836044  0.913683  0.550170  1
  O  O27  1  0.836044  0.086317  0.050170  1
  O  O28  1  0.979369  0.300196  0.595311  1
  O  O29  1  0.979369  0.699804  0.095311  1
