# generated using pymatgen
data_Li5Ni5O9F
_symmetry_space_group_name_H-M   'P 1'
_cell_length_a   4.98331219
_cell_length_b   5.78871729
_cell_length_c   6.56466413
_cell_angle_alpha   102.98215055
_cell_angle_beta   98.29176416
_cell_angle_gamma   106.48701810
_symmetry_Int_Tables_number   1
_chemical_formula_structural   Li5Ni5O9F
_chemical_formula_sum   'Li5 Ni5 O9 F1'
_cell_volume   172.50480782
_cell_formula_units_Z   1
loop_
 _symmetry_equiv_pos_site_id
 _symmetry_equiv_pos_as_xyz
  1  'x, y, z'
loop_
 _atom_site_type_symbol
 _atom_site_label
 _atom_site_symmetry_multiplicity
 _atom_site_fract_x
 _atom_site_fract_y
 _atom_site_fract_z
 _atom_site_occupancy
  Li  Li0  1  0.794546  0.101305  0.598277  1
  Li  Li1  1  0.616788  0.702401  0.204890  1
  Li  Li2  1  0.398187  0.302220  0.800818  1
  Li  Li3  1  0.195326  0.902389  0.403006  1
  Li  Li4  1  0.993696  0.490470  0.998632  1
  Ni  Ni5  1  0.802241  0.602283  0.599375  1
  Ni  Ni6  1  0.606071  0.208606  0.199516  1
  Ni  Ni7  1  0.401977  0.802728  0.792157  1
  Ni  Ni8  1  0.203614  0.401368  0.396350  1
  Ni  Ni9  1  0.990459  0.002498  0.000533  1
  O  O10  1  0.911357  0.057097  0.282727  1
  O  O11  1  0.924377  0.543058  0.312223  1
  O  O12  1  0.672410  0.128508  0.896262  1
  O  O13  1  0.700995  0.677623  0.897847  1
  O  O14  1  0.492766  0.272118  0.491728  1
  O  O15  1  0.517984  0.734394  0.502928  1
  O  O16  1  0.276022  0.321099  0.098481  1
  O  O17  1  0.101823  0.477674  0.691770  1
  O  O18  1  0.099472  0.936887  0.724409  1
  F  F19  1  0.299889  0.835277  0.108073  1
