# generated using pymatgen
data_Li2FeBO4
_symmetry_space_group_name_H-M   'P 1'
_cell_length_a   4.90988048
_cell_length_b   9.65538939
_cell_length_c   13.15132632
_cell_angle_alpha   90.00000000
_cell_angle_beta   90.00000000
_cell_angle_gamma   90.00000000
_symmetry_Int_Tables_number   1
_chemical_formula_structural   Li2FeBO4
_chemical_formula_sum   'Li16 Fe8 B8 O32'
_cell_volume   623.46240039
_cell_formula_units_Z   8
loop_
 _symmetry_equiv_pos_site_id
 _symmetry_equiv_pos_as_xyz
  1  'x, y, z'
loop_
 _atom_site_type_symbol
 _atom_site_label
 _atom_site_symmetry_multiplicity
 _atom_site_fract_x
 _atom_site_fract_y
 _atom_site_fract_z
 _atom_site_occupancy
  Li  Li0  1  0.986145  0.996778  0.554024  1
  Li  Li1  1  0.468675  0.021335  0.942724  1
  Li  Li2  1  0.566131  0.784268  0.307066  1
  Li  Li3  1  0.092726  0.788535  0.201434  1
  Li  Li4  1  0.092726  0.711465  0.701434  1
  Li  Li5  1  0.566131  0.715732  0.807066  1
  Li  Li6  1  0.468675  0.478665  0.442724  1
  Li  Li7  1  0.986145  0.503222  0.054024  1
  Li  Li8  1  0.531325  0.521335  0.942724  1
  Li  Li9  1  0.013855  0.496778  0.554024  1
  Li  Li10  1  0.433869  0.284268  0.307066  1
  Li  Li11  1  0.907274  0.288534  0.201434  1
  Li  Li12  1  0.907274  0.211465  0.701434  1
  Li  Li13  1  0.433869  0.215732  0.807066  1
  Li  Li14  1  0.531325  0.978665  0.442724  1
  Li  Li15  1  0.013855  0.003222  0.054024  1
  Fe  Fe16  1  0.982459  0.972375  0.812931  1
  Fe  Fe17  1  0.511193  0.780856  0.063318  1
  Fe  Fe18  1  0.511193  0.719144  0.563318  1
  Fe  Fe19  1  0.982459  0.527625  0.312931  1
  Fe  Fe20  1  0.017541  0.472375  0.812931  1
  Fe  Fe21  1  0.488807  0.280856  0.063318  1
  Fe  Fe22  1  0.488807  0.219144  0.563318  1
  Fe  Fe23  1  0.017541  0.027625  0.312931  1
  B  B24  1  0.481067  0.972107  0.692122  1
  B  B25  1  0.018745  0.779778  0.432157  1
  B  B26  1  0.018745  0.720222  0.932157  1
  B  B27  1  0.481067  0.527893  0.192122  1
  B  B28  1  0.518933  0.472107  0.692122  1
  B  B29  1  0.981255  0.279778  0.432157  1
  B  B30  1  0.981255  0.220222  0.932157  1
  B  B31  1  0.518933  0.027893  0.192122  1
  O  O32  1  0.644099  0.982374  0.290495  1
  O  O33  1  0.220701  0.989999  0.192032  1
  O  O34  1  0.173373  0.909378  0.414497  1
  O  O35  1  0.646434  0.956649  0.103131  1
  O  O36  1  0.432216  0.818251  0.684665  1
  O  O37  1  0.935184  0.779476  0.831204  1
  O  O38  1  0.766770  0.822629  0.488454  1
  O  O39  1  0.183005  0.825176  0.989828  1
  O  O40  1  0.183005  0.674824  0.489828  1
  O  O41  1  0.766770  0.677371  0.988454  1
  O  O42  1  0.935184  0.720524  0.331204  1
  O  O43  1  0.432216  0.681749  0.184665  1
  O  O44  1  0.646434  0.543351  0.603131  1
  O  O45  1  0.173373  0.590622  0.914497  1
  O  O46  1  0.220701  0.510001  0.692032  1
  O  O47  1  0.644099  0.517626  0.790495  1
  O  O48  1  0.355901  0.482374  0.290495  1
  O  O49  1  0.779299  0.489999  0.192032  1
  O  O50  1  0.826627  0.409378  0.414497  1
  O  O51  1  0.353566  0.456649  0.103131  1
  O  O52  1  0.567784  0.318251  0.684665  1
  O  O53  1  0.064816  0.279476  0.831204  1
  O  O54  1  0.233230  0.322629  0.488454  1
  O  O55  1  0.816995  0.325176  0.989828  1
  O  O56  1  0.816995  0.174824  0.489828  1
  O  O57  1  0.233230  0.177371  0.988454  1
  O  O58  1  0.064816  0.220524  0.331204  1
  O  O59  1  0.567784  0.181749  0.184665  1
  O  O60  1  0.353566  0.043351  0.603131  1
  O  O61  1  0.826627  0.090622  0.914497  1
  O  O62  1  0.779299  0.010001  0.692032  1
  O  O63  1  0.355901  0.017626  0.790495  1
