# generated using pymatgen
data_Li3Sb3(PO4)4
_symmetry_space_group_name_H-M   'P 1'
_cell_length_a   9.11802982
_cell_length_b   9.65900861
_cell_length_c   10.48490114
_cell_angle_alpha   108.97279643
_cell_angle_beta   103.06419915
_cell_angle_gamma   111.24097499
_symmetry_Int_Tables_number   1
_chemical_formula_structural   Li3Sb3(PO4)4
_chemical_formula_sum   'Li6 Sb6 P8 O32'
_cell_volume   749.44675957
_cell_formula_units_Z   2
loop_
 _symmetry_equiv_pos_site_id
 _symmetry_equiv_pos_as_xyz
  1  'x, y, z'
loop_
 _atom_site_type_symbol
 _atom_site_label
 _atom_site_symmetry_multiplicity
 _atom_site_fract_x
 _atom_site_fract_y
 _atom_site_fract_z
 _atom_site_occupancy
  Li  Li0  1  0.022094  0.439052  0.235640  1
  Li  Li1  1  0.478153  0.433145  0.148604  1
  Li  Li2  1  0.305706  0.349841  0.707890  1
  Li  Li3  1  0.694294  0.650159  0.292110  1
  Li  Li4  1  0.521847  0.566855  0.851396  1
  Li  Li5  1  0.977906  0.560948  0.764360  1
  Sb  Sb6  1  0.792531  0.033938  0.446124  1
  Sb  Sb7  1  0.874614  0.119078  0.847391  1
  Sb  Sb8  1  0.485246  0.070253  0.749931  1
  Sb  Sb9  1  0.514754  0.929747  0.250069  1
  Sb  Sb10  1  0.125386  0.880922  0.152609  1
  Sb  Sb11  1  0.207469  0.966062  0.553876  1
  P  P12  1  0.566342  0.281552  0.414992  1
  P  P13  1  0.984411  0.176227  0.077904  1
  P  P14  1  0.599812  0.269964  0.941465  1
  P  P15  1  0.071640  0.252718  0.507256  1
  P  P16  1  0.928360  0.747282  0.492744  1
  P  P17  1  0.400188  0.730036  0.058535  1
  P  P18  1  0.015589  0.823773  0.922096  1
  P  P19  1  0.433658  0.718448  0.585008  1
  O  O20  1  0.785934  0.043075  0.119740  1
  O  O21  1  0.504930  0.104245  0.082786  1
  O  O22  1  0.864303  0.117964  0.587801  1
  O  O23  1  0.459536  0.117554  0.396761  1
  O  O24  1  0.739724  0.283435  0.402213  1
  O  O25  1  0.061320  0.078294  0.150768  1
  O  O26  1  0.444557  0.245164  0.576517  1
  O  O27  1  0.798231  0.320674  0.863821  1
  O  O28  1  0.171997  0.162081  0.455242  1
  O  O29  1  0.505239  0.230150  0.841548  1
  O  O30  1  0.582959  0.430426  0.300858  1
  O  O31  1  0.996120  0.316067  0.116240  1
  O  O32  1  0.117935  0.400143  0.378617  1
  O  O33  1  0.901549  0.717475  0.360566  1
  O  O34  1  0.070867  0.227247  0.905833  1
  O  O35  1  0.431818  0.596468  0.027842  1
  O  O36  1  0.568182  0.403532  0.972158  1
  O  O37  1  0.929133  0.772753  0.094167  1
  O  O38  1  0.098451  0.282525  0.639434  1
  O  O39  1  0.882065  0.599857  0.621383  1
  O  O40  1  0.003880  0.683933  0.883760  1
  O  O41  1  0.417041  0.569574  0.699142  1
  O  O42  1  0.494761  0.769850  0.158452  1
  O  O43  1  0.828003  0.837919  0.544758  1
  O  O44  1  0.201769  0.679326  0.136179  1
  O  O45  1  0.555443  0.754836  0.423483  1
  O  O46  1  0.938680  0.921706  0.849232  1
  O  O47  1  0.260276  0.716565  0.597787  1
  O  O48  1  0.540464  0.882446  0.603239  1
  O  O49  1  0.135697  0.882036  0.412199  1
  O  O50  1  0.495070  0.895755  0.917214  1
  O  O51  1  0.214066  0.956925  0.880260  1
