# generated using pymatgen
data_Li5Mn2Cu3O10
_symmetry_space_group_name_H-M   'P 1'
_cell_length_a   5.05925903
_cell_length_b   5.40416759
_cell_length_c   7.59408256
_cell_angle_alpha   104.35299912
_cell_angle_beta   103.36059027
_cell_angle_gamma   104.64079743
_symmetry_Int_Tables_number   1
_chemical_formula_structural   Li5Mn2Cu3O10
_chemical_formula_sum   'Li5 Mn2 Cu3 O10'
_cell_volume   184.81513616
_cell_formula_units_Z   1
loop_
 _symmetry_equiv_pos_site_id
 _symmetry_equiv_pos_as_xyz
  1  'x, y, z'
loop_
 _atom_site_type_symbol
 _atom_site_label
 _atom_site_symmetry_multiplicity
 _atom_site_fract_x
 _atom_site_fract_y
 _atom_site_fract_z
 _atom_site_occupancy
  Li  Li0  1  0.210235  0.895465  0.394162  1
  Li  Li1  1  0.400667  0.287124  0.789946  1
  Li  Li2  1  0.500000  0.500000  0.500000  1
  Li  Li3  1  0.599333  0.712876  0.210054  1
  Li  Li4  1  0.789765  0.104535  0.605838  1
  Mn  Mn5  1  0.101674  0.678096  0.693909  1
  Mn  Mn6  1  0.898326  0.321904  0.306091  1
  Cu  Cu7  1  0.000000  0.500000  0.000000  1
  Cu  Cu8  1  0.697650  0.888901  0.898796  1
  Cu  Cu9  1  0.302350  0.111099  0.101204  1
  O  O10  1  0.058541  0.023801  0.837148  1
  O  O11  1  0.345822  0.670873  0.929414  1
  O  O12  1  0.130671  0.332376  0.546733  1
  O  O13  1  0.216921  0.525516  0.246330  1
  O  O14  1  0.450523  0.880671  0.663902  1
  O  O15  1  0.549477  0.119329  0.336098  1
  O  O16  1  0.783079  0.474484  0.753670  1
  O  O17  1  0.869329  0.667624  0.453267  1
  O  O18  1  0.654178  0.329127  0.070586  1
  O  O19  1  0.941459  0.976199  0.162852  1
