# generated using pymatgen
data_Na3MgPCO7
_symmetry_space_group_name_H-M   'P 1'
_cell_length_a   5.30337111
_cell_length_b   6.58475513
_cell_length_c   9.02018654
_cell_angle_alpha   90.00000000
_cell_angle_beta   90.28926044
_cell_angle_gamma   90.00000000
_symmetry_Int_Tables_number   1
_chemical_formula_structural   Na3MgPCO7
_chemical_formula_sum   'Na6 Mg2 P2 C2 O14'
_cell_volume   314.99352913
_cell_formula_units_Z   2
loop_
 _symmetry_equiv_pos_site_id
 _symmetry_equiv_pos_as_xyz
  1  'x, y, z'
loop_
 _atom_site_type_symbol
 _atom_site_label
 _atom_site_symmetry_multiplicity
 _atom_site_fract_x
 _atom_site_fract_y
 _atom_site_fract_z
 _atom_site_occupancy
  Na  Na0  1  0.999478  0.511634  0.995352  1
  Na  Na1  1  0.546940  0.810274  0.832922  1
  Na  Na2  1  0.498760  0.514382  0.511009  1
  Na  Na3  1  0.501240  0.014382  0.488991  1
  Na  Na4  1  0.453060  0.310274  0.167078  1
  Na  Na5  1  0.000522  0.011634  0.004648  1
  Mg  Mg6  1  0.983570  0.255736  0.705920  1
  Mg  Mg7  1  0.016430  0.755736  0.294080  1
  P  P8  1  0.022176  0.759529  0.653129  1
  P  P9  1  0.977824  0.259529  0.346871  1
  C  C10  1  0.509770  0.259368  0.847131  1
  C  C11  1  0.490230  0.759368  0.152869  1
  O  O12  1  0.679591  0.258551  0.952151  1
  O  O13  1  0.269438  0.250319  0.881725  1
  O  O14  1  0.926370  0.945409  0.745992  1
  O  O15  1  0.956967  0.565337  0.743961  1
  O  O16  1  0.578435  0.264889  0.709770  1
  O  O17  1  0.309187  0.776926  0.629817  1
  O  O18  1  0.880275  0.753048  0.501173  1
  O  O19  1  0.119725  0.253048  0.498827  1
  O  O20  1  0.690813  0.276926  0.370183  1
  O  O21  1  0.421565  0.764889  0.290230  1
  O  O22  1  0.043033  0.065337  0.256039  1
  O  O23  1  0.073630  0.445409  0.254008  1
  O  O24  1  0.730562  0.750319  0.118275  1
  O  O25  1  0.320409  0.758551  0.047849  1
