# generated using pymatgen
data_LiBi(PO3)4
_symmetry_space_group_name_H-M   'P 1'
_cell_length_a   7.19026102
_cell_length_b   7.19026102
_cell_length_c   10.37809241
_cell_angle_alpha   86.46620734
_cell_angle_beta   93.53379266
_cell_angle_gamma   68.41026284
_symmetry_Int_Tables_number   1
_chemical_formula_structural   LiBi(PO3)4
_chemical_formula_sum   'Li2 Bi2 P8 O24'
_cell_volume   495.89516410
_cell_formula_units_Z   2
loop_
 _symmetry_equiv_pos_site_id
 _symmetry_equiv_pos_as_xyz
  1  'x, y, z'
loop_
 _atom_site_type_symbol
 _atom_site_label
 _atom_site_symmetry_multiplicity
 _atom_site_fract_x
 _atom_site_fract_y
 _atom_site_fract_z
 _atom_site_occupancy
  Li  Li0  1  0.328968  0.328968  0.250000  1
  Li  Li1  1  0.671032  0.671032  0.750000  1
  Bi  Bi2  1  0.619021  0.619021  0.250000  1
  Bi  Bi3  1  0.380979  0.380979  0.750000  1
  P  P4  1  0.157997  0.213644  0.994018  1
  P  P5  1  0.786356  0.842003  0.494018  1
  P  P6  1  0.736881  0.212839  0.056195  1
  P  P7  1  0.212839  0.736881  0.443805  1
  P  P8  1  0.787161  0.263119  0.556195  1
  P  P9  1  0.263119  0.787161  0.943805  1
  P  P10  1  0.213644  0.157997  0.505982  1
  P  P11  1  0.842003  0.786356  0.005982  1
  O  O12  1  0.307514  0.193819  0.104181  1
  O  O13  1  0.615804  0.892840  0.388600  1
  O  O14  1  0.657991  0.312759  0.176598  1
  O  O15  1  0.806181  0.692486  0.604181  1
  O  O16  1  0.378249  0.699896  0.072815  1
  O  O17  1  0.107160  0.384196  0.888600  1
  O  O18  1  0.196090  0.963938  0.445880  1
  O  O19  1  0.765066  0.983880  0.087510  1
  O  O20  1  0.983880  0.765066  0.412490  1
  O  O21  1  0.963938  0.196090  0.054120  1
  O  O22  1  0.687241  0.342009  0.676598  1
  O  O23  1  0.699896  0.378249  0.427185  1
  O  O24  1  0.300104  0.621751  0.572815  1
  O  O25  1  0.312759  0.657991  0.323402  1
  O  O26  1  0.036062  0.803910  0.945880  1
  O  O27  1  0.016120  0.234934  0.587510  1
  O  O28  1  0.234934  0.016120  0.912490  1
  O  O29  1  0.803910  0.036062  0.554120  1
  O  O30  1  0.892839  0.615804  0.111400  1
  O  O31  1  0.621751  0.300104  0.927185  1
  O  O32  1  0.193819  0.307514  0.395819  1
  O  O33  1  0.342009  0.687241  0.823402  1
  O  O34  1  0.384196  0.107161  0.611400  1
  O  O35  1  0.692486  0.806181  0.895819  1
