# generated using pymatgen
data_Li2MnFe(BO3)2
_symmetry_space_group_name_H-M   'P 1'
_cell_length_a   5.21773077
_cell_length_b   5.24275904
_cell_length_c   10.99365409
_cell_angle_alpha   76.53760787
_cell_angle_beta   78.81416404
_cell_angle_gamma   60.17474240
_symmetry_Int_Tables_number   1
_chemical_formula_structural   Li2MnFe(BO3)2
_chemical_formula_sum   'Li4 Mn2 Fe2 B4 O12'
_cell_volume   252.64020017
_cell_formula_units_Z   2
loop_
 _symmetry_equiv_pos_site_id
 _symmetry_equiv_pos_as_xyz
  1  'x, y, z'
loop_
 _atom_site_type_symbol
 _atom_site_label
 _atom_site_symmetry_multiplicity
 _atom_site_fract_x
 _atom_site_fract_y
 _atom_site_fract_z
 _atom_site_occupancy
  Li  Li0  1  0.145249  0.286227  0.589474  1
  Li  Li1  1  0.854751  0.713773  0.410526  1
  Li  Li2  1  0.642814  0.782931  0.090595  1
  Li  Li3  1  0.357186  0.217069  0.909405  1
  Mn  Mn4  1  0.469666  0.623251  0.633677  1
  Mn  Mn5  1  0.530334  0.376749  0.366323  1
  Fe  Fe6  1  0.980245  0.114393  0.128627  1
  Fe  Fe7  1  0.019755  0.885607  0.871373  1
  B  B8  1  0.807272  0.958735  0.621302  1
  B  B9  1  0.192728  0.041265  0.378698  1
  B  B10  1  0.303966  0.457866  0.117862  1
  B  B11  1  0.696034  0.542134  0.882138  1
  O  O12  1  0.549045  0.220674  0.591049  1
  O  O13  1  0.033849  0.971281  0.666060  1
  O  O14  1  0.844853  0.690746  0.602172  1
  O  O15  1  0.450955  0.779326  0.408951  1
  O  O16  1  0.155147  0.309254  0.397828  1
  O  O17  1  0.966151  0.028719  0.333940  1
  O  O18  1  0.540394  0.461089  0.157572  1
  O  O19  1  0.331931  0.191370  0.101249  1
  O  O20  1  0.043856  0.722721  0.091786  1
  O  O21  1  0.668069  0.808630  0.898751  1
  O  O22  1  0.459606  0.538911  0.842428  1
  O  O23  1  0.956144  0.277279  0.908214  1
