# generated using pymatgen
data_V2Si2O7
_symmetry_space_group_name_H-M   'P 1'
_cell_length_a   5.29124843
_cell_length_b   5.29124843
_cell_length_c   4.68631530
_cell_angle_alpha   82.94553214
_cell_angle_beta   97.05446786
_cell_angle_gamma   73.68205664
_symmetry_Int_Tables_number   1
_chemical_formula_structural   V2Si2O7
_chemical_formula_sum   'V2 Si2 O7'
_cell_volume   123.24929211
_cell_formula_units_Z   1
loop_
 _symmetry_equiv_pos_site_id
 _symmetry_equiv_pos_as_xyz
  1  'x, y, z'
loop_
 _atom_site_type_symbol
 _atom_site_label
 _atom_site_symmetry_multiplicity
 _atom_site_fract_x
 _atom_site_fract_y
 _atom_site_fract_z
 _atom_site_occupancy
  V  V0  1  0.313441  0.313441  0.000000  1
  V  V1  1  0.686559  0.686559  0.000000  1
  Si  Si2  1  0.770484  0.229516  0.595175  1
  Si  Si3  1  0.229516  0.770484  0.404825  1
  O  O4  1  0.921770  0.399832  0.790878  1
  O  O5  1  0.600168  0.078230  0.790878  1
  O  O6  1  0.602112  0.397888  0.274732  1
  O  O7  1  0.000000  0.000000  0.500000  1
  O  O8  1  0.397888  0.602112  0.725268  1
  O  O9  1  0.399832  0.921770  0.209122  1
  O  O10  1  0.078230  0.600168  0.209122  1
