# generated using pymatgen
data_BaLaBr5
_symmetry_space_group_name_H-M   'P 1'
_cell_length_a   7.65136772
_cell_length_b   10.89737392
_cell_length_c   11.82619236
_cell_angle_alpha   90.00000000
_cell_angle_beta   90.00000000
_cell_angle_gamma   90.00000000
_symmetry_Int_Tables_number   1
_chemical_formula_structural   BaLaBr5
_chemical_formula_sum   'Ba4 La4 Br20'
_cell_volume   986.06573165
_cell_formula_units_Z   4
loop_
 _symmetry_equiv_pos_site_id
 _symmetry_equiv_pos_as_xyz
  1  'x, y, z'
loop_
 _atom_site_type_symbol
 _atom_site_label
 _atom_site_symmetry_multiplicity
 _atom_site_fract_x
 _atom_site_fract_y
 _atom_site_fract_z
 _atom_site_occupancy
  Ba  Ba0  1  0.250000  0.626256  0.172934  1
  Ba  Ba1  1  0.750000  0.126256  0.327066  1
  Ba  Ba2  1  0.250000  0.873744  0.672934  1
  Ba  Ba3  1  0.750000  0.373744  0.827066  1
  La  La4  1  0.250000  0.151451  0.029514  1
  La  La5  1  0.750000  0.651451  0.470486  1
  La  La6  1  0.250000  0.348549  0.529514  1
  La  La7  1  0.750000  0.848549  0.970486  1
  Br  Br8  1  0.981076  0.338322  0.061196  1
  Br  Br9  1  0.518924  0.338322  0.061196  1
  Br  Br10  1  0.000524  0.963066  0.144528  1
  Br  Br11  1  0.499476  0.963066  0.144528  1
  Br  Br12  1  0.250000  0.188637  0.294288  1
  Br  Br13  1  0.750000  0.688637  0.205712  1
  Br  Br14  1  0.999476  0.463066  0.355472  1
  Br  Br15  1  0.500524  0.463066  0.355472  1
  Br  Br16  1  0.018924  0.838322  0.438804  1
  Br  Br17  1  0.481076  0.838322  0.438804  1
  Br  Br18  1  0.981076  0.161678  0.561196  1
  Br  Br19  1  0.518924  0.161678  0.561196  1
  Br  Br20  1  0.000524  0.536934  0.644528  1
  Br  Br21  1  0.499476  0.536934  0.644528  1
  Br  Br22  1  0.250000  0.311363  0.794288  1
  Br  Br23  1  0.750000  0.811363  0.705712  1
  Br  Br24  1  0.500524  0.036934  0.855472  1
  Br  Br25  1  0.999476  0.036934  0.855472  1
  Br  Br26  1  0.481076  0.661678  0.938804  1
  Br  Br27  1  0.018924  0.661678  0.938804  1
