# generated using pymatgen
data_Tm(HO)3
_symmetry_space_group_name_H-M   'P 1'
_cell_length_a   5.32090914
_cell_length_b   10.23833128
_cell_length_c   6.20777597
_cell_angle_alpha   90.00000000
_cell_angle_beta   95.75061691
_cell_angle_gamma   90.00000000
_symmetry_Int_Tables_number   1
_chemical_formula_structural   Tm(HO)3
_chemical_formula_sum   'Tm4 H12 O12'
_cell_volume   336.48051884
_cell_formula_units_Z   4
loop_
 _symmetry_equiv_pos_site_id
 _symmetry_equiv_pos_as_xyz
  1  'x, y, z'
loop_
 _atom_site_type_symbol
 _atom_site_label
 _atom_site_symmetry_multiplicity
 _atom_site_fract_x
 _atom_site_fract_y
 _atom_site_fract_z
 _atom_site_occupancy
  Tm  Tm0  1  0.990644  0.670194  0.039911  1
  Tm  Tm1  1  0.009356  0.170194  0.460089  1
  Tm  Tm2  1  0.990644  0.829806  0.539911  1
  Tm  Tm3  1  0.009356  0.329806  0.960089  1
  H  H4  1  0.412491  0.193229  0.187420  1
  H  H5  1  0.759316  0.974791  0.194334  1
  H  H6  1  0.688905  0.388154  0.269319  1
  H  H7  1  0.311095  0.888154  0.230681  1
  H  H8  1  0.240684  0.474791  0.305666  1
  H  H9  1  0.587509  0.693229  0.312580  1
  H  H10  1  0.412491  0.306771  0.687420  1
  H  H11  1  0.759316  0.525209  0.694334  1
  H  H12  1  0.688905  0.111846  0.769319  1
  H  H13  1  0.311095  0.611846  0.730681  1
  H  H14  1  0.240684  0.025209  0.805666  1
  H  H15  1  0.587509  0.806771  0.812580  1
  O  O16  1  0.208207  0.493177  0.151646  1
  O  O17  1  0.228831  0.181206  0.170166  1
  O  O18  1  0.223261  0.806692  0.254862  1
  O  O19  1  0.776739  0.306692  0.245138  1
  O  O20  1  0.771169  0.681206  0.329834  1
  O  O21  1  0.791793  0.993177  0.348354  1
  O  O22  1  0.208207  0.006823  0.651646  1
  O  O23  1  0.228831  0.318794  0.670166  1
  O  O24  1  0.223261  0.693308  0.754862  1
  O  O25  1  0.776739  0.193308  0.745138  1
  O  O26  1  0.771169  0.818794  0.829834  1
  O  O27  1  0.791793  0.506823  0.848354  1
