# generated using pymatgen
data_LiNiPO4
_symmetry_space_group_name_H-M   'P 1'
_cell_length_a   5.50131795
_cell_length_b   8.10896528
_cell_length_c   19.89832902
_cell_angle_alpha   90.00000000
_cell_angle_beta   90.00000000
_cell_angle_gamma   90.00000000
_symmetry_Int_Tables_number   1
_chemical_formula_structural   LiNiPO4
_chemical_formula_sum   'Li12 Ni12 P12 O48'
_cell_volume   887.66438298
_cell_formula_units_Z   12
loop_
 _symmetry_equiv_pos_site_id
 _symmetry_equiv_pos_as_xyz
  1  'x, y, z'
loop_
 _atom_site_type_symbol
 _atom_site_label
 _atom_site_symmetry_multiplicity
 _atom_site_fract_x
 _atom_site_fract_y
 _atom_site_fract_z
 _atom_site_occupancy
  Li  Li0  1  0.193584  0.729175  0.024725  1
  Li  Li1  1  0.814352  0.251283  0.821232  1
  Li  Li2  1  0.213400  0.742944  0.840491  1
  Li  Li3  1  0.713400  0.242944  0.659509  1
  Li  Li4  1  0.314352  0.751283  0.678768  1
  Li  Li5  1  0.693584  0.229175  0.475275  1
  Li  Li6  1  0.193584  0.770825  0.524725  1
  Li  Li7  1  0.814352  0.248717  0.321232  1
  Li  Li8  1  0.213400  0.757056  0.340491  1
  Li  Li9  1  0.713400  0.257056  0.159509  1
  Li  Li10  1  0.314352  0.748717  0.178768  1
  Li  Li11  1  0.693584  0.270825  0.975275  1
  Ni  Ni12  1  0.252547  0.016727  0.937681  1
  Ni  Ni13  1  0.690706  0.577240  0.910774  1
  Ni  Ni14  1  0.264018  0.439159  0.759020  1
  Ni  Ni15  1  0.764018  0.939159  0.740980  1
  Ni  Ni16  1  0.190706  0.077240  0.589226  1
  Ni  Ni17  1  0.752547  0.516727  0.562319  1
  Ni  Ni18  1  0.252547  0.483273  0.437681  1
  Ni  Ni19  1  0.690706  0.922760  0.410774  1
  Ni  Ni20  1  0.264018  0.060841  0.259020  1
  Ni  Ni21  1  0.764018  0.560841  0.240980  1
  Ni  Ni22  1  0.190706  0.422760  0.089226  1
  Ni  Ni23  1  0.752547  0.983273  0.062319  1
  P  P24  1  0.194820  0.409017  0.929496  1
  P  P25  1  0.764511  0.910193  0.904783  1
  P  P26  1  0.245866  0.061639  0.765666  1
  P  P27  1  0.745866  0.561639  0.734334  1
  P  P28  1  0.264511  0.410193  0.595217  1
  P  P29  1  0.694820  0.909017  0.570504  1
  P  P30  1  0.194820  0.090983  0.429496  1
  P  P31  1  0.764511  0.589807  0.404783  1
  P  P32  1  0.245866  0.438361  0.265666  1
  P  P33  1  0.745866  0.938361  0.234334  1
  P  P34  1  0.264511  0.089807  0.095217  1
  P  P35  1  0.694820  0.590983  0.070504  1
  O  O36  1  0.166015  0.502008  0.996161  1
  O  O37  1  0.850702  0.031540  0.962033  1
  O  O38  1  0.942600  0.760623  0.903297  1
  O  O39  1  0.515384  0.832088  0.923406  1
  O  O40  1  0.343445  0.249056  0.940806  1
  O  O41  1  0.935106  0.375787  0.900165  1
  O  O42  1  0.343259  0.516993  0.878971  1
  O  O43  1  0.762678  0.007261  0.839402  1
  O  O44  1  0.259147  0.004457  0.838589  1
  O  O45  1  0.616550  0.419948  0.773285  1
  O  O46  1  0.993529  0.592289  0.768332  1
  O  O47  1  0.591624  0.722894  0.741967  1
  O  O48  1  0.091624  0.222894  0.758033  1
  O  O49  1  0.493529  0.092289  0.731668  1
  O  O50  1  0.116550  0.919948  0.726715  1
  O  O51  1  0.759147  0.504457  0.661411  1
  O  O52  1  0.262678  0.507261  0.660598  1
  O  O53  1  0.843259  0.016993  0.621029  1
  O  O54  1  0.435106  0.875787  0.599835  1
  O  O55  1  0.843445  0.749056  0.559194  1
  O  O56  1  0.015384  0.332088  0.576594  1
  O  O57  1  0.442600  0.260623  0.596703  1
  O  O58  1  0.350702  0.531540  0.537967  1
  O  O59  1  0.666015  0.002008  0.503839  1
  O  O60  1  0.166015  0.997992  0.496161  1
  O  O61  1  0.850702  0.468460  0.462033  1
  O  O62  1  0.942600  0.739377  0.403297  1
  O  O63  1  0.515384  0.667912  0.423406  1
  O  O64  1  0.343445  0.250944  0.440806  1
  O  O65  1  0.935106  0.124213  0.400165  1
  O  O66  1  0.343259  0.983007  0.378971  1
  O  O67  1  0.762678  0.492739  0.339402  1
  O  O68  1  0.259147  0.495543  0.338589  1
  O  O69  1  0.616550  0.080052  0.273285  1
  O  O70  1  0.993529  0.907711  0.268332  1
  O  O71  1  0.591624  0.777106  0.241967  1
  O  O72  1  0.091624  0.277106  0.258033  1
  O  O73  1  0.493529  0.407711  0.231668  1
  O  O74  1  0.116550  0.580052  0.226715  1
  O  O75  1  0.759147  0.995543  0.161411  1
  O  O76  1  0.262678  0.992739  0.160598  1
  O  O77  1  0.843259  0.483007  0.121029  1
  O  O78  1  0.435106  0.624213  0.099835  1
  O  O79  1  0.843445  0.750944  0.059194  1
  O  O80  1  0.015384  0.167912  0.076594  1
  O  O81  1  0.442600  0.239377  0.096703  1
  O  O82  1  0.350702  0.968460  0.037967  1
  O  O83  1  0.666015  0.497992  0.003839  1
