# generated using pymatgen
data_Li3CoBO4
_symmetry_space_group_name_H-M   'P 1'
_cell_length_a   9.56549700
_cell_length_b   9.56549700
_cell_length_c   9.56549700
_cell_angle_alpha   116.38186554
_cell_angle_beta   116.38186554
_cell_angle_gamma   96.39006903
_symmetry_Int_Tables_number   1
_chemical_formula_structural   Li3CoBO4
_chemical_formula_sum   'Li24 Co8 B8 O32'
_cell_volume   648.35974159
_cell_formula_units_Z   8
loop_
 _symmetry_equiv_pos_site_id
 _symmetry_equiv_pos_as_xyz
  1  'x, y, z'
loop_
 _atom_site_type_symbol
 _atom_site_label
 _atom_site_symmetry_multiplicity
 _atom_site_fract_x
 _atom_site_fract_y
 _atom_site_fract_z
 _atom_site_occupancy
  Li  Li0  1  0.915494  0.097052  0.136142  1
  Li  Li1  1  0.834506  0.152948  0.363858  1
  Li  Li2  1  0.902948  0.039090  0.818442  1
  Li  Li3  1  0.529352  0.165494  0.318442  1
  Li  Li4  1  0.417386  0.269943  0.105047  1
  Li  Li5  1  0.721554  0.563901  0.142595  1
  Li  Li6  1  0.220648  0.084506  0.181558  1
  Li  Li7  1  0.847052  0.210910  0.681558  1
  Li  Li8  1  0.730057  0.835104  0.147444  1
  Li  Li9  1  0.436099  0.578694  0.157652  1
  Li  Li10  1  0.789090  0.470648  0.636142  1
  Li  Li11  1  0.960910  0.779352  0.863858  1
  Li  Li12  1  0.421042  0.278446  0.842348  1
  Li  Li13  1  0.313901  0.671306  0.342348  1
  Li  Li14  1  0.019943  0.414896  0.352556  1
  Li  Li15  1  0.687660  0.582614  0.852556  1
  Li  Li16  1  0.028446  0.686099  0.357405  1
  Li  Li17  1  0.421306  0.578958  0.857405  1
  Li  Li18  1  0.585104  0.937660  0.605047  1
  Li  Li19  1  0.332614  0.980057  0.394953  1
  Li  Li20  1  0.164896  0.312340  0.894953  1
  Li  Li21  1  0.328694  0.671042  0.642595  1
  Li  Li22  1  0.062340  0.667386  0.647444  1
  Li  Li23  1  0.328958  0.971554  0.657652  1
  Co  Co24  1  0.461000  0.916931  0.996199  1
  Co  Co25  1  0.535199  0.539000  0.455931  1
  Co  Co26  1  0.666931  0.170732  0.955931  1
  Co  Co27  1  0.829268  0.785199  0.496199  1
  Co  Co28  1  0.289000  0.333069  0.503801  1
  Co  Co29  1  0.083069  0.079268  0.544069  1
  Co  Co30  1  0.214801  0.711000  0.044069  1
  Co  Co31  1  0.920732  0.464801  0.003801  1
  B  B32  1  0.728387  0.394744  0.274926  1
  B  B33  1  0.144744  0.369818  0.166357  1
  B  B34  1  0.546539  0.271613  0.666357  1
  B  B35  1  0.605256  0.880182  0.333643  1
  B  B36  1  0.630182  0.796539  0.774926  1
  B  B37  1  0.021613  0.855256  0.225074  1
  B  B38  1  0.119818  0.453461  0.725074  1
  B  B39  1  0.203461  0.978387  0.833643  1
  O  O40  1  0.799491  0.259820  0.228986  1
  O  O41  1  0.320505  0.049491  0.039671  1
  O  O42  1  0.599148  0.355564  0.085049  1
  O  O43  1  0.883022  0.681231  0.112316  1
  O  O44  1  0.866978  0.568769  0.387684  1
  O  O45  1  0.644114  0.383633  0.369937  1
  O  O46  1  0.429495  0.200509  0.460329  1
  O  O47  1  0.318769  0.431085  0.201791  1
  O  O48  1  0.520706  0.133022  0.701791  1
  O  O49  1  0.950509  0.990180  0.271014  1
  O  O50  1  0.133633  0.263696  0.239519  1
  O  O51  1  0.725824  0.355886  0.739519  1
  O  O52  1  0.644436  0.729485  0.243584  1
  O  O53  1  0.105564  0.520515  0.256416  1
  O  O54  1  0.485901  0.400852  0.756416  1
  O  O55  1  0.616367  0.986304  0.260481  1
  O  O56  1  0.719166  0.679495  0.728986  1
  O  O57  1  0.229294  0.116978  0.798209  1
  O  O58  1  0.431231  0.818915  0.298209  1
  O  O59  1  0.740180  0.969166  0.539671  1
  O  O60  1  0.479485  0.735901  0.585049  1
  O  O61  1  0.105886  0.866367  0.130063  1
  O  O62  1  0.013696  0.274176  0.630063  1
  O  O63  1  0.181085  0.479294  0.612316  1
  O  O64  1  0.568915  0.770706  0.887684  1
  O  O65  1  0.736304  0.975824  0.869937  1
  O  O66  1  0.270515  0.514099  0.914951  1
  O  O67  1  0.150852  0.894436  0.414951  1
  O  O68  1  0.009820  0.280834  0.960329  1
  O  O69  1  0.030834  0.570505  0.771014  1
  O  O70  1  0.264099  0.849148  0.743584  1
  O  O71  1  0.024176  0.894114  0.760481  1
