# generated using pymatgen
data_Hf2N2O
_symmetry_space_group_name_H-M   'P 1'
_cell_length_a   8.12129592
_cell_length_b   3.27643212
_cell_length_c   13.75681929
_cell_angle_alpha   90.00000000
_cell_angle_beta   99.50711415
_cell_angle_gamma   90.00000000
_symmetry_Int_Tables_number   1
_chemical_formula_structural   Hf2N2O
_chemical_formula_sum   'Hf12 N12 O6'
_cell_volume   361.02577430
_cell_formula_units_Z   6
loop_
 _symmetry_equiv_pos_site_id
 _symmetry_equiv_pos_as_xyz
  1  'x, y, z'
loop_
 _atom_site_type_symbol
 _atom_site_label
 _atom_site_symmetry_multiplicity
 _atom_site_fract_x
 _atom_site_fract_y
 _atom_site_fract_z
 _atom_site_occupancy
  Hf  Hf0  1  0.822484  0.500000  0.992271  1
  Hf  Hf1  1  0.452966  0.500000  0.879920  1
  Hf  Hf2  1  0.810441  0.000000  0.776782  1
  Hf  Hf3  1  0.170014  0.000000  0.716608  1
  Hf  Hf4  1  0.500763  0.500000  0.609337  1
  Hf  Hf5  1  0.854936  0.500000  0.562100  1
  Hf  Hf6  1  0.119968  0.000000  0.430291  1
  Hf  Hf7  1  0.504818  0.000000  0.383982  1
  Hf  Hf8  1  0.826771  0.500000  0.280839  1
  Hf  Hf9  1  0.184781  0.500000  0.217606  1
  Hf  Hf10  1  0.555335  0.000000  0.120553  1
  Hf  Hf11  1  0.194687  0.000000  0.017141  1
  N  N12  1  0.675659  0.500000  0.819428  1
  N  N13  1  0.336755  0.500000  0.715372  1
  N  N14  1  0.982289  0.500000  0.733774  1
  N  N15  1  0.691119  0.000000  0.628644  1
  N  N16  1  0.617733  0.500000  0.464942  1
  N  N17  1  0.966442  0.500000  0.431888  1
  N  N18  1  0.025046  0.000000  0.272596  1
  N  N19  1  0.663732  0.000000  0.283659  1
  N  N20  1  0.334236  0.000000  0.190139  1
  N  N21  1  0.065046  0.500000  0.071276  1
  N  N22  1  0.730075  0.500000  0.125976  1
  N  N23  1  0.386911  0.500000  0.026445  1
  O  O24  1  0.622386  0.000000  0.966392  1
  O  O25  1  0.280640  0.000000  0.869619  1
  O  O26  1  0.940048  0.000000  0.929088  1
  O  O27  1  0.025925  0.000000  0.576286  1
  O  O28  1  0.359282  0.000000  0.534384  1
  O  O29  1  0.298714  0.500000  0.372661  1
