# generated using pymatgen
data_Li2CrCuO4
_symmetry_space_group_name_H-M   'P 1'
_cell_length_a   5.89481767
_cell_length_b   5.89481767
_cell_length_c   5.89481767
_cell_angle_alpha   120.12053833
_cell_angle_beta   120.07456222
_cell_angle_gamma   89.83112547
_symmetry_Int_Tables_number   1
_chemical_formula_structural   Li2CrCuO4
_chemical_formula_sum   'Li4 Cr2 Cu2 O8'
_cell_volume   144.62826353
_cell_formula_units_Z   2
loop_
 _symmetry_equiv_pos_site_id
 _symmetry_equiv_pos_as_xyz
  1  'x, y, z'
loop_
 _atom_site_type_symbol
 _atom_site_label
 _atom_site_symmetry_multiplicity
 _atom_site_fract_x
 _atom_site_fract_y
 _atom_site_fract_z
 _atom_site_occupancy
  Li  Li0  1  0.000000  0.000000  0.500000  1
  Li  Li1  1  0.500000  0.000000  0.500000  1
  Li  Li2  1  0.500000  0.000000  0.000000  1
  Li  Li3  1  0.500000  0.500000  0.000000  1
  Cr  Cr4  1  0.000000  0.500000  0.000000  1
  Cr  Cr5  1  0.500000  0.500000  0.500000  1
  Cu  Cu6  1  0.000000  0.500000  0.500000  1
  Cu  Cu7  1  0.000000  0.000000  0.000000  1
  O  O8  1  0.244573  0.260141  0.015567  1
  O  O9  1  0.247960  0.260377  0.487583  1
  O  O10  1  0.244573  0.729006  0.484433  1
  O  O11  1  0.772794  0.260377  0.012417  1
  O  O12  1  0.227206  0.739623  0.987583  1
  O  O13  1  0.755427  0.270994  0.515567  1
  O  O14  1  0.752040  0.739623  0.512417  1
  O  O15  1  0.755427  0.739859  0.984433  1
