# generated using pymatgen
data_Li6MnVP2(CO7)2
_symmetry_space_group_name_H-M   'P 1'
_cell_length_a   5.01147242
_cell_length_b   6.63481438
_cell_length_c   8.53347037
_cell_angle_alpha   90.00000000
_cell_angle_beta   94.84041077
_cell_angle_gamma   90.00000000
_symmetry_Int_Tables_number   1
_chemical_formula_structural   Li6MnVP2(CO7)2
_chemical_formula_sum   'Li6 Mn1 V1 P2 C2 O14'
_cell_volume   282.72757450
_cell_formula_units_Z   1
loop_
 _symmetry_equiv_pos_site_id
 _symmetry_equiv_pos_as_xyz
  1  'x, y, z'
loop_
 _atom_site_type_symbol
 _atom_site_label
 _atom_site_symmetry_multiplicity
 _atom_site_fract_x
 _atom_site_fract_y
 _atom_site_fract_z
 _atom_site_occupancy
  Li  Li0  1  0.761020  0.500000  0.905168  1
  Li  Li1  1  0.248067  0.276913  0.724483  1
  Li  Li2  1  0.248067  0.723087  0.724483  1
  Li  Li3  1  0.753465  0.776304  0.276102  1
  Li  Li4  1  0.753465  0.223696  0.276102  1
  Li  Li5  1  0.235230  0.000000  0.094368  1
  Mn  Mn6  1  0.221061  0.500000  0.339718  1
  V  V7  1  0.792144  0.000000  0.669613  1
  P  P8  1  0.721386  0.500000  0.589987  1
  P  P9  1  0.279326  0.000000  0.411041  1
  C  C10  1  0.699417  0.000000  0.964061  1
  C  C11  1  0.296835  0.500000  0.033226  1
  O  O12  1  0.944126  0.000000  0.924424  1
  O  O13  1  0.356231  0.500000  0.887528  1
  O  O14  1  0.506168  0.000000  0.851872  1
  O  O15  1  0.828774  0.317337  0.689871  1
  O  O16  1  0.828774  0.682663  0.689871  1
  O  O17  1  0.179093  0.000000  0.577610  1
  O  O18  1  0.407649  0.500000  0.575861  1
  O  O19  1  0.592482  0.000000  0.429839  1
  O  O20  1  0.812188  0.500000  0.420352  1
  O  O21  1  0.174150  0.183160  0.309608  1
  O  O22  1  0.174150  0.816840  0.309608  1
  O  O23  1  0.490286  0.500000  0.145603  1
  O  O24  1  0.645005  0.000000  0.110198  1
  O  O25  1  0.051440  0.500000  0.069402  1
