# generated using pymatgen
data_Li4Ti2Ni5O12
_symmetry_space_group_name_H-M   'P 1'
_cell_length_a   5.00766086
_cell_length_b   8.93522638
_cell_length_c   9.84684490
_cell_angle_alpha   90.00000000
_cell_angle_beta   101.35508794
_cell_angle_gamma   90.00000000
_symmetry_Int_Tables_number   1
_chemical_formula_structural   Li4Ti2Ni5O12
_chemical_formula_sum   'Li8 Ti4 Ni10 O24'
_cell_volume   431.96872184
_cell_formula_units_Z   2
loop_
 _symmetry_equiv_pos_site_id
 _symmetry_equiv_pos_as_xyz
  1  'x, y, z'
loop_
 _atom_site_type_symbol
 _atom_site_label
 _atom_site_symmetry_multiplicity
 _atom_site_fract_x
 _atom_site_fract_y
 _atom_site_fract_z
 _atom_site_occupancy
  Li  Li0  1  0.004305  0.926205  0.262769  1
  Li  Li1  1  0.501609  0.932183  0.739029  1
  Li  Li2  1  0.757133  0.580843  0.498230  1
  Li  Li3  1  0.995695  0.426205  0.737231  1
  Li  Li4  1  0.497167  0.577755  0.745069  1
  Li  Li5  1  0.498391  0.432183  0.260971  1
  Li  Li6  1  0.242867  0.080843  0.501770  1
  Li  Li7  1  0.502833  0.077755  0.254931  1
  Ti  Ti8  1  0.254790  0.740559  0.503771  1
  Ti  Ti9  1  0.767548  0.751418  0.016419  1
  Ti  Ti10  1  0.232452  0.251418  0.983581  1
  Ti  Ti11  1  0.745210  0.240559  0.496229  1
  Ni  Ni12  1  0.248683  0.917309  0.995914  1
  Ni  Ni13  1  0.752054  0.918833  0.502426  1
  Ni  Ni14  1  0.989889  0.753524  0.744725  1
  Ni  Ni15  1  0.246758  0.581041  0.000117  1
  Ni  Ni16  1  0.503591  0.743742  0.258236  1
  Ni  Ni17  1  0.247946  0.418833  0.497574  1
  Ni  Ni18  1  0.751317  0.417309  0.004086  1
  Ni  Ni19  1  0.010111  0.253524  0.255275  1
  Ni  Ni20  1  0.496409  0.243742  0.741764  1
  Ni  Ni21  1  0.753242  0.081041  0.999883  1
  O  O22  1  0.110063  0.903453  0.613821  1
  O  O23  1  0.849912  0.908994  0.891194  1
  O  O24  1  0.876368  0.769960  0.390380  1
  O  O25  1  0.119444  0.753616  0.122071  1
  O  O26  1  0.626868  0.904549  0.121720  1
  O  O27  1  0.392182  0.903714  0.384127  1
  O  O28  1  0.606623  0.755610  0.627057  1
  O  O29  1  0.127160  0.593974  0.621259  1
  O  O30  1  0.883194  0.593166  0.888020  1
  O  O31  1  0.365324  0.736182  0.889748  1
  O  O32  1  0.600315  0.588209  0.113005  1
  O  O33  1  0.371727  0.586671  0.390090  1
  O  O34  1  0.150088  0.408994  0.108806  1
  O  O35  1  0.889937  0.403453  0.386179  1
  O  O36  1  0.123632  0.269960  0.609620  1
  O  O37  1  0.607818  0.403714  0.615873  1
  O  O38  1  0.880556  0.253616  0.877929  1
  O  O39  1  0.373132  0.404549  0.878280  1
  O  O40  1  0.116806  0.093166  0.111980  1
  O  O41  1  0.393377  0.255610  0.372943  1
  O  O42  1  0.634676  0.236182  0.110252  1
  O  O43  1  0.872840  0.093974  0.378741  1
  O  O44  1  0.628273  0.086671  0.609910  1
  O  O45  1  0.399685  0.088209  0.886995  1
