# generated using pymatgen
data_Yb2TiO5
_symmetry_space_group_name_H-M   'P 1'
_cell_length_a   6.57655248
_cell_length_b   6.57655248
_cell_length_c   7.57283522
_cell_angle_alpha   66.89473184
_cell_angle_beta   113.10526816
_cell_angle_gamma   133.25440849
_symmetry_Int_Tables_number   1
_chemical_formula_structural   Yb2TiO5
_chemical_formula_sum   'Yb4 Ti2 O10'
_cell_volume   215.65117556
_cell_formula_units_Z   2
loop_
 _symmetry_equiv_pos_site_id
 _symmetry_equiv_pos_as_xyz
  1  'x, y, z'
loop_
 _atom_site_type_symbol
 _atom_site_label
 _atom_site_symmetry_multiplicity
 _atom_site_fract_x
 _atom_site_fract_y
 _atom_site_fract_z
 _atom_site_occupancy
  Yb  Yb0  1  0.369821  0.648829  0.229722  1
  Yb  Yb1  1  0.351171  0.630179  0.729722  1
  Yb  Yb2  1  0.646601  0.371235  0.270479  1
  Yb  Yb3  1  0.628765  0.353399  0.770479  1
  Ti  Ti4  1  0.003385  0.000882  0.498234  1
  Ti  Ti5  1  0.999118  0.996615  0.998234  1
  O  O6  1  0.265982  0.392971  0.032985  1
  O  O7  1  0.607029  0.734018  0.532985  1
  O  O8  1  0.969933  0.299909  0.377281  1
  O  O9  1  0.302082  0.974128  0.123987  1
  O  O10  1  0.700091  0.030067  0.877281  1
  O  O11  1  0.025872  0.697918  0.623987  1
  O  O12  1  0.394623  0.274043  0.464987  1
  O  O13  1  0.856380  0.859387  0.247458  1
  O  O14  1  0.725957  0.605377  0.964987  1
  O  O15  1  0.140613  0.143620  0.747458  1
