# generated using pymatgen
data_Li3MnPO5
_symmetry_space_group_name_H-M   'P 1'
_cell_length_a   5.03864903
_cell_length_b   5.50723994
_cell_length_c   16.03113128
_cell_angle_alpha   90.00000000
_cell_angle_beta   90.00000000
_cell_angle_gamma   90.00000000
_symmetry_Int_Tables_number   1
_chemical_formula_structural   Li3MnPO5
_chemical_formula_sum   'Li12 Mn4 P4 O20'
_cell_volume   444.84865033
_cell_formula_units_Z   4
loop_
 _symmetry_equiv_pos_site_id
 _symmetry_equiv_pos_as_xyz
  1  'x, y, z'
loop_
 _atom_site_type_symbol
 _atom_site_label
 _atom_site_symmetry_multiplicity
 _atom_site_fract_x
 _atom_site_fract_y
 _atom_site_fract_z
 _atom_site_occupancy
  Li  Li0  1  0.008115  0.662284  0.593682  1
  Li  Li1  1  0.008115  0.162284  0.906318  1
  Li  Li2  1  0.007997  0.670303  0.004520  1
  Li  Li3  1  0.007997  0.170303  0.495480  1
  Li  Li4  1  0.483205  0.327247  0.803977  1
  Li  Li5  1  0.483205  0.827247  0.696023  1
  Li  Li6  1  0.508115  0.337716  0.406318  1
  Li  Li7  1  0.508115  0.837716  0.093682  1
  Li  Li8  1  0.507997  0.329697  0.995480  1
  Li  Li9  1  0.507997  0.829697  0.504520  1
  Li  Li10  1  0.983205  0.172753  0.303977  1
  Li  Li11  1  0.983205  0.672753  0.196023  1
  Mn  Mn12  1  0.008694  0.172999  0.700265  1
  Mn  Mn13  1  0.008694  0.672999  0.799735  1
  Mn  Mn14  1  0.508694  0.327001  0.200265  1
  Mn  Mn15  1  0.508694  0.827001  0.299735  1
  P  P16  1  0.000972  0.164584  0.096811  1
  P  P17  1  0.000972  0.664584  0.403189  1
  P  P18  1  0.500972  0.335416  0.596811  1
  P  P19  1  0.500972  0.835416  0.903189  1
  O  O20  1  0.103667  0.324074  0.809194  1
  O  O21  1  0.103667  0.824074  0.690806  1
  O  O22  1  0.112601  0.310670  0.021317  1
  O  O23  1  0.112601  0.810670  0.478683  1
  O  O24  1  0.104596  0.399345  0.402283  1
  O  O25  1  0.104596  0.899345  0.097717  1
  O  O26  1  0.083477  0.294192  0.180451  1
  O  O27  1  0.083477  0.794192  0.319549  1
  O  O28  1  0.190476  0.333809  0.591376  1
  O  O29  1  0.190476  0.833809  0.908624  1
  O  O30  1  0.603667  0.675926  0.190806  1
  O  O31  1  0.603667  0.175926  0.309194  1
  O  O32  1  0.612601  0.189330  0.521317  1
  O  O33  1  0.612601  0.689330  0.978683  1
  O  O34  1  0.604596  0.100655  0.902283  1
  O  O35  1  0.604596  0.600655  0.597717  1
  O  O36  1  0.583477  0.205808  0.680451  1
  O  O37  1  0.583477  0.705808  0.819549  1
  O  O38  1  0.690476  0.166191  0.091376  1
  O  O39  1  0.690476  0.666191  0.408624  1
