# generated using pymatgen
data_Li2V3P5O18
_symmetry_space_group_name_H-M   'P 1'
_cell_length_a   13.21091754
_cell_length_b   13.21091754
_cell_length_c   12.68615693
_cell_angle_alpha   87.93513936
_cell_angle_beta   92.06486064
_cell_angle_gamma   158.76032987
_symmetry_Int_Tables_number   1
_chemical_formula_structural   Li2V3P5O18
_chemical_formula_sum   'Li4 V6 P10 O36'
_cell_volume   801.56067575
_cell_formula_units_Z   2
loop_
 _symmetry_equiv_pos_site_id
 _symmetry_equiv_pos_as_xyz
  1  'x, y, z'
loop_
 _atom_site_type_symbol
 _atom_site_label
 _atom_site_symmetry_multiplicity
 _atom_site_fract_x
 _atom_site_fract_y
 _atom_site_fract_z
 _atom_site_occupancy
  Li  Li0  1  0.477078  0.809189  0.632881  1
  Li  Li1  1  0.190811  0.522922  0.132881  1
  Li  Li2  1  0.809189  0.477078  0.867119  1
  Li  Li3  1  0.522922  0.190811  0.367119  1
  V  V4  1  0.845319  0.239279  0.878712  1
  V  V5  1  0.760721  0.154681  0.378712  1
  V  V6  1  0.239279  0.845319  0.621288  1
  V  V7  1  0.154681  0.760721  0.121288  1
  V  V8  1  0.500000  0.500000  0.000000  1
  V  V9  1  0.500000  0.500000  0.500000  1
  P  P10  1  0.936501  0.072832  0.904671  1
  P  P11  1  0.927168  0.063499  0.404671  1
  P  P12  1  0.841835  0.296171  0.627177  1
  P  P13  1  0.703829  0.158165  0.127177  1
  P  P14  1  0.296171  0.841835  0.872823  1
  P  P15  1  0.158165  0.703829  0.372823  1
  P  P16  1  0.072832  0.936501  0.595329  1
  P  P17  1  0.063499  0.927168  0.095329  1
  P  P18  1  0.269346  0.269346  0.750000  1
  P  P19  1  0.730654  0.730654  0.250000  1
  O  O20  1  0.401291  0.447553  0.656154  1
  O  O21  1  0.783264  0.871306  0.493255  1
  O  O22  1  0.552447  0.598709  0.156154  1
  O  O23  1  0.017039  0.102298  0.791467  1
  O  O24  1  0.128694  0.216736  0.993255  1
  O  O25  1  0.897702  0.982961  0.291467  1
  O  O26  1  0.639357  0.764443  0.929760  1
  O  O27  1  0.235557  0.360643  0.429760  1
  O  O28  1  0.971648  0.220045  0.883054  1
  O  O29  1  0.779955  0.028352  0.383054  1
  O  O30  1  0.751473  0.143497  0.536476  1
  O  O31  1  0.764943  0.156008  0.725306  1
  O  O32  1  0.856503  0.248527  0.036476  1
  O  O33  1  0.843992  0.235057  0.225306  1
  O  O34  1  0.247165  0.680556  0.874338  1
  O  O35  1  0.161185  0.617223  0.622762  1
  O  O36  1  0.319444  0.752835  0.374338  1
  O  O37  1  0.382777  0.838815  0.122762  1
  O  O38  1  0.617223  0.161185  0.877238  1
  O  O39  1  0.680556  0.247165  0.625662  1
  O  O40  1  0.838815  0.382777  0.377238  1
  O  O41  1  0.752835  0.319444  0.125662  1
  O  O42  1  0.156008  0.764943  0.774694  1
  O  O43  1  0.143497  0.751473  0.963524  1
  O  O44  1  0.235057  0.843992  0.274694  1
  O  O45  1  0.248527  0.856503  0.463524  1
  O  O46  1  0.220045  0.971648  0.616946  1
  O  O47  1  0.028352  0.779955  0.116946  1
  O  O48  1  0.764443  0.639357  0.570240  1
  O  O49  1  0.360643  0.235557  0.070240  1
  O  O50  1  0.102298  0.017039  0.708533  1
  O  O51  1  0.871306  0.783264  0.006745  1
  O  O52  1  0.982961  0.897702  0.208533  1
  O  O53  1  0.447553  0.401291  0.843846  1
  O  O54  1  0.216736  0.128694  0.506745  1
  O  O55  1  0.598709  0.552447  0.343846  1
