# generated using pymatgen
data_Li2Ti4VO8
_symmetry_space_group_name_H-M   'P 1'
_cell_length_a   5.94045647
_cell_length_b   5.94045647
_cell_length_c   5.92734300
_cell_angle_alpha   60.01743595
_cell_angle_beta   119.98256405
_cell_angle_gamma   120.79783789
_symmetry_Int_Tables_number   1
_chemical_formula_structural   Li2Ti4VO8
_chemical_formula_sum   'Li2 Ti4 V1 O8'
_cell_volume   147.03153887
_cell_formula_units_Z   1
loop_
 _symmetry_equiv_pos_site_id
 _symmetry_equiv_pos_as_xyz
  1  'x, y, z'
loop_
 _atom_site_type_symbol
 _atom_site_label
 _atom_site_symmetry_multiplicity
 _atom_site_fract_x
 _atom_site_fract_y
 _atom_site_fract_z
 _atom_site_occupancy
  Li  Li0  1  0.500000  0.000000  0.500000  1
  Li  Li1  1  0.000000  0.500000  0.500000  1
  Ti  Ti2  1  0.000000  0.000000  0.000000  1
  Ti  Ti3  1  0.000000  0.500000  0.000000  1
  Ti  Ti4  1  0.500000  0.000000  0.000000  1
  Ti  Ti5  1  0.500000  0.500000  0.500000  1
  V  V6  1  0.500000  0.500000  0.000000  1
  O  O7  1  0.750439  0.747740  0.751704  1
  O  O8  1  0.744284  0.255716  0.222681  1
  O  O9  1  0.249614  0.750386  0.255217  1
  O  O10  1  0.252260  0.249561  0.751704  1
  O  O11  1  0.747740  0.750439  0.248296  1
  O  O12  1  0.750386  0.249614  0.744783  1
  O  O13  1  0.255716  0.744284  0.777319  1
  O  O14  1  0.249561  0.252260  0.248296  1
