# generated using pymatgen
data_SrLiLa3MnO8
_symmetry_space_group_name_H-M   'P 1'
_cell_length_a   6.90485662
_cell_length_b   6.90485662
_cell_length_c   10.88719669
_cell_angle_alpha   90.00000000
_cell_angle_beta   90.00000000
_cell_angle_gamma   133.64077940
_symmetry_Int_Tables_number   1
_chemical_formula_structural   SrLiLa3MnO8
_chemical_formula_sum   'Sr2 Li2 La6 Mn2 O16'
_cell_volume   375.64056109
_cell_formula_units_Z   2
loop_
 _symmetry_equiv_pos_site_id
 _symmetry_equiv_pos_as_xyz
  1  'x, y, z'
loop_
 _atom_site_type_symbol
 _atom_site_label
 _atom_site_symmetry_multiplicity
 _atom_site_fract_x
 _atom_site_fract_y
 _atom_site_fract_z
 _atom_site_occupancy
  Sr  Sr0  1  0.360035  0.639965  0.750000  1
  Sr  Sr1  1  0.639965  0.360035  0.250000  1
  Li  Li2  1  0.500000  0.500000  0.000000  1
  Li  Li3  1  0.500000  0.500000  0.500000  1
  La  La4  1  0.137697  0.862303  0.002367  1
  La  La5  1  0.634992  0.365008  0.750000  1
  La  La6  1  0.862303  0.137697  0.997633  1
  La  La7  1  0.365008  0.634992  0.250000  1
  La  La8  1  0.137697  0.862303  0.497633  1
  La  La9  1  0.862303  0.137697  0.502367  1
  Mn  Mn10  1  0.999433  0.000567  0.750000  1
  Mn  Mn11  1  0.000567  0.999433  0.250000  1
  O  O12  1  0.756876  0.754246  0.872357  1
  O  O13  1  0.158688  0.841313  0.750000  1
  O  O14  1  0.317122  0.682878  0.014141  1
  O  O15  1  0.754246  0.756876  0.127643  1
  O  O16  1  0.838124  0.161876  0.750000  1
  O  O17  1  0.245754  0.243124  0.872357  1
  O  O18  1  0.243124  0.245754  0.127643  1
  O  O19  1  0.682878  0.317122  0.985859  1
  O  O20  1  0.161876  0.838124  0.250000  1
  O  O21  1  0.754246  0.756876  0.372357  1
  O  O22  1  0.317122  0.682878  0.485859  1
  O  O23  1  0.841313  0.158687  0.250000  1
  O  O24  1  0.243124  0.245754  0.372357  1
  O  O25  1  0.756876  0.754246  0.627643  1
  O  O26  1  0.682878  0.317122  0.514141  1
  O  O27  1  0.245754  0.243124  0.627643  1
