# generated using pymatgen
data_SbHC2NCl11
_symmetry_space_group_name_H-M   'P 1'
_cell_length_a   11.42278422
_cell_length_b   10.47163267
_cell_length_c   16.02438634
_cell_angle_alpha   90.00000000
_cell_angle_beta   116.86811132
_cell_angle_gamma   90.00000000
_symmetry_Int_Tables_number   1
_chemical_formula_structural   SbHC2NCl11
_chemical_formula_sum   'Sb4 H4 C8 N4 Cl44'
_cell_volume   1709.84438708
_cell_formula_units_Z   4
loop_
 _symmetry_equiv_pos_site_id
 _symmetry_equiv_pos_as_xyz
  1  'x, y, z'
loop_
 _atom_site_type_symbol
 _atom_site_label
 _atom_site_symmetry_multiplicity
 _atom_site_fract_x
 _atom_site_fract_y
 _atom_site_fract_z
 _atom_site_occupancy
  Sb  Sb0  1  0.295362  0.286640  0.302893  1
  Sb  Sb1  1  0.295362  0.213360  0.802893  1
  Sb  Sb2  1  0.704638  0.713360  0.697107  1
  Sb  Sb3  1  0.704638  0.786640  0.197107  1
  H  H4  1  0.631044  0.183197  0.318642  1
  H  H5  1  0.631044  0.316803  0.818642  1
  H  H6  1  0.368956  0.816803  0.681358  1
  H  H7  1  0.368956  0.683197  0.181358  1
  C  C8  1  0.823452  0.239459  0.421750  1
  C  C9  1  0.823452  0.260541  0.921750  1
  C  C10  1  0.176548  0.760541  0.578250  1
  C  C11  1  0.176548  0.739459  0.078250  1
  C  C12  1  0.716237  0.269363  0.246856  1
  C  C13  1  0.716237  0.230637  0.746856  1
  C  C14  1  0.283763  0.730637  0.753144  1
  C  C15  1  0.283763  0.769363  0.253144  1
  N  N16  1  0.716207  0.227716  0.324152  1
  N  N17  1  0.716207  0.272284  0.824152  1
  N  N18  1  0.283793  0.772284  0.675848  1
  N  N19  1  0.283793  0.727716  0.175848  1
  Cl  Cl20  1  0.420545  0.107390  0.285121  1
  Cl  Cl21  1  0.420545  0.392610  0.785121  1
  Cl  Cl22  1  0.579455  0.892610  0.714879  1
  Cl  Cl23  1  0.579455  0.607390  0.214879  1
  Cl  Cl24  1  0.173449  0.463058  0.320365  1
  Cl  Cl25  1  0.173449  0.036942  0.820365  1
  Cl  Cl26  1  0.826551  0.536942  0.679635  1
  Cl  Cl27  1  0.826551  0.963058  0.179635  1
  Cl  Cl28  1  0.296625  0.386030  0.167664  1
  Cl  Cl29  1  0.296625  0.113970  0.667664  1
  Cl  Cl30  1  0.703375  0.613970  0.832336  1
  Cl  Cl31  1  0.703375  0.886030  0.332336  1
  Cl  Cl32  1  0.497921  0.391888  0.402440  1
  Cl  Cl33  1  0.497921  0.108112  0.902440  1
  Cl  Cl34  1  0.502079  0.608112  0.597560  1
  Cl  Cl35  1  0.502079  0.891888  0.097560  1
  Cl  Cl36  1  0.096123  0.177173  0.202393  1
  Cl  Cl37  1  0.096123  0.322827  0.702393  1
  Cl  Cl38  1  0.903877  0.822827  0.797607  1
  Cl  Cl39  1  0.903877  0.677173  0.297607  1
  Cl  Cl40  1  0.296380  0.178168  0.435862  1
  Cl  Cl41  1  0.296380  0.321832  0.935862  1
  Cl  Cl42  1  0.703620  0.821832  0.564138  1
  Cl  Cl43  1  0.703620  0.678168  0.064138  1
  Cl  Cl44  1  0.971593  0.173182  0.431680  1
  Cl  Cl45  1  0.971593  0.326818  0.931680  1
  Cl  Cl46  1  0.028407  0.826818  0.568320  1
  Cl  Cl47  1  0.028407  0.673182  0.068320  1
  Cl  Cl48  1  0.844661  0.402991  0.454404  1
  Cl  Cl49  1  0.844661  0.097009  0.954404  1
  Cl  Cl50  1  0.155339  0.597009  0.545596  1
  Cl  Cl51  1  0.155339  0.902991  0.045596  1
  Cl  Cl52  1  0.768565  0.151345  0.491913  1
  Cl  Cl53  1  0.768565  0.348655  0.991913  1
  Cl  Cl54  1  0.231435  0.848655  0.508087  1
  Cl  Cl55  1  0.231435  0.651345  0.008087  1
  Cl  Cl56  1  0.583261  0.245227  0.144877  1
  Cl  Cl57  1  0.583261  0.254773  0.644877  1
  Cl  Cl58  1  0.416739  0.754773  0.855123  1
  Cl  Cl59  1  0.416739  0.745227  0.355123  1
  Cl  Cl60  1  0.843475  0.346065  0.246140  1
  Cl  Cl61  1  0.843475  0.153935  0.746140  1
  Cl  Cl62  1  0.156525  0.653935  0.753860  1
  Cl  Cl63  1  0.156525  0.846065  0.253860  1
