# generated using pymatgen
data_Li4Nb3Cu3(TeO8)2
_symmetry_space_group_name_H-M   'P 1'
_cell_length_a   6.24015408
_cell_length_b   6.24015408
_cell_length_c   10.58476404
_cell_angle_alpha   89.33619042
_cell_angle_beta   90.66380958
_cell_angle_gamma   121.52071444
_symmetry_Int_Tables_number   1
_chemical_formula_structural   Li4Nb3Cu3(TeO8)2
_chemical_formula_sum   'Li4 Nb3 Cu3 Te2 O16'
_cell_volume   351.32014661
_cell_formula_units_Z   1
loop_
 _symmetry_equiv_pos_site_id
 _symmetry_equiv_pos_as_xyz
  1  'x, y, z'
loop_
 _atom_site_type_symbol
 _atom_site_label
 _atom_site_symmetry_multiplicity
 _atom_site_fract_x
 _atom_site_fract_y
 _atom_site_fract_z
 _atom_site_occupancy
  Li  Li0  1  0.665914  0.334086  0.095095  1
  Li  Li1  1  0.000628  0.999372  0.999475  1
  Li  Li2  1  0.007667  0.992333  0.522007  1
  Li  Li3  1  0.342055  0.657945  0.599123  1
  Nb  Nb4  1  0.819377  0.180623  0.763848  1
  Nb  Nb5  1  0.657102  0.841478  0.281144  1
  Nb  Nb6  1  0.158522  0.342898  0.281144  1
  Cu  Cu7  1  0.827969  0.662365  0.788498  1
  Cu  Cu8  1  0.337635  0.172031  0.788498  1
  Cu  Cu9  1  0.167086  0.832914  0.279669  1
  Te  Te10  1  0.638682  0.361318  0.507569  1
  Te  Te11  1  0.325517  0.674483  0.983107  1
  O  O12  1  0.811981  0.683868  0.415008  1
  O  O13  1  0.522243  0.477757  0.644344  1
  O  O14  1  0.669470  0.330530  0.880302  1
  O  O15  1  0.998780  0.001220  0.710034  1
  O  O16  1  0.001071  0.998929  0.188777  1
  O  O17  1  0.316132  0.188019  0.415008  1
  O  O18  1  0.994609  0.463370  0.659053  1
  O  O19  1  0.536630  0.005391  0.659053  1
  O  O20  1  0.163614  0.836386  0.904918  1
  O  O21  1  0.860335  0.139665  0.392025  1
  O  O22  1  0.527106  0.991619  0.177545  1
  O  O23  1  0.008381  0.472894  0.177545  1
  O  O24  1  0.343705  0.656295  0.389999  1
  O  O25  1  0.655434  0.848472  0.902148  1
  O  O26  1  0.491153  0.508847  0.185043  1
  O  O27  1  0.151528  0.344566  0.902148  1
