# generated using pymatgen
data_Ca2Y2Si4H2CO16
_symmetry_space_group_name_H-M   'P 1'
_cell_length_a   6.82682556
_cell_length_b   13.13378420
_cell_length_c   14.43735126
_cell_angle_alpha   90.00000000
_cell_angle_beta   90.00000000
_cell_angle_gamma   90.00000000
_symmetry_Int_Tables_number   1
_chemical_formula_structural   Ca2Y2Si4H2CO16
_chemical_formula_sum   'Ca8 Y8 Si16 H8 C4 O64'
_cell_volume   1294.48256361
_cell_formula_units_Z   4
loop_
 _symmetry_equiv_pos_site_id
 _symmetry_equiv_pos_as_xyz
  1  'x, y, z'
loop_
 _atom_site_type_symbol
 _atom_site_label
 _atom_site_symmetry_multiplicity
 _atom_site_fract_x
 _atom_site_fract_y
 _atom_site_fract_z
 _atom_site_occupancy
  Ca  Ca0  1  0.197228  0.078570  0.048239  1
  Ca  Ca1  1  0.302772  0.421430  0.548239  1
  Ca  Ca2  1  0.802772  0.578569  0.951761  1
  Ca  Ca3  1  0.697228  0.921431  0.451761  1
  Ca  Ca4  1  0.802772  0.921431  0.951761  1
  Ca  Ca5  1  0.697228  0.578569  0.451761  1
  Ca  Ca6  1  0.197228  0.421430  0.048239  1
  Ca  Ca7  1  0.302772  0.078570  0.548239  1
  Y  Y8  1  0.388573  0.056902  0.280109  1
  Y  Y9  1  0.111427  0.443098  0.780109  1
  Y  Y10  1  0.611427  0.556902  0.719891  1
  Y  Y11  1  0.888573  0.943098  0.219891  1
  Y  Y12  1  0.611427  0.943098  0.719891  1
  Y  Y13  1  0.888573  0.556902  0.219891  1
  Y  Y14  1  0.388573  0.443098  0.280109  1
  Y  Y15  1  0.111427  0.056902  0.780109  1
  Si  Si16  1  0.888564  0.130413  0.353113  1
  Si  Si17  1  0.611436  0.369587  0.853113  1
  Si  Si18  1  0.111436  0.630413  0.646887  1
  Si  Si19  1  0.388564  0.869587  0.146887  1
  Si  Si20  1  0.111436  0.869587  0.646887  1
  Si  Si21  1  0.388564  0.630413  0.146887  1
  Si  Si22  1  0.888564  0.369587  0.353113  1
  Si  Si23  1  0.611436  0.130413  0.853113  1
  Si  Si24  1  0.660377  0.130930  0.069644  1
  Si  Si25  1  0.839623  0.369070  0.569644  1
  Si  Si26  1  0.339623  0.630930  0.930356  1
  Si  Si27  1  0.160377  0.869070  0.430356  1
  Si  Si28  1  0.339623  0.869070  0.930356  1
  Si  Si29  1  0.160377  0.630930  0.430356  1
  Si  Si30  1  0.660377  0.369070  0.069644  1
  Si  Si31  1  0.839623  0.130930  0.569644  1
  H  H32  1  0.179972  0.250000  0.183590  1
  H  H33  1  0.320028  0.250000  0.683590  1
  H  H34  1  0.820028  0.750000  0.816410  1
  H  H35  1  0.679972  0.750000  0.316410  1
  H  H36  1  0.985968  0.250000  0.121309  1
  H  H37  1  0.514032  0.250000  0.621309  1
  H  H38  1  0.014032  0.750000  0.878691  1
  H  H39  1  0.485968  0.750000  0.378691  1
  C  C40  1  0.383378  0.250000  0.374682  1
  C  C41  1  0.116622  0.250000  0.874682  1
  C  C42  1  0.616622  0.750000  0.625318  1
  C  C43  1  0.883378  0.750000  0.125318  1
  O  O44  1  0.942275  0.114498  0.464844  1
  O  O45  1  0.557725  0.385502  0.964844  1
  O  O46  1  0.057725  0.614498  0.535156  1
  O  O47  1  0.442275  0.885502  0.035156  1
  O  O48  1  0.057725  0.885502  0.535156  1
  O  O49  1  0.442275  0.614498  0.035156  1
  O  O50  1  0.942275  0.385502  0.464844  1
  O  O51  1  0.557725  0.114498  0.964844  1
  O  O52  1  0.706344  0.053311  0.329442  1
  O  O53  1  0.793656  0.446689  0.829442  1
  O  O54  1  0.293656  0.553311  0.670558  1
  O  O55  1  0.206344  0.946689  0.170558  1
  O  O56  1  0.293656  0.946689  0.670558  1
  O  O57  1  0.206344  0.553311  0.170558  1
  O  O58  1  0.706344  0.446689  0.329442  1
  O  O59  1  0.793656  0.053311  0.829442  1
  O  O60  1  0.062235  0.093694  0.284476  1
  O  O61  1  0.437765  0.406306  0.784476  1
  O  O62  1  0.937765  0.593694  0.715524  1
  O  O63  1  0.562235  0.906306  0.215524  1
  O  O64  1  0.937765  0.906306  0.715524  1
  O  O65  1  0.562235  0.593694  0.215524  1
  O  O66  1  0.062235  0.406306  0.284476  1
  O  O67  1  0.437765  0.093694  0.784476  1
  O  O68  1  0.828873  0.250000  0.338184  1
  O  O69  1  0.671127  0.250000  0.838184  1
  O  O70  1  0.171127  0.750000  0.661816  1
  O  O71  1  0.328873  0.750000  0.161816  1
  O  O72  1  0.846121  0.053071  0.080886  1
  O  O73  1  0.653879  0.446929  0.580886  1
  O  O74  1  0.153879  0.553071  0.919114  1
  O  O75  1  0.346121  0.946929  0.419114  1
  O  O76  1  0.153879  0.946929  0.919114  1
  O  O77  1  0.346121  0.553071  0.419114  1
  O  O78  1  0.846121  0.446929  0.080886  1
  O  O79  1  0.653879  0.053071  0.580886  1
  O  O80  1  0.477869  0.110211  0.137792  1
  O  O81  1  0.022131  0.389789  0.637792  1
  O  O82  1  0.522131  0.610211  0.862208  1
  O  O83  1  0.977869  0.889789  0.362208  1
  O  O84  1  0.522131  0.889789  0.862208  1
  O  O85  1  0.977869  0.610211  0.362208  1
  O  O86  1  0.477869  0.389789  0.137792  1
  O  O87  1  0.022131  0.110211  0.637792  1
  O  O88  1  0.744103  0.250000  0.076733  1
  O  O89  1  0.755897  0.250000  0.576733  1
  O  O90  1  0.255897  0.750000  0.923267  1
  O  O91  1  0.244103  0.750000  0.423267  1
  O  O92  1  0.383319  0.163836  0.417375  1
  O  O93  1  0.116681  0.336164  0.917375  1
  O  O94  1  0.616681  0.663836  0.582625  1
  O  O95  1  0.883319  0.836164  0.082625  1
  O  O96  1  0.616681  0.836164  0.582625  1
  O  O97  1  0.883319  0.663836  0.082625  1
  O  O98  1  0.383319  0.336164  0.417375  1
  O  O99  1  0.116681  0.163836  0.917375  1
  O  O100  1  0.385588  0.250000  0.284878  1
  O  O101  1  0.114412  0.250000  0.784878  1
  O  O102  1  0.614412  0.750000  0.715122  1
  O  O103  1  0.885588  0.750000  0.215122  1
  O  O104  1  0.131433  0.250000  0.119296  1
  O  O105  1  0.368567  0.250000  0.619296  1
  O  O106  1  0.868567  0.750000  0.880704  1
  O  O107  1  0.631433  0.750000  0.380704  1
