# generated using pymatgen
data_Li3Cr(NiO3)2
_symmetry_space_group_name_H-M   'P 1'
_cell_length_a   6.59555171
_cell_length_b   6.59555171
_cell_length_c   5.80755614
_cell_angle_alpha   77.43690717
_cell_angle_beta   102.56309283
_cell_angle_gamma   154.64960765
_symmetry_Int_Tables_number   1
_chemical_formula_structural   Li3Cr(NiO3)2
_chemical_formula_sum   'Li3 Cr1 Ni2 O6'
_cell_volume   105.44441062
_cell_formula_units_Z   1
loop_
 _symmetry_equiv_pos_site_id
 _symmetry_equiv_pos_as_xyz
  1  'x, y, z'
loop_
 _atom_site_type_symbol
 _atom_site_label
 _atom_site_symmetry_multiplicity
 _atom_site_fract_x
 _atom_site_fract_y
 _atom_site_fract_z
 _atom_site_occupancy
  Li  Li0  1  0.500000  0.500000  0.500000  1
  Li  Li1  1  0.168744  0.831256  0.826458  1
  Li  Li2  1  0.831256  0.168744  0.173542  1
  Cr  Cr3  1  0.500000  0.500000  0.000000  1
  Ni  Ni4  1  0.166247  0.833753  0.336854  1
  Ni  Ni5  1  0.833753  0.166247  0.663146  1
  O  O6  1  0.658036  0.341964  0.096166  1
  O  O7  1  0.331283  0.668717  0.432871  1
  O  O8  1  0.341964  0.658036  0.903834  1
  O  O9  1  0.001917  0.998083  0.768259  1
  O  O10  1  0.998083  0.001917  0.231741  1
  O  O11  1  0.668717  0.331283  0.567129  1
