# generated using pymatgen
data_Na6Cr2B4PO16
_symmetry_space_group_name_H-M   'P 1'
_cell_length_a   9.90810540
_cell_length_b   9.90810540
_cell_length_c   9.90810540
_cell_angle_alpha   60.00000000
_cell_angle_beta   60.00000000
_cell_angle_gamma   60.00000000
_symmetry_Int_Tables_number   1
_chemical_formula_structural   Na6Cr2B4PO16
_chemical_formula_sum   'Na12 Cr4 B8 P2 O32'
_cell_volume   687.79158244
_cell_formula_units_Z   2
loop_
 _symmetry_equiv_pos_site_id
 _symmetry_equiv_pos_as_xyz
  1  'x, y, z'
loop_
 _atom_site_type_symbol
 _atom_site_label
 _atom_site_symmetry_multiplicity
 _atom_site_fract_x
 _atom_site_fract_y
 _atom_site_fract_z
 _atom_site_occupancy
  Na  Na0  1  0.963362  0.963362  0.536638  1
  Na  Na1  1  0.536638  0.963362  0.536638  1
  Na  Na2  1  0.536638  0.963362  0.963362  1
  Na  Na3  1  0.963362  0.536638  0.536638  1
  Na  Na4  1  0.713362  0.713362  0.286638  1
  Na  Na5  1  0.286638  0.713362  0.286638  1
  Na  Na6  1  0.963362  0.536638  0.963362  1
  Na  Na7  1  0.536638  0.536638  0.963362  1
  Na  Na8  1  0.286638  0.713362  0.713362  1
  Na  Na9  1  0.713362  0.286638  0.286638  1
  Na  Na10  1  0.286638  0.286638  0.713362  1
  Na  Na11  1  0.713362  0.286638  0.713362  1
  Cr  Cr12  1  0.125000  0.125000  0.625000  1
  Cr  Cr13  1  0.625000  0.125000  0.125000  1
  Cr  Cr14  1  0.125000  0.125000  0.125000  1
  Cr  Cr15  1  0.125000  0.625000  0.125000  1
  B  B16  1  0.335900  0.992299  0.335900  1
  B  B17  1  0.335900  0.335900  0.335900  1
  B  B18  1  0.992299  0.335900  0.335900  1
  B  B19  1  0.335900  0.335900  0.992299  1
  B  B20  1  0.914100  0.914100  0.257701  1
  B  B21  1  0.257701  0.914100  0.914100  1
  B  B22  1  0.914100  0.914100  0.914100  1
  B  B23  1  0.914100  0.257701  0.914100  1
  P  P24  1  0.500000  0.500000  0.500000  1
  P  P25  1  0.750000  0.750000  0.750000  1
  O  O26  1  0.564114  0.307659  0.564114  1
  O  O27  1  0.564114  0.564114  0.564114  1
  O  O28  1  0.307659  0.564114  0.564114  1
  O  O29  1  0.564114  0.564114  0.307659  1
  O  O30  1  0.219500  0.986549  0.491505  1
  O  O31  1  0.491505  0.986549  0.302446  1
  O  O32  1  0.302446  0.219500  0.491505  1
  O  O33  1  0.302446  0.986549  0.219500  1
  O  O34  1  0.986549  0.302446  0.491505  1
  O  O35  1  0.986549  0.219500  0.302446  1
  O  O36  1  0.491505  0.302446  0.219500  1
  O  O37  1  0.219500  0.491505  0.302446  1
  O  O38  1  0.491505  0.219500  0.986549  1
  O  O39  1  0.986549  0.491505  0.219500  1
  O  O40  1  0.219500  0.302446  0.986549  1
  O  O41  1  0.947554  0.758495  0.263451  1
  O  O42  1  0.302446  0.491505  0.986549  1
  O  O43  1  0.030500  0.947554  0.263451  1
  O  O44  1  0.263451  0.758495  0.030500  1
  O  O45  1  0.758495  0.030500  0.263451  1
  O  O46  1  0.030500  0.758495  0.947554  1
  O  O47  1  0.758495  0.947554  0.030500  1
  O  O48  1  0.263451  0.030500  0.947554  1
  O  O49  1  0.263451  0.947554  0.758495  1
  O  O50  1  0.947554  0.263451  0.030500  1
  O  O51  1  0.947554  0.030500  0.758495  1
  O  O52  1  0.758495  0.263451  0.947554  1
  O  O53  1  0.030500  0.263451  0.758495  1
  O  O54  1  0.685886  0.685886  0.942341  1
  O  O55  1  0.685886  0.685886  0.685886  1
  O  O56  1  0.942341  0.685886  0.685886  1
  O  O57  1  0.685886  0.942341  0.685886  1
