# generated using pymatgen
data_H13S2N3O8
_symmetry_space_group_name_H-M   'P 1'
_cell_length_a   8.41557714
_cell_length_b   10.19874655
_cell_length_c   11.71566360
_cell_angle_alpha   90.00655532
_cell_angle_beta   110.17837835
_cell_angle_gamma   100.52704633
_symmetry_Int_Tables_number   1
_chemical_formula_structural   H13S2N3O8
_chemical_formula_sum   'H52 S8 N12 O32'
_cell_volume   925.75955370
_cell_formula_units_Z   4
loop_
 _symmetry_equiv_pos_site_id
 _symmetry_equiv_pos_as_xyz
  1  'x, y, z'
loop_
 _atom_site_type_symbol
 _atom_site_label
 _atom_site_symmetry_multiplicity
 _atom_site_fract_x
 _atom_site_fract_y
 _atom_site_fract_z
 _atom_site_occupancy
  H  H0  1  0.146161  0.874652  0.938983  1
  H  H1  1  0.152920  0.431793  0.845064  1
  H  H2  1  0.130987  0.934316  0.575695  1
  H  H3  1  0.141839  0.265939  0.816931  1
  H  H4  1  0.119107  0.370443  0.701631  1
  H  H5  1  0.137362  0.767928  0.562604  1
  H  H6  1  0.033388  0.170462  0.530243  1
  H  H7  1  0.154514  0.868835  0.449516  1
  H  H8  1  0.037227  0.666772  0.234580  1
  H  H9  1  0.978014  0.340201  0.284509  1
  H  H10  1  0.394990  0.811688  0.849554  1
  H  H11  1  0.445198  0.672368  0.914511  1
  H  H12  1  0.132665  0.938569  0.070005  1
  H  H13  1  0.172184  0.436693  0.355803  1
  H  H14  1  0.155512  0.269957  0.327857  1
  H  H15  1  0.501698  0.992253  0.730776  1
  H  H16  1  0.123758  0.370824  0.210908  1
  H  H17  1  0.592811  0.816230  0.961486  1
  H  H18  1  0.156979  0.777832  0.060231  1
  H  H19  1  0.029437  0.179036  0.023774  1
  H  H20  1  0.547306  0.741536  0.821649  1
  H  H21  1  0.506249  0.500964  0.771995  1
  H  H22  1  0.391872  0.304191  0.610347  1
  H  H23  1  0.420233  0.690227  0.417641  1
  H  H24  1  0.433643  0.165169  0.561787  1
  H  H25  1  0.447977  0.766284  0.295937  1
  H  H26  1  0.552023  0.233716  0.704063  1
  H  H27  1  0.566357  0.834831  0.438213  1
  H  H28  1  0.579767  0.309773  0.582359  1
  H  H29  1  0.608128  0.695809  0.389653  1
  H  H30  1  0.493751  0.499036  0.228005  1
  H  H31  1  0.452694  0.258464  0.178351  1
  H  H32  1  0.970563  0.820964  0.976226  1
  H  H33  1  0.843021  0.222168  0.939769  1
  H  H34  1  0.407189  0.183770  0.038514  1
  H  H35  1  0.876242  0.629176  0.789092  1
  H  H36  1  0.498302  0.007747  0.269224  1
  H  H37  1  0.844488  0.730043  0.672143  1
  H  H38  1  0.827816  0.563307  0.644197  1
  H  H39  1  0.867335  0.061431  0.929995  1
  H  H40  1  0.554802  0.327632  0.085489  1
  H  H41  1  0.605010  0.188312  0.150446  1
  H  H42  1  0.021986  0.659799  0.715491  1
  H  H43  1  0.962773  0.333228  0.765420  1
  H  H44  1  0.845486  0.131165  0.550484  1
  H  H45  1  0.966612  0.829538  0.469757  1
  H  H46  1  0.862638  0.232072  0.437396  1
  H  H47  1  0.880893  0.629557  0.298369  1
  H  H48  1  0.858161  0.734061  0.183069  1
  H  H49  1  0.869013  0.065684  0.424305  1
  H  H50  1  0.847080  0.568207  0.154936  1
  H  H51  1  0.853839  0.125348  0.061017  1
  S  S52  1  0.282198  0.545888  0.588169  1
  S  S53  1  0.275901  0.043704  0.801425  1
  S  S54  1  0.268230  0.534545  0.079930  1
  S  S55  1  0.269344  0.034852  0.303099  1
  S  S56  1  0.730656  0.965148  0.696901  1
  S  S57  1  0.731770  0.465455  0.920070  1
  S  S58  1  0.724099  0.956296  0.198575  1
  S  S59  1  0.717802  0.454112  0.411831  1
  N  N60  1  0.093090  0.350232  0.781606  1
  N  N61  1  0.097950  0.849702  0.515386  1
  N  N62  1  0.106739  0.354028  0.294170  1
  N  N63  1  0.496407  0.760887  0.886383  1
  N  N64  1  0.101882  0.853372  0.011629  1
  N  N65  1  0.490348  0.253143  0.615490  1
  N  N66  1  0.509652  0.746857  0.384510  1
  N  N67  1  0.898118  0.146628  0.988371  1
  N  N68  1  0.503593  0.239113  0.113617  1
  N  N69  1  0.893261  0.645972  0.705830  1
  N  N70  1  0.902050  0.150298  0.484614  1
  N  N71  1  0.906910  0.649768  0.218394  1
  O  O72  1  0.211764  0.897909  0.810220  1
  O  O73  1  0.246381  0.579572  0.957154  1
  O  O74  1  0.200510  0.623245  0.652116  1
  O  O75  1  0.239943  0.125324  0.891901  1
  O  O76  1  0.208695  0.399207  0.581570  1
  O  O77  1  0.190806  0.082159  0.675836  1
  O  O78  1  0.207471  0.890657  0.305668  1
  O  O79  1  0.254842  0.590542  0.462983  1
  O  O80  1  0.527360  0.942546  0.662277  1
  O  O81  1  0.212928  0.623070  0.152454  1
  O  O82  1  0.530992  0.453811  0.856030  1
  O  O83  1  0.245375  0.115178  0.397989  1
  O  O84  1  0.473734  0.567275  0.659388  1
  O  O85  1  0.468019  0.065488  0.828808  1
  O  O86  1  0.187859  0.392941  0.078276  1
  O  O87  1  0.200003  0.083473  0.180767  1
  O  O88  1  0.799997  0.916527  0.819233  1
  O  O89  1  0.812141  0.607059  0.921724  1
  O  O90  1  0.531981  0.934512  0.171192  1
  O  O91  1  0.526266  0.432725  0.340612  1
  O  O92  1  0.754625  0.884822  0.602011  1
  O  O93  1  0.469008  0.546189  0.143970  1
  O  O94  1  0.787072  0.376930  0.847546  1
  O  O95  1  0.472640  0.057454  0.337723  1
  O  O96  1  0.745158  0.409458  0.537017  1
  O  O97  1  0.792529  0.109343  0.694332  1
  O  O98  1  0.809194  0.917841  0.324164  1
  O  O99  1  0.791305  0.600793  0.418430  1
  O  O100  1  0.760057  0.874676  0.108099  1
  O  O101  1  0.799490  0.376755  0.347884  1
  O  O102  1  0.753619  0.420428  0.042846  1
  O  O103  1  0.788236  0.102091  0.189780  1
