# generated using pymatgen
data_Lu(HO)3
_symmetry_space_group_name_H-M   'P 1'
_cell_length_a   10.41873201
_cell_length_b   6.07258234
_cell_length_c   14.43294091
_cell_angle_alpha   90.00000000
_cell_angle_beta   133.05396438
_cell_angle_gamma   90.00000000
_symmetry_Int_Tables_number   1
_chemical_formula_structural   Lu(HO)3
_chemical_formula_sum   'Lu8 H24 O24'
_cell_volume   667.25030045
_cell_formula_units_Z   8
loop_
 _symmetry_equiv_pos_site_id
 _symmetry_equiv_pos_as_xyz
  1  'x, y, z'
loop_
 _atom_site_type_symbol
 _atom_site_label
 _atom_site_symmetry_multiplicity
 _atom_site_fract_x
 _atom_site_fract_y
 _atom_site_fract_z
 _atom_site_occupancy
  Lu  Lu0  1  0.169732  0.534093  0.002003  1
  Lu  Lu1  1  0.663895  0.525488  0.497835  1
  Lu  Lu2  1  0.336105  0.025488  0.002165  1
  Lu  Lu3  1  0.830268  0.034093  0.497997  1
  Lu  Lu4  1  0.169732  0.965907  0.502003  1
  Lu  Lu5  1  0.663895  0.974512  0.997835  1
  Lu  Lu6  1  0.336105  0.474512  0.502165  1
  Lu  Lu7  1  0.830268  0.465907  0.997997  1
  H  H8  1  0.702013  0.370099  0.701268  1
  H  H9  1  0.920968  0.207003  0.886665  1
  H  H10  1  0.229942  0.148751  0.131143  1
  H  H11  1  0.698814  0.927739  0.606314  1
  H  H12  1  0.494997  0.224691  0.292107  1
  H  H13  1  0.986867  0.846020  0.800406  1
  H  H14  1  0.505003  0.724691  0.207893  1
  H  H15  1  0.013133  0.346020  0.699594  1
  H  H16  1  0.770058  0.648751  0.368857  1
  H  H17  1  0.301186  0.427739  0.893686  1
  H  H18  1  0.702013  0.129901  0.201268  1
  H  H19  1  0.079032  0.707003  0.613335  1
  H  H20  1  0.920968  0.292997  0.386665  1
  H  H21  1  0.297987  0.870099  0.798732  1
  H  H22  1  0.698814  0.572261  0.106314  1
  H  H23  1  0.229942  0.351249  0.631143  1
  H  H24  1  0.986867  0.653980  0.300406  1
  H  H25  1  0.494997  0.275309  0.792107  1
  H  H26  1  0.013133  0.153980  0.199594  1
  H  H27  1  0.505003  0.775309  0.707893  1
  H  H28  1  0.301186  0.072261  0.393686  1
  H  H29  1  0.770058  0.851249  0.868857  1
  H  H30  1  0.079032  0.792997  0.113335  1
  H  H31  1  0.297987  0.629901  0.298732  1
  O  O32  1  0.390549  0.614518  0.391088  1
  O  O33  1  0.909567  0.363176  0.893492  1
  O  O34  1  0.295004  0.221266  0.114132  1
  O  O35  1  0.776825  0.848869  0.602975  1
  O  O36  1  0.595401  0.230832  0.384385  1
  O  O37  1  0.080926  0.844561  0.893240  1
  O  O38  1  0.404599  0.730832  0.115615  1
  O  O39  1  0.704996  0.721266  0.385868  1
  O  O40  1  0.919074  0.344561  0.606760  1
  O  O41  1  0.223175  0.348869  0.897025  1
  O  O42  1  0.609451  0.114518  0.108912  1
  O  O43  1  0.090433  0.863176  0.606508  1
  O  O44  1  0.909567  0.136824  0.393492  1
  O  O45  1  0.390549  0.885482  0.891088  1
  O  O46  1  0.776825  0.651131  0.102975  1
  O  O47  1  0.080926  0.655439  0.393240  1
  O  O48  1  0.295004  0.278734  0.614132  1
  O  O49  1  0.595401  0.269168  0.884385  1
  O  O50  1  0.919074  0.155439  0.106760  1
  O  O51  1  0.404599  0.769168  0.615615  1
  O  O52  1  0.223175  0.151131  0.397025  1
  O  O53  1  0.704996  0.778734  0.885868  1
  O  O54  1  0.090433  0.636824  0.106508  1
  O  O55  1  0.609451  0.385482  0.608912  1
