# generated using pymatgen
data_TiGa2O5
_symmetry_space_group_name_H-M   'P 1'
_cell_length_a   5.29399417
_cell_length_b   5.29399417
_cell_length_c   10.08881249
_cell_angle_alpha   90.00000000
_cell_angle_beta   90.00000000
_cell_angle_gamma   139.54228082
_symmetry_Int_Tables_number   1
_chemical_formula_structural   TiGa2O5
_chemical_formula_sum   'Ti2 Ga4 O10'
_cell_volume   183.47456438
_cell_formula_units_Z   2
loop_
 _symmetry_equiv_pos_site_id
 _symmetry_equiv_pos_as_xyz
  1  'x, y, z'
loop_
 _atom_site_type_symbol
 _atom_site_label
 _atom_site_symmetry_multiplicity
 _atom_site_fract_x
 _atom_site_fract_y
 _atom_site_fract_z
 _atom_site_occupancy
  Ti  Ti0  1  0.820781  0.179219  0.750000  1
  Ti  Ti1  1  0.179219  0.820781  0.250000  1
  Ga  Ga2  1  0.863231  0.136769  0.440919  1
  Ga  Ga3  1  0.863231  0.136769  0.059081  1
  Ga  Ga4  1  0.136769  0.863231  0.940919  1
  Ga  Ga5  1  0.136769  0.863231  0.559081  1
  O  O6  1  0.952969  0.047031  0.880742  1
  O  O7  1  0.952969  0.047031  0.619258  1
  O  O8  1  0.307594  0.692406  0.075427  1
  O  O9  1  0.307594  0.692406  0.424573  1
  O  O10  1  0.751301  0.248699  0.250000  1
  O  O11  1  0.248699  0.751301  0.750000  1
  O  O12  1  0.692406  0.307594  0.924573  1
  O  O13  1  0.692406  0.307594  0.575427  1
  O  O14  1  0.047031  0.952969  0.380742  1
  O  O15  1  0.047031  0.952969  0.119258  1
