# generated using pymatgen
data_Li2BiS2
_symmetry_space_group_name_H-M   'P 1'
_cell_length_a   3.99784331
_cell_length_b   4.02644751
_cell_length_c   13.49954738
_cell_angle_alpha   90.00000000
_cell_angle_beta   90.00000000
_cell_angle_gamma   90.00000000
_symmetry_Int_Tables_number   1
_chemical_formula_structural   Li2BiS2
_chemical_formula_sum   'Li4 Bi2 S4'
_cell_volume   217.30364838
_cell_formula_units_Z   2
loop_
 _symmetry_equiv_pos_site_id
 _symmetry_equiv_pos_as_xyz
  1  'x, y, z'
loop_
 _atom_site_type_symbol
 _atom_site_label
 _atom_site_symmetry_multiplicity
 _atom_site_fract_x
 _atom_site_fract_y
 _atom_site_fract_z
 _atom_site_occupancy
  Li  Li0  1  0.570945  0.500000  0.757093  1
  Li  Li1  1  0.929055  0.000000  0.257093  1
  Li  Li2  1  0.070945  0.000000  0.742907  1
  Li  Li3  1  0.429055  0.500000  0.242907  1
  Bi  Bi4  1  0.000000  0.000000  0.000000  1
  Bi  Bi5  1  0.500000  0.500000  0.500000  1
  S  S6  1  0.568338  0.000000  0.647035  1
  S  S7  1  0.931662  0.500000  0.147035  1
  S  S8  1  0.068338  0.500000  0.852965  1
  S  S9  1  0.431662  0.000000  0.352965  1
