# generated using pymatgen
data_GdOF
_symmetry_space_group_name_H-M   'P 1'
_cell_length_a   7.08740164
_cell_length_b   6.66306717
_cell_length_c   5.86301500
_cell_angle_alpha   68.57491959
_cell_angle_beta   61.06412114
_cell_angle_gamma   50.36095927
_symmetry_Int_Tables_number   1
_chemical_formula_structural   GdOF
_chemical_formula_sum   'Gd4 O4 F4'
_cell_volume   185.93763458
_cell_formula_units_Z   4
loop_
 _symmetry_equiv_pos_site_id
 _symmetry_equiv_pos_as_xyz
  1  'x, y, z'
loop_
 _atom_site_type_symbol
 _atom_site_label
 _atom_site_symmetry_multiplicity
 _atom_site_fract_x
 _atom_site_fract_y
 _atom_site_fract_z
 _atom_site_occupancy
  Gd  Gd0  1  0.300779  0.699221  0.300779  1
  Gd  Gd1  1  0.550779  0.949221  0.550779  1
  Gd  Gd2  1  0.699221  0.300779  0.699221  1
  Gd  Gd3  1  0.949221  0.550779  0.949221  1
  O  O4  1  0.632454  0.632454  0.367546  1
  O  O5  1  0.367546  0.367546  0.632454  1
  O  O6  1  0.882454  0.882454  0.617546  1
  O  O7  1  0.617546  0.617546  0.882454  1
  F  F8  1  0.125000  0.125000  0.125000  1
  F  F9  1  0.125000  0.125000  0.625000  1
  F  F10  1  0.625000  0.125000  0.125000  1
  F  F11  1  0.125000  0.625000  0.125000  1
