# generated using pymatgen
data_Ba3As2H14S8O7
_symmetry_space_group_name_H-M   'P 1'
_cell_length_a   12.75455474
_cell_length_b   12.90625201
_cell_length_c   16.81156704
_cell_angle_alpha   90.00000000
_cell_angle_beta   130.51121373
_cell_angle_gamma   90.00000000
_symmetry_Int_Tables_number   1
_chemical_formula_structural   Ba3As2H14S8O7
_chemical_formula_sum   'Ba12 As8 H56 S32 O28'
_cell_volume   2104.00392309
_cell_formula_units_Z   4
loop_
 _symmetry_equiv_pos_site_id
 _symmetry_equiv_pos_as_xyz
  1  'x, y, z'
loop_
 _atom_site_type_symbol
 _atom_site_label
 _atom_site_symmetry_multiplicity
 _atom_site_fract_x
 _atom_site_fract_y
 _atom_site_fract_z
 _atom_site_occupancy
  Ba  Ba0  1  0.043182  0.763724  0.376680  1
  Ba  Ba1  1  0.043182  0.736276  0.876680  1
  Ba  Ba2  1  0.956818  0.236276  0.623320  1
  Ba  Ba3  1  0.956818  0.263724  0.123320  1
  Ba  Ba4  1  0.673812  0.619565  0.932728  1
  Ba  Ba5  1  0.673812  0.880435  0.432728  1
  Ba  Ba6  1  0.326188  0.380435  0.067272  1
  Ba  Ba7  1  0.326188  0.119565  0.567272  1
  Ba  Ba8  1  0.694243  0.977023  0.903200  1
  Ba  Ba9  1  0.694243  0.522977  0.403200  1
  Ba  Ba10  1  0.305757  0.022977  0.096800  1
  Ba  Ba11  1  0.305757  0.477023  0.596800  1
  As  As12  1  0.535652  0.746854  0.636971  1
  As  As13  1  0.535652  0.753146  0.136971  1
  As  As14  1  0.464348  0.253146  0.363029  1
  As  As15  1  0.464348  0.246854  0.863029  1
  As  As16  1  0.037618  0.758488  0.125637  1
  As  As17  1  0.037618  0.741512  0.625637  1
  As  As18  1  0.962382  0.241512  0.874363  1
  As  As19  1  0.962382  0.258488  0.374363  1
  H  H20  1  0.914349  0.507555  0.319347  1
  H  H21  1  0.914349  0.992445  0.819347  1
  H  H22  1  0.085651  0.492445  0.680653  1
  H  H23  1  0.085651  0.007555  0.180653  1
  H  H24  1  0.808048  0.593070  0.244891  1
  H  H25  1  0.808048  0.906930  0.744891  1
  H  H26  1  0.191952  0.406930  0.755109  1
  H  H27  1  0.191952  0.093070  0.255109  1
  H  H28  1  0.909409  0.004313  0.327845  1
  H  H29  1  0.909409  0.495687  0.827845  1
  H  H30  1  0.090591  0.995687  0.672155  1
  H  H31  1  0.090591  0.504313  0.172155  1
  H  H32  1  0.793981  0.932984  0.230379  1
  H  H33  1  0.793981  0.567016  0.730379  1
  H  H34  1  0.206019  0.067016  0.769621  1
  H  H35  1  0.206019  0.432984  0.269621  1
  H  H36  1  0.711849  0.418994  0.060039  1
  H  H37  1  0.711849  0.081006  0.560039  1
  H  H38  1  0.288151  0.581006  0.939961  1
  H  H39  1  0.288151  0.918994  0.439961  1
  H  H40  1  0.840239  0.486656  0.146622  1
  H  H41  1  0.840239  0.013344  0.646622  1
  H  H42  1  0.159761  0.513344  0.853378  1
  H  H43  1  0.159761  0.986656  0.353378  1
  H  H44  1  0.733811  0.099369  0.086857  1
  H  H45  1  0.733811  0.400631  0.586857  1
  H  H46  1  0.266189  0.900631  0.913143  1
  H  H47  1  0.266189  0.599369  0.413143  1
  H  H48  1  0.859950  0.027604  0.160097  1
  H  H49  1  0.859950  0.472396  0.660097  1
  H  H50  1  0.140050  0.972396  0.839903  1
  H  H51  1  0.140050  0.527604  0.339903  1
  H  H52  1  0.400989  0.494759  0.835606  1
  H  H53  1  0.400989  0.005241  0.335606  1
  H  H54  1  0.599011  0.505241  0.164394  1
  H  H55  1  0.599011  0.994759  0.664394  1
  H  H56  1  0.326932  0.603685  0.782534  1
  H  H57  1  0.326932  0.896315  0.282534  1
  H  H58  1  0.673068  0.396315  0.217466  1
  H  H59  1  0.673068  0.103685  0.717466  1
  H  H60  1  0.363481  0.992043  0.757529  1
  H  H61  1  0.363481  0.507957  0.257529  1
  H  H62  1  0.636519  0.007957  0.242471  1
  H  H63  1  0.636519  0.492043  0.742471  1
  H  H64  1  0.354415  0.901704  0.687463  1
  H  H65  1  0.354415  0.598296  0.187463  1
  H  H66  1  0.645585  0.098296  0.312537  1
  H  H67  1  0.645585  0.401704  0.812537  1
  H  H68  1  0.547129  0.826357  0.958818  1
  H  H69  1  0.547129  0.673643  0.458818  1
  H  H70  1  0.452871  0.173643  0.041182  1
  H  H71  1  0.452871  0.326357  0.541182  1
  H  H72  1  0.437507  0.798349  0.840982  1
  H  H73  1  0.437507  0.701651  0.340982  1
  H  H74  1  0.562493  0.201651  0.159018  1
  H  H75  1  0.562493  0.298349  0.659018  1
  S  S76  1  0.354080  0.740095  0.624630  1
  S  S77  1  0.354080  0.759905  0.124630  1
  S  S78  1  0.645920  0.259905  0.375370  1
  S  S79  1  0.645920  0.240095  0.875370  1
  S  S80  1  0.724021  0.770880  0.800878  1
  S  S81  1  0.724021  0.729120  0.300878  1
  S  S82  1  0.275979  0.229120  0.199122  1
  S  S83  1  0.275979  0.270880  0.699122  1
  S  S84  1  0.552611  0.596361  0.585056  1
  S  S85  1  0.552611  0.903639  0.085056  1
  S  S86  1  0.447389  0.403639  0.414944  1
  S  S87  1  0.447389  0.096361  0.914944  1
  S  S88  1  0.522515  0.875934  0.545822  1
  S  S89  1  0.522515  0.624066  0.045822  1
  S  S90  1  0.477485  0.124066  0.454178  1
  S  S91  1  0.477485  0.375934  0.954178  1
  S  S92  1  0.861706  0.781399  0.118351  1
  S  S93  1  0.861706  0.718601  0.618351  1
  S  S94  1  0.138294  0.218601  0.881649  1
  S  S95  1  0.138294  0.281399  0.381649  1
  S  S96  1  0.227453  0.759100  0.289481  1
  S  S97  1  0.227453  0.740900  0.789481  1
  S  S98  1  0.772547  0.240900  0.710519  1
  S  S99  1  0.772547  0.259100  0.210519  1
  S  S100  1  0.011632  0.616923  0.042669  1
  S  S101  1  0.011632  0.883077  0.542669  1
  S  S102  1  0.988368  0.383077  0.957331  1
  S  S103  1  0.988368  0.116923  0.457331  1
  S  S104  1  0.032370  0.892561  0.041432  1
  S  S105  1  0.032370  0.607439  0.541432  1
  S  S106  1  0.967630  0.107439  0.958568  1
  S  S107  1  0.967630  0.392561  0.458568  1
  O  O108  1  0.890993  0.557379  0.265367  1
  O  O109  1  0.890993  0.942621  0.765367  1
  O  O110  1  0.109007  0.442621  0.734633  1
  O  O111  1  0.109007  0.057379  0.234633  1
  O  O112  1  0.892213  0.953078  0.275978  1
  O  O113  1  0.892213  0.546922  0.775978  1
  O  O114  1  0.107787  0.046922  0.724022  1
  O  O115  1  0.107787  0.453078  0.224022  1
  O  O116  1  0.794526  0.452977  0.077775  1
  O  O117  1  0.794526  0.047023  0.577775  1
  O  O118  1  0.205474  0.547023  0.922225  1
  O  O119  1  0.205474  0.952977  0.422225  1
  O  O120  1  0.811274  0.069443  0.095366  1
  O  O121  1  0.811274  0.430557  0.595366  1
  O  O122  1  0.188726  0.930557  0.904634  1
  O  O123  1  0.188726  0.569443  0.404634  1
  O  O124  1  0.386722  0.549699  0.787266  1
  O  O125  1  0.386722  0.950301  0.287266  1
  O  O126  1  0.613278  0.450301  0.212734  1
  O  O127  1  0.613278  0.049699  0.712734  1
  O  O128  1  0.388332  0.973145  0.714970  1
  O  O129  1  0.388332  0.526855  0.214970  1
  O  O130  1  0.611668  0.026855  0.285030  1
  O  O131  1  0.611668  0.473145  0.785030  1
  O  O132  1  0.538192  0.810014  0.896889  1
  O  O133  1  0.538192  0.689986  0.396889  1
  O  O134  1  0.461808  0.189986  0.103111  1
  O  O135  1  0.461808  0.310014  0.603111  1
