# generated using pymatgen
data_YNb2NO5
_symmetry_space_group_name_H-M   'P 1'
_cell_length_a   5.28343091
_cell_length_b   5.92416288
_cell_length_c   14.99668636
_cell_angle_alpha   89.82144877
_cell_angle_beta   89.77930972
_cell_angle_gamma   89.80441020
_symmetry_Int_Tables_number   1
_chemical_formula_structural   YNb2NO5
_chemical_formula_sum   'Y4 Nb8 N4 O20'
_cell_volume   469.38638585
_cell_formula_units_Z   4
loop_
 _symmetry_equiv_pos_site_id
 _symmetry_equiv_pos_as_xyz
  1  'x, y, z'
loop_
 _atom_site_type_symbol
 _atom_site_label
 _atom_site_symmetry_multiplicity
 _atom_site_fract_x
 _atom_site_fract_y
 _atom_site_fract_z
 _atom_site_occupancy
  Y  Y0  1  0.252613  0.699589  0.002008  1
  Y  Y1  1  0.754171  0.295326  0.000274  1
  Y  Y2  1  0.754969  0.795640  0.498375  1
  Y  Y3  1  0.249970  0.209939  0.501431  1
  Nb  Nb4  1  0.725710  0.828098  0.168570  1
  Nb  Nb5  1  0.219519  0.180651  0.172290  1
  Nb  Nb6  1  0.217775  0.672093  0.338813  1
  Nb  Nb7  1  0.742384  0.313231  0.331533  1
  Nb  Nb8  1  0.269156  0.678070  0.665710  1
  Nb  Nb9  1  0.770138  0.306982  0.672960  1
  Nb  Nb10  1  0.764062  0.824907  0.831593  1
  Nb  Nb11  1  0.285014  0.189801  0.835712  1
  N  N12  1  0.905673  0.121296  0.244691  1
  N  N13  1  0.031956  0.426350  0.400417  1
  N  N14  1  0.604152  0.120899  0.756422  1
  N  N15  1  0.398662  0.389654  0.918169  1
  O  O16  1  0.101749  0.389730  0.085886  1
  O  O17  1  0.609760  0.615865  0.083176  1
  O  O18  1  0.028667  0.918941  0.095929  1
  O  O19  1  0.529893  0.083751  0.097443  1
  O  O20  1  0.398082  0.868393  0.239997  1
  O  O21  1  0.405603  0.372079  0.254492  1
  O  O22  1  0.899891  0.631860  0.253248  1
  O  O23  1  0.531006  0.596014  0.399438  1
  O  O24  1  0.104369  0.897754  0.418376  1
  O  O25  1  0.599616  0.114130  0.418497  1
  O  O26  1  0.399103  0.885773  0.581973  1
  O  O27  1  0.898973  0.109289  0.582726  1
  O  O28  1  0.977235  0.586977  0.596003  1
  O  O29  1  0.470457  0.416193  0.599699  1
  O  O30  1  0.598652  0.625533  0.742578  1
  O  O31  1  0.095366  0.372876  0.741796  1
  O  O32  1  0.088292  0.854017  0.752620  1
  O  O33  1  0.460172  0.907025  0.901149  1
  O  O34  1  0.962206  0.080883  0.898592  1
  O  O35  1  0.894982  0.620391  0.917412  1
