# generated using pymatgen
data_Li7Ti7Nb5O30
_symmetry_space_group_name_H-M   'P 1'
_cell_length_a   5.16642797
_cell_length_b   5.16642797
_cell_length_c   23.82624196
_cell_angle_alpha   90.00000000
_cell_angle_beta   90.00000000
_cell_angle_gamma   120.00000000
_symmetry_Int_Tables_number   1
_chemical_formula_structural   Li7Ti7Nb5O30
_chemical_formula_sum   'Li7 Ti7 Nb5 O30'
_cell_volume   550.76576505
_cell_formula_units_Z   1
loop_
 _symmetry_equiv_pos_site_id
 _symmetry_equiv_pos_as_xyz
  1  'x, y, z'
loop_
 _atom_site_type_symbol
 _atom_site_label
 _atom_site_symmetry_multiplicity
 _atom_site_fract_x
 _atom_site_fract_y
 _atom_site_fract_z
 _atom_site_occupancy
  Li  Li0  1  0.666667  0.333333  0.274875  1
  Li  Li1  1  0.333333  0.666667  0.080503  1
  Li  Li2  1  0.333333  0.666667  0.373444  1
  Li  Li3  1  0.333333  0.666667  0.628055  1
  Li  Li4  1  0.333333  0.666667  0.923189  1
  Li  Li5  1  0.666667  0.333333  0.529166  1
  Li  Li6  1  0.000000  0.000000  0.202717  1
  Ti  Ti7  1  0.666667  0.333333  0.885734  1
  Ti  Ti8  1  0.666667  0.333333  0.011417  1
  Ti  Ti9  1  0.666667  0.333333  0.691085  1
  Ti  Ti10  1  0.000000  0.000000  0.590123  1
  Ti  Ti11  1  0.000000  0.000000  0.713981  1
  Ti  Ti12  1  0.000000  0.000000  0.981451  1
  Ti  Ti13  1  0.000000  0.000000  0.104532  1
  Nb  Nb14  1  0.666667  0.333333  0.404363  1
  Nb  Nb15  1  0.333333  0.666667  0.202902  1
  Nb  Nb16  1  0.333333  0.666667  0.501870  1
  Nb  Nb17  1  0.333333  0.666667  0.799396  1
  Nb  Nb18  1  0.000000  0.000000  0.308621  1
  O  O19  1  0.254743  0.334351  0.148320  1
  O  O20  1  0.342599  0.305411  0.351426  1
  O  O21  1  0.337691  0.338252  0.745115  1
  O  O22  1  0.606342  0.606748  0.452731  1
  O  O23  1  0.311773  0.031644  0.043900  1
  O  O24  1  0.719870  0.688227  0.043900  1
  O  O25  1  0.393252  0.999594  0.452731  1
  O  O26  1  0.661748  0.999439  0.745115  1
  O  O27  1  0.962812  0.657401  0.351426  1
  O  O28  1  0.665649  0.920392  0.148320  1
  O  O29  1  0.000561  0.662309  0.745115  1
  O  O30  1  0.694589  0.037188  0.351426  1
  O  O31  1  0.662179  0.961365  0.553782  1
  O  O32  1  0.079608  0.745257  0.148320  1
  O  O33  1  0.699702  0.055689  0.948709  1
  O  O34  1  0.968356  0.280130  0.043900  1
  O  O35  1  0.604239  0.611304  0.847247  1
  O  O36  1  0.000406  0.393658  0.452731  1
  O  O37  1  0.953282  0.269576  0.653604  1
  O  O38  1  0.673091  0.711844  0.252574  1
  O  O39  1  0.007064  0.395761  0.847247  1
  O  O40  1  0.730424  0.683706  0.653604  1
  O  O41  1  0.038753  0.326909  0.252574  1
  O  O42  1  0.299186  0.337821  0.553782  1
  O  O43  1  0.944311  0.644013  0.948709  1
  O  O44  1  0.355987  0.300298  0.948709  1
  O  O45  1  0.038635  0.700814  0.553782  1
  O  O46  1  0.288156  0.961247  0.252574  1
  O  O47  1  0.316294  0.046718  0.653604  1
  O  O48  1  0.388696  0.992936  0.847247  1
