# generated using pymatgen
data_V3CuO8
_symmetry_space_group_name_H-M   'P 1'
_cell_length_a   8.27376155
_cell_length_b   8.27376155
_cell_length_c   8.27376155
_cell_angle_alpha   90.00000000
_cell_angle_beta   90.00000000
_cell_angle_gamma   90.00000000
_symmetry_Int_Tables_number   1
_chemical_formula_structural   V3CuO8
_chemical_formula_sum   'V12 Cu4 O32'
_cell_volume   566.38142506
_cell_formula_units_Z   4
loop_
 _symmetry_equiv_pos_site_id
 _symmetry_equiv_pos_as_xyz
  1  'x, y, z'
loop_
 _atom_site_type_symbol
 _atom_site_label
 _atom_site_symmetry_multiplicity
 _atom_site_fract_x
 _atom_site_fract_y
 _atom_site_fract_z
 _atom_site_occupancy
  V  V0  1  0.109987  0.624427  0.132504  1
  V  V1  1  0.124427  0.367496  0.890013  1
  V  V2  1  0.132504  0.109987  0.624427  1
  V  V3  1  0.367496  0.890013  0.124427  1
  V  V4  1  0.375573  0.632504  0.390013  1
  V  V5  1  0.390013  0.375573  0.632504  1
  V  V6  1  0.609987  0.875573  0.867496  1
  V  V7  1  0.624427  0.132504  0.109987  1
  V  V8  1  0.632504  0.390013  0.375573  1
  V  V9  1  0.867496  0.609987  0.875573  1
  V  V10  1  0.875573  0.867496  0.609987  1
  V  V11  1  0.890013  0.124427  0.367496  1
  Cu  Cu12  1  0.001800  0.498200  0.501800  1
  Cu  Cu13  1  0.498200  0.501800  0.001800  1
  Cu  Cu14  1  0.501800  0.001800  0.498200  1
  Cu  Cu15  1  0.998200  0.998200  0.998200  1
  O  O16  1  0.100764  0.131821  0.392797  1
  O  O17  1  0.107203  0.899236  0.631821  1
  O  O18  1  0.109144  0.609144  0.890856  1
  O  O19  1  0.131821  0.392797  0.100764  1
  O  O20  1  0.115999  0.147918  0.856913  1
  O  O21  1  0.138308  0.361692  0.638308  1
  O  O22  1  0.143087  0.615999  0.352082  1
  O  O23  1  0.147918  0.856913  0.115999  1
  O  O24  1  0.352082  0.143087  0.615999  1
  O  O25  1  0.356913  0.384001  0.852082  1
  O  O26  1  0.361692  0.638308  0.138308  1
  O  O27  1  0.384001  0.852082  0.356913  1
  O  O28  1  0.368179  0.607203  0.600764  1
  O  O29  1  0.390856  0.390856  0.390856  1
  O  O30  1  0.392797  0.100764  0.131821  1
  O  O31  1  0.399236  0.868179  0.892797  1
  O  O32  1  0.600764  0.368179  0.607203  1
  O  O33  1  0.607203  0.600764  0.368179  1
  O  O34  1  0.609144  0.890856  0.109144  1
  O  O35  1  0.631821  0.107203  0.899236  1
  O  O36  1  0.615999  0.352082  0.143087  1
  O  O37  1  0.638308  0.138308  0.361692  1
  O  O38  1  0.643087  0.884001  0.647918  1
  O  O39  1  0.647918  0.643087  0.884001  1
  O  O40  1  0.852082  0.356913  0.384001  1
  O  O41  1  0.856913  0.115999  0.147918  1
  O  O42  1  0.861692  0.861692  0.861692  1
  O  O43  1  0.884001  0.647918  0.643087  1
  O  O44  1  0.868179  0.892797  0.399236  1
  O  O45  1  0.890856  0.109144  0.609144  1
  O  O46  1  0.892797  0.399236  0.868179  1
  O  O47  1  0.899236  0.631821  0.107203  1
