# generated using pymatgen
data_Ti3Cr(PO4)6
_symmetry_space_group_name_H-M   'P 1'
_cell_length_a   8.79486434
_cell_length_b   8.79486434
_cell_length_c   8.79486434
_cell_angle_alpha   58.45588283
_cell_angle_beta   58.45588283
_cell_angle_gamma   58.45588283
_symmetry_Int_Tables_number   1
_chemical_formula_structural   Ti3Cr(PO4)6
_chemical_formula_sum   'Ti3 Cr1 P6 O24'
_cell_volume   464.03466714
_cell_formula_units_Z   1
loop_
 _symmetry_equiv_pos_site_id
 _symmetry_equiv_pos_as_xyz
  1  'x, y, z'
loop_
 _atom_site_type_symbol
 _atom_site_label
 _atom_site_symmetry_multiplicity
 _atom_site_fract_x
 _atom_site_fract_y
 _atom_site_fract_z
 _atom_site_occupancy
  Ti  Ti0  1  0.860522  0.860522  0.860522  1
  Ti  Ti1  1  0.639503  0.639503  0.639503  1
  Ti  Ti2  1  0.359727  0.359727  0.359727  1
  Cr  Cr3  1  0.141175  0.141175  0.141175  1
  P  P4  1  0.250899  0.530606  0.968164  1
  P  P5  1  0.968164  0.250899  0.530606  1
  P  P6  1  0.530606  0.968164  0.250899  1
  P  P7  1  0.464997  0.032711  0.753539  1
  P  P8  1  0.032711  0.753539  0.464997  1
  P  P9  1  0.753539  0.464997  0.032711  1
  O  O10  1  0.730230  0.488526  0.860145  1
  O  O11  1  0.488526  0.860145  0.730230  1
  O  O12  1  0.077105  0.709584  0.939373  1
  O  O13  1  0.860145  0.730230  0.488526  1
  O  O14  1  0.425924  0.552920  0.787877  1
  O  O15  1  0.217990  0.354863  0.000834  1
  O  O16  1  0.939373  0.077105  0.709584  1
  O  O17  1  0.787877  0.425924  0.552920  1
  O  O18  1  0.552920  0.787877  0.425924  1
  O  O19  1  0.634088  0.003581  0.785424  1
  O  O20  1  0.280425  0.065100  0.933471  1
  O  O21  1  0.003581  0.785424  0.634088  1
  O  O22  1  0.000834  0.217990  0.354863  1
  O  O23  1  0.709584  0.939373  0.077105  1
  O  O24  1  0.354863  0.000834  0.217990  1
  O  O25  1  0.429966  0.215210  0.584746  1
  O  O26  1  0.215210  0.584746  0.429966  1
  O  O27  1  0.065100  0.933471  0.280425  1
  O  O28  1  0.785424  0.634088  0.003581  1
  O  O29  1  0.584746  0.429966  0.215210  1
  O  O30  1  0.139040  0.280709  0.501028  1
  O  O31  1  0.933471  0.280425  0.065100  1
  O  O32  1  0.501028  0.139040  0.280709  1
  O  O33  1  0.280709  0.501028  0.139040  1
