# generated using pymatgen
data_Li4Fe3Co3(SnO8)2
_symmetry_space_group_name_H-M   'P 1'
_cell_length_a   5.94431166
_cell_length_b   5.94431166
_cell_length_c   9.79055977
_cell_angle_alpha   89.42100269
_cell_angle_beta   90.57899731
_cell_angle_gamma   119.68063513
_symmetry_Int_Tables_number   1
_chemical_formula_structural   Li4Fe3Co3(SnO8)2
_chemical_formula_sum   'Li4 Fe3 Co3 Sn2 O16'
_cell_volume   300.53861108
_cell_formula_units_Z   1
loop_
 _symmetry_equiv_pos_site_id
 _symmetry_equiv_pos_as_xyz
  1  'x, y, z'
loop_
 _atom_site_type_symbol
 _atom_site_label
 _atom_site_symmetry_multiplicity
 _atom_site_fract_x
 _atom_site_fract_y
 _atom_site_fract_z
 _atom_site_occupancy
  Li  Li0  1  0.335017  0.664983  0.105009  1
  Li  Li1  1  0.996992  0.003008  0.005100  1
  Li  Li2  1  0.997697  0.002303  0.506474  1
  Li  Li3  1  0.668317  0.331683  0.606225  1
  Fe  Fe4  1  0.169193  0.830807  0.786431  1
  Fe  Fe5  1  0.338071  0.170357  0.285641  1
  Fe  Fe6  1  0.829643  0.661929  0.285641  1
  Co  Co7  1  0.167162  0.338755  0.785602  1
  Co  Co8  1  0.661245  0.832838  0.785602  1
  Co  Co9  1  0.830040  0.169960  0.285802  1
  Sn  Sn10  1  0.333879  0.666121  0.510152  1
  Sn  Sn11  1  0.666459  0.333541  0.009897  1
  O  O12  1  0.159101  0.323582  0.399573  1
  O  O13  1  0.483856  0.516144  0.663412  1
  O  O14  1  0.338598  0.661402  0.891427  1
  O  O15  1  0.996375  0.003625  0.693360  1
  O  O16  1  0.995542  0.004458  0.192042  1
  O  O17  1  0.676418  0.840899  0.399573  1
  O  O18  1  0.035091  0.511371  0.662264  1
  O  O19  1  0.488629  0.964909  0.662264  1
  O  O20  1  0.837123  0.162877  0.895899  1
  O  O21  1  0.160428  0.839572  0.401862  1
  O  O22  1  0.522117  0.033398  0.161031  1
  O  O23  1  0.966602  0.477883  0.161031  1
  O  O24  1  0.670087  0.329913  0.393262  1
  O  O25  1  0.321306  0.162950  0.899619  1
  O  O26  1  0.517309  0.482691  0.159183  1
  O  O27  1  0.837050  0.678694  0.899619  1
