# generated using pymatgen
data_NaP3H10(NO5)2
_symmetry_space_group_name_H-M   'P 1'
_cell_length_a   6.89512000
_cell_length_b   11.79001628
_cell_length_c   13.81727151
_cell_angle_alpha   90.00000000
_cell_angle_beta   107.33588524
_cell_angle_gamma   90.00000000
_symmetry_Int_Tables_number   1
_chemical_formula_structural   NaP3H10(NO5)2
_chemical_formula_sum   'Na4 P12 H40 N8 O40'
_cell_volume   1072.23083120
_cell_formula_units_Z   4
loop_
 _symmetry_equiv_pos_site_id
 _symmetry_equiv_pos_as_xyz
  1  'x, y, z'
loop_
 _atom_site_type_symbol
 _atom_site_label
 _atom_site_symmetry_multiplicity
 _atom_site_fract_x
 _atom_site_fract_y
 _atom_site_fract_z
 _atom_site_occupancy
  Na  Na0  1  0.639817  0.298434  0.217622  1
  Na  Na1  1  0.639817  0.201566  0.717622  1
  Na  Na2  1  0.360183  0.701566  0.782378  1
  Na  Na3  1  0.360183  0.798434  0.282378  1
  P  P4  1  0.668900  0.039495  0.348770  1
  P  P5  1  0.668900  0.460505  0.848770  1
  P  P6  1  0.331100  0.960505  0.651230  1
  P  P7  1  0.331100  0.539495  0.151230  1
  P  P8  1  0.093075  0.168280  0.643040  1
  P  P9  1  0.093075  0.331720  0.143040  1
  P  P10  1  0.906925  0.831720  0.356960  1
  P  P11  1  0.906925  0.668280  0.856960  1
  P  P12  1  0.727297  0.244934  0.480563  1
  P  P13  1  0.727297  0.255066  0.980563  1
  P  P14  1  0.272703  0.755066  0.519437  1
  P  P15  1  0.272703  0.744934  0.019437  1
  H  H16  1  0.026900  0.132662  0.338129  1
  H  H17  1  0.026900  0.367338  0.838129  1
  H  H18  1  0.973100  0.867338  0.661871  1
  H  H19  1  0.973100  0.632662  0.161871  1
  H  H20  1  0.244545  0.159035  0.434315  1
  H  H21  1  0.244545  0.340965  0.934315  1
  H  H22  1  0.755455  0.840965  0.565685  1
  H  H23  1  0.755455  0.659035  0.065685  1
  H  H24  1  0.227473  0.198512  0.313053  1
  H  H25  1  0.227473  0.301488  0.813053  1
  H  H26  1  0.772527  0.801488  0.686947  1
  H  H27  1  0.772527  0.698512  0.186947  1
  H  H28  1  0.750455  0.562249  0.154362  1
  H  H29  1  0.750455  0.937751  0.654362  1
  H  H30  1  0.249545  0.437751  0.845638  1
  H  H31  1  0.249545  0.062249  0.345638  1
  H  H32  1  0.452349  0.106876  0.065951  1
  H  H33  1  0.452349  0.393124  0.565951  1
  H  H34  1  0.547651  0.893124  0.934049  1
  H  H35  1  0.547651  0.606876  0.434049  1
  H  H36  1  0.774603  0.542309  0.490681  1
  H  H37  1  0.774603  0.957691  0.990681  1
  H  H38  1  0.225397  0.457691  0.509319  1
  H  H39  1  0.225397  0.042309  0.009319  1
  H  H40  1  0.377661  0.985574  0.116194  1
  H  H41  1  0.377661  0.514426  0.616194  1
  H  H42  1  0.622339  0.014426  0.883806  1
  H  H43  1  0.622339  0.485574  0.383806  1
  H  H44  1  0.728020  0.612497  0.376830  1
  H  H45  1  0.728020  0.887503  0.876830  1
  H  H46  1  0.271980  0.387503  0.623170  1
  H  H47  1  0.271980  0.112497  0.123170  1
  H  H48  1  0.966086  0.943667  0.177692  1
  H  H49  1  0.966086  0.556333  0.677692  1
  H  H50  1  0.033914  0.056333  0.822308  1
  H  H51  1  0.033914  0.443667  0.322308  1
  H  H52  1  0.838945  0.053009  0.156286  1
  H  H53  1  0.838945  0.446991  0.656286  1
  H  H54  1  0.161055  0.946991  0.843714  1
  H  H55  1  0.161055  0.553009  0.343714  1
  N  N56  1  0.186264  0.138712  0.359196  1
  N  N57  1  0.186264  0.361288  0.859196  1
  N  N58  1  0.813736  0.861288  0.640804  1
  N  N59  1  0.813736  0.638712  0.140804  1
  N  N60  1  0.667340  0.561209  0.421412  1
  N  N61  1  0.667340  0.938791  0.921412  1
  N  N62  1  0.332660  0.438791  0.578588  1
  N  N63  1  0.332660  0.061209  0.078588  1
  O  O64  1  0.538189  0.490171  0.196081  1
  O  O65  1  0.538189  0.009829  0.696081  1
  O  O66  1  0.461811  0.509829  0.803919  1
  O  O67  1  0.461811  0.990171  0.303919  1
  O  O68  1  0.233952  0.606302  0.217853  1
  O  O69  1  0.233952  0.893698  0.717853  1
  O  O70  1  0.766048  0.393698  0.782147  1
  O  O71  1  0.766048  0.106302  0.282147  1
  O  O72  1  0.826131  0.940441  0.407616  1
  O  O73  1  0.826131  0.559559  0.907616  1
  O  O74  1  0.173869  0.059559  0.592384  1
  O  O75  1  0.173869  0.440441  0.092384  1
  O  O76  1  0.336001  0.613538  0.053114  1
  O  O77  1  0.336001  0.886462  0.553114  1
  O  O78  1  0.663999  0.386462  0.946886  1
  O  O79  1  0.663999  0.113538  0.446886  1
  O  O80  1  0.729282  0.756670  0.304943  1
  O  O81  1  0.729282  0.743330  0.804943  1
  O  O82  1  0.270718  0.243330  0.695057  1
  O  O83  1  0.270718  0.256670  0.195057  1
  O  O84  1  0.047270  0.869957  0.298898  1
  O  O85  1  0.047270  0.630043  0.798898  1
  O  O86  1  0.952730  0.130043  0.701102  1
  O  O87  1  0.952730  0.369957  0.201102  1
  O  O88  1  0.970792  0.268435  0.038352  1
  O  O89  1  0.970792  0.231565  0.538352  1
  O  O90  1  0.029208  0.731565  0.961648  1
  O  O91  1  0.029208  0.768435  0.461648  1
  O  O92  1  0.387014  0.725428  0.445812  1
  O  O93  1  0.387014  0.774572  0.945812  1
  O  O94  1  0.612986  0.274572  0.554188  1
  O  O95  1  0.612986  0.225428  0.054188  1
  O  O96  1  0.709240  0.319040  0.390993  1
  O  O97  1  0.709240  0.180960  0.890993  1
  O  O98  1  0.290760  0.680960  0.609007  1
  O  O99  1  0.290760  0.819040  0.109007  1
  O  O100  1  0.087859  0.500951  0.375982  1
  O  O101  1  0.087859  0.999049  0.875982  1
  O  O102  1  0.912141  0.499049  0.624018  1
  O  O103  1  0.912141  0.000951  0.124018  1
