# generated using pymatgen
data_Li3MnV(PO4)3
_symmetry_space_group_name_H-M   'P 1'
_cell_length_a   9.03844992
_cell_length_b   9.03844992
_cell_length_c   9.03844992
_cell_angle_alpha   56.40658535
_cell_angle_beta   56.40658535
_cell_angle_gamma   56.40658535
_symmetry_Int_Tables_number   1
_chemical_formula_structural   Li3MnV(PO4)3
_chemical_formula_sum   'Li6 Mn2 V2 P6 O24'
_cell_volume   478.73157004
_cell_formula_units_Z   2
loop_
 _symmetry_equiv_pos_site_id
 _symmetry_equiv_pos_as_xyz
  1  'x, y, z'
loop_
 _atom_site_type_symbol
 _atom_site_label
 _atom_site_symmetry_multiplicity
 _atom_site_fract_x
 _atom_site_fract_y
 _atom_site_fract_z
 _atom_site_occupancy
  Li  Li0  1  0.084084  0.728597  0.334704  1
  Li  Li1  1  0.334704  0.084084  0.728597  1
  Li  Li2  1  0.728597  0.334704  0.084084  1
  Li  Li3  1  0.271403  0.665296  0.915916  1
  Li  Li4  1  0.665296  0.915916  0.271403  1
  Li  Li5  1  0.915916  0.271403  0.665296  1
  Mn  Mn6  1  0.349835  0.349835  0.349835  1
  Mn  Mn7  1  0.650165  0.650165  0.650165  1
  V  V8  1  0.850965  0.850965  0.850965  1
  V  V9  1  0.149035  0.149035  0.149035  1
  P  P10  1  0.758286  0.036556  0.456747  1
  P  P11  1  0.036556  0.456747  0.758286  1
  P  P12  1  0.456747  0.758286  0.036556  1
  P  P13  1  0.543253  0.241714  0.963444  1
  P  P14  1  0.963444  0.543253  0.241714  1
  P  P15  1  0.241714  0.963444  0.543253  1
  O  O16  1  0.801334  0.850792  0.443874  1
  O  O17  1  0.547115  0.160231  0.500236  1
  O  O18  1  0.160231  0.500236  0.547115  1
  O  O19  1  0.850792  0.443874  0.801334  1
  O  O20  1  0.443874  0.801334  0.850792  1
  O  O21  1  0.821511  0.987683  0.611915  1
  O  O22  1  0.141155  0.258345  0.883402  1
  O  O23  1  0.987683  0.611915  0.821511  1
  O  O24  1  0.500236  0.547115  0.160231  1
  O  O25  1  0.258345  0.883402  0.141155  1
  O  O26  1  0.611915  0.821511  0.987683  1
  O  O27  1  0.883402  0.141155  0.258345  1
  O  O28  1  0.116598  0.858845  0.741655  1
  O  O29  1  0.388085  0.178489  0.012317  1
  O  O30  1  0.741655  0.116598  0.858845  1
  O  O31  1  0.499764  0.452885  0.839769  1
  O  O32  1  0.012317  0.388085  0.178489  1
  O  O33  1  0.858845  0.741655  0.116598  1
  O  O34  1  0.178489  0.012317  0.388085  1
  O  O35  1  0.556126  0.198666  0.149208  1
  O  O36  1  0.149208  0.556126  0.198666  1
  O  O37  1  0.839769  0.499764  0.452885  1
  O  O38  1  0.452885  0.839769  0.499764  1
  O  O39  1  0.198666  0.149208  0.556126  1
