# generated using pymatgen
data_La(HO)3
_symmetry_space_group_name_H-M   'P 1'
_cell_length_a   10.86601693
_cell_length_b   6.77434202
_cell_length_c   15.35216228
_cell_angle_alpha   90.00000000
_cell_angle_beta   131.27598600
_cell_angle_gamma   90.00000000
_symmetry_Int_Tables_number   1
_chemical_formula_structural   La(HO)3
_chemical_formula_sum   'La8 H24 O24'
_cell_volume   849.29691748
_cell_formula_units_Z   8
loop_
 _symmetry_equiv_pos_site_id
 _symmetry_equiv_pos_as_xyz
  1  'x, y, z'
loop_
 _atom_site_type_symbol
 _atom_site_label
 _atom_site_symmetry_multiplicity
 _atom_site_fract_x
 _atom_site_fract_y
 _atom_site_fract_z
 _atom_site_occupancy
  La  La0  1  0.668848  0.465639  0.667725  1
  La  La1  1  0.165076  0.471638  0.666541  1
  La  La2  1  0.834924  0.971638  0.833459  1
  La  La3  1  0.331152  0.965639  0.832275  1
  La  La4  1  0.668848  0.034361  0.167725  1
  La  La5  1  0.165076  0.028362  0.166541  1
  La  La6  1  0.834924  0.528362  0.333459  1
  La  La7  1  0.331152  0.534361  0.332275  1
  H  H8  1  0.201237  0.638842  0.501515  1
  H  H9  1  0.419861  0.786806  0.532369  1
  H  H10  1  0.731300  0.847617  0.601042  1
  H  H11  1  0.201828  0.075286  0.595494  1
  H  H12  1  0.992853  0.777830  0.699236  1
  H  H13  1  0.483713  0.149490  0.681083  1
  H  H14  1  0.007147  0.277830  0.800764  1
  H  H15  1  0.516287  0.649490  0.818917  1
  H  H16  1  0.268700  0.347617  0.898958  1
  H  H17  1  0.798172  0.575286  0.904506  1
  H  H18  1  0.201237  0.861158  0.001515  1
  H  H19  1  0.580139  0.286806  0.967631  1
  H  H20  1  0.419861  0.713194  0.032369  1
  H  H21  1  0.798763  0.138842  0.998485  1
  H  H22  1  0.201828  0.424714  0.095494  1
  H  H23  1  0.731300  0.652383  0.101042  1
  H  H24  1  0.483713  0.350510  0.181083  1
  H  H25  1  0.992853  0.722170  0.199236  1
  H  H26  1  0.516287  0.850510  0.318917  1
  H  H27  1  0.007147  0.222170  0.300764  1
  H  H28  1  0.798172  0.924714  0.404506  1
  H  H29  1  0.268700  0.152383  0.398958  1
  H  H30  1  0.580139  0.213194  0.467631  1
  H  H31  1  0.798763  0.361158  0.498485  1
  O  O32  1  0.889395  0.382453  0.499983  1
  O  O33  1  0.408978  0.645546  0.516378  1
  O  O34  1  0.791305  0.781775  0.675553  1
  O  O35  1  0.274198  0.146051  0.669127  1
  O  O36  1  0.092759  0.769923  0.710092  1
  O  O37  1  0.579805  0.154699  0.687640  1
  O  O38  1  0.907241  0.269923  0.789908  1
  O  O39  1  0.208695  0.281775  0.824447  1
  O  O40  1  0.420195  0.654699  0.812360  1
  O  O41  1  0.725802  0.646051  0.830873  1
  O  O42  1  0.110605  0.882453  0.000017  1
  O  O43  1  0.591022  0.145546  0.983622  1
  O  O44  1  0.408978  0.854454  0.016378  1
  O  O45  1  0.889395  0.117547  0.999983  1
  O  O46  1  0.274198  0.353949  0.169127  1
  O  O47  1  0.579805  0.345301  0.187640  1
  O  O48  1  0.791305  0.718225  0.175553  1
  O  O49  1  0.092759  0.730077  0.210092  1
  O  O50  1  0.420195  0.845301  0.312360  1
  O  O51  1  0.907241  0.230077  0.289908  1
  O  O52  1  0.725802  0.853949  0.330873  1
  O  O53  1  0.208695  0.218225  0.324447  1
  O  O54  1  0.591022  0.354454  0.483622  1
  O  O55  1  0.110605  0.617547  0.500017  1
