# generated using pymatgen
data_Mn3Cu(PO4)4
_symmetry_space_group_name_H-M   'P 1'
_cell_length_a   4.90491359
_cell_length_b   6.00918686
_cell_length_c   9.82965361
_cell_angle_alpha   90.00000000
_cell_angle_beta   90.78920913
_cell_angle_gamma   90.00000000
_symmetry_Int_Tables_number   1
_chemical_formula_structural   Mn3Cu(PO4)4
_chemical_formula_sum   'Mn3 Cu1 P4 O16'
_cell_volume   289.69705631
_cell_formula_units_Z   1
loop_
 _symmetry_equiv_pos_site_id
 _symmetry_equiv_pos_as_xyz
  1  'x, y, z'
loop_
 _atom_site_type_symbol
 _atom_site_label
 _atom_site_symmetry_multiplicity
 _atom_site_fract_x
 _atom_site_fract_y
 _atom_site_fract_z
 _atom_site_occupancy
  Mn  Mn0  1  0.435258  0.000000  0.214458  1
  Mn  Mn1  1  0.558221  0.500000  0.785937  1
  Mn  Mn2  1  0.933899  0.500000  0.283166  1
  Cu  Cu3  1  0.093243  0.000000  0.710025  1
  P  P4  1  0.079888  0.500000  0.600648  1
  P  P5  1  0.412346  0.500000  0.098494  1
  P  P6  1  0.579368  0.000000  0.898955  1
  P  P7  1  0.923197  0.000000  0.400706  1
  O  O8  1  0.145294  0.500000  0.448225  1
  O  O9  1  0.232500  0.302179  0.673324  1
  O  O10  1  0.232500  0.697821  0.673324  1
  O  O11  1  0.233095  0.000000  0.379886  1
  O  O12  1  0.264174  0.000000  0.881950  1
  O  O13  1  0.271975  0.299891  0.170782  1
  O  O14  1  0.271975  0.700109  0.170782  1
  O  O15  1  0.341642  0.500000  0.945797  1
  O  O16  1  0.645545  0.000000  0.052989  1
  O  O17  1  0.715681  0.796848  0.830057  1
  O  O18  1  0.715681  0.203152  0.830057  1
  O  O19  1  0.724692  0.500000  0.116722  1
  O  O20  1  0.771924  0.500000  0.621626  1
  O  O21  1  0.774814  0.800777  0.328740  1
  O  O22  1  0.774814  0.199223  0.328740  1
  O  O23  1  0.868278  0.000000  0.554611  1
