# generated using pymatgen
data_Li6VSb3(PO4)6
_symmetry_space_group_name_H-M   'P 1'
_cell_length_a   8.57729770
_cell_length_b   8.57954471
_cell_length_c   8.60954421
_cell_angle_alpha   65.24582685
_cell_angle_beta   65.40368627
_cell_angle_gamma   64.82455702
_symmetry_Int_Tables_number   1
_chemical_formula_structural   Li6VSb3(PO4)6
_chemical_formula_sum   'Li6 V1 Sb3 P6 O24'
_cell_volume   498.36939748
_cell_formula_units_Z   1
loop_
 _symmetry_equiv_pos_site_id
 _symmetry_equiv_pos_as_xyz
  1  'x, y, z'
loop_
 _atom_site_type_symbol
 _atom_site_label
 _atom_site_symmetry_multiplicity
 _atom_site_fract_x
 _atom_site_fract_y
 _atom_site_fract_z
 _atom_site_occupancy
  Li  Li0  1  0.970292  0.011451  0.018224  1
  Li  Li1  1  0.156881  0.353753  0.748138  1
  Li  Li2  1  0.500897  0.523199  0.488497  1
  Li  Li3  1  0.880146  0.644419  0.226583  1
  Li  Li4  1  0.217455  0.883319  0.661693  1
  Li  Li5  1  0.649685  0.219721  0.865705  1
  V  V6  1  0.850393  0.842282  0.846729  1
  Sb  Sb7  1  0.164234  0.149578  0.155211  1
  Sb  Sb8  1  0.365923  0.347808  0.348987  1
  Sb  Sb9  1  0.659653  0.652663  0.657295  1
  P  P10  1  0.747133  0.425414  0.069359  1
  P  P11  1  0.069432  0.750931  0.424612  1
  P  P12  1  0.435172  0.059994  0.747303  1
  P  P13  1  0.581831  0.920415  0.250493  1
  P  P14  1  0.931202  0.256825  0.597233  1
  P  P15  1  0.248187  0.568561  0.908683  1
  O  O16  1  0.296051  0.507750  0.079952  1
  O  O17  1  0.565824  0.076822  0.303110  1
  O  O18  1  0.911165  0.250525  0.081868  1
  O  O19  1  0.054212  0.326915  0.617883  1
  O  O20  1  0.601927  0.417187  0.259986  1
  O  O21  1  0.802639  0.595472  0.013788  1
  O  O22  1  0.084094  0.920227  0.255949  1
  O  O23  1  0.258634  0.605681  0.424071  1
  O  O24  1  0.423564  0.252385  0.607514  1
  O  O25  1  0.419037  0.939340  0.205987  1
  O  O26  1  0.757542  0.901404  0.086703  1
  O  O27  1  0.996495  0.218669  0.419433  1
  O  O28  1  0.998120  0.805909  0.599296  1
  O  O29  1  0.259369  0.081487  0.906766  1
  O  O30  1  0.607073  0.998189  0.803895  1
  O  O31  1  0.617256  0.730519  0.398766  1
  O  O32  1  0.732080  0.394664  0.617703  1
  O  O33  1  0.910249  0.083475  0.760563  1
  O  O34  1  0.195758  0.429202  0.891812  1
  O  O35  1  0.402850  0.615733  0.729534  1
  O  O36  1  0.941649  0.680166  0.408132  1
  O  O37  1  0.088911  0.751008  0.903349  1
  O  O38  1  0.429926  0.930388  0.670423  1
  O  O39  1  0.666057  0.427550  0.938774  1
