# generated using pymatgen
data_TiFe2O5
_symmetry_space_group_name_H-M   'P 1'
_cell_length_a   5.33100584
_cell_length_b   5.33100584
_cell_length_c   10.06643964
_cell_angle_alpha   90.00000000
_cell_angle_beta   90.00000000
_cell_angle_gamma   138.25728978
_symmetry_Int_Tables_number   1
_chemical_formula_structural   TiFe2O5
_chemical_formula_sum   'Ti2 Fe4 O10'
_cell_volume   190.47121439
_cell_formula_units_Z   2
loop_
 _symmetry_equiv_pos_site_id
 _symmetry_equiv_pos_as_xyz
  1  'x, y, z'
loop_
 _atom_site_type_symbol
 _atom_site_label
 _atom_site_symmetry_multiplicity
 _atom_site_fract_x
 _atom_site_fract_y
 _atom_site_fract_z
 _atom_site_occupancy
  Ti  Ti0  1  0.631741  0.368259  0.060861  1
  Ti  Ti1  1  0.368259  0.631741  0.560861  1
  Fe  Fe2  1  0.639727  0.360273  0.433951  1
  Fe  Fe3  1  0.691686  0.308314  0.750883  1
  Fe  Fe4  1  0.308314  0.691686  0.250883  1
  Fe  Fe5  1  0.360273  0.639727  0.933951  1
  O  O6  1  0.544438  0.455562  0.616779  1
  O  O7  1  0.550909  0.449091  0.887360  1
  O  O8  1  0.185861  0.814139  0.073461  1
  O  O9  1  0.195553  0.804447  0.430534  1
  O  O10  1  0.735419  0.264581  0.246170  1
  O  O11  1  0.264581  0.735419  0.746170  1
  O  O12  1  0.804447  0.195553  0.930534  1
  O  O13  1  0.814139  0.185861  0.573461  1
  O  O14  1  0.449091  0.550909  0.387360  1
  O  O15  1  0.455562  0.544438  0.116779  1
