# generated using pymatgen
data_Ba8Bi10O27
_symmetry_space_group_name_H-M   'P 1'
_cell_length_a   9.89095017
_cell_length_b   9.89095017
_cell_length_c   9.89095017
_cell_angle_alpha   66.50358197
_cell_angle_beta   66.50358197
_cell_angle_gamma   66.50358197
_symmetry_Int_Tables_number   1
_chemical_formula_structural   Ba8Bi10O27
_chemical_formula_sum   'Ba8 Bi10 O27'
_cell_volume   780.06642539
_cell_formula_units_Z   1
loop_
 _symmetry_equiv_pos_site_id
 _symmetry_equiv_pos_as_xyz
  1  'x, y, z'
loop_
 _atom_site_type_symbol
 _atom_site_label
 _atom_site_symmetry_multiplicity
 _atom_site_fract_x
 _atom_site_fract_y
 _atom_site_fract_z
 _atom_site_occupancy
  Ba  Ba0  1  0.217703  0.572976  0.888689  1
  Ba  Ba1  1  0.334852  0.334852  0.334852  1
  Ba  Ba2  1  0.111311  0.782297  0.427024  1
  Ba  Ba3  1  0.427024  0.111311  0.782297  1
  Ba  Ba4  1  0.572976  0.888689  0.217703  1
  Ba  Ba5  1  0.665148  0.665148  0.665148  1
  Ba  Ba6  1  0.782297  0.427024  0.111311  1
  Ba  Ba7  1  0.888689  0.217703  0.572976  1
  Bi  Bi8  1  0.166044  0.166044  0.166044  1
  Bi  Bi9  1  0.056110  0.388297  0.724148  1
  Bi  Bi10  1  0.275852  0.943890  0.611703  1
  Bi  Bi11  1  0.388297  0.724148  0.056110  1
  Bi  Bi12  1  0.500000  0.500000  0.500000  1
  Bi  Bi13  1  0.724148  0.056110  0.388297  1
  Bi  Bi14  1  0.611703  0.275852  0.943890  1
  Bi  Bi15  1  0.833956  0.833956  0.833956  1
  Bi  Bi16  1  0.943890  0.611703  0.275852  1
  Bi  Bi17  1  0.000000  0.000000  0.000000  1
  O  O18  1  0.210007  0.053387  0.396308  1
  O  O19  1  0.106111  0.253517  0.944972  1
  O  O20  1  0.053387  0.396308  0.210007  1
  O  O21  1  0.159943  0.159635  0.679780  1
  O  O22  1  0.055028  0.893889  0.746483  1
  O  O23  1  0.159635  0.679780  0.159943  1
  O  O24  1  0.284632  0.428625  0.615585  1
  O  O25  1  0.396308  0.210007  0.053387  1
  O  O26  1  0.320220  0.840057  0.840365  1
  O  O27  1  0.253517  0.944972  0.106111  1
  O  O28  1  0.679780  0.159943  0.159635  1
  O  O29  1  0.384415  0.715368  0.571375  1
  O  O30  1  0.500000  0.500000  0.000000  1
  O  O31  1  0.615585  0.284632  0.428625  1
  O  O32  1  0.428625  0.615585  0.284632  1
  O  O33  1  0.571375  0.384415  0.715368  1
  O  O34  1  0.746483  0.055028  0.893889  1
  O  O35  1  0.840365  0.320220  0.840057  1
  O  O36  1  0.715368  0.571375  0.384415  1
  O  O37  1  0.944972  0.106111  0.253517  1
  O  O38  1  0.500000  0.000000  0.500000  1
  O  O39  1  0.603692  0.789993  0.946613  1
  O  O40  1  0.000000  0.500000  0.500000  1
  O  O41  1  0.840057  0.840365  0.320220  1
  O  O42  1  0.946613  0.603692  0.789993  1
  O  O43  1  0.789993  0.946613  0.603692  1
  O  O44  1  0.893889  0.746483  0.055028  1
