# generated using pymatgen
data_Hf2N2O
_symmetry_space_group_name_H-M   'P 1'
_cell_length_a   8.70043130
_cell_length_b   8.73260649
_cell_length_c   8.73760020
_cell_angle_alpha   109.59139780
_cell_angle_beta   109.47249673
_cell_angle_gamma   109.22151898
_symmetry_Int_Tables_number   1
_chemical_formula_structural   Hf2N2O
_chemical_formula_sum   'Hf16 N16 O8'
_cell_volume   511.84315069
_cell_formula_units_Z   8
loop_
 _symmetry_equiv_pos_site_id
 _symmetry_equiv_pos_as_xyz
  1  'x, y, z'
loop_
 _atom_site_type_symbol
 _atom_site_label
 _atom_site_symmetry_multiplicity
 _atom_site_fract_x
 _atom_site_fract_y
 _atom_site_fract_z
 _atom_site_occupancy
  Hf  Hf0  1  0.461404  0.215850  0.257770  1
  Hf  Hf1  1  0.006541  0.009526  0.996386  1
  Hf  Hf2  1  0.746890  0.464133  0.712775  1
  Hf  Hf3  1  0.507960  0.516808  0.007520  1
  Hf  Hf4  1  0.988691  0.497695  0.497433  1
  Hf  Hf5  1  0.241882  0.024834  0.783594  1
  Hf  Hf6  1  0.214340  0.250519  0.461427  1
  Hf  Hf7  1  0.716551  0.255107  0.969462  1
  Hf  Hf8  1  0.038663  0.285982  0.749314  1
  Hf  Hf9  1  0.960964  0.706237  0.249155  1
  Hf  Hf10  1  0.277909  0.739949  0.021174  1
  Hf  Hf11  1  0.784115  0.750452  0.528038  1
  Hf  Hf12  1  0.753359  0.968511  0.215573  1
  Hf  Hf13  1  0.496830  0.995376  0.507273  1
  Hf  Hf14  1  0.251846  0.530336  0.280738  1
  Hf  Hf15  1  0.539254  0.798014  0.756901  1
  N  N16  1  0.463202  0.232583  0.510935  1
  N  N17  1  0.957644  0.224634  0.465715  1
  N  N18  1  0.736258  0.508054  0.962343  1
  N  N19  1  0.027896  0.542013  0.771628  1
  N  N20  1  0.231358  0.957439  0.990992  1
  N  N21  1  0.986185  0.036206  0.762277  1
  N  N22  1  0.722906  0.464762  0.449102  1
  N  N23  1  0.482873  0.724466  0.948844  1
  N  N24  1  0.970838  0.456385  0.228181  1
  N  N25  1  0.775138  0.044003  0.011849  1
  N  N26  1  0.262721  0.488425  0.035415  1
  N  N27  1  0.048907  0.772404  0.535396  1
  N  N28  1  0.458214  0.995079  0.729717  1
  N  N29  1  0.235916  0.270964  0.230889  1
  N  N30  1  0.730255  0.741179  0.270808  1
  N  N31  1  0.530806  0.760335  0.489494  1
  O  O32  1  0.274638  0.261927  0.729545  1
  O  O33  1  0.763562  0.726718  0.774207  1
  O  O34  1  0.547142  0.009172  0.274987  1
  O  O35  1  0.771436  0.223743  0.734414  1
  O  O36  1  0.277323  0.531090  0.550584  1
  O  O37  1  0.015226  0.963201  0.238576  1
  O  O38  1  0.512738  0.274107  0.046212  1
  O  O39  1  0.229619  0.781784  0.263360  1
