# generated using pymatgen
data_Li5Mn5(SbO6)2
_symmetry_space_group_name_H-M   'P 1'
_cell_length_a   5.49690189
_cell_length_b   5.49690189
_cell_length_c   10.41466945
_cell_angle_alpha   84.08613481
_cell_angle_beta   95.91386519
_cell_angle_gamma   59.01897818
_symmetry_Int_Tables_number   1
_chemical_formula_structural   Li5Mn5(SbO6)2
_chemical_formula_sum   'Li5 Mn5 Sb2 O12'
_cell_volume   263.82634276
_cell_formula_units_Z   1
loop_
 _symmetry_equiv_pos_site_id
 _symmetry_equiv_pos_as_xyz
  1  'x, y, z'
loop_
 _atom_site_type_symbol
 _atom_site_label
 _atom_site_symmetry_multiplicity
 _atom_site_fract_x
 _atom_site_fract_y
 _atom_site_fract_z
 _atom_site_occupancy
  Li  Li0  1  0.341813  0.839682  0.752437  1
  Li  Li1  1  0.153659  0.669857  0.246149  1
  Li  Li2  1  0.839682  0.341813  0.247563  1
  Li  Li3  1  0.669857  0.153659  0.753851  1
  Li  Li4  1  0.079983  0.079983  0.000000  1
  Mn  Mn5  1  0.920991  0.920991  0.500000  1
  Mn  Mn6  1  0.488584  0.004034  0.244499  1
  Mn  Mn7  1  0.004034  0.488584  0.755501  1
  Mn  Mn8  1  0.581259  0.581259  0.500000  1
  Mn  Mn9  1  0.420724  0.420724  0.000000  1
  Sb  Sb10  1  0.749227  0.749227  0.000000  1
  Sb  Sb11  1  0.251801  0.251801  0.500000  1
  O  O12  1  0.786119  0.009581  0.115508  1
  O  O13  1  0.009581  0.786119  0.884492  1
  O  O14  1  0.625142  0.876249  0.620115  1
  O  O15  1  0.876249  0.625142  0.379885  1
  O  O16  1  0.488944  0.707860  0.114195  1
  O  O17  1  0.707860  0.488944  0.885805  1
  O  O18  1  0.293786  0.526002  0.624204  1
  O  O19  1  0.526002  0.293786  0.375796  1
  O  O20  1  0.104525  0.399331  0.117668  1
  O  O21  1  0.399331  0.104525  0.882332  1
  O  O22  1  0.974261  0.206591  0.625359  1
  O  O23  1  0.206591  0.974261  0.374641  1
