# generated using pymatgen
data_LiVPO5
_symmetry_space_group_name_H-M   'P 1'
_cell_length_a   6.66981791
_cell_length_b   9.13305729
_cell_length_c   7.76349329
_cell_angle_alpha   90.00000000
_cell_angle_beta   91.04450036
_cell_angle_gamma   90.00000000
_symmetry_Int_Tables_number   1
_chemical_formula_structural   LiVPO5
_chemical_formula_sum   'Li4 V4 P4 O20'
_cell_volume   472.84104997
_cell_formula_units_Z   4
loop_
 _symmetry_equiv_pos_site_id
 _symmetry_equiv_pos_as_xyz
  1  'x, y, z'
loop_
 _atom_site_type_symbol
 _atom_site_label
 _atom_site_symmetry_multiplicity
 _atom_site_fract_x
 _atom_site_fract_y
 _atom_site_fract_z
 _atom_site_occupancy
  Li  Li0  1  0.541611  0.254617  0.792445  1
  Li  Li1  1  0.541611  0.245383  0.292445  1
  Li  Li2  1  0.458389  0.754617  0.707555  1
  Li  Li3  1  0.458389  0.745383  0.207555  1
  V  V4  1  0.119118  0.471362  0.823636  1
  V  V5  1  0.119118  0.028638  0.323636  1
  V  V6  1  0.880882  0.971362  0.676364  1
  V  V7  1  0.880882  0.528638  0.176364  1
  P  P8  1  0.144410  0.796048  0.991884  1
  P  P9  1  0.144410  0.703952  0.491884  1
  P  P10  1  0.855590  0.296048  0.508116  1
  P  P11  1  0.855590  0.203952  0.008116  1
  O  O12  1  0.015997  0.369417  0.620900  1
  O  O13  1  0.015997  0.130583  0.120900  1
  O  O14  1  0.076112  0.873967  0.514567  1
  O  O15  1  0.076112  0.626033  0.014567  1
  O  O16  1  0.140685  0.643876  0.678507  1
  O  O17  1  0.140685  0.856124  0.178507  1
  O  O18  1  0.341681  0.399262  0.861390  1
  O  O19  1  0.341681  0.100738  0.361390  1
  O  O20  1  0.360848  0.799152  0.934817  1
  O  O21  1  0.360848  0.700848  0.434817  1
  O  O22  1  0.639152  0.299152  0.565183  1
  O  O23  1  0.639152  0.200848  0.065183  1
  O  O24  1  0.658319  0.899262  0.638610  1
  O  O25  1  0.658319  0.600738  0.138610  1
  O  O26  1  0.859315  0.143876  0.821493  1
  O  O27  1  0.859315  0.356124  0.321493  1
  O  O28  1  0.923888  0.373967  0.985433  1
  O  O29  1  0.923888  0.126033  0.485433  1
  O  O30  1  0.984003  0.869417  0.879100  1
  O  O31  1  0.984003  0.630583  0.379100  1
