# generated using pymatgen
data_Li4Fe(TeO4)3
_symmetry_space_group_name_H-M   'P 1'
_cell_length_a   5.04844727
_cell_length_b   8.63835284
_cell_length_c   5.22772543
_cell_angle_alpha   90.00000000
_cell_angle_beta   91.03526091
_cell_angle_gamma   90.00000000
_symmetry_Int_Tables_number   1
_chemical_formula_structural   Li4Fe(TeO4)3
_chemical_formula_sum   'Li4 Fe1 Te3 O12'
_cell_volume   227.94529678
_cell_formula_units_Z   1
loop_
 _symmetry_equiv_pos_site_id
 _symmetry_equiv_pos_as_xyz
  1  'x, y, z'
loop_
 _atom_site_type_symbol
 _atom_site_label
 _atom_site_symmetry_multiplicity
 _atom_site_fract_x
 _atom_site_fract_y
 _atom_site_fract_z
 _atom_site_occupancy
  Li  Li0  1  0.000000  0.287520  0.000000  1
  Li  Li1  1  0.500000  0.151591  0.000000  1
  Li  Li2  1  0.000000  0.700672  0.500000  1
  Li  Li3  1  0.500000  0.821965  0.500000  1
  Fe  Fe4  1  0.000000  0.896493  0.000000  1
  Te  Te5  1  0.500000  0.393121  0.500000  1
  Te  Te6  1  0.500000  0.598949  0.000000  1
  Te  Te7  1  0.000000  0.074813  0.500000  1
  O  O8  1  0.264767  0.743677  0.154792  1
  O  O9  1  0.293591  0.423444  0.162014  1
  O  O10  1  0.199271  0.078992  0.190112  1
  O  O11  1  0.707061  0.572067  0.322555  1
  O  O12  1  0.798806  0.912287  0.328049  1
  O  O13  1  0.765491  0.236430  0.334284  1
  O  O14  1  0.234509  0.236430  0.665716  1
  O  O15  1  0.201194  0.912287  0.671951  1
  O  O16  1  0.292939  0.572067  0.677445  1
  O  O17  1  0.800729  0.078992  0.809888  1
  O  O18  1  0.706409  0.423444  0.837986  1
  O  O19  1  0.735233  0.743677  0.845208  1
