# generated using pymatgen
data_B10H13
_symmetry_space_group_name_H-M   'P 1'
_cell_length_a   7.33463489
_cell_length_b   15.65612761
_cell_length_c   16.60658330
_cell_angle_alpha   90.00000000
_cell_angle_beta   114.74263900
_cell_angle_gamma   90.00000000
_symmetry_Int_Tables_number   1
_chemical_formula_structural   B10H13
_chemical_formula_sum   'B80 H104'
_cell_volume   1731.90147187
_cell_formula_units_Z   8
loop_
 _symmetry_equiv_pos_site_id
 _symmetry_equiv_pos_as_xyz
  1  'x, y, z'
loop_
 _atom_site_type_symbol
 _atom_site_label
 _atom_site_symmetry_multiplicity
 _atom_site_fract_x
 _atom_site_fract_y
 _atom_site_fract_z
 _atom_site_occupancy
  B  B0  1  0.213829  0.918209  0.841944  1
  B  B1  1  0.213829  0.581791  0.341944  1
  B  B2  1  0.786171  0.081791  0.158056  1
  B  B3  1  0.786171  0.418209  0.658056  1
  B  B4  1  0.314611  0.956698  0.766955  1
  B  B5  1  0.314611  0.543302  0.266955  1
  B  B6  1  0.685389  0.043302  0.233045  1
  B  B7  1  0.685389  0.456698  0.733045  1
  B  B8  1  0.324092  0.022417  0.855143  1
  B  B9  1  0.324092  0.477583  0.355143  1
  B  B10  1  0.675908  0.977583  0.144857  1
  B  B11  1  0.675908  0.522417  0.644857  1
  B  B12  1  0.130853  0.003775  0.890511  1
  B  B13  1  0.130853  0.496225  0.390511  1
  B  B14  1  0.869147  0.996225  0.109489  1
  B  B15  1  0.869147  0.503775  0.609489  1
  B  B16  1  0.075609  0.905232  0.726512  1
  B  B17  1  0.075609  0.594768  0.226512  1
  B  B18  1  0.924391  0.094768  0.273488  1
  B  B19  1  0.924391  0.405232  0.773488  1
  B  B20  1  0.127693  0.990298  0.667994  1
  B  B21  1  0.127693  0.509702  0.167994  1
  B  B22  1  0.872307  0.009702  0.332006  1
  B  B23  1  0.872307  0.490298  0.832006  1
  B  B24  1  0.256539  0.068123  0.750323  1
  B  B25  1  0.256539  0.431877  0.250323  1
  B  B26  1  0.743461  0.931877  0.249677  1
  B  B27  1  0.743461  0.568123  0.749677  1
  B  B28  1  0.134321  0.098748  0.831114  1
  B  B29  1  0.134321  0.401252  0.331114  1
  B  B30  1  0.865679  0.901252  0.168886  1
  B  B31  1  0.865679  0.598748  0.668886  1
  B  B32  1  0.907351  0.046646  0.815985  1
  B  B33  1  0.907351  0.453354  0.315985  1
  B  B34  1  0.092649  0.953354  0.184015  1
  B  B35  1  0.092649  0.546646  0.684015  1
  B  B36  1  0.954187  0.936265  0.807709  1
  B  B37  1  0.954187  0.563735  0.307709  1
  B  B38  1  0.045813  0.063735  0.192291  1
  B  B39  1  0.045813  0.436265  0.692291  1
  B  B40  1  0.177547  0.732363  0.898179  1
  B  B41  1  0.177547  0.767637  0.398179  1
  B  B42  1  0.822453  0.267637  0.101821  1
  B  B43  1  0.822453  0.232363  0.601821  1
  B  B44  1  0.379150  0.727211  0.865610  1
  B  B45  1  0.379150  0.772789  0.365610  1
  B  B46  1  0.620850  0.272789  0.134390  1
  B  B47  1  0.620850  0.227211  0.634390  1
  B  B48  1  0.345362  0.644294  0.930819  1
  B  B49  1  0.345362  0.855706  0.430819  1
  B  B50  1  0.654638  0.355706  0.069181  1
  B  B51  1  0.654638  0.144294  0.569181  1
  B  B52  1  0.222225  0.675855  0.997836  1
  B  B53  1  0.222225  0.824145  0.497836  1
  B  B54  1  0.777775  0.324145  0.002164  1
  B  B55  1  0.777775  0.175855  0.502164  1
  B  B56  1  0.312807  0.826338  0.901860  1
  B  B57  1  0.312807  0.673662  0.401860  1
  B  B58  1  0.687193  0.173662  0.098140  1
  B  B59  1  0.687193  0.326338  0.598140  1
  B  B60  1  0.568335  0.794712  0.930422  1
  B  B61  1  0.568335  0.705288  0.430422  1
  B  B62  1  0.431665  0.205288  0.069578  1
  B  B63  1  0.431665  0.294712  0.569578  1
  B  B64  1  0.586938  0.684081  0.958766  1
  B  B65  1  0.586938  0.815919  0.458766  1
  B  B66  1  0.413062  0.315919  0.041234  1
  B  B67  1  0.413062  0.184081  0.541234  1
  B  B68  1  0.483248  0.649812  0.045869  1
  B  B69  1  0.483248  0.850188  0.545869  1
  B  B70  1  0.516752  0.350188  0.954131  1
  B  B71  1  0.516752  0.149812  0.454131  1
  B  B72  1  0.382705  0.733075  0.088324  1
  B  B73  1  0.382705  0.766925  0.588324  1
  B  B74  1  0.617295  0.266925  0.911676  1
  B  B75  1  0.617295  0.233075  0.411676  1
  B  B76  1  0.213360  0.789496  0.993870  1
  B  B77  1  0.213360  0.710504  0.493870  1
  B  B78  1  0.786640  0.210504  0.006130  1
  B  B79  1  0.786640  0.289496  0.506130  1
  H  H80  1  0.464699  0.925900  0.768096  1
  H  H81  1  0.464699  0.574100  0.268096  1
  H  H82  1  0.535301  0.074100  0.231904  1
  H  H83  1  0.535301  0.425900  0.731904  1
  H  H84  1  0.485719  0.043303  0.909268  1
  H  H85  1  0.485719  0.456697  0.409268  1
  H  H86  1  0.514281  0.956697  0.090732  1
  H  H87  1  0.514281  0.543303  0.590732  1
  H  H88  1  0.168674  0.003005  0.967905  1
  H  H89  1  0.168674  0.496995  0.467905  1
  H  H90  1  0.831326  0.996995  0.032095  1
  H  H91  1  0.831326  0.503005  0.532095  1
  H  H92  1  0.033664  0.836858  0.692187  1
  H  H93  1  0.033664  0.663142  0.192187  1
  H  H94  1  0.966336  0.163142  0.307813  1
  H  H95  1  0.966336  0.336858  0.807813  1
  H  H96  1  0.954881  0.958231  0.664504  1
  H  H97  1  0.954881  0.541769  0.164504  1
  H  H98  1  0.045119  0.041769  0.335496  1
  H  H99  1  0.045119  0.458231  0.835496  1
  H  H100  1  0.114297  0.987526  0.594091  1
  H  H101  1  0.114297  0.512474  0.094091  1
  H  H102  1  0.885703  0.012474  0.405909  1
  H  H103  1  0.885703  0.487526  0.905909  1
  H  H104  1  0.354199  0.122076  0.736348  1
  H  H105  1  0.354199  0.377924  0.236348  1
  H  H106  1  0.645801  0.877924  0.263652  1
  H  H107  1  0.645801  0.622076  0.763652  1
  H  H108  1  0.081260  0.070864  0.680676  1
  H  H109  1  0.081260  0.429136  0.180676  1
  H  H110  1  0.918740  0.929136  0.319324  1
  H  H111  1  0.918740  0.570864  0.819324  1
  H  H112  1  0.163369  0.169791  0.859741  1
  H  H113  1  0.163369  0.330209  0.359741  1
  H  H114  1  0.836631  0.830209  0.140259  1
  H  H115  1  0.836631  0.669791  0.640259  1
  H  H116  1  0.953709  0.102461  0.765399  1
  H  H117  1  0.953709  0.397539  0.265399  1
  H  H118  1  0.046291  0.897539  0.234601  1
  H  H119  1  0.046291  0.602461  0.734601  1
  H  H120  1  0.769278  0.076940  0.826036  1
  H  H121  1  0.769278  0.423060  0.326036  1
  H  H122  1  0.230722  0.923060  0.173964  1
  H  H123  1  0.230722  0.576940  0.673964  1
  H  H124  1  0.843365  0.885365  0.816583  1
  H  H125  1  0.843365  0.614635  0.316583  1
  H  H126  1  0.156635  0.114635  0.183417  1
  H  H127  1  0.156635  0.385365  0.683417  1
  H  H128  1  0.830506  0.991014  0.748946  1
  H  H129  1  0.830506  0.508986  0.248946  1
  H  H130  1  0.169494  0.008986  0.251054  1
  H  H131  1  0.169494  0.491014  0.751054  1
  H  H132  1  0.348260  0.713775  0.790160  1
  H  H133  1  0.348260  0.786225  0.290160  1
  H  H134  1  0.651740  0.286225  0.209840  1
  H  H135  1  0.651740  0.213775  0.709840  1
  H  H136  1  0.008850  0.731770  0.842456  1
  H  H137  1  0.008850  0.768230  0.342456  1
  H  H138  1  0.991150  0.268230  0.157544  1
  H  H139  1  0.991150  0.231770  0.657544  1
  H  H140  1  0.314661  0.573148  0.901231  1
  H  H141  1  0.314661  0.926852  0.401231  1
  H  H142  1  0.685339  0.426852  0.098769  1
  H  H143  1  0.685339  0.073148  0.598769  1
  H  H144  1  0.092733  0.631643  0.000689  1
  H  H145  1  0.092733  0.868357  0.500689  1
  H  H146  1  0.907267  0.368357  0.999311  1
  H  H147  1  0.907267  0.131643  0.499311  1
  H  H148  1  0.486571  0.849732  0.967945  1
  H  H149  1  0.486571  0.650268  0.467945  1
  H  H150  1  0.513429  0.150268  0.032055  1
  H  H151  1  0.513429  0.349732  0.532055  1
  H  H152  1  0.689921  0.833678  0.915429  1
  H  H153  1  0.689921  0.666322  0.415429  1
  H  H154  1  0.310079  0.166322  0.084571  1
  H  H155  1  0.310079  0.333678  0.584571  1
  H  H156  1  0.722618  0.643192  0.957175  1
  H  H157  1  0.722618  0.856808  0.457175  1
  H  H158  1  0.277382  0.356808  0.042825  1
  H  H159  1  0.277382  0.143192  0.542825  1
  H  H160  1  0.673235  0.752424  0.006342  1
  H  H161  1  0.673235  0.747576  0.506342  1
  H  H162  1  0.326765  0.247576  0.993658  1
  H  H163  1  0.326765  0.252424  0.493658  1
  H  H164  1  0.560694  0.589540  0.091070  1
  H  H165  1  0.560694  0.910460  0.591070  1
  H  H166  1  0.439306  0.410460  0.908930  1
  H  H167  1  0.439306  0.089540  0.408930  1
  H  H168  1  0.569219  0.716799  0.095884  1
  H  H169  1  0.569219  0.783201  0.595884  1
  H  H170  1  0.430781  0.283201  0.904116  1
  H  H171  1  0.430781  0.216799  0.404116  1
  H  H172  1  0.396945  0.739061  0.162185  1
  H  H173  1  0.396945  0.760939  0.662185  1
  H  H174  1  0.603055  0.260939  0.837815  1
  H  H175  1  0.603055  0.239061  0.337815  1
  H  H176  1  0.089124  0.834248  0.000662  1
  H  H177  1  0.089124  0.665752  0.500662  1
  H  H178  1  0.910876  0.165752  0.999338  1
  H  H179  1  0.910876  0.334248  0.499338  1
  H  H180  1  0.385098  0.813099  0.059599  1
  H  H181  1  0.385098  0.686901  0.559599  1
  H  H182  1  0.614902  0.186901  0.940401  1
  H  H183  1  0.614902  0.313099  0.440401  1
