# generated using pymatgen
data_Li2MnBAsO7
_symmetry_space_group_name_H-M   'P 1'
_cell_length_a   5.16810392
_cell_length_b   6.39592877
_cell_length_c   8.76085207
_cell_angle_alpha   90.00000000
_cell_angle_beta   93.22355011
_cell_angle_gamma   90.00000000
_symmetry_Int_Tables_number   1
_chemical_formula_structural   Li2MnBAsO7
_chemical_formula_sum   'Li4 Mn2 B2 As2 O14'
_cell_volume   289.13022250
_cell_formula_units_Z   2
loop_
 _symmetry_equiv_pos_site_id
 _symmetry_equiv_pos_as_xyz
  1  'x, y, z'
loop_
 _atom_site_type_symbol
 _atom_site_label
 _atom_site_symmetry_multiplicity
 _atom_site_fract_x
 _atom_site_fract_y
 _atom_site_fract_z
 _atom_site_occupancy
  Li  Li0  1  0.772579  0.481458  0.195630  1
  Li  Li1  1  0.772579  0.018542  0.195630  1
  Li  Li2  1  0.227421  0.518542  0.804370  1
  Li  Li3  1  0.227421  0.981458  0.804370  1
  Mn  Mn4  1  0.211789  0.250000  0.325037  1
  Mn  Mn5  1  0.788211  0.750000  0.674963  1
  B  B6  1  0.268318  0.250000  0.053747  1
  B  B7  1  0.731682  0.750000  0.946253  1
  As  As8  1  0.283579  0.750000  0.428646  1
  As  As9  1  0.716421  0.250000  0.571354  1
  O  O10  1  0.704423  0.750000  0.095461  1
  O  O11  1  0.029760  0.250000  0.125943  1
  O  O12  1  0.468598  0.250000  0.171385  1
  O  O13  1  0.185034  0.951712  0.310822  1
  O  O14  1  0.185034  0.548288  0.310822  1
  O  O15  1  0.853678  0.250000  0.397963  1
  O  O16  1  0.613658  0.750000  0.469913  1
  O  O17  1  0.386342  0.250000  0.530087  1
  O  O18  1  0.146322  0.750000  0.602037  1
  O  O19  1  0.814966  0.451712  0.689178  1
  O  O20  1  0.814966  0.048288  0.689178  1
  O  O21  1  0.531402  0.750000  0.828615  1
  O  O22  1  0.970240  0.750000  0.874057  1
  O  O23  1  0.295577  0.250000  0.904539  1
