# generated using pymatgen
data_NiSb3(PO4)6
_symmetry_space_group_name_H-M   'P 1'
_cell_length_a   8.92096425
_cell_length_b   8.92096425
_cell_length_c   8.92096425
_cell_angle_alpha   57.98753223
_cell_angle_beta   57.98753223
_cell_angle_gamma   57.98753223
_symmetry_Int_Tables_number   1
_chemical_formula_structural   NiSb3(PO4)6
_chemical_formula_sum   'Ni1 Sb3 P6 O24'
_cell_volume   478.84265416
_cell_formula_units_Z   1
loop_
 _symmetry_equiv_pos_site_id
 _symmetry_equiv_pos_as_xyz
  1  'x, y, z'
loop_
 _atom_site_type_symbol
 _atom_site_label
 _atom_site_symmetry_multiplicity
 _atom_site_fract_x
 _atom_site_fract_y
 _atom_site_fract_z
 _atom_site_occupancy
  Ni  Ni0  1  0.143565  0.143565  0.143565  1
  Sb  Sb1  1  0.856921  0.856921  0.856921  1
  Sb  Sb2  1  0.643420  0.643420  0.643420  1
  Sb  Sb3  1  0.355788  0.355788  0.355788  1
  P  P4  1  0.248807  0.532812  0.963011  1
  P  P5  1  0.963011  0.248807  0.532812  1
  P  P6  1  0.532812  0.963011  0.248807  1
  P  P7  1  0.458058  0.038226  0.754208  1
  P  P8  1  0.038226  0.754208  0.458058  1
  P  P9  1  0.754208  0.458058  0.038226  1
  O  O10  1  0.722468  0.488323  0.866862  1
  O  O11  1  0.488323  0.866862  0.722468  1
  O  O12  1  0.076127  0.720453  0.940422  1
  O  O13  1  0.866862  0.722468  0.488323  1
  O  O14  1  0.424344  0.561360  0.781213  1
  O  O15  1  0.223749  0.367577  0.987334  1
  O  O16  1  0.940422  0.076127  0.720453  1
  O  O17  1  0.781213  0.424344  0.561360  1
  O  O18  1  0.561360  0.781213  0.424344  1
  O  O19  1  0.635962  0.013552  0.771466  1
  O  O20  1  0.281897  0.060304  0.922717  1
  O  O21  1  0.013552  0.771466  0.635962  1
  O  O22  1  0.987334  0.223749  0.367577  1
  O  O23  1  0.720453  0.940422  0.076127  1
  O  O24  1  0.367577  0.987334  0.223749  1
  O  O25  1  0.443463  0.217995  0.573262  1
  O  O26  1  0.217995  0.573262  0.443463  1
  O  O27  1  0.060304  0.922717  0.281897  1
  O  O28  1  0.771466  0.635962  0.013552  1
  O  O29  1  0.573262  0.443463  0.217995  1
  O  O30  1  0.132265  0.275407  0.516664  1
  O  O31  1  0.922717  0.281897  0.060304  1
  O  O32  1  0.516664  0.132265  0.275407  1
  O  O33  1  0.275407  0.516664  0.132265  1
