# generated using pymatgen
data_Li2Mn(BO3)2
_symmetry_space_group_name_H-M   'P 1'
_cell_length_a   3.00255187
_cell_length_b   14.60742563
_cell_length_c   9.15740735
_cell_angle_alpha   90.00000000
_cell_angle_beta   92.55580290
_cell_angle_gamma   90.00000000
_symmetry_Int_Tables_number   1
_chemical_formula_structural   Li2Mn(BO3)2
_chemical_formula_sum   'Li8 Mn4 B8 O24'
_cell_volume   401.24026935
_cell_formula_units_Z   4
loop_
 _symmetry_equiv_pos_site_id
 _symmetry_equiv_pos_as_xyz
  1  'x, y, z'
loop_
 _atom_site_type_symbol
 _atom_site_label
 _atom_site_symmetry_multiplicity
 _atom_site_fract_x
 _atom_site_fract_y
 _atom_site_fract_z
 _atom_site_occupancy
  Li  Li0  1  0.276666  0.040145  0.887851  1
  Li  Li1  1  0.301702  0.252367  0.893098  1
  Li  Li2  1  0.276666  0.459855  0.387851  1
  Li  Li3  1  0.301702  0.247633  0.393098  1
  Li  Li4  1  0.698298  0.752367  0.606902  1
  Li  Li5  1  0.723334  0.540145  0.612149  1
  Li  Li6  1  0.698298  0.747633  0.106902  1
  Li  Li7  1  0.723334  0.959855  0.112149  1
  Mn  Mn8  1  0.178226  0.632493  0.877102  1
  Mn  Mn9  1  0.178226  0.867507  0.377102  1
  Mn  Mn10  1  0.821774  0.132493  0.622898  1
  Mn  Mn11  1  0.821774  0.367507  0.122898  1
  B  B12  1  0.155873  0.423774  0.839007  1
  B  B13  1  0.144888  0.842594  0.895215  1
  B  B14  1  0.155873  0.076226  0.339007  1
  B  B15  1  0.144888  0.657406  0.395215  1
  B  B16  1  0.855112  0.342594  0.604785  1
  B  B17  1  0.844127  0.923774  0.660993  1
  B  B18  1  0.855112  0.157406  0.104785  1
  B  B19  1  0.844127  0.576226  0.160993  1
  O  O20  1  0.016311  0.347646  0.754631  1
  O  O21  1  0.158545  0.509586  0.787797  1
  O  O22  1  0.016311  0.152354  0.254631  1
  O  O23  1  0.184288  0.754885  0.958406  1
  O  O24  1  0.158545  0.990414  0.287797  1
  O  O25  1  0.184288  0.745115  0.458406  1
  O  O26  1  0.255123  0.915190  0.975457  1
  O  O27  1  0.290106  0.399647  0.983772  1
  O  O28  1  0.333332  0.158586  0.743439  1
  O  O29  1  0.255123  0.584810  0.475457  1
  O  O30  1  0.290106  0.100353  0.483772  1
  O  O31  1  0.333332  0.341414  0.243439  1
  O  O32  1  0.666668  0.658586  0.756561  1
  O  O33  1  0.709894  0.899647  0.516228  1
  O  O34  1  0.744877  0.415190  0.524543  1
  O  O35  1  0.666668  0.841414  0.256561  1
  O  O36  1  0.709894  0.600353  0.016228  1
  O  O37  1  0.744877  0.084810  0.024543  1
  O  O38  1  0.815712  0.254885  0.541594  1
  O  O39  1  0.841455  0.009586  0.712203  1
  O  O40  1  0.815712  0.245115  0.041594  1
  O  O41  1  0.983689  0.847646  0.745369  1
  O  O42  1  0.841455  0.490414  0.212203  1
  O  O43  1  0.983689  0.652354  0.245369  1
