# generated using pymatgen
data_Er2H16S3O20
_symmetry_space_group_name_H-M   'P 1'
_cell_length_a   7.51997827
_cell_length_b   7.51997827
_cell_length_c   18.26440799
_cell_angle_alpha   79.56204085
_cell_angle_beta   100.43795915
_cell_angle_gamma   127.13413969
_symmetry_Int_Tables_number   1
_chemical_formula_structural   Er2H16S3O20
_chemical_formula_sum   'Er4 H32 S6 O40'
_cell_volume   806.38698739
_cell_formula_units_Z   2
loop_
 _symmetry_equiv_pos_site_id
 _symmetry_equiv_pos_as_xyz
  1  'x, y, z'
loop_
 _atom_site_type_symbol
 _atom_site_label
 _atom_site_symmetry_multiplicity
 _atom_site_fract_x
 _atom_site_fract_y
 _atom_site_fract_z
 _atom_site_occupancy
  Er  Er0  1  0.683913  0.352240  0.890846  1
  Er  Er1  1  0.647760  0.316087  0.390846  1
  Er  Er2  1  0.352240  0.683913  0.609154  1
  Er  Er3  1  0.316087  0.647760  0.109154  1
  H  H4  1  0.205718  0.189177  0.843914  1
  H  H5  1  0.813419  0.819303  0.605922  1
  H  H6  1  0.449150  0.345878  0.643622  1
  H  H7  1  0.676127  0.643932  0.545593  1
  H  H8  1  0.810823  0.794282  0.343914  1
  H  H9  1  0.180697  0.186581  0.105922  1
  H  H10  1  0.121980  0.779638  0.696916  1
  H  H11  1  0.235150  0.970858  0.514228  1
  H  H12  1  0.012788  0.725050  0.513990  1
  H  H13  1  0.654122  0.550850  0.143622  1
  H  H14  1  0.356068  0.323873  0.045593  1
  H  H15  1  0.742178  0.287999  0.745589  1
  H  H16  1  0.287999  0.742178  0.754411  1
  H  H17  1  0.725050  0.012788  0.986010  1
  H  H18  1  0.970858  0.235150  0.985772  1
  H  H19  1  0.779638  0.121980  0.803084  1
  H  H20  1  0.220362  0.878020  0.196916  1
  H  H21  1  0.029142  0.764850  0.014228  1
  H  H22  1  0.274950  0.987212  0.013990  1
  H  H23  1  0.712001  0.257822  0.245589  1
  H  H24  1  0.257822  0.712001  0.254411  1
  H  H25  1  0.643932  0.676127  0.954407  1
  H  H26  1  0.345878  0.449150  0.856378  1
  H  H27  1  0.987212  0.274950  0.486010  1
  H  H28  1  0.764850  0.029142  0.485772  1
  H  H29  1  0.878020  0.220362  0.303084  1
  H  H30  1  0.819303  0.813419  0.894078  1
  H  H31  1  0.189177  0.205718  0.656086  1
  H  H32  1  0.323873  0.356068  0.454407  1
  H  H33  1  0.550850  0.654122  0.356378  1
  H  H34  1  0.186581  0.180697  0.394078  1
  H  H35  1  0.794282  0.810823  0.156086  1
  S  S36  1  0.304757  0.744773  0.911181  1
  S  S37  1  0.744773  0.304757  0.588819  1
  S  S38  1  0.255227  0.695243  0.411181  1
  S  S39  1  0.695243  0.255227  0.088819  1
  S  S40  1  0.819146  0.819146  0.750000  1
  S  S41  1  0.180854  0.180854  0.250000  1
  O  O42  1  0.352126  0.318769  0.863027  1
  O  O43  1  0.765876  0.689754  0.935035  1
  O  O44  1  0.982996  0.911008  0.693059  1
  O  O45  1  0.777829  0.608035  0.788318  1
  O  O46  1  0.681231  0.647874  0.363027  1
  O  O47  1  0.310246  0.234124  0.435035  1
  O  O48  1  0.373455  0.978028  0.897977  1
  O  O49  1  0.088992  0.017004  0.193059  1
  O  O50  1  0.061116  0.590006  0.917886  1
  O  O51  1  0.692068  0.367593  0.649491  1
  O  O52  1  0.391965  0.222171  0.288318  1
  O  O53  1  0.719345  0.422706  0.515601  1
  O  O54  1  0.148755  0.828208  0.545351  1
  O  O55  1  0.740770  0.227916  0.798583  1
  O  O56  1  0.227916  0.740770  0.701417  1
  O  O57  1  0.828208  0.148755  0.954649  1
  O  O58  1  0.422706  0.719345  0.984399  1
  O  O59  1  0.021972  0.626545  0.397977  1
  O  O60  1  0.367593  0.692068  0.850509  1
  O  O61  1  0.590006  0.061116  0.582114  1
  O  O62  1  0.409994  0.938884  0.417886  1
  O  O63  1  0.632407  0.307932  0.149491  1
  O  O64  1  0.978028  0.373455  0.602023  1
  O  O65  1  0.577294  0.280655  0.015601  1
  O  O66  1  0.171792  0.851245  0.045351  1
  O  O67  1  0.772084  0.259230  0.298583  1
  O  O68  1  0.259230  0.772084  0.201417  1
  O  O69  1  0.851245  0.171792  0.454649  1
  O  O70  1  0.280655  0.577294  0.484399  1
  O  O71  1  0.608035  0.777829  0.711682  1
  O  O72  1  0.307932  0.632407  0.350509  1
  O  O73  1  0.938884  0.409994  0.082114  1
  O  O74  1  0.911008  0.982996  0.806941  1
  O  O75  1  0.626545  0.021972  0.102023  1
  O  O76  1  0.689754  0.765876  0.564965  1
  O  O77  1  0.318769  0.352126  0.636973  1
  O  O78  1  0.222171  0.391965  0.211682  1
  O  O79  1  0.017004  0.088992  0.306941  1
  O  O80  1  0.234124  0.310246  0.064965  1
  O  O81  1  0.647874  0.681231  0.136973  1
