# generated using pymatgen
data_NaNi5O6
_symmetry_space_group_name_H-M   'P 1'
_cell_length_a   5.19021076
_cell_length_b   5.19021076
_cell_length_c   5.18622050
_cell_angle_alpha   80.26206699
_cell_angle_beta   99.73793301
_cell_angle_gamma   60.17919235
_symmetry_Int_Tables_number   1
_chemical_formula_structural   NaNi5O6
_chemical_formula_sum   'Na1 Ni5 O6'
_cell_volume   114.10224949
_cell_formula_units_Z   1
loop_
 _symmetry_equiv_pos_site_id
 _symmetry_equiv_pos_as_xyz
  1  'x, y, z'
loop_
 _atom_site_type_symbol
 _atom_site_label
 _atom_site_symmetry_multiplicity
 _atom_site_fract_x
 _atom_site_fract_y
 _atom_site_fract_z
 _atom_site_occupancy
  Na  Na0  1  0.500000  0.500000  0.500000  1
  Ni  Ni1  1  0.663817  0.663817  0.000000  1
  Ni  Ni2  1  0.336183  0.336183  0.000000  1
  Ni  Ni3  1  0.000000  0.000000  0.000000  1
  Ni  Ni4  1  0.167558  0.167558  0.500000  1
  Ni  Ni5  1  0.832442  0.832442  0.500000  1
  O  O6  1  0.945066  0.411511  0.758305  1
  O  O7  1  0.054934  0.588489  0.241695  1
  O  O8  1  0.764594  0.235406  0.234881  1
  O  O9  1  0.588489  0.054934  0.758305  1
  O  O10  1  0.235406  0.764594  0.765119  1
  O  O11  1  0.411511  0.945066  0.241695  1
