# generated using pymatgen
data_ZnFeH4O2F5
_symmetry_space_group_name_H-M   'P 1'
_cell_length_a   7.44399908
_cell_length_b   7.44399908
_cell_length_c   7.44399908
_cell_angle_alpha   128.09812594
_cell_angle_beta   118.50722158
_cell_angle_gamma   84.59013882
_symmetry_Int_Tables_number   1
_chemical_formula_structural   ZnFeH4O2F5
_chemical_formula_sum   'Zn2 Fe2 H8 O4 F10'
_cell_volume   273.04274740
_cell_formula_units_Z   2
loop_
 _symmetry_equiv_pos_site_id
 _symmetry_equiv_pos_as_xyz
  1  'x, y, z'
loop_
 _atom_site_type_symbol
 _atom_site_label
 _atom_site_symmetry_multiplicity
 _atom_site_fract_x
 _atom_site_fract_y
 _atom_site_fract_z
 _atom_site_occupancy
  Zn  Zn0  1  0.252187  0.492352  0.240165  1
  Zn  Zn1  1  0.747813  0.987978  0.240165  1
  Fe  Fe2  1  0.750542  0.991766  0.742308  1
  Fe  Fe3  1  0.249458  0.991766  0.241224  1
  H  H4  1  0.264705  0.770819  0.714696  1
  H  H5  1  0.943877  0.449991  0.714696  1
  H  H6  1  0.437756  0.195910  0.966894  1
  H  H7  1  0.770984  0.529138  0.966894  1
  H  H8  1  0.562244  0.529138  0.758154  1
  H  H9  1  0.229016  0.195910  0.758154  1
  H  H10  1  0.056123  0.770819  0.506114  1
  H  H11  1  0.735295  0.449991  0.506114  1
  O  O12  1  0.808321  0.346413  0.538092  1
  O  O13  1  0.314718  0.260549  0.945832  1
  O  O14  1  0.685282  0.631114  0.945832  1
  O  O15  1  0.191679  0.729771  0.538092  1
  F  F16  1  0.000000  0.906301  0.906301  1
  F  F17  1  0.665376  0.068814  0.988204  1
  F  F18  1  0.919390  0.322828  0.988204  1
  F  F19  1  0.583891  0.659226  0.494245  1
  F  F20  1  0.835018  0.910354  0.494245  1
  F  F21  1  0.500000  0.071231  0.571231  1
  F  F22  1  0.164982  0.659226  0.075335  1
  F  F23  1  0.416109  0.910354  0.075335  1
  F  F24  1  0.080610  0.068814  0.403438  1
  F  F25  1  0.334624  0.322828  0.403438  1
