# generated using pymatgen
data_Mn4O7F
_symmetry_space_group_name_H-M   'P 1'
_cell_length_a   5.49458435
_cell_length_b   4.96775747
_cell_length_c   8.95244408
_cell_angle_alpha   90.00000000
_cell_angle_beta   91.34380413
_cell_angle_gamma   90.00000000
_symmetry_Int_Tables_number   1
_chemical_formula_structural   Mn4O7F
_chemical_formula_sum   'Mn8 O14 F2'
_cell_volume   244.29658011
_cell_formula_units_Z   2
loop_
 _symmetry_equiv_pos_site_id
 _symmetry_equiv_pos_as_xyz
  1  'x, y, z'
loop_
 _atom_site_type_symbol
 _atom_site_label
 _atom_site_symmetry_multiplicity
 _atom_site_fract_x
 _atom_site_fract_y
 _atom_site_fract_z
 _atom_site_occupancy
  Mn  Mn0  1  0.415135  0.259626  0.120791  1
  Mn  Mn1  1  0.098277  0.736222  0.124324  1
  Mn  Mn2  1  0.584865  0.759626  0.879209  1
  Mn  Mn3  1  0.901723  0.236222  0.875676  1
  Mn  Mn4  1  0.117481  0.756236  0.615020  1
  Mn  Mn5  1  0.393778  0.249648  0.625880  1
  Mn  Mn6  1  0.606222  0.749648  0.374120  1
  Mn  Mn7  1  0.882519  0.256236  0.384980  1
  O  O8  1  0.358159  0.923663  0.015026  1
  O  O9  1  0.139196  0.411268  0.009353  1
  O  O10  1  0.641841  0.423663  0.984974  1
  O  O11  1  0.860804  0.911268  0.990647  1
  O  O12  1  0.635328  0.076155  0.757115  1
  O  O13  1  0.360298  0.579731  0.738480  1
  O  O14  1  0.143050  0.074109  0.736762  1
  O  O15  1  0.362214  0.925881  0.504655  1
  O  O16  1  0.139265  0.424574  0.506026  1
  O  O17  1  0.637786  0.425881  0.495345  1
  O  O18  1  0.860735  0.924574  0.493974  1
  O  O19  1  0.639702  0.079731  0.261520  1
  O  O20  1  0.856950  0.574109  0.263238  1
  O  O21  1  0.364672  0.576155  0.242885  1
  F  F22  1  0.873171  0.582885  0.751302  1
  F  F23  1  0.126829  0.082885  0.248698  1
