# generated using pymatgen
data_Sr2CuH2(SeO3)4
_symmetry_space_group_name_H-M   'P 1'
_cell_length_a   5.81450453
_cell_length_b   7.15799449
_cell_length_c   9.01084731
_cell_angle_alpha   72.85723400
_cell_angle_beta   71.32818526
_cell_angle_gamma   80.93628860
_symmetry_Int_Tables_number   1
_chemical_formula_structural   Sr2CuH2(SeO3)4
_chemical_formula_sum   'Sr2 Cu1 H2 Se4 O12'
_cell_volume   338.68230309
_cell_formula_units_Z   1
loop_
 _symmetry_equiv_pos_site_id
 _symmetry_equiv_pos_as_xyz
  1  'x, y, z'
loop_
 _atom_site_type_symbol
 _atom_site_label
 _atom_site_symmetry_multiplicity
 _atom_site_fract_x
 _atom_site_fract_y
 _atom_site_fract_z
 _atom_site_occupancy
  Sr  Sr0  1  0.105990  0.206325  0.579891  1
  Sr  Sr1  1  0.894010  0.793675  0.420109  1
  Cu  Cu2  1  0.000000  0.000000  0.000000  1
  H  H3  1  0.307816  0.825369  0.141253  1
  H  H4  1  0.692184  0.174631  0.858747  1
  Se  Se5  1  0.458106  0.122951  0.207364  1
  Se  Se6  1  0.201636  0.559963  0.772126  1
  Se  Se7  1  0.798364  0.440037  0.227874  1
  Se  Se8  1  0.541894  0.877049  0.792636  1
  O  O9  1  0.151554  0.796953  0.140181  1
  O  O10  1  0.154353  0.554590  0.596333  1
  O  O11  1  0.977674  0.702520  0.859463  1
  O  O12  1  0.544860  0.247645  0.331614  1
  O  O13  1  0.313148  0.062792  0.814932  1
  O  O14  1  0.246166  0.001037  0.369878  1
  O  O15  1  0.753834  0.998963  0.630122  1
  O  O16  1  0.686852  0.937208  0.185068  1
  O  O17  1  0.455140  0.752355  0.668386  1
  O  O18  1  0.022326  0.297480  0.140537  1
  O  O19  1  0.845647  0.445410  0.403667  1
  O  O20  1  0.848446  0.203047  0.859819  1
