# generated using pymatgen
data_Tm2GeO5
_symmetry_space_group_name_H-M   'P 1'
_cell_length_a   8.16142532
_cell_length_b   8.16142532
_cell_length_c   10.37103229
_cell_angle_alpha   61.35848129
_cell_angle_beta   118.64151871
_cell_angle_gamma   130.70353251
_symmetry_Int_Tables_number   1
_chemical_formula_structural   Tm2GeO5
_chemical_formula_sum   'Tm8 Ge4 O20'
_cell_volume   444.94541970
_cell_formula_units_Z   4
loop_
 _symmetry_equiv_pos_site_id
 _symmetry_equiv_pos_as_xyz
  1  'x, y, z'
loop_
 _atom_site_type_symbol
 _atom_site_label
 _atom_site_symmetry_multiplicity
 _atom_site_fract_x
 _atom_site_fract_y
 _atom_site_fract_z
 _atom_site_occupancy
  Tm  Tm0  1  0.794220  0.725061  0.965435  1
  Tm  Tm1  1  0.991685  0.264437  0.662998  1
  Tm  Tm2  1  0.264437  0.991685  0.837002  1
  Tm  Tm3  1  0.725061  0.794220  0.534565  1
  Tm  Tm4  1  0.274939  0.205780  0.465435  1
  Tm  Tm5  1  0.735563  0.008315  0.162998  1
  Tm  Tm6  1  0.008315  0.735563  0.337002  1
  Tm  Tm7  1  0.205780  0.274939  0.034565  1
  Ge  Ge8  1  0.778642  0.408272  0.809454  1
  Ge  Ge9  1  0.591728  0.221358  0.309454  1
  Ge  Ge10  1  0.408272  0.778642  0.690546  1
  Ge  Ge11  1  0.221358  0.591728  0.190546  1
  O  O12  1  0.115293  0.080897  0.897768  1
  O  O13  1  0.627354  0.218147  0.949743  1
  O  O14  1  0.684523  0.915984  0.676563  1
  O  O15  1  0.915984  0.684523  0.823437  1
  O  O16  1  0.218147  0.627354  0.550257  1
  O  O17  1  0.080897  0.115293  0.602232  1
  O  O18  1  0.959343  0.347807  0.825190  1
  O  O19  1  0.584343  0.421703  0.633121  1
  O  O20  1  0.421703  0.584343  0.866879  1
  O  O21  1  0.347807  0.959343  0.674810  1
  O  O22  1  0.652193  0.040657  0.325190  1
  O  O23  1  0.578297  0.415657  0.133121  1
  O  O24  1  0.415657  0.578297  0.366879  1
  O  O25  1  0.040657  0.652193  0.174810  1
  O  O26  1  0.919103  0.884707  0.397768  1
  O  O27  1  0.781853  0.372646  0.449743  1
  O  O28  1  0.084016  0.315477  0.176563  1
  O  O29  1  0.315477  0.084016  0.323437  1
  O  O30  1  0.372646  0.781853  0.050257  1
  O  O31  1  0.884707  0.919103  0.102232  1
