# generated using pymatgen
data_Li5Mn5O9F
_symmetry_space_group_name_H-M   'P 1'
_cell_length_a   5.22176433
_cell_length_b   5.36142348
_cell_length_c   7.89258727
_cell_angle_alpha   105.69453665
_cell_angle_beta   104.52692392
_cell_angle_gamma   101.63819906
_symmetry_Int_Tables_number   1
_chemical_formula_structural   Li5Mn5O9F
_chemical_formula_sum   'Li5 Mn5 O9 F1'
_cell_volume   197.11896295
_cell_formula_units_Z   1
loop_
 _symmetry_equiv_pos_site_id
 _symmetry_equiv_pos_as_xyz
  1  'x, y, z'
loop_
 _atom_site_type_symbol
 _atom_site_label
 _atom_site_symmetry_multiplicity
 _atom_site_fract_x
 _atom_site_fract_y
 _atom_site_fract_z
 _atom_site_occupancy
  Li  Li0  1  0.694686  0.419933  0.908609  1
  Li  Li1  1  0.110730  0.200705  0.700510  1
  Li  Li2  1  0.497961  0.975321  0.484044  1
  Li  Li3  1  0.900351  0.800058  0.307950  1
  Li  Li4  1  0.300721  0.609371  0.103318  1
  Mn  Mn5  1  0.385076  0.797237  0.803196  1
  Mn  Mn6  1  0.796048  0.586455  0.598275  1
  Mn  Mn7  1  0.202921  0.399462  0.398370  1
  Mn  Mn8  1  0.607633  0.192971  0.197732  1
  Mn  Mn9  1  0.003589  0.990699  0.006872  1
  O  O10  1  0.018709  0.593567  0.835282  1
  O  O11  1  0.371023  0.166697  0.949599  1
  O  O12  1  0.448924  0.448776  0.649483  1
  O  O13  1  0.866829  0.206028  0.433409  1
  O  O14  1  0.134174  0.796998  0.570787  1
  O  O15  1  0.288884  0.015878  0.255301  1
  O  O16  1  0.544550  0.594868  0.367511  1
  O  O17  1  0.628489  0.788825  0.028337  1
  O  O18  1  0.948782  0.389931  0.163777  1
  F  F19  1  0.749918  0.026218  0.737633  1
