# generated using pymatgen
data_Li2CoNi3O8
_symmetry_space_group_name_H-M   'P 1'
_cell_length_a   5.68607349
_cell_length_b   5.68607349
_cell_length_c   5.68607349
_cell_angle_alpha   60.39760280
_cell_angle_beta   60.39760280
_cell_angle_gamma   60.39760280
_symmetry_Int_Tables_number   1
_chemical_formula_structural   Li2CoNi3O8
_chemical_formula_sum   'Li2 Co1 Ni3 O8'
_cell_volume   131.16260457
_cell_formula_units_Z   1
loop_
 _symmetry_equiv_pos_site_id
 _symmetry_equiv_pos_as_xyz
  1  'x, y, z'
loop_
 _atom_site_type_symbol
 _atom_site_label
 _atom_site_symmetry_multiplicity
 _atom_site_fract_x
 _atom_site_fract_y
 _atom_site_fract_z
 _atom_site_occupancy
  Li  Li0  1  0.875500  0.875500  0.875500  1
  Li  Li1  1  0.124500  0.124500  0.124500  1
  Co  Co2  1  0.500000  0.500000  0.500000  1
  Ni  Ni3  1  0.500000  0.500000  0.000000  1
  Ni  Ni4  1  0.500000  0.000000  0.500000  1
  Ni  Ni5  1  0.000000  0.500000  0.500000  1
  O  O6  1  0.735353  0.289825  0.735353  1
  O  O7  1  0.735353  0.735353  0.289825  1
  O  O8  1  0.262544  0.262544  0.262544  1
  O  O9  1  0.289825  0.735353  0.735353  1
  O  O10  1  0.710175  0.264647  0.264647  1
  O  O11  1  0.737456  0.737456  0.737456  1
  O  O12  1  0.264647  0.264647  0.710175  1
  O  O13  1  0.264647  0.710175  0.264647  1
