# generated using pymatgen
data_MgTi23O40
_symmetry_space_group_name_H-M   'P 1'
_cell_length_a   11.37034798
_cell_length_b   11.37034798
_cell_length_c   7.62038496
_cell_angle_alpha   80.33674799
_cell_angle_beta   99.66325201
_cell_angle_gamma   55.61421200
_symmetry_Int_Tables_number   1
_chemical_formula_structural   MgTi23O40
_chemical_formula_sum   'Mg1 Ti23 O40'
_cell_volume   758.58226729
_cell_formula_units_Z   1
loop_
 _symmetry_equiv_pos_site_id
 _symmetry_equiv_pos_as_xyz
  1  'x, y, z'
loop_
 _atom_site_type_symbol
 _atom_site_label
 _atom_site_symmetry_multiplicity
 _atom_site_fract_x
 _atom_site_fract_y
 _atom_site_fract_z
 _atom_site_occupancy
  Mg  Mg0  1  0.571585  0.428415  0.598986  1
  Ti  Ti1  1  0.837013  0.355126  0.930928  1
  Ti  Ti2  1  0.837179  0.355768  0.434929  1
  Ti  Ti3  1  0.573225  0.426775  0.098705  1
  Ti  Ti4  1  0.354839  0.337536  0.066762  1
  Ti  Ti5  1  0.355754  0.334224  0.568225  1
  Ti  Ti6  1  0.144957  0.662790  0.933462  1
  Ti  Ti7  1  0.147595  0.664578  0.433520  1
  Ti  Ti8  1  0.335422  0.852405  0.433520  1
  Ti  Ti9  1  0.337210  0.855043  0.933462  1
  Ti  Ti10  1  0.928811  0.569629  0.401126  1
  Ti  Ti11  1  0.929053  0.569822  0.902724  1
  Ti  Ti12  1  0.070727  0.929273  0.096693  1
  Ti  Ti13  1  0.070458  0.929542  0.599203  1
  Ti  Ti14  1  0.665776  0.644246  0.568225  1
  Ti  Ti15  1  0.662464  0.645161  0.066762  1
  Ti  Ti16  1  0.851202  0.837043  0.566490  1
  Ti  Ti17  1  0.852798  0.838621  0.065866  1
  Ti  Ti18  1  0.644874  0.162987  0.930928  1
  Ti  Ti19  1  0.644232  0.162821  0.434929  1
  Ti  Ti20  1  0.430371  0.071189  0.401126  1
  Ti  Ti21  1  0.430178  0.070947  0.902724  1
  Ti  Ti22  1  0.161379  0.147202  0.065866  1
  Ti  Ti23  1  0.162957  0.148798  0.566490  1
  O  O24  1  0.780542  0.403799  0.156819  1
  O  O25  1  0.779598  0.403946  0.656332  1
  O  O26  1  0.647783  0.352217  0.377322  1
  O  O27  1  0.647009  0.352991  0.895557  1
  O  O28  1  0.397907  0.280214  0.843160  1
  O  O29  1  0.401216  0.277538  0.342404  1
  O  O30  1  0.351495  0.510299  0.522891  1
  O  O31  1  0.361583  0.509329  0.025272  1
  O  O32  1  0.490671  0.638417  0.025272  1
  O  O33  1  0.489701  0.648505  0.522891  1
  O  O34  1  0.013251  0.360455  0.475771  1
  O  O35  1  0.012260  0.360607  0.975769  1
  O  O36  1  0.139946  0.489887  0.975852  1
  O  O37  1  0.141700  0.490608  0.474478  1
  O  O38  1  0.281068  0.901186  0.656526  1
  O  O39  1  0.281303  0.901524  0.158295  1
  O  O40  1  0.098814  0.718932  0.656526  1
  O  O41  1  0.098476  0.718697  0.158295  1
  O  O42  1  0.140829  0.859171  0.883096  1
  O  O43  1  0.141443  0.858557  0.383189  1
  O  O44  1  0.863113  0.639482  0.618508  1
  O  O45  1  0.858694  0.640734  0.116653  1
  O  O46  1  0.902263  0.776004  0.343727  1
  O  O47  1  0.898804  0.780212  0.842637  1
  O  O48  1  0.719786  0.602093  0.843160  1
  O  O49  1  0.722462  0.598784  0.342404  1
  O  O50  1  0.859001  0.009152  0.523489  1
  O  O51  1  0.860640  0.010095  0.025294  1
  O  O52  1  0.990848  0.140999  0.523489  1
  O  O53  1  0.989905  0.139360  0.025294  1
  O  O54  1  0.510113  0.860054  0.975852  1
  O  O55  1  0.509392  0.858300  0.474478  1
  O  O56  1  0.639393  0.987740  0.975769  1
  O  O57  1  0.639545  0.986749  0.475771  1
  O  O58  1  0.596201  0.219458  0.156819  1
  O  O59  1  0.596054  0.220402  0.656332  1
  O  O60  1  0.360518  0.136887  0.618508  1
  O  O61  1  0.359266  0.141306  0.116653  1
  O  O62  1  0.223996  0.097737  0.343727  1
  O  O63  1  0.219788  0.101196  0.842637  1
