# generated using pymatgen
data_Na5Mn11O24
_symmetry_space_group_name_H-M   'P 1'
_cell_length_a   6.13623210
_cell_length_b   6.13623210
_cell_length_c   14.84363489
_cell_angle_alpha   87.19077247
_cell_angle_beta   92.80922753
_cell_angle_gamma   121.43287842
_symmetry_Int_Tables_number   1
_chemical_formula_structural   Na5Mn11O24
_chemical_formula_sum   'Na5 Mn11 O24'
_cell_volume   476.13954617
_cell_formula_units_Z   1
loop_
 _symmetry_equiv_pos_site_id
 _symmetry_equiv_pos_as_xyz
  1  'x, y, z'
loop_
 _atom_site_type_symbol
 _atom_site_label
 _atom_site_symmetry_multiplicity
 _atom_site_fract_x
 _atom_site_fract_y
 _atom_site_fract_z
 _atom_site_occupancy
  Na  Na0  1  0.349553  0.650447  0.301627  1
  Na  Na1  1  0.003619  0.996381  0.376200  1
  Na  Na2  1  0.996546  0.003454  0.623499  1
  Na  Na3  1  0.649089  0.350911  0.696055  1
  Na  Na4  1  0.673587  0.326413  0.956756  1
  Mn  Mn5  1  0.836620  0.163380  0.161353  1
  Mn  Mn6  1  0.999952  0.000048  0.001778  1
  Mn  Mn7  1  0.837898  0.661256  0.163835  1
  Mn  Mn8  1  0.338744  0.162102  0.163835  1
  Mn  Mn9  1  0.681973  0.318027  0.332045  1
  Mn  Mn10  1  0.317511  0.682489  0.666920  1
  Mn  Mn11  1  0.500169  0.999748  0.499467  1
  Mn  Mn12  1  0.000252  0.499831  0.499467  1
  Mn  Mn13  1  0.162887  0.341912  0.836483  1
  Mn  Mn14  1  0.658088  0.837113  0.836483  1
  Mn  Mn15  1  0.163699  0.836301  0.839327  1
  O  O16  1  0.144656  0.281484  0.085137  1
  O  O17  1  0.718516  0.855344  0.085137  1
  O  O18  1  0.141563  0.858437  0.088380  1
  O  O19  1  0.007118  0.992882  0.227336  1
  O  O20  1  0.819372  0.180628  0.427694  1
  O  O21  1  0.322709  0.677291  0.444789  1
  O  O22  1  0.664000  0.336000  0.099078  1
  O  O23  1  0.537276  0.462724  0.239660  1
  O  O24  1  0.535169  0.037896  0.236038  1
  O  O25  1  0.145558  0.400877  0.599447  1
  O  O26  1  0.599123  0.854442  0.599447  1
  O  O27  1  0.962104  0.464831  0.236038  1
  O  O28  1  0.035267  0.535027  0.765530  1
  O  O29  1  0.464973  0.964733  0.765530  1
  O  O30  1  0.400714  0.145410  0.400724  1
  O  O31  1  0.854590  0.599286  0.400724  1
  O  O32  1  0.462306  0.537694  0.761251  1
  O  O33  1  0.335420  0.664580  0.904443  1
  O  O34  1  0.677944  0.322056  0.554283  1
  O  O35  1  0.992489  0.007511  0.772500  1
  O  O36  1  0.180976  0.819024  0.571837  1
  O  O37  1  0.860090  0.139910  0.910939  1
  O  O38  1  0.855937  0.721372  0.913632  1
  O  O39  1  0.278628  0.144063  0.913632  1
