# generated using pymatgen
data_Li5(CoO2)4
_symmetry_space_group_name_H-M   'P 1'
_cell_length_a   5.77872692
_cell_length_b   5.77872692
_cell_length_c   9.53728129
_cell_angle_alpha   90.00000000
_cell_angle_beta   90.00000000
_cell_angle_gamma   120.00000000
_symmetry_Int_Tables_number   1
_chemical_formula_structural   Li5(CoO2)4
_chemical_formula_sum   'Li10 Co8 O16'
_cell_volume   275.81607119
_cell_formula_units_Z   2
loop_
 _symmetry_equiv_pos_site_id
 _symmetry_equiv_pos_as_xyz
  1  'x, y, z'
loop_
 _atom_site_type_symbol
 _atom_site_label
 _atom_site_symmetry_multiplicity
 _atom_site_fract_x
 _atom_site_fract_y
 _atom_site_fract_z
 _atom_site_occupancy
  Li  Li0  1  0.191288  0.808712  0.057483  1
  Li  Li1  1  0.617424  0.808712  0.057483  1
  Li  Li2  1  0.333333  0.666667  0.277615  1
  Li  Li3  1  0.000000  0.000000  0.480115  1
  Li  Li4  1  0.191288  0.382576  0.057483  1
  Li  Li5  1  0.808712  0.617424  0.557483  1
  Li  Li6  1  0.382576  0.191288  0.557483  1
  Li  Li7  1  0.666667  0.333333  0.777615  1
  Li  Li8  1  0.808712  0.191288  0.557483  1
  Li  Li9  1  0.000000  0.000000  0.980115  1
  Co  Co10  1  0.333333  0.666667  0.527655  1
  Co  Co11  1  0.666667  0.333333  0.027655  1
  Co  Co12  1  0.659630  0.829815  0.786131  1
  Co  Co13  1  0.170185  0.340370  0.786131  1
  Co  Co14  1  0.829815  0.659630  0.286131  1
  Co  Co15  1  0.829815  0.170185  0.286131  1
  Co  Co16  1  0.170185  0.829815  0.786131  1
  Co  Co17  1  0.340370  0.170185  0.286131  1
  O  O18  1  0.158696  0.841304  0.399561  1
  O  O19  1  0.493048  0.986097  0.671847  1
  O  O20  1  0.013903  0.506952  0.671847  1
  O  O21  1  0.682609  0.841304  0.399561  1
  O  O22  1  0.333333  0.666667  0.894872  1
  O  O23  1  0.493048  0.506952  0.671847  1
  O  O24  1  0.841304  0.682609  0.899561  1
  O  O25  1  0.158696  0.317391  0.399561  1
  O  O26  1  0.506952  0.493048  0.171847  1
  O  O27  1  0.666667  0.333333  0.394872  1
  O  O28  1  0.000000  0.000000  0.179407  1
  O  O29  1  0.986097  0.493048  0.171847  1
  O  O30  1  0.000000  0.000000  0.679407  1
  O  O31  1  0.317391  0.158696  0.899561  1
  O  O32  1  0.506952  0.013903  0.171847  1
  O  O33  1  0.841304  0.158696  0.899561  1
