# generated using pymatgen
data_Mn3CoO8
_symmetry_space_group_name_H-M   'P 1'
_cell_length_a   8.24300228
_cell_length_b   8.24300228
_cell_length_c   8.24300228
_cell_angle_alpha   90.00000000
_cell_angle_beta   90.00000000
_cell_angle_gamma   90.00000000
_symmetry_Int_Tables_number   1
_chemical_formula_structural   Mn3CoO8
_chemical_formula_sum   'Mn12 Co4 O32'
_cell_volume   560.08798891
_cell_formula_units_Z   4
loop_
 _symmetry_equiv_pos_site_id
 _symmetry_equiv_pos_as_xyz
  1  'x, y, z'
loop_
 _atom_site_type_symbol
 _atom_site_label
 _atom_site_symmetry_multiplicity
 _atom_site_fract_x
 _atom_site_fract_y
 _atom_site_fract_z
 _atom_site_occupancy
  Mn  Mn0  1  0.127187  0.122813  0.625000  1
  Mn  Mn1  1  0.125000  0.372813  0.877187  1
  Mn  Mn2  1  0.122813  0.625000  0.127187  1
  Mn  Mn3  1  0.377187  0.375000  0.627187  1
  Mn  Mn4  1  0.375000  0.627187  0.377187  1
  Mn  Mn5  1  0.372813  0.877187  0.125000  1
  Mn  Mn6  1  0.627187  0.377187  0.375000  1
  Mn  Mn7  1  0.625000  0.127187  0.122813  1
  Mn  Mn8  1  0.622813  0.875000  0.872813  1
  Mn  Mn9  1  0.877187  0.125000  0.372813  1
  Mn  Mn10  1  0.875000  0.872813  0.622813  1
  Mn  Mn11  1  0.872813  0.622813  0.875000  1
  Co  Co12  1  0.125000  0.875000  0.375000  1
  Co  Co13  1  0.375000  0.125000  0.875000  1
  Co  Co14  1  0.625000  0.625000  0.625000  1
  Co  Co15  1  0.875000  0.375000  0.125000  1
  O  O16  1  0.112417  0.112867  0.390068  1
  O  O17  1  0.109932  0.887583  0.612867  1
  O  O18  1  0.107409  0.607409  0.892591  1
  O  O19  1  0.137133  0.137583  0.859932  1
  O  O20  1  0.112867  0.390068  0.112417  1
  O  O21  1  0.142591  0.357409  0.642591  1
  O  O22  1  0.140068  0.637133  0.362417  1
  O  O23  1  0.137583  0.859932  0.137133  1
  O  O24  1  0.362417  0.140068  0.637133  1
  O  O25  1  0.359932  0.362867  0.862417  1
  O  O26  1  0.357409  0.642591  0.142591  1
  O  O27  1  0.387133  0.609932  0.612417  1
  O  O28  1  0.362867  0.862417  0.359932  1
  O  O29  1  0.392591  0.392591  0.392591  1
  O  O30  1  0.390068  0.112417  0.112867  1
  O  O31  1  0.387583  0.887133  0.890068  1
  O  O32  1  0.612417  0.387133  0.609932  1
  O  O33  1  0.609932  0.612417  0.387133  1
  O  O34  1  0.607409  0.892591  0.107409  1
  O  O35  1  0.637133  0.362417  0.140068  1
  O  O36  1  0.612867  0.109932  0.887583  1
  O  O37  1  0.642591  0.142591  0.357409  1
  O  O38  1  0.640068  0.862867  0.637583  1
  O  O39  1  0.637583  0.640068  0.862867  1
  O  O40  1  0.862417  0.359932  0.362867  1
  O  O41  1  0.859932  0.137133  0.137583  1
  O  O42  1  0.857409  0.857409  0.857409  1
  O  O43  1  0.887133  0.890068  0.387583  1
  O  O44  1  0.862867  0.637583  0.640068  1
  O  O45  1  0.892591  0.107409  0.607409  1
  O  O46  1  0.890068  0.387583  0.887133  1
  O  O47  1  0.887583  0.612867  0.109932  1
