# generated using pymatgen
data_Fe2O2F3
_symmetry_space_group_name_H-M   'P 1'
_cell_length_a   5.67046626
_cell_length_b   5.67046626
_cell_length_c   7.03928577
_cell_angle_alpha   72.60034012
_cell_angle_beta   107.39965988
_cell_angle_gamma   126.28186131
_symmetry_Int_Tables_number   1
_chemical_formula_structural   Fe2O2F3
_chemical_formula_sum   'Fe4 O4 F6'
_cell_volume   171.90275534
_cell_formula_units_Z   2
loop_
 _symmetry_equiv_pos_site_id
 _symmetry_equiv_pos_as_xyz
  1  'x, y, z'
loop_
 _atom_site_type_symbol
 _atom_site_label
 _atom_site_symmetry_multiplicity
 _atom_site_fract_x
 _atom_site_fract_y
 _atom_site_fract_z
 _atom_site_occupancy
  Fe  Fe0  1  0.310585  0.700131  0.621481  1
  Fe  Fe1  1  0.700131  0.310585  0.878519  1
  Fe  Fe2  1  0.299869  0.689415  0.121481  1
  Fe  Fe3  1  0.689415  0.299869  0.378519  1
  O  O4  1  0.549493  0.121097  0.641114  1
  O  O5  1  0.878903  0.450507  0.141114  1
  O  O6  1  0.121097  0.549493  0.858886  1
  O  O7  1  0.450507  0.878903  0.358886  1
  F  F8  1  0.067552  0.314830  0.535224  1
  F  F9  1  0.685170  0.932448  0.035224  1
  F  F10  1  0.622778  0.622778  0.750000  1
  F  F11  1  0.377222  0.377222  0.250000  1
  F  F12  1  0.314830  0.067552  0.964776  1
  F  F13  1  0.932448  0.685170  0.464776  1
