# generated using pymatgen
data_Li6CrCo3(PO4)6
_symmetry_space_group_name_H-M   'P 1'
_cell_length_a   8.45435391
_cell_length_b   8.52839755
_cell_length_c   8.52825092
_cell_angle_alpha   61.98399180
_cell_angle_beta   62.23229672
_cell_angle_gamma   62.13924646
_symmetry_Int_Tables_number   1
_chemical_formula_structural   Li6CrCo3(PO4)6
_chemical_formula_sum   'Li6 Cr1 Co3 P6 O24'
_cell_volume   455.38500617
_cell_formula_units_Z   1
loop_
 _symmetry_equiv_pos_site_id
 _symmetry_equiv_pos_as_xyz
  1  'x, y, z'
loop_
 _atom_site_type_symbol
 _atom_site_label
 _atom_site_symmetry_multiplicity
 _atom_site_fract_x
 _atom_site_fract_y
 _atom_site_fract_z
 _atom_site_occupancy
  Li  Li0  1  0.975106  0.002197  0.991141  1
  Li  Li1  1  0.251097  0.653619  0.847141  1
  Li  Li2  1  0.524997  0.506749  0.494230  1
  Li  Li3  1  0.728952  0.351008  0.160281  1
  Li  Li4  1  0.347422  0.163931  0.726586  1
  Li  Li5  1  0.164467  0.727862  0.348868  1
  Cr  Cr6  1  0.142617  0.144464  0.144358  1
  Co  Co7  1  0.854516  0.862752  0.853117  1
  Co  Co8  1  0.646170  0.646614  0.638539  1
  Co  Co9  1  0.351684  0.350113  0.349260  1
  P  P10  1  0.951321  0.549023  0.247410  1
  P  P11  1  0.548005  0.250130  0.951415  1
  P  P12  1  0.248975  0.954440  0.546247  1
  P  P13  1  0.750009  0.043406  0.458789  1
  P  P14  1  0.456888  0.749861  0.040253  1
  P  P15  1  0.045227  0.462273  0.750629  1
  O  O16  1  0.871180  0.501924  0.707683  1
  O  O17  1  0.695059  0.881561  0.490731  1
  O  O18  1  0.951564  0.733222  0.079386  1
  O  O19  1  0.467684  0.703721  0.880973  1
  O  O20  1  0.763348  0.566800  0.407532  1
  O  O21  1  0.985435  0.385486  0.191973  1
  O  O22  1  0.738913  0.094130  0.930215  1
  O  O23  1  0.544606  0.422093  0.770437  1
  O  O24  1  0.406713  0.761065  0.566540  1
  O  O25  1  0.815118  0.004738  0.616461  1
  O  O26  1  0.903612  0.074140  0.261360  1
  O  O27  1  0.625418  0.803432  0.993996  1
  O  O28  1  0.384414  0.190166  0.990333  1
  O  O29  1  0.094794  0.931824  0.740740  1
  O  O30  1  0.188822  0.990101  0.385952  1
  O  O31  1  0.584691  0.233469  0.447242  1
  O  O32  1  0.449721  0.582936  0.229214  1
  O  O33  1  0.261437  0.905356  0.078561  1
  O  O34  1  0.028384  0.617637  0.805987  1
  O  O35  1  0.231630  0.444802  0.581869  1
  O  O36  1  0.521738  0.305329  0.115370  1
  O  O37  1  0.072850  0.264588  0.904972  1
  O  O38  1  0.309215  0.114375  0.518457  1
  O  O39  1  0.116199  0.517663  0.306753  1
