# generated using pymatgen
data_Li7Co5O12
_symmetry_space_group_name_H-M   'P 1'
_cell_length_a   4.90350938
_cell_length_b   4.90350938
_cell_length_c   9.60966607
_cell_angle_alpha   84.99111052
_cell_angle_beta   95.00888948
_cell_angle_gamma   60.07474163
_symmetry_Int_Tables_number   1
_chemical_formula_structural   Li7Co5O12
_chemical_formula_sum   'Li7 Co5 O12'
_cell_volume   197.18349650
_cell_formula_units_Z   1
loop_
 _symmetry_equiv_pos_site_id
 _symmetry_equiv_pos_as_xyz
  1  'x, y, z'
loop_
 _atom_site_type_symbol
 _atom_site_label
 _atom_site_symmetry_multiplicity
 _atom_site_fract_x
 _atom_site_fract_y
 _atom_site_fract_z
 _atom_site_occupancy
  Li  Li0  1  0.243876  0.756124  0.250804  1
  Li  Li1  1  0.915578  0.408811  0.251255  1
  Li  Li2  1  0.084422  0.591189  0.748745  1
  Li  Li3  1  0.756124  0.243876  0.749196  1
  Li  Li4  1  0.408811  0.915578  0.748745  1
  Li  Li5  1  0.591189  0.084422  0.251255  1
  Li  Li6  1  0.000000  0.000000  0.500000  1
  Co  Co7  1  0.665605  0.665605  0.500000  1
  Co  Co8  1  0.500000  0.500000  0.000000  1
  Co  Co9  1  0.163887  0.163887  0.000000  1
  Co  Co10  1  0.334395  0.334395  0.500000  1
  Co  Co11  1  0.836113  0.836113  0.000000  1
  O  O12  1  0.793199  0.534243  0.892086  1
  O  O13  1  0.033461  0.326431  0.611842  1
  O  O14  1  0.394857  0.605143  0.611434  1
  O  O15  1  0.326431  0.033461  0.388158  1
  O  O16  1  0.534243  0.793199  0.107914  1
  O  O17  1  0.605143  0.394857  0.388566  1
  O  O18  1  0.870620  0.129380  0.109851  1
  O  O19  1  0.966539  0.673569  0.388158  1
  O  O20  1  0.206801  0.465757  0.107914  1
  O  O21  1  0.129380  0.870620  0.890149  1
  O  O22  1  0.465757  0.206801  0.892086  1
  O  O23  1  0.673569  0.966539  0.611842  1
