# generated using pymatgen
data_LiVCrP2(HO5)2
_symmetry_space_group_name_H-M   'P 1'
_cell_length_a   5.30974981
_cell_length_b   7.36477292
_cell_length_c   10.37056387
_cell_angle_alpha   105.44666547
_cell_angle_beta   96.97977308
_cell_angle_gamma   110.16861632
_symmetry_Int_Tables_number   1
_chemical_formula_structural   LiVCrP2(HO5)2
_chemical_formula_sum   'Li2 V2 Cr2 P4 H4 O20'
_cell_volume   356.57752039
_cell_formula_units_Z   2
loop_
 _symmetry_equiv_pos_site_id
 _symmetry_equiv_pos_as_xyz
  1  'x, y, z'
loop_
 _atom_site_type_symbol
 _atom_site_label
 _atom_site_symmetry_multiplicity
 _atom_site_fract_x
 _atom_site_fract_y
 _atom_site_fract_z
 _atom_site_occupancy
  Li  Li0  1  0.345865  0.933130  0.782188  1
  Li  Li1  1  0.654135  0.066870  0.217812  1
  V  V2  1  0.000000  0.000000  0.500000  1
  V  V3  1  0.500000  0.500000  0.000000  1
  Cr  Cr4  1  0.251287  0.255471  0.252228  1
  Cr  Cr5  1  0.748713  0.744529  0.747772  1
  P  P6  1  0.848117  0.200173  0.976120  1
  P  P7  1  0.351647  0.702311  0.474243  1
  P  P8  1  0.151883  0.799827  0.023880  1
  P  P9  1  0.648353  0.297689  0.525757  1
  H  H10  1  0.961590  0.901178  0.246160  1
  H  H11  1  0.038410  0.098822  0.753840  1
  H  H12  1  0.434598  0.403739  0.743321  1
  H  H13  1  0.565402  0.596261  0.256679  1
  O  O14  1  0.772271  0.528572  0.596355  1
  O  O15  1  0.890964  0.697035  0.074947  1
  O  O16  1  0.868680  0.210025  0.560625  1
  O  O17  1  0.912981  0.239330  0.131649  1
  O  O18  1  0.087019  0.760670  0.868351  1
  O  O19  1  0.012145  0.965918  0.686984  1
  O  O20  1  0.987855  0.034082  0.313016  1
  O  O21  1  0.227729  0.471428  0.403645  1
  O  O22  1  0.109036  0.302965  0.925053  1
  O  O23  1  0.380402  0.723562  0.064039  1
  O  O24  1  0.131320  0.789975  0.439375  1
  O  O25  1  0.391236  0.199270  0.582079  1
  O  O26  1  0.283587  0.030955  0.105229  1
  O  O27  1  0.491329  0.464344  0.180034  1
  O  O28  1  0.508671  0.535656  0.819966  1
  O  O29  1  0.431857  0.761619  0.632101  1
  O  O30  1  0.568143  0.238381  0.367899  1
  O  O31  1  0.619598  0.276438  0.935961  1
  O  O32  1  0.608764  0.800730  0.417921  1
  O  O33  1  0.716413  0.969045  0.894771  1
