# generated using pymatgen
data_Fe7O8
_symmetry_space_group_name_H-M   'P 1'
_cell_length_a   6.08702869
_cell_length_b   6.16343050
_cell_length_c   10.73150279
_cell_angle_alpha   73.78770664
_cell_angle_beta   73.63884069
_cell_angle_gamma   60.65670088
_symmetry_Int_Tables_number   1
_chemical_formula_structural   Fe7O8
_chemical_formula_sum   'Fe14 O16'
_cell_volume   331.91562087
_cell_formula_units_Z   2
loop_
 _symmetry_equiv_pos_site_id
 _symmetry_equiv_pos_as_xyz
  1  'x, y, z'
loop_
 _atom_site_type_symbol
 _atom_site_label
 _atom_site_symmetry_multiplicity
 _atom_site_fract_x
 _atom_site_fract_y
 _atom_site_fract_z
 _atom_site_occupancy
  Fe  Fe0  1  0.000000  0.500000  0.000000  1
  Fe  Fe1  1  0.500000  0.000000  0.500000  1
  Fe  Fe2  1  0.260244  0.243938  0.748428  1
  Fe  Fe3  1  0.739756  0.756062  0.251572  1
  Fe  Fe4  1  0.500000  0.500000  0.000000  1
  Fe  Fe5  1  0.000000  0.000000  0.500000  1
  Fe  Fe6  1  0.500000  0.000000  0.000000  1
  Fe  Fe7  1  0.000000  0.500000  0.500000  1
  Fe  Fe8  1  0.751032  0.257661  0.750005  1
  Fe  Fe9  1  0.248968  0.742339  0.249995  1
  Fe  Fe10  1  0.241702  0.751349  0.751797  1
  Fe  Fe11  1  0.758298  0.248651  0.248203  1
  Fe  Fe12  1  0.000000  0.000000  0.000000  1
  Fe  Fe13  1  0.500000  0.500000  0.500000  1
  O  O14  1  0.878711  0.854668  0.382378  1
  O  O15  1  0.383014  0.354240  0.881217  1
  O  O16  1  0.121289  0.145332  0.617622  1
  O  O17  1  0.616986  0.645760  0.118783  1
  O  O18  1  0.145679  0.614233  0.616199  1
  O  O19  1  0.645639  0.119656  0.116024  1
  O  O20  1  0.376221  0.841058  0.379757  1
  O  O21  1  0.885456  0.344221  0.880925  1
  O  O22  1  0.371077  0.373122  0.392177  1
  O  O23  1  0.865078  0.879493  0.891469  1
  O  O24  1  0.628923  0.626878  0.607823  1
  O  O25  1  0.134922  0.120507  0.108531  1
  O  O26  1  0.623779  0.158942  0.620243  1
  O  O27  1  0.114544  0.655779  0.119075  1
  O  O28  1  0.854321  0.385767  0.383801  1
  O  O29  1  0.354361  0.880344  0.883976  1
