# generated using pymatgen
data_Co(CuO2)4
_symmetry_space_group_name_H-M   'P 1'
_cell_length_a   5.96099905
_cell_length_b   5.96099905
_cell_length_c   5.48533891
_cell_angle_alpha   69.46776087
_cell_angle_beta   110.53223913
_cell_angle_gamma   122.38591426
_symmetry_Int_Tables_number   1
_chemical_formula_structural   Co(CuO2)4
_chemical_formula_sum   'Co1 Cu4 O8'
_cell_volume   150.83583284
_cell_formula_units_Z   1
loop_
 _symmetry_equiv_pos_site_id
 _symmetry_equiv_pos_as_xyz
  1  'x, y, z'
loop_
 _atom_site_type_symbol
 _atom_site_label
 _atom_site_symmetry_multiplicity
 _atom_site_fract_x
 _atom_site_fract_y
 _atom_site_fract_z
 _atom_site_occupancy
  Co  Co0  1  0.500000  0.500000  0.000000  1
  Cu  Cu1  1  0.500000  0.500000  0.500000  1
  Cu  Cu2  1  0.000000  0.000000  0.000000  1
  Cu  Cu3  1  0.000000  0.500000  0.000000  1
  Cu  Cu4  1  0.500000  0.000000  0.000000  1
  O  O5  1  0.699376  0.300624  0.171959  1
  O  O6  1  0.702018  0.735763  0.231565  1
  O  O7  1  0.264237  0.297982  0.231565  1
  O  O8  1  0.197520  0.802480  0.160738  1
  O  O9  1  0.802480  0.197520  0.839262  1
  O  O10  1  0.735763  0.702018  0.768435  1
  O  O11  1  0.297982  0.264237  0.768435  1
  O  O12  1  0.300624  0.699376  0.828041  1
