# generated using pymatgen
data_Dy(PO3)3
_symmetry_space_group_name_H-M   'P 1'
_cell_length_a   7.06395759
_cell_length_b   9.79623553
_cell_length_c   11.09328608
_cell_angle_alpha   90.00000000
_cell_angle_beta   91.84442999
_cell_angle_gamma   90.00000000
_symmetry_Int_Tables_number   1
_chemical_formula_structural   Dy(PO3)3
_chemical_formula_sum   'Dy4 P12 O36'
_cell_volume   767.25980893
_cell_formula_units_Z   4
loop_
 _symmetry_equiv_pos_site_id
 _symmetry_equiv_pos_as_xyz
  1  'x, y, z'
loop_
 _atom_site_type_symbol
 _atom_site_label
 _atom_site_symmetry_multiplicity
 _atom_site_fract_x
 _atom_site_fract_y
 _atom_site_fract_z
 _atom_site_occupancy
  Dy  Dy0  1  0.811140  0.250000  0.981920  1
  Dy  Dy1  1  0.672316  0.250000  0.463298  1
  Dy  Dy2  1  0.327684  0.750000  0.536702  1
  Dy  Dy3  1  0.188860  0.750000  0.018080  1
  P  P4  1  0.826657  0.466016  0.716113  1
  P  P5  1  0.826657  0.033984  0.716113  1
  P  P6  1  0.815689  0.750000  0.626124  1
  P  P7  1  0.766453  0.490158  0.232356  1
  P  P8  1  0.766453  0.009842  0.232356  1
  P  P9  1  0.678165  0.750000  0.103231  1
  P  P10  1  0.321835  0.250000  0.896769  1
  P  P11  1  0.233547  0.990158  0.767644  1
  P  P12  1  0.233547  0.509842  0.767644  1
  P  P13  1  0.184311  0.250000  0.373876  1
  P  P14  1  0.173343  0.966016  0.283887  1
  P  P15  1  0.173343  0.533984  0.283887  1
  O  O16  1  0.989366  0.250000  0.423859  1
  O  O17  1  0.949223  0.948859  0.305576  1
  O  O18  1  0.949223  0.551141  0.305576  1
  O  O19  1  0.874079  0.750000  0.054925  1
  O  O20  1  0.827751  0.415891  0.121805  1
  O  O21  1  0.827751  0.084109  0.121805  1
  O  O22  1  0.796099  0.871864  0.722831  1
  O  O23  1  0.796099  0.628136  0.722831  1
  O  O24  1  0.779746  0.089730  0.836896  1
  O  O25  1  0.779746  0.410270  0.836896  1
  O  O26  1  0.728314  0.408614  0.605452  1
  O  O27  1  0.728314  0.091386  0.605452  1
  O  O28  1  0.650908  0.874575  0.196549  1
  O  O29  1  0.650908  0.625425  0.196549  1
  O  O30  1  0.649167  0.414374  0.320665  1
  O  O31  1  0.649167  0.085626  0.320665  1
  O  O32  1  0.648376  0.750000  0.538860  1
  O  O33  1  0.511067  0.750000  0.016453  1
  O  O34  1  0.488933  0.250000  0.983547  1
  O  O35  1  0.351624  0.250000  0.461140  1
  O  O36  1  0.350833  0.914374  0.679335  1
  O  O37  1  0.350833  0.585626  0.679335  1
  O  O38  1  0.349092  0.374575  0.803451  1
  O  O39  1  0.349092  0.125425  0.803451  1
  O  O40  1  0.271686  0.908614  0.394548  1
  O  O41  1  0.271686  0.591386  0.394548  1
  O  O42  1  0.220254  0.910270  0.163104  1
  O  O43  1  0.220254  0.589730  0.163104  1
  O  O44  1  0.203901  0.371864  0.277169  1
  O  O45  1  0.203901  0.128136  0.277169  1
  O  O46  1  0.172249  0.915891  0.878195  1
  O  O47  1  0.172249  0.584109  0.878195  1
  O  O48  1  0.125921  0.250000  0.945075  1
  O  O49  1  0.050777  0.448859  0.694424  1
  O  O50  1  0.050777  0.051141  0.694424  1
  O  O51  1  0.010634  0.750000  0.576141  1
