# generated using pymatgen
data_Li2Fe3F8
_symmetry_space_group_name_H-M   'P 1'
_cell_length_a   6.23343765
_cell_length_b   6.23343765
_cell_length_c   6.23343765
_cell_angle_alpha   59.31060344
_cell_angle_beta   59.31060344
_cell_angle_gamma   59.31060344
_symmetry_Int_Tables_number   1
_chemical_formula_structural   Li2Fe3F8
_chemical_formula_sum   'Li2 Fe3 F8'
_cell_volume   168.57642346
_cell_formula_units_Z   1
loop_
 _symmetry_equiv_pos_site_id
 _symmetry_equiv_pos_as_xyz
  1  'x, y, z'
loop_
 _atom_site_type_symbol
 _atom_site_label
 _atom_site_symmetry_multiplicity
 _atom_site_fract_x
 _atom_site_fract_y
 _atom_site_fract_z
 _atom_site_occupancy
  Li  Li0  1  0.132984  0.132984  0.132984  1
  Li  Li1  1  0.867016  0.867016  0.867016  1
  Fe  Fe2  1  0.000000  0.500000  0.500000  1
  Fe  Fe3  1  0.500000  0.000000  0.500000  1
  Fe  Fe4  1  0.500000  0.500000  0.000000  1
  F  F5  1  0.098407  0.098407  0.570000  1
  F  F6  1  0.098407  0.570000  0.098407  1
  F  F7  1  0.570000  0.098407  0.098407  1
  F  F8  1  0.596045  0.596045  0.596045  1
  F  F9  1  0.403955  0.403955  0.403955  1
  F  F10  1  0.430000  0.901593  0.901593  1
  F  F11  1  0.901593  0.430000  0.901593  1
  F  F12  1  0.901593  0.901593  0.430000  1
