# generated using pymatgen
data_Na4H2RuN6O13
_symmetry_space_group_name_H-M   'P 1'
_cell_length_a   7.65393583
_cell_length_b   7.65393583
_cell_length_c   12.29190369
_cell_angle_alpha   87.48966076
_cell_angle_beta   92.51033924
_cell_angle_gamma   63.03193992
_symmetry_Int_Tables_number   1
_chemical_formula_structural   Na4H2RuN6O13
_chemical_formula_sum   'Na8 H4 Ru2 N12 O26'
_cell_volume   639.53313334
_cell_formula_units_Z   2
loop_
 _symmetry_equiv_pos_site_id
 _symmetry_equiv_pos_as_xyz
  1  'x, y, z'
loop_
 _atom_site_type_symbol
 _atom_site_label
 _atom_site_symmetry_multiplicity
 _atom_site_fract_x
 _atom_site_fract_y
 _atom_site_fract_z
 _atom_site_occupancy
  Na  Na0  1  0.028010  0.722408  0.880673  1
  Na  Na1  1  0.722408  0.028010  0.619327  1
  Na  Na2  1  0.971990  0.277592  0.119327  1
  Na  Na3  1  0.277592  0.971990  0.380673  1
  Na  Na4  1  0.830131  0.344042  0.806375  1
  Na  Na5  1  0.344042  0.830131  0.693625  1
  Na  Na6  1  0.169869  0.655958  0.193625  1
  Na  Na7  1  0.655958  0.169869  0.306375  1
  H  H8  1  0.436735  0.467517  0.812341  1
  H  H9  1  0.467517  0.436735  0.687659  1
  H  H10  1  0.563265  0.532483  0.187659  1
  H  H11  1  0.532483  0.563265  0.312341  1
  Ru  Ru12  1  0.500000  0.000000  0.000000  1
  Ru  Ru13  1  0.000000  0.500000  0.500000  1
  N  N14  1  0.241184  0.012160  0.932314  1
  N  N15  1  0.012160  0.241184  0.567686  1
  N  N16  1  0.758816  0.987840  0.067686  1
  N  N17  1  0.987840  0.758816  0.432314  1
  N  N18  1  0.652488  0.697505  0.984732  1
  N  N19  1  0.697505  0.652488  0.515268  1
  N  N20  1  0.347512  0.302495  0.015268  1
  N  N21  1  0.302495  0.347512  0.484732  1
  N  N22  1  0.576293  0.042669  0.843879  1
  N  N23  1  0.042669  0.576293  0.656121  1
  N  N24  1  0.423707  0.957331  0.156121  1
  N  N25  1  0.957331  0.423707  0.343879  1
  O  O26  1  0.076824  0.156576  0.944063  1
  O  O27  1  0.156576  0.076824  0.555937  1
  O  O28  1  0.923176  0.843424  0.055937  1
  O  O29  1  0.843424  0.923176  0.444063  1
  O  O30  1  0.242631  0.878106  0.875536  1
  O  O31  1  0.878106  0.242631  0.624464  1
  O  O32  1  0.757369  0.121894  0.124464  1
  O  O33  1  0.121894  0.757369  0.375536  1
  O  O34  1  0.753777  0.634619  0.903403  1
  O  O35  1  0.634619  0.753777  0.596597  1
  O  O36  1  0.246223  0.365381  0.096597  1
  O  O37  1  0.365381  0.246223  0.403403  1
  O  O38  1  0.655977  0.570598  0.054660  1
  O  O39  1  0.570598  0.655977  0.445340  1
  O  O40  1  0.344023  0.429402  0.945340  1
  O  O41  1  0.429402  0.344023  0.554660  1
  O  O42  1  0.470269  0.057246  0.759503  1
  O  O43  1  0.057246  0.470269  0.740497  1
  O  O44  1  0.529731  0.942754  0.240497  1
  O  O45  1  0.942754  0.529731  0.259503  1
  O  O46  1  0.736567  0.049918  0.829431  1
  O  O47  1  0.049918  0.736567  0.670569  1
  O  O48  1  0.263433  0.950082  0.170569  1
  O  O49  1  0.950082  0.263433  0.329431  1
  O  O50  1  0.497476  0.497476  0.750000  1
  O  O51  1  0.502524  0.502524  0.250000  1
