# generated using pymatgen
data_H8AuC2S2BrN4
_symmetry_space_group_name_H-M   'P 1'
_cell_length_a   9.32454272
_cell_length_b   9.32454272
_cell_length_c   6.95879144
_cell_angle_alpha   84.35973496
_cell_angle_beta   95.64026504
_cell_angle_gamma   57.84911437
_symmetry_Int_Tables_number   1
_chemical_formula_structural   H8AuC2S2BrN4
_chemical_formula_sum   'H16 Au2 C4 S4 Br2 N8'
_cell_volume   501.57470553
_cell_formula_units_Z   2
loop_
 _symmetry_equiv_pos_site_id
 _symmetry_equiv_pos_as_xyz
  1  'x, y, z'
loop_
 _atom_site_type_symbol
 _atom_site_label
 _atom_site_symmetry_multiplicity
 _atom_site_fract_x
 _atom_site_fract_y
 _atom_site_fract_z
 _atom_site_occupancy
  H  H0  1  0.305113  0.727058  0.732707  1
  H  H1  1  0.727058  0.305113  0.767293  1
  H  H2  1  0.694887  0.272942  0.267293  1
  H  H3  1  0.272942  0.694887  0.232707  1
  H  H4  1  0.471791  0.683548  0.919000  1
  H  H5  1  0.683548  0.471791  0.581000  1
  H  H6  1  0.528209  0.316452  0.081000  1
  H  H7  1  0.316452  0.528209  0.419000  1
  H  H8  1  0.483773  0.042679  0.735735  1
  H  H9  1  0.042679  0.483773  0.764265  1
  H  H10  1  0.516227  0.957321  0.264265  1
  H  H11  1  0.957321  0.516227  0.235735  1
  H  H12  1  0.587255  0.846862  0.900461  1
  H  H13  1  0.846862  0.587255  0.599539  1
  H  H14  1  0.412745  0.153138  0.099539  1
  H  H15  1  0.153138  0.412745  0.400461  1
  Au  Au16  1  0.000000  0.000000  0.500000  1
  Au  Au17  1  0.000000  0.000000  0.000000  1
  C  C18  1  0.379169  0.897574  0.708432  1
  C  C19  1  0.897574  0.379169  0.791568  1
  C  C20  1  0.620831  0.102426  0.291568  1
  C  C21  1  0.102426  0.620831  0.208432  1
  S  S22  1  0.225718  0.040646  0.508107  1
  S  S23  1  0.040646  0.225718  0.991893  1
  S  S24  1  0.774282  0.959354  0.491893  1
  S  S25  1  0.959354  0.774282  0.008107  1
  Br  Br26  1  0.372664  0.372664  0.750000  1
  Br  Br27  1  0.627336  0.627336  0.250000  1
  N  N28  1  0.389758  0.755652  0.788122  1
  N  N29  1  0.755652  0.389758  0.711878  1
  N  N30  1  0.610242  0.244348  0.211878  1
  N  N31  1  0.244348  0.610242  0.288122  1
  N  N32  1  0.497290  0.927574  0.780160  1
  N  N33  1  0.927574  0.497290  0.719840  1
  N  N34  1  0.502710  0.072426  0.219840  1
  N  N35  1  0.072426  0.502710  0.280160  1
