# generated using pymatgen
data_Li4Ti3Sn5O16
_symmetry_space_group_name_H-M   'P 1'
_cell_length_a   6.23251912
_cell_length_b   6.23251912
_cell_length_c   10.69937785
_cell_angle_alpha   89.89956346
_cell_angle_beta   90.10043654
_cell_angle_gamma   120.31644668
_symmetry_Int_Tables_number   1
_chemical_formula_structural   Li4Ti3Sn5O16
_chemical_formula_sum   'Li4 Ti3 Sn5 O16'
_cell_volume   358.77470189
_cell_formula_units_Z   1
loop_
 _symmetry_equiv_pos_site_id
 _symmetry_equiv_pos_as_xyz
  1  'x, y, z'
loop_
 _atom_site_type_symbol
 _atom_site_label
 _atom_site_symmetry_multiplicity
 _atom_site_fract_x
 _atom_site_fract_y
 _atom_site_fract_z
 _atom_site_occupancy
  Li  Li0  1  0.668252  0.331748  0.867727  1
  Li  Li1  1  0.990052  0.009948  0.996203  1
  Li  Li2  1  0.994147  0.005853  0.500909  1
  Li  Li3  1  0.335631  0.664369  0.390214  1
  Ti  Ti4  1  0.826007  0.173993  0.221809  1
  Ti  Ti5  1  0.658623  0.829444  0.715770  1
  Ti  Ti6  1  0.170556  0.341377  0.715770  1
  Sn  Sn7  1  0.669921  0.330079  0.510607  1
  Sn  Sn8  1  0.337859  0.662141  0.008312  1
  Sn  Sn9  1  0.332172  0.167868  0.220166  1
  Sn  Sn10  1  0.832132  0.667828  0.220166  1
  Sn  Sn11  1  0.166259  0.833741  0.716652  1
  O  O12  1  0.296301  0.155070  0.609620  1
  O  O13  1  0.509964  0.490036  0.324729  1
  O  O14  1  0.671610  0.328390  0.113465  1
  O  O15  1  0.995396  0.004604  0.322170  1
  O  O16  1  0.996056  0.003944  0.816176  1
  O  O17  1  0.844930  0.703699  0.609620  1
  O  O18  1  0.524503  0.019582  0.318683  1
  O  O19  1  0.980418  0.475497  0.318683  1
  O  O20  1  0.149621  0.850379  0.109623  1
  O  O21  1  0.854720  0.145280  0.615047  1
  O  O22  1  0.020527  0.495029  0.810834  1
  O  O23  1  0.504971  0.979473  0.810834  1
  O  O24  1  0.341392  0.658608  0.611025  1
  O  O25  1  0.141174  0.298958  0.112233  1
  O  O26  1  0.487652  0.512348  0.808209  1
  O  O27  1  0.701042  0.858826  0.112233  1
