# generated using pymatgen
data_AlVO3
_symmetry_space_group_name_H-M   'P 1'
_cell_length_a   5.06389034
_cell_length_b   5.23768514
_cell_length_c   6.97586060
_cell_angle_alpha   90.00000000
_cell_angle_beta   90.00000000
_cell_angle_gamma   90.00000000
_symmetry_Int_Tables_number   1
_chemical_formula_structural   AlVO3
_chemical_formula_sum   'Al4 V4 O12'
_cell_volume   185.02119146
_cell_formula_units_Z   4
loop_
 _symmetry_equiv_pos_site_id
 _symmetry_equiv_pos_as_xyz
  1  'x, y, z'
loop_
 _atom_site_type_symbol
 _atom_site_label
 _atom_site_symmetry_multiplicity
 _atom_site_fract_x
 _atom_site_fract_y
 _atom_site_fract_z
 _atom_site_occupancy
  Al  Al0  1  0.500000  0.000000  0.500000  1
  Al  Al1  1  0.500000  0.000000  0.000000  1
  Al  Al2  1  0.000000  0.500000  0.500000  1
  Al  Al3  1  0.000000  0.500000  0.000000  1
  V  V4  1  0.492655  0.441687  0.250000  1
  V  V5  1  0.007345  0.941687  0.250000  1
  V  V6  1  0.992655  0.058313  0.750000  1
  V  V7  1  0.507345  0.558313  0.750000  1
  O  O8  1  0.611708  0.936582  0.750000  1
  O  O9  1  0.668404  0.674769  0.053965  1
  O  O10  1  0.668404  0.674769  0.446035  1
  O  O11  1  0.831596  0.174769  0.446035  1
  O  O12  1  0.831596  0.174769  0.053965  1
  O  O13  1  0.888292  0.436582  0.750000  1
  O  O14  1  0.111708  0.563418  0.250000  1
  O  O15  1  0.168404  0.825231  0.946035  1
  O  O16  1  0.168404  0.825231  0.553965  1
  O  O17  1  0.331596  0.325231  0.553965  1
  O  O18  1  0.331596  0.325231  0.946035  1
  O  O19  1  0.388292  0.063418  0.250000  1
