# generated using pymatgen
data_Li3V4SnO12
_symmetry_space_group_name_H-M   'P 1'
_cell_length_a   5.13898173
_cell_length_b   5.47571765
_cell_length_c   7.40946076
_cell_angle_alpha   84.97191947
_cell_angle_beta   89.45990242
_cell_angle_gamma   89.70176220
_symmetry_Int_Tables_number   1
_chemical_formula_structural   Li3V4SnO12
_chemical_formula_sum   'Li3 V4 Sn1 O12'
_cell_volume   207.68578939
_cell_formula_units_Z   1
loop_
 _symmetry_equiv_pos_site_id
 _symmetry_equiv_pos_as_xyz
  1  'x, y, z'
loop_
 _atom_site_type_symbol
 _atom_site_label
 _atom_site_symmetry_multiplicity
 _atom_site_fract_x
 _atom_site_fract_y
 _atom_site_fract_z
 _atom_site_occupancy
  Li  Li0  1  0.501219  0.937002  0.210515  1
  Li  Li1  1  0.995733  0.424195  0.213768  1
  Li  Li2  1  0.501654  0.936460  0.718992  1
  V  V3  1  0.978994  0.976911  0.018784  1
  V  V4  1  0.512885  0.511563  0.488208  1
  V  V5  1  0.020442  0.001375  0.497809  1
  V  V6  1  0.484608  0.493432  0.012041  1
  Sn  Sn7  1  0.000829  0.420863  0.713762  1
  O  O8  1  0.706266  0.223606  0.582127  1
  O  O9  1  0.883889  0.033165  0.251264  1
  O  O10  1  0.692858  0.838356  0.960440  1
  O  O11  1  0.802322  0.713787  0.586311  1
  O  O12  1  0.191701  0.729866  0.073090  1
  O  O13  1  0.617821  0.538786  0.261764  1
  O  O14  1  0.368339  0.546882  0.758236  1
  O  O15  1  0.825618  0.348984  0.959698  1
  O  O16  1  0.178780  0.344041  0.462222  1
  O  O17  1  0.313967  0.230322  0.076094  1
  O  O18  1  0.116278  0.048088  0.772626  1
  O  O19  1  0.305795  0.843116  0.452646  1
