# generated using pymatgen
data_LiFePHO5
_symmetry_space_group_name_H-M   'P 1'
_cell_length_a   5.17902542
_cell_length_b   7.39502627
_cell_length_c   10.65120532
_cell_angle_alpha   104.24990173
_cell_angle_beta   96.72346729
_cell_angle_gamma   109.46248753
_symmetry_Int_Tables_number   1
_chemical_formula_structural   LiFePHO5
_chemical_formula_sum   'Li4 Fe4 P4 H4 O20'
_cell_volume   363.83282074
_cell_formula_units_Z   4
loop_
 _symmetry_equiv_pos_site_id
 _symmetry_equiv_pos_as_xyz
  1  'x, y, z'
loop_
 _atom_site_type_symbol
 _atom_site_label
 _atom_site_symmetry_multiplicity
 _atom_site_fract_x
 _atom_site_fract_y
 _atom_site_fract_z
 _atom_site_occupancy
  Li  Li0  1  0.451834  0.395852  0.199404  1
  Li  Li1  1  0.954935  0.920810  0.697453  1
  Li  Li2  1  0.048278  0.108136  0.300058  1
  Li  Li3  1  0.550501  0.606308  0.800369  1
  Fe  Fe4  1  0.498744  0.002454  0.498850  1
  Fe  Fe5  1  0.501919  0.502900  0.500678  1
  Fe  Fe6  1  0.999744  0.001938  0.999202  1
  Fe  Fe7  1  0.000943  0.502291  0.000154  1
  P  P8  1  0.505093  0.950654  0.180160  1
  P  P9  1  0.005641  0.448675  0.680835  1
  P  P10  1  0.995511  0.553779  0.319122  1
  P  P11  1  0.494595  0.055204  0.819119  1
  H  H12  1  0.822389  0.812039  0.465978  1
  H  H13  1  0.676385  0.691895  0.032459  1
  H  H14  1  0.326816  0.313231  0.968571  1
  H  H15  1  0.174644  0.192256  0.530911  1
  O  O16  1  0.284105  0.048298  0.168769  1
  O  O17  1  0.781255  0.542691  0.668816  1
  O  O18  1  0.184831  0.303545  0.024467  1
  O  O19  1  0.376803  0.722164  0.104841  1
  O  O20  1  0.636668  0.993469  0.328045  1
  O  O21  1  0.683632  0.803781  0.523530  1
  O  O22  1  0.879960  0.219228  0.605652  1
  O  O23  1  0.137486  0.491699  0.828529  1
  O  O24  1  0.758061  0.053278  0.123361  1
  O  O25  1  0.742364  0.451161  0.376014  1
  O  O26  1  0.257849  0.552270  0.623980  1
  O  O27  1  0.241103  0.951911  0.874944  1
  O  O28  1  0.863982  0.511464  0.171366  1
  O  O29  1  0.123410  0.782750  0.394669  1
  O  O30  1  0.315140  0.200799  0.474640  1
  O  O31  1  0.364510  0.014872  0.671313  1
  O  O32  1  0.623396  0.283417  0.895607  1
  O  O33  1  0.816488  0.701195  0.975646  1
  O  O34  1  0.216939  0.456727  0.330727  1
  O  O35  1  0.716096  0.957907  0.829812  1
