# generated using pymatgen
data_LiCoPO4
_symmetry_space_group_name_H-M   'P 1'
_cell_length_a   4.94296868
_cell_length_b   6.40544552
_cell_length_c   9.07694115
_cell_angle_alpha   90.00000000
_cell_angle_beta   90.00000000
_cell_angle_gamma   90.00000000
_symmetry_Int_Tables_number   1
_chemical_formula_structural   LiCoPO4
_chemical_formula_sum   'Li4 Co4 P4 O16'
_cell_volume   287.39335354
_cell_formula_units_Z   4
loop_
 _symmetry_equiv_pos_site_id
 _symmetry_equiv_pos_as_xyz
  1  'x, y, z'
loop_
 _atom_site_type_symbol
 _atom_site_label
 _atom_site_symmetry_multiplicity
 _atom_site_fract_x
 _atom_site_fract_y
 _atom_site_fract_z
 _atom_site_occupancy
  Li  Li0  1  0.550647  0.750000  0.161040  1
  Li  Li1  1  0.050647  0.250000  0.338960  1
  Li  Li2  1  0.949353  0.750000  0.661040  1
  Li  Li3  1  0.449353  0.250000  0.838960  1
  Co  Co4  1  0.000000  0.500000  0.000000  1
  Co  Co5  1  0.000000  0.000000  0.000000  1
  Co  Co6  1  0.500000  0.500000  0.500000  1
  Co  Co7  1  0.500000  0.000000  0.500000  1
  P  P8  1  0.530059  0.250000  0.179282  1
  P  P9  1  0.030059  0.750000  0.320718  1
  P  P10  1  0.969941  0.250000  0.679282  1
  P  P11  1  0.469941  0.750000  0.820718  1
  O  O12  1  0.665562  0.449848  0.120108  1
  O  O13  1  0.665562  0.050152  0.120108  1
  O  O14  1  0.224968  0.250000  0.135288  1
  O  O15  1  0.073202  0.750000  0.148043  1
  O  O16  1  0.573202  0.250000  0.351957  1
  O  O17  1  0.724968  0.750000  0.364712  1
  O  O18  1  0.165562  0.949848  0.379892  1
  O  O19  1  0.165562  0.550152  0.379892  1
  O  O20  1  0.834438  0.449848  0.620108  1
  O  O21  1  0.834438  0.050152  0.620108  1
  O  O22  1  0.275032  0.250000  0.635288  1
  O  O23  1  0.426798  0.750000  0.648043  1
  O  O24  1  0.926798  0.250000  0.851957  1
  O  O25  1  0.775032  0.750000  0.864712  1
  O  O26  1  0.334438  0.949848  0.879892  1
  O  O27  1  0.334438  0.550152  0.879892  1
