# generated using pymatgen
data_Cr2P2O7
_symmetry_space_group_name_H-M   'P 1'
_cell_length_a   11.10214562
_cell_length_b   11.10214562
_cell_length_c   9.42802683
_cell_angle_alpha   84.03650212
_cell_angle_beta   95.96349788
_cell_angle_gamma   134.77177723
_symmetry_Int_Tables_number   1
_chemical_formula_structural   Cr2P2O7
_chemical_formula_sum   'Cr12 P12 O42'
_cell_volume   819.73690898
_cell_formula_units_Z   6
loop_
 _symmetry_equiv_pos_site_id
 _symmetry_equiv_pos_as_xyz
  1  'x, y, z'
loop_
 _atom_site_type_symbol
 _atom_site_label
 _atom_site_symmetry_multiplicity
 _atom_site_fract_x
 _atom_site_fract_y
 _atom_site_fract_z
 _atom_site_occupancy
  Cr  Cr0  1  0.011101  0.367630  0.310426  1
  Cr  Cr1  1  0.678559  0.698786  0.476854  1
  Cr  Cr2  1  0.349549  0.020986  0.660914  1
  Cr  Cr3  1  0.632370  0.988899  0.810426  1
  Cr  Cr4  1  0.367630  0.011101  0.189574  1
  Cr  Cr5  1  0.321441  0.301214  0.523146  1
  Cr  Cr6  1  0.301214  0.321441  0.976854  1
  Cr  Cr7  1  0.979014  0.650451  0.160914  1
  Cr  Cr8  1  0.988899  0.632370  0.689574  1
  Cr  Cr9  1  0.650451  0.979014  0.339086  1
  Cr  Cr10  1  0.698786  0.678559  0.023146  1
  Cr  Cr11  1  0.020986  0.349549  0.839086  1
  P  P12  1  0.593149  0.380854  0.823104  1
  P  P13  1  0.406851  0.619146  0.176896  1
  P  P14  1  0.716956  0.250530  0.030561  1
  P  P15  1  0.619146  0.406851  0.323104  1
  P  P16  1  0.749470  0.283044  0.530561  1
  P  P17  1  0.283044  0.749470  0.969439  1
  P  P18  1  0.081298  0.955078  0.352626  1
  P  P19  1  0.918702  0.044922  0.647374  1
  P  P20  1  0.250530  0.716956  0.469439  1
  P  P21  1  0.044922  0.918702  0.852626  1
  P  P22  1  0.380854  0.593149  0.676896  1
  P  P23  1  0.955078  0.081298  0.147374  1
  O  O24  1  0.084153  0.084153  0.250000  1
  O  O25  1  0.779609  0.210490  0.921828  1
  O  O26  1  0.401567  0.730296  0.057327  1
  O  O27  1  0.269704  0.598433  0.557327  1
  O  O28  1  0.908051  0.810558  0.411465  1
  O  O29  1  0.210490  0.779609  0.578172  1
  O  O30  1  0.091949  0.189442  0.588535  1
  O  O31  1  0.867809  0.413006  0.105080  1
  O  O32  1  0.406269  0.900819  0.866162  1
  O  O33  1  0.730296  0.401567  0.442673  1
  O  O34  1  0.223563  0.070947  0.465101  1
  O  O35  1  0.453245  0.542241  0.593206  1
  O  O36  1  0.548112  0.744255  0.285495  1
  O  O37  1  0.220391  0.789510  0.078172  1
  O  O38  1  0.132191  0.586994  0.894920  1
  O  O39  1  0.189442  0.091949  0.911465  1
  O  O40  1  0.744255  0.548112  0.214505  1
  O  O41  1  0.542241  0.453245  0.906794  1
  O  O42  1  0.111906  0.870405  0.758589  1
  O  O43  1  0.929053  0.776437  0.965101  1
  O  O44  1  0.521791  0.763323  0.740331  1
  O  O45  1  0.763323  0.521791  0.759669  1
  O  O46  1  0.255745  0.451888  0.785495  1
  O  O47  1  0.236677  0.478209  0.240331  1
  O  O48  1  0.598433  0.269704  0.942673  1
  O  O49  1  0.099181  0.593731  0.366162  1
  O  O50  1  0.478209  0.236677  0.259669  1
  O  O51  1  0.129595  0.888094  0.258589  1
  O  O52  1  0.070947  0.223563  0.034899  1
  O  O53  1  0.870405  0.111906  0.741411  1
  O  O54  1  0.413006  0.867809  0.394920  1
  O  O55  1  0.593731  0.099181  0.133838  1
  O  O56  1  0.457759  0.546755  0.093206  1
  O  O57  1  0.789510  0.220391  0.421828  1
  O  O58  1  0.776437  0.929053  0.534899  1
  O  O59  1  0.900819  0.406269  0.633838  1
  O  O60  1  0.915847  0.915847  0.750000  1
  O  O61  1  0.546755  0.457759  0.406794  1
  O  O62  1  0.888094  0.129595  0.241411  1
  O  O63  1  0.586994  0.132191  0.605080  1
  O  O64  1  0.451888  0.255745  0.714505  1
  O  O65  1  0.810558  0.908051  0.088535  1
