# generated using pymatgen
data_LiFe4(BO3)4
_symmetry_space_group_name_H-M   'P 1'
_cell_length_a   5.22220296
_cell_length_b   9.22219999
_cell_length_c   11.33091270
_cell_angle_alpha   112.87548434
_cell_angle_beta   102.75155268
_cell_angle_gamma   90.94778746
_symmetry_Int_Tables_number   1
_chemical_formula_structural   LiFe4(BO3)4
_chemical_formula_sum   'Li2 Fe8 B8 O24'
_cell_volume   487.18974345
_cell_formula_units_Z   2
loop_
 _symmetry_equiv_pos_site_id
 _symmetry_equiv_pos_as_xyz
  1  'x, y, z'
loop_
 _atom_site_type_symbol
 _atom_site_label
 _atom_site_symmetry_multiplicity
 _atom_site_fract_x
 _atom_site_fract_y
 _atom_site_fract_z
 _atom_site_occupancy
  Li  Li0  1  0.621884  0.963467  0.596623  1
  Li  Li1  1  0.836050  0.501501  0.347705  1
  Fe  Fe2  1  0.652185  0.643230  0.625235  1
  Fe  Fe3  1  0.391799  0.066013  0.120635  1
  Fe  Fe4  1  0.849353  0.851954  0.369198  1
  Fe  Fe5  1  0.099901  0.431760  0.871594  1
  Fe  Fe6  1  0.889631  0.571192  0.122639  1
  Fe  Fe7  1  0.141526  0.152965  0.620295  1
  Fe  Fe8  1  0.352354  0.343873  0.376198  1
  Fe  Fe9  1  0.606256  0.930760  0.868674  1
  B  B10  1  0.644051  0.302947  0.619359  1
  B  B11  1  0.383692  0.397225  0.128536  1
  B  B12  1  0.846751  0.192295  0.373910  1
  B  B13  1  0.110506  0.104351  0.867634  1
  B  B14  1  0.147500  0.819700  0.623395  1
  B  B15  1  0.892477  0.894391  0.119037  1
  B  B16  1  0.353126  0.678496  0.374153  1
  B  B17  1  0.599743  0.606413  0.875222  1
  O  O18  1  0.152185  0.920223  0.126474  1
  O  O19  1  0.293309  0.286170  0.170342  1
  O  O20  1  0.196106  0.468437  0.067281  1
  O  O21  1  0.497534  0.813772  0.398028  1
  O  O22  1  0.478484  0.559285  0.407138  1
  O  O23  1  0.571566  0.166689  0.322691  1
  O  O24  1  0.918876  0.330458  0.671567  1
  O  O25  1  0.647097  0.438643  0.151383  1
  O  O26  1  0.802035  0.786060  0.162790  1
  O  O27  1  0.020961  0.936062  0.585237  1
  O  O28  1  0.006884  0.689720  0.609998  1
  O  O29  1  0.708299  0.978513  0.069190  1
  O  O30  1  0.298941  0.029863  0.925522  1
  O  O31  1  0.986412  0.316375  0.368602  1
  O  O32  1  0.966707  0.093181  0.428292  1
  O  O33  1  0.204219  0.213372  0.823860  1
  O  O34  1  0.340581  0.578127  0.867740  1
  O  O35  1  0.076873  0.651614  0.322482  1
  O  O36  1  0.425874  0.846488  0.669249  1
  O  O37  1  0.522432  0.404007  0.566841  1
  O  O38  1  0.505015  0.176074  0.620287  1
  O  O39  1  0.784979  0.521898  0.925474  1
  O  O40  1  0.690659  0.714850  0.832591  1
  O  O41  1  0.849991  0.071291  0.852969  1
