# generated using pymatgen
data_TeP6H30(NO4)6
_symmetry_space_group_name_H-M   'P 1'
_cell_length_a   8.99543295
_cell_length_b   8.99543295
_cell_length_c   8.99543295
_cell_angle_alpha   78.48410727
_cell_angle_beta   78.48410727
_cell_angle_gamma   78.48410727
_symmetry_Int_Tables_number   1
_chemical_formula_structural   TeP6H30(NO4)6
_chemical_formula_sum   'Te1 P6 H30 N6 O24'
_cell_volume   689.13445225
_cell_formula_units_Z   1
loop_
 _symmetry_equiv_pos_site_id
 _symmetry_equiv_pos_as_xyz
  1  'x, y, z'
loop_
 _atom_site_type_symbol
 _atom_site_label
 _atom_site_symmetry_multiplicity
 _atom_site_fract_x
 _atom_site_fract_y
 _atom_site_fract_z
 _atom_site_occupancy
  Te  Te0  1  0.000000  0.000000  0.000000  1
  P  P1  1  0.196395  0.303015  0.490944  1
  P  P2  1  0.303015  0.490944  0.196395  1
  P  P3  1  0.490944  0.196395  0.303015  1
  P  P4  1  0.803605  0.696985  0.509056  1
  P  P5  1  0.696985  0.509056  0.803605  1
  P  P6  1  0.509056  0.803605  0.696985  1
  H  H7  1  0.231318  0.810667  0.083712  1
  H  H8  1  0.810667  0.083712  0.231318  1
  H  H9  1  0.083712  0.231318  0.810667  1
  H  H10  1  0.768682  0.189333  0.916288  1
  H  H11  1  0.189333  0.916288  0.768682  1
  H  H12  1  0.916288  0.768682  0.189333  1
  H  H13  1  0.541997  0.735895  0.147811  1
  H  H14  1  0.735895  0.147811  0.541997  1
  H  H15  1  0.147811  0.541997  0.735895  1
  H  H16  1  0.458003  0.264105  0.852189  1
  H  H17  1  0.264105  0.852189  0.458003  1
  H  H18  1  0.852189  0.458003  0.264105  1
  H  H19  1  0.547993  0.923244  0.150574  1
  H  H20  1  0.923244  0.150574  0.547993  1
  H  H21  1  0.150574  0.547993  0.923244  1
  H  H22  1  0.452007  0.076756  0.849426  1
  H  H23  1  0.076756  0.849426  0.452007  1
  H  H24  1  0.849426  0.452007  0.076756  1
  H  H25  1  0.285117  0.197790  0.897139  1
  H  H26  1  0.197790  0.897139  0.285117  1
  H  H27  1  0.897139  0.285117  0.197790  1
  H  H28  1  0.714883  0.802210  0.102861  1
  H  H29  1  0.802210  0.102861  0.714883  1
  H  H30  1  0.102861  0.714883  0.802210  1
  H  H31  1  0.587897  0.852183  0.980988  1
  H  H32  1  0.852183  0.980988  0.587897  1
  H  H33  1  0.980988  0.587897  0.852183  1
  H  H34  1  0.412103  0.147817  0.019012  1
  H  H35  1  0.147817  0.019012  0.412103  1
  H  H36  1  0.019012  0.412103  0.147817  1
  N  N37  1  0.401645  0.172771  0.902542  1
  N  N38  1  0.172771  0.902542  0.401645  1
  N  N39  1  0.902542  0.401645  0.172771  1
  N  N40  1  0.598355  0.827229  0.097458  1
  N  N41  1  0.827229  0.097458  0.598355  1
  N  N42  1  0.097458  0.598355  0.827229  1
  O  O43  1  0.070575  0.197299  0.925391  1
  O  O44  1  0.197299  0.925391  0.070575  1
  O  O45  1  0.925391  0.070575  0.197299  1
  O  O46  1  0.929425  0.802701  0.074609  1
  O  O47  1  0.802701  0.074609  0.929425  1
  O  O48  1  0.074609  0.929425  0.802701  1
  O  O49  1  0.650127  0.164157  0.341950  1
  O  O50  1  0.164157  0.341950  0.650127  1
  O  O51  1  0.341950  0.650127  0.164157  1
  O  O52  1  0.349873  0.835843  0.658050  1
  O  O53  1  0.835843  0.658050  0.349873  1
  O  O54  1  0.658050  0.349873  0.835843  1
  O  O55  1  0.463495  0.372591  0.210834  1
  O  O56  1  0.372591  0.210834  0.463495  1
  O  O57  1  0.210834  0.463495  0.372591  1
  O  O58  1  0.536505  0.627409  0.789166  1
  O  O59  1  0.627409  0.789166  0.536505  1
  O  O60  1  0.789166  0.536505  0.627409  1
  O  O61  1  0.784482  0.555349  0.908124  1
  O  O62  1  0.555349  0.908124  0.784482  1
  O  O63  1  0.908124  0.784482  0.555349  1
  O  O64  1  0.215518  0.444651  0.091876  1
  O  O65  1  0.444651  0.091876  0.215518  1
  O  O66  1  0.091876  0.215518  0.444651  1
