# generated using pymatgen
data_Fe4OF7
_symmetry_space_group_name_H-M   'P 1'
_cell_length_a   7.52310461
_cell_length_b   7.52310461
_cell_length_c   6.89984165
_cell_angle_alpha   90.00000000
_cell_angle_beta   90.00000000
_cell_angle_gamma   129.77601945
_symmetry_Int_Tables_number   1
_chemical_formula_structural   Fe4OF7
_chemical_formula_sum   'Fe8 O2 F14'
_cell_volume   300.12780065
_cell_formula_units_Z   2
loop_
 _symmetry_equiv_pos_site_id
 _symmetry_equiv_pos_as_xyz
  1  'x, y, z'
loop_
 _atom_site_type_symbol
 _atom_site_label
 _atom_site_symmetry_multiplicity
 _atom_site_fract_x
 _atom_site_fract_y
 _atom_site_fract_z
 _atom_site_occupancy
  Fe  Fe0  1  0.514702  0.025040  0.000000  1
  Fe  Fe1  1  0.974960  0.485298  0.000000  1
  Fe  Fe2  1  0.752584  0.247416  0.500000  1
  Fe  Fe3  1  0.254700  0.745300  0.500000  1
  Fe  Fe4  1  0.003453  0.996547  0.000000  1
  Fe  Fe5  1  0.504864  0.495136  1.000000  1
  Fe  Fe6  1  0.222669  0.234379  0.500000  1
  Fe  Fe7  1  0.765621  0.777331  0.500000  1
  O  O8  1  0.651420  0.348580  1.000000  1
  O  O9  1  0.899851  0.100149  0.500000  1
  F  F10  1  0.153074  0.846926  1.000000  1
  F  F11  1  0.494569  0.995131  0.706717  1
  F  F12  1  0.004869  0.505431  0.706717  1
  F  F13  1  0.494569  0.995131  0.293283  1
  F  F14  1  0.246706  0.246938  0.793560  1
  F  F15  1  0.753062  0.753294  0.793560  1
  F  F16  1  0.004869  0.505431  0.293283  1
  F  F17  1  0.854358  0.145642  0.000000  1
  F  F18  1  0.345671  0.654329  1.000000  1
  F  F19  1  0.104690  0.895310  0.500000  1
  F  F20  1  0.594854  0.405146  0.500000  1
  F  F21  1  0.404121  0.595879  0.500000  1
  F  F22  1  0.246706  0.246938  0.206440  1
  F  F23  1  0.753062  0.753294  0.206440  1
