# generated using pymatgen
data_Pr3GaO6
_symmetry_space_group_name_H-M   'P 1'
_cell_length_a   7.50356648
_cell_length_b   7.50356648
_cell_length_c   5.67284226
_cell_angle_alpha   90.00000000
_cell_angle_beta   90.00000000
_cell_angle_gamma   102.74211956
_symmetry_Int_Tables_number   1
_chemical_formula_structural   Pr3GaO6
_chemical_formula_sum   'Pr6 Ga2 O12'
_cell_volume   311.53493740
_cell_formula_units_Z   2
loop_
 _symmetry_equiv_pos_site_id
 _symmetry_equiv_pos_as_xyz
  1  'x, y, z'
loop_
 _atom_site_type_symbol
 _atom_site_label
 _atom_site_symmetry_multiplicity
 _atom_site_fract_x
 _atom_site_fract_y
 _atom_site_fract_z
 _atom_site_occupancy
  Pr  Pr0  1  0.086455  0.298972  0.472827  1
  Pr  Pr1  1  0.298972  0.086455  0.972827  1
  Pr  Pr2  1  0.603559  0.396441  0.428843  1
  Pr  Pr3  1  0.396441  0.603559  0.928843  1
  Pr  Pr4  1  0.701028  0.913545  0.472827  1
  Pr  Pr5  1  0.913545  0.701028  0.972827  1
  Ga  Ga6  1  0.806751  0.193249  0.008142  1
  Ga  Ga7  1  0.193249  0.806751  0.508142  1
  O  O8  1  0.326542  0.354093  0.202391  1
  O  O9  1  0.354093  0.326542  0.702391  1
  O  O10  1  0.585012  0.108307  0.175166  1
  O  O11  1  0.108307  0.585012  0.675166  1
  O  O12  1  0.956022  0.043978  0.138539  1
  O  O13  1  0.784746  0.215254  0.682507  1
  O  O14  1  0.043978  0.956022  0.638539  1
  O  O15  1  0.215254  0.784746  0.182507  1
  O  O16  1  0.891693  0.414988  0.175166  1
  O  O17  1  0.414988  0.891693  0.675166  1
  O  O18  1  0.645907  0.673458  0.202391  1
  O  O19  1  0.673458  0.645907  0.702391  1
