# generated using pymatgen
data_Mn6OF11
_symmetry_space_group_name_H-M   'P 1'
_cell_length_a   5.27021423
_cell_length_b   5.27021423
_cell_length_c   15.62250296
_cell_angle_alpha   88.53065144
_cell_angle_beta   91.46934856
_cell_angle_gamma   90.86251576
_symmetry_Int_Tables_number   1
_chemical_formula_structural   Mn6OF11
_chemical_formula_sum   'Mn12 O2 F22'
_cell_volume   433.58718580
_cell_formula_units_Z   2
loop_
 _symmetry_equiv_pos_site_id
 _symmetry_equiv_pos_as_xyz
  1  'x, y, z'
loop_
 _atom_site_type_symbol
 _atom_site_label
 _atom_site_symmetry_multiplicity
 _atom_site_fract_x
 _atom_site_fract_y
 _atom_site_fract_z
 _atom_site_occupancy
  Mn  Mn0  1  0.999335  0.000665  0.999087  1
  Mn  Mn1  1  0.997840  0.512417  0.830356  1
  Mn  Mn2  1  0.039600  0.960400  0.670919  1
  Mn  Mn3  1  0.993987  0.474842  0.498814  1
  Mn  Mn4  1  0.996842  0.003158  0.334691  1
  Mn  Mn5  1  0.003409  0.502078  0.167301  1
  Mn  Mn6  1  0.487583  0.002160  0.830356  1
  Mn  Mn7  1  0.499839  0.500161  0.998509  1
  Mn  Mn8  1  0.517739  0.482261  0.343566  1
  Mn  Mn9  1  0.525158  0.006013  0.498814  1
  Mn  Mn10  1  0.473911  0.526089  0.672544  1
  Mn  Mn11  1  0.497922  0.996591  0.167301  1
  O  O12  1  0.720542  0.279458  0.419705  1
  O  O13  1  0.245692  0.754308  0.742928  1
  F  F14  1  0.760082  0.807993  0.745540  1
  F  F15  1  0.767309  0.232691  0.915659  1
  F  F16  1  0.785149  0.773184  0.419685  1
  F  F17  1  0.828346  0.171654  0.591374  1
  F  F18  1  0.771037  0.768994  0.086033  1
  F  F19  1  0.774657  0.225343  0.247076  1
  F  F20  1  0.732090  0.733235  0.913312  1
  F  F21  1  0.694520  0.305480  0.755620  1
  F  F22  1  0.732155  0.267845  0.082792  1
  F  F23  1  0.712036  0.718130  0.254123  1
  F  F24  1  0.714517  0.685351  0.579402  1
  F  F25  1  0.272097  0.727903  0.083640  1
  F  F26  1  0.290312  0.709688  0.415093  1
  F  F27  1  0.266765  0.267910  0.913312  1
  F  F28  1  0.314649  0.285483  0.579402  1
  F  F29  1  0.281870  0.287964  0.254123  1
  F  F30  1  0.208567  0.791433  0.572818  1
  F  F31  1  0.232504  0.767496  0.916909  1
  F  F32  1  0.212112  0.787888  0.247942  1
  F  F33  1  0.226816  0.214851  0.419685  1
  F  F34  1  0.231006  0.228963  0.086033  1
  F  F35  1  0.192007  0.239918  0.745540  1
