# generated using pymatgen
data_Li4Co2Cu3Sb3O16
_symmetry_space_group_name_H-M   'P 1'
_cell_length_a   6.05033396
_cell_length_b   6.07185691
_cell_length_c   9.69335660
_cell_angle_alpha   89.35807251
_cell_angle_beta   89.21438242
_cell_angle_gamma   60.23291124
_symmetry_Int_Tables_number   1
_chemical_formula_structural   Li4Co2Cu3Sb3O16
_chemical_formula_sum   'Li4 Co2 Cu3 Sb3 O16'
_cell_volume   309.08205947
_cell_formula_units_Z   1
loop_
 _symmetry_equiv_pos_site_id
 _symmetry_equiv_pos_as_xyz
  1  'x, y, z'
loop_
 _atom_site_type_symbol
 _atom_site_label
 _atom_site_symmetry_multiplicity
 _atom_site_fract_x
 _atom_site_fract_y
 _atom_site_fract_z
 _atom_site_occupancy
  Li  Li0  1  0.670865  0.669874  0.897720  1
  Li  Li1  1  0.012030  0.011984  0.006022  1
  Li  Li2  1  0.024770  0.025124  0.486802  1
  Li  Li3  1  0.331421  0.330133  0.383861  1
  Co  Co4  1  0.644875  0.644089  0.475332  1
  Co  Co5  1  0.322928  0.324503  0.000722  1
  Cu  Cu6  1  0.337046  0.826522  0.211089  1
  Cu  Cu7  1  0.827875  0.337996  0.210550  1
  Cu  Cu8  1  0.167027  0.167070  0.720485  1
  Sb  Sb9  1  0.827720  0.828524  0.215349  1
  Sb  Sb10  1  0.166859  0.660627  0.713659  1
  Sb  Sb11  1  0.661226  0.166237  0.713981  1
  O  O12  1  0.320249  0.832110  0.604911  1
  O  O13  1  0.524405  0.509859  0.354474  1
  O  O14  1  0.664167  0.663008  0.107572  1
  O  O15  1  0.000997  0.003926  0.302425  1
  O  O16  1  0.987112  0.985808  0.822021  1
  O  O17  1  0.834808  0.318621  0.605975  1
  O  O18  1  0.519554  0.961958  0.340512  1
  O  O19  1  0.963393  0.525157  0.342356  1
  O  O20  1  0.167186  0.184538  0.089882  1
  O  O21  1  0.842119  0.842468  0.598339  1
  O  O22  1  0.035985  0.487616  0.835336  1
  O  O23  1  0.486479  0.036038  0.835533  1
  O  O24  1  0.344452  0.343608  0.596691  1
  O  O25  1  0.154973  0.678177  0.099795  1
  O  O26  1  0.483404  0.482413  0.837634  1
  O  O27  1  0.675775  0.152309  0.098810  1
