# generated using pymatgen
data_LiV(CO3)2
_symmetry_space_group_name_H-M   'P 1'
_cell_length_a   5.76796166
_cell_length_b   5.76796166
_cell_length_c   5.76796166
_cell_angle_alpha   48.00555709
_cell_angle_beta   48.00555709
_cell_angle_gamma   48.00555709
_symmetry_Int_Tables_number   1
_chemical_formula_structural   LiV(CO3)2
_chemical_formula_sum   'Li1 V1 C2 O6'
_cell_volume   97.10719672
_cell_formula_units_Z   1
loop_
 _symmetry_equiv_pos_site_id
 _symmetry_equiv_pos_as_xyz
  1  'x, y, z'
loop_
 _atom_site_type_symbol
 _atom_site_label
 _atom_site_symmetry_multiplicity
 _atom_site_fract_x
 _atom_site_fract_y
 _atom_site_fract_z
 _atom_site_occupancy
  Li  Li0  1  0.000000  0.000000  0.000000  1
  V  V1  1  0.500000  0.500000  0.500000  1
  C  C2  1  0.244909  0.244909  0.244909  1
  C  C3  1  0.755091  0.755091  0.755091  1
  O  O4  1  0.036782  0.484924  0.742451  1
  O  O5  1  0.515076  0.257549  0.963218  1
  O  O6  1  0.257549  0.963218  0.515076  1
  O  O7  1  0.742451  0.036782  0.484924  1
  O  O8  1  0.484924  0.742451  0.036782  1
  O  O9  1  0.963218  0.515076  0.257549  1
