# generated using pymatgen
data_Li2VSiO4
_symmetry_space_group_name_H-M   'P 1'
_cell_length_a   4.84142849
_cell_length_b   5.30541642
_cell_length_c   6.73681054
_cell_angle_alpha   90.00000000
_cell_angle_beta   90.00000000
_cell_angle_gamma   90.00000000
_symmetry_Int_Tables_number   1
_chemical_formula_structural   Li2VSiO4
_chemical_formula_sum   'Li4 V2 Si2 O8'
_cell_volume   173.04032914
_cell_formula_units_Z   2
loop_
 _symmetry_equiv_pos_site_id
 _symmetry_equiv_pos_as_xyz
  1  'x, y, z'
loop_
 _atom_site_type_symbol
 _atom_site_label
 _atom_site_symmetry_multiplicity
 _atom_site_fract_x
 _atom_site_fract_y
 _atom_site_fract_z
 _atom_site_occupancy
  Li  Li0  1  0.012707  0.674946  0.249810  1
  Li  Li1  1  0.512707  0.325054  0.250190  1
  Li  Li2  1  0.012707  0.674946  0.750190  1
  Li  Li3  1  0.512707  0.325054  0.749810  1
  V  V4  1  0.028858  0.194371  0.000000  1
  V  V5  1  0.528858  0.805629  0.500000  1
  Si  Si6  1  0.496965  0.828402  0.000000  1
  Si  Si7  1  0.996965  0.171598  0.500000  1
  O  O8  1  0.154634  0.815339  0.000000  1
  O  O9  1  0.581132  0.133003  0.000000  1
  O  O10  1  0.106499  0.311875  0.296684  1
  O  O11  1  0.606499  0.688125  0.203316  1
  O  O12  1  0.081132  0.866997  0.500000  1
  O  O13  1  0.654634  0.184661  0.500000  1
  O  O14  1  0.606499  0.688125  0.796684  1
  O  O15  1  0.106499  0.311875  0.703316  1
