# generated using pymatgen
data_Nb9PO25
_symmetry_space_group_name_H-M   'P 1'
_cell_length_a   15.86839980
_cell_length_b   15.86839980
_cell_length_c   3.89810308
_cell_angle_alpha   90.00000000
_cell_angle_beta   90.00000000
_cell_angle_gamma   90.00000000
_symmetry_Int_Tables_number   1
_chemical_formula_structural   Nb9PO25
_chemical_formula_sum   'Nb18 P2 O50'
_cell_volume   981.56618158
_cell_formula_units_Z   2
loop_
 _symmetry_equiv_pos_site_id
 _symmetry_equiv_pos_as_xyz
  1  'x, y, z'
loop_
 _atom_site_type_symbol
 _atom_site_label
 _atom_site_symmetry_multiplicity
 _atom_site_fract_x
 _atom_site_fract_y
 _atom_site_fract_z
 _atom_site_occupancy
  Nb  Nb0  1  0.781328  0.608873  0.750672  1
  Nb  Nb1  1  0.330521  0.613790  0.744060  1
  Nb  Nb2  1  0.613790  0.669479  0.255940  1
  Nb  Nb3  1  0.108873  0.718672  0.750672  1
  Nb  Nb4  1  0.391127  0.781328  0.249328  1
  Nb  Nb5  1  0.886210  0.830521  0.744060  1
  Nb  Nb6  1  0.169479  0.886210  0.255940  1
  Nb  Nb7  1  0.718672  0.891127  0.249328  1
  Nb  Nb8  1  0.500000  0.000000  0.287763  1
  Nb  Nb9  1  0.281328  0.108873  0.249328  1
  Nb  Nb10  1  0.830521  0.113790  0.255940  1
  Nb  Nb11  1  0.113790  0.169479  0.744060  1
  Nb  Nb12  1  0.608873  0.218672  0.249328  1
  Nb  Nb13  1  0.891127  0.281328  0.750672  1
  Nb  Nb14  1  0.386210  0.330521  0.255940  1
  Nb  Nb15  1  0.669479  0.386210  0.744060  1
  Nb  Nb16  1  0.218672  0.391127  0.750672  1
  Nb  Nb17  1  0.000000  0.500000  0.712237  1
  P  P18  1  0.000000  0.000000  0.000000  1
  P  P19  1  0.500000  0.500000  0.000000  1
  O  O20  1  0.282945  0.510257  0.749147  1
  O  O21  1  0.881944  0.548637  0.748994  1
  O  O22  1  0.565441  0.549214  0.217754  1
  O  O23  1  0.450786  0.565441  0.782246  1
  O  O24  1  0.747927  0.612503  0.249577  1
  O  O25  1  0.048637  0.618056  0.748994  1
  O  O26  1  0.344397  0.645157  0.254537  1
  O  O27  1  0.645157  0.655603  0.745463  1
  O  O28  1  0.218715  0.673228  0.754029  1
  O  O29  1  0.510257  0.717055  0.250853  1
  O  O30  1  0.826772  0.718715  0.754029  1
  O  O31  1  0.387497  0.747927  0.750423  1
  O  O32  1  0.112503  0.752073  0.249577  1
  O  O33  1  0.673228  0.781285  0.245971  1
  O  O34  1  0.989743  0.782945  0.749147  1
  O  O35  1  0.281285  0.826772  0.245971  1
  O  O36  1  0.854843  0.844397  0.254537  1
  O  O37  1  0.155603  0.854843  0.745463  1
  O  O38  1  0.451363  0.881944  0.251006  1
  O  O39  1  0.752073  0.887497  0.750423  1
  O  O40  1  0.049214  0.934559  0.217754  1
  O  O41  1  0.934559  0.950786  0.782246  1
  O  O42  1  0.618056  0.951363  0.251006  1
  O  O43  1  0.217055  0.989743  0.250853  1
  O  O44  1  0.500000  0.000000  0.756792  1
  O  O45  1  0.782945  0.010257  0.250853  1
  O  O46  1  0.381944  0.048637  0.251006  1
  O  O47  1  0.065441  0.049214  0.782246  1
  O  O48  1  0.950786  0.065441  0.217754  1
  O  O49  1  0.247927  0.112503  0.750423  1
  O  O50  1  0.548637  0.118056  0.251006  1
  O  O51  1  0.844397  0.145157  0.745463  1
  O  O52  1  0.145157  0.155603  0.254537  1
  O  O53  1  0.718715  0.173228  0.245971  1
  O  O54  1  0.010257  0.217055  0.749147  1
  O  O55  1  0.326772  0.218715  0.245971  1
  O  O56  1  0.887497  0.247927  0.249577  1
  O  O57  1  0.612503  0.252073  0.750423  1
  O  O58  1  0.173228  0.281285  0.754029  1
  O  O59  1  0.489743  0.282945  0.250853  1
  O  O60  1  0.781285  0.326772  0.754029  1
  O  O61  1  0.354843  0.344397  0.745463  1
  O  O62  1  0.655603  0.354843  0.254537  1
  O  O63  1  0.951363  0.381944  0.748994  1
  O  O64  1  0.252073  0.387497  0.249577  1
  O  O65  1  0.549214  0.434559  0.782246  1
  O  O66  1  0.434559  0.450786  0.217754  1
  O  O67  1  0.118056  0.451363  0.748994  1
  O  O68  1  0.717055  0.489743  0.749147  1
  O  O69  1  0.000000  0.500000  0.243208  1
