# generated using pymatgen
data_Er2TeO6
_symmetry_space_group_name_H-M   'P 1'
_cell_length_a   4.96990123
_cell_length_b   4.96990123
_cell_length_c   10.01958082
_cell_angle_alpha   90.00000000
_cell_angle_beta   90.00000000
_cell_angle_gamma   90.00000000
_symmetry_Int_Tables_number   1
_chemical_formula_structural   Er2TeO6
_chemical_formula_sum   'Er4 Te2 O12'
_cell_volume   247.48282659
_cell_formula_units_Z   2
loop_
 _symmetry_equiv_pos_site_id
 _symmetry_equiv_pos_as_xyz
  1  'x, y, z'
loop_
 _atom_site_type_symbol
 _atom_site_label
 _atom_site_symmetry_multiplicity
 _atom_site_fract_x
 _atom_site_fract_y
 _atom_site_fract_z
 _atom_site_occupancy
  Er  Er0  1  0.500000  0.500000  0.334578  1
  Er  Er1  1  0.500000  0.500000  0.665422  1
  Er  Er2  1  0.000000  0.000000  0.165422  1
  Er  Er3  1  0.000000  0.000000  0.834578  1
  Te  Te4  1  0.500000  0.500000  0.000000  1
  Te  Te5  1  0.000000  0.000000  0.500000  1
  O  O6  1  0.683950  0.683950  0.147249  1
  O  O7  1  0.683950  0.683950  0.852751  1
  O  O8  1  0.720464  0.720464  0.500000  1
  O  O9  1  0.779536  0.220464  0.000000  1
  O  O10  1  0.816050  0.183950  0.352751  1
  O  O11  1  0.816050  0.183950  0.647249  1
  O  O12  1  0.183950  0.816050  0.352751  1
  O  O13  1  0.183950  0.816050  0.647249  1
  O  O14  1  0.220464  0.779536  0.000000  1
  O  O15  1  0.279536  0.279536  0.500000  1
  O  O16  1  0.316050  0.316050  0.147249  1
  O  O17  1  0.316050  0.316050  0.852751  1
