# generated using pymatgen
data_Li3Fe8(BO3)8
_symmetry_space_group_name_H-M   'P 1'
_cell_length_a   5.23908573
_cell_length_b   9.05579093
_cell_length_c   10.15837284
_cell_angle_alpha   89.77807792
_cell_angle_beta   89.75767551
_cell_angle_gamma   89.57173050
_symmetry_Int_Tables_number   1
_chemical_formula_structural   Li3Fe8(BO3)8
_chemical_formula_sum   'Li3 Fe8 B8 O24'
_cell_volume   481.93317099
_cell_formula_units_Z   1
loop_
 _symmetry_equiv_pos_site_id
 _symmetry_equiv_pos_as_xyz
  1  'x, y, z'
loop_
 _atom_site_type_symbol
 _atom_site_label
 _atom_site_symmetry_multiplicity
 _atom_site_fract_x
 _atom_site_fract_y
 _atom_site_fract_z
 _atom_site_occupancy
  Li  Li0  1  0.336388  0.323653  0.898246  1
  Li  Li1  1  0.656090  0.678858  0.664217  1
  Li  Li2  1  0.689609  0.670177  0.166516  1
  Fe  Fe3  1  0.150594  0.847342  0.628103  1
  Fe  Fe4  1  0.182240  0.487150  0.135710  1
  Fe  Fe5  1  0.322727  0.985546  0.877163  1
  Fe  Fe6  1  0.320492  0.663711  0.383908  1
  Fe  Fe7  1  0.671610  0.333367  0.629241  1
  Fe  Fe8  1  0.674087  0.010453  0.125742  1
  Fe  Fe9  1  0.836913  0.163658  0.376262  1
  Fe  Fe10  1  0.827075  0.503784  0.886001  1
  B  B11  1  0.173633  0.502979  0.628645  1
  B  B12  1  0.173621  0.830015  0.129412  1
  B  B13  1  0.338883  0.000642  0.372416  1
  B  B14  1  0.323343  0.662217  0.873061  1
  B  B15  1  0.650813  0.997365  0.627867  1
  B  B16  1  0.668530  0.333769  0.125063  1
  B  B17  1  0.830210  0.496168  0.379806  1
  B  B18  1  0.831252  0.165697  0.878332  1
  O  O19  1  0.086794  0.504047  0.347142  1
  O  O20  1  0.089041  0.153188  0.879044  1
  O  O21  1  0.183609  0.791219  0.842974  1
  O  O22  1  0.257781  0.867319  0.423178  1
  O  O23  1  0.184009  0.120172  0.372160  1
  O  O24  1  0.200293  0.536806  0.919274  1
  O  O25  1  0.322125  0.382055  0.651131  1
  O  O26  1  0.327818  0.940729  0.076595  1
  O  O27  1  0.288069  0.633384  0.582476  1
  O  O28  1  0.300502  0.704640  0.178756  1
  O  O29  1  0.416932  0.320072  0.097559  1
  O  O30  1  0.411891  0.004144  0.688056  1
  O  O31  1  0.590677  0.008937  0.322377  1
  O  O32  1  0.581354  0.663251  0.852055  1
  O  O33  1  0.707988  0.292429  0.828417  1
  O  O34  1  0.734905  0.363346  0.429947  1
  O  O35  1  0.671826  0.613655  0.359246  1
  O  O36  1  0.674238  0.056244  0.931300  1
  O  O37  1  0.799256  0.464697  0.098983  1
  O  O38  1  0.781172  0.869992  0.618926  1
  O  O39  1  0.748218  0.129802  0.573971  1
  O  O40  1  0.806389  0.209328  0.173709  1
  O  O41  1  0.913229  0.844665  0.133592  1
  O  O42  1  0.909512  0.503812  0.654826  1
