# generated using pymatgen
data_Fe(CoO2)2
_symmetry_space_group_name_H-M   'P 1'
_cell_length_a   5.93989348
_cell_length_b   5.93989348
_cell_length_c   5.93989348
_cell_angle_alpha   119.30660289
_cell_angle_beta   119.13548921
_cell_angle_gamma   91.35462981
_symmetry_Int_Tables_number   1
_chemical_formula_structural   Fe(CoO2)2
_chemical_formula_sum   'Fe2 Co4 O8'
_cell_volume   149.88974266
_cell_formula_units_Z   2
loop_
 _symmetry_equiv_pos_site_id
 _symmetry_equiv_pos_as_xyz
  1  'x, y, z'
loop_
 _atom_site_type_symbol
 _atom_site_label
 _atom_site_symmetry_multiplicity
 _atom_site_fract_x
 _atom_site_fract_y
 _atom_site_fract_z
 _atom_site_occupancy
  Fe  Fe0  1  0.000000  0.500000  0.000000  1
  Fe  Fe1  1  0.500000  0.500000  0.500000  1
  Co  Co2  1  0.500000  0.500000  0.000000  1
  Co  Co3  1  0.871612  0.121612  0.250000  1
  Co  Co4  1  0.128388  0.878388  0.750000  1
  Co  Co5  1  0.500000  0.000000  0.500000  1
  O  O6  1  0.722345  0.741293  0.481052  1
  O  O7  1  0.260242  0.741293  0.018948  1
  O  O8  1  0.265263  0.746726  0.481464  1
  O  O9  1  0.265263  0.283799  0.018536  1
  O  O10  1  0.734737  0.716201  0.981464  1
  O  O11  1  0.734737  0.253274  0.518536  1
  O  O12  1  0.739758  0.258707  0.981052  1
  O  O13  1  0.277655  0.258707  0.518948  1
