# generated using pymatgen
data_Y4Cu2O7
_symmetry_space_group_name_H-M   'P 1'
_cell_length_a   6.38584012
_cell_length_b   6.38584012
_cell_length_c   8.34083352
_cell_angle_alpha   71.37699171
_cell_angle_beta   108.62300829
_cell_angle_gamma   146.51202252
_symmetry_Int_Tables_number   1
_chemical_formula_structural   Y4Cu2O7
_chemical_formula_sum   'Y4 Cu2 O7'
_cell_volume   176.92831991
_cell_formula_units_Z   1
loop_
 _symmetry_equiv_pos_site_id
 _symmetry_equiv_pos_as_xyz
  1  'x, y, z'
loop_
 _atom_site_type_symbol
 _atom_site_label
 _atom_site_symmetry_multiplicity
 _atom_site_fract_x
 _atom_site_fract_y
 _atom_site_fract_z
 _atom_site_occupancy
  Y  Y0  1  0.644140  0.355860  0.836818  1
  Y  Y1  1  0.337475  0.662525  0.678967  1
  Y  Y2  1  0.662525  0.337475  0.321033  1
  Y  Y3  1  0.355860  0.644140  0.163182  1
  Cu  Cu4  1  0.000000  0.000000  0.000000  1
  Cu  Cu5  1  0.000000  1.000000  0.500000  1
  O  O6  1  0.251615  0.748385  0.879594  1
  O  O7  1  0.500000  0.500000  0.000000  1
  O  O8  1  0.011460  0.988540  0.287544  1
  O  O9  1  0.722586  0.277414  0.614013  1
  O  O10  1  0.277414  0.722586  0.385987  1
  O  O11  1  0.988540  0.011460  0.712456  1
  O  O12  1  0.748385  0.251615  0.120406  1
