# generated using pymatgen
data_RbBrO4
_symmetry_space_group_name_H-M   'P 1'
_cell_length_a   8.06547700
_cell_length_b   8.06547700
_cell_length_c   8.06547700
_cell_angle_alpha   137.73973997
_cell_angle_beta   137.73973997
_cell_angle_gamma   61.30183350
_symmetry_Int_Tables_number   1
_chemical_formula_structural   RbBrO4
_chemical_formula_sum   'Rb2 Br2 O8'
_cell_volume   234.62527634
_cell_formula_units_Z   2
loop_
 _symmetry_equiv_pos_site_id
 _symmetry_equiv_pos_as_xyz
  1  'x, y, z'
loop_
 _atom_site_type_symbol
 _atom_site_label
 _atom_site_symmetry_multiplicity
 _atom_site_fract_x
 _atom_site_fract_y
 _atom_site_fract_z
 _atom_site_occupancy
  Rb  Rb0  1  0.750000  0.250000  0.500000  1
  Rb  Rb1  1  0.000000  0.000000  0.000000  1
  Br  Br2  1  0.250000  0.750000  0.500000  1
  Br  Br3  1  0.500000  0.500000  0.000000  1
  O  O4  1  0.644551  0.347370  0.856601  1
  O  O5  1  0.259231  0.462051  0.356601  1
  O  O6  1  0.537949  0.894551  0.797181  1
  O  O7  1  0.652630  0.509231  0.297181  1
  O  O8  1  0.212051  0.355449  0.702819  1
  O  O9  1  0.097370  0.740769  0.202819  1
  O  O10  1  0.105449  0.902630  0.643399  1
  O  O11  1  0.490769  0.787949  0.143399  1
