# generated using pymatgen
data_Li7Ti16O32
_symmetry_space_group_name_H-M   'P 1'
_cell_length_a   11.41018749
_cell_length_b   11.41018749
_cell_length_c   5.08587626
_cell_angle_alpha   89.92992342
_cell_angle_beta   90.07007658
_cell_angle_gamma   117.46335295
_symmetry_Int_Tables_number   1
_chemical_formula_structural   Li7Ti16O32
_chemical_formula_sum   'Li7 Ti16 O32'
_cell_volume   587.52225299
_cell_formula_units_Z   1
loop_
 _symmetry_equiv_pos_site_id
 _symmetry_equiv_pos_as_xyz
  1  'x, y, z'
loop_
 _atom_site_type_symbol
 _atom_site_label
 _atom_site_symmetry_multiplicity
 _atom_site_fract_x
 _atom_site_fract_y
 _atom_site_fract_z
 _atom_site_occupancy
  Li  Li0  1  0.327861  0.672139  0.429072  1
  Li  Li1  1  0.926507  0.336533  0.562494  1
  Li  Li2  1  0.663467  0.073493  0.562494  1
  Li  Li3  1  0.173508  0.078296  0.936213  1
  Li  Li4  1  0.670453  0.579058  0.936907  1
  Li  Li5  1  0.921704  0.826492  0.936213  1
  Li  Li6  1  0.420942  0.329547  0.936907  1
  Ti  Ti7  1  0.740223  0.259777  0.021103  1
  Ti  Ti8  1  0.486144  0.000436  0.026596  1
  Ti  Ti9  1  0.240286  0.759714  0.000823  1
  Ti  Ti10  1  0.999564  0.513856  0.026596  1
  Ti  Ti11  1  0.240187  0.258230  0.478493  1
  Ti  Ti12  1  0.741770  0.759813  0.478493  1
  Ti  Ti13  1  0.490371  0.509629  0.469767  1
  Ti  Ti14  1  0.992583  0.007417  0.484877  1
  Ti  Ti15  1  0.507185  0.242119  0.519077  1
  Ti  Ti16  1  0.258427  0.990755  0.508116  1
  Ti  Ti17  1  0.009245  0.741573  0.508116  1
  Ti  Ti18  1  0.757881  0.492815  0.519077  1
  Ti  Ti19  1  0.003395  0.238907  0.989987  1
  Ti  Ti20  1  0.510808  0.750296  0.969940  1
  Ti  Ti21  1  0.249705  0.489192  0.969940  1
  Ti  Ti22  1  0.761093  0.996605  0.989987  1
  O  O23  1  0.670934  0.083480  0.194630  1
  O  O24  1  0.172071  0.582982  0.196531  1
  O  O25  1  0.417018  0.827929  0.196531  1
  O  O26  1  0.916520  0.329066  0.194630  1
  O  O27  1  0.175584  0.328218  0.195602  1
  O  O28  1  0.924539  0.075461  0.206892  1
  O  O29  1  0.418193  0.581807  0.210366  1
  O  O30  1  0.671782  0.824416  0.195602  1
  O  O31  1  0.427493  0.079095  0.301587  1
  O  O32  1  0.174636  0.825364  0.298102  1
  O  O33  1  0.673080  0.326920  0.299485  1
  O  O34  1  0.920905  0.572507  0.301587  1
  O  O35  1  0.420338  0.331577  0.304482  1
  O  O36  1  0.171899  0.080733  0.303858  1
  O  O37  1  0.919267  0.828101  0.303858  1
  O  O38  1  0.668423  0.579662  0.304482  1
  O  O39  1  0.828663  0.668807  0.708519  1
  O  O40  1  0.331193  0.171337  0.708519  1
  O  O41  1  0.080334  0.919666  0.707589  1
  O  O42  1  0.580974  0.419026  0.711643  1
  O  O43  1  0.082038  0.169567  0.717609  1
  O  O44  1  0.830433  0.917962  0.717609  1
  O  O45  1  0.579251  0.666935  0.712906  1
  O  O46  1  0.333065  0.420749  0.712906  1
  O  O47  1  0.328382  0.927990  0.800542  1
  O  O48  1  0.831548  0.418525  0.790017  1
  O  O49  1  0.072010  0.671618  0.800542  1
  O  O50  1  0.581475  0.168452  0.790017  1
  O  O51  1  0.830597  0.169403  0.785461  1
  O  O52  1  0.332017  0.667983  0.797215  1
  O  O53  1  0.079066  0.416537  0.798748  1
  O  O54  1  0.583463  0.920934  0.798748  1
