# generated using pymatgen
data_Li12Ni11O28
_symmetry_space_group_name_H-M   'P 1'
_cell_length_a   5.83023028
_cell_length_b   6.41274194
_cell_length_c   12.91358821
_cell_angle_alpha   84.19225513
_cell_angle_beta   83.76674705
_cell_angle_gamma   74.29272121
_symmetry_Int_Tables_number   1
_chemical_formula_structural   Li12Ni11O28
_chemical_formula_sum   'Li12 Ni11 O28'
_cell_volume   460.73085051
_cell_formula_units_Z   1
loop_
 _symmetry_equiv_pos_site_id
 _symmetry_equiv_pos_as_xyz
  1  'x, y, z'
loop_
 _atom_site_type_symbol
 _atom_site_label
 _atom_site_symmetry_multiplicity
 _atom_site_fract_x
 _atom_site_fract_y
 _atom_site_fract_z
 _atom_site_occupancy
  Li  Li0  1  0.360397  0.648934  0.928576  1
  Li  Li1  1  0.210154  0.291581  0.856994  1
  Li  Li2  1  0.567399  0.928398  0.792854  1
  Li  Li3  1  0.936637  0.561380  0.717907  1
  Li  Li4  1  0.788372  0.214773  0.643353  1
  Li  Li5  1  0.646480  0.864395  0.572268  1
  Li  Li6  1  0.999396  0.489391  0.500049  1
  Li  Li7  1  0.360129  0.152999  0.425688  1
  Li  Li8  1  0.578548  0.435749  0.285920  1
  Li  Li9  1  0.429910  0.076985  0.214599  1
  Li  Li10  1  0.785742  0.701427  0.146639  1
  Li  Li11  1  0.144548  0.365561  0.066716  1
  Ni  Ni12  1  0.995969  0.994082  0.999305  1
  Ni  Ni13  1  0.709835  0.289821  0.857631  1
  Ni  Ni14  1  0.068640  0.929987  0.784728  1
  Ni  Ni15  1  0.431109  0.567996  0.714449  1
  Ni  Ni16  1  0.145075  0.860737  0.571785  1
  Ni  Ni17  1  0.505417  0.497680  0.501213  1
  Ni  Ni18  1  0.856847  0.143790  0.426862  1
  Ni  Ni19  1  0.216058  0.780490  0.357072  1
  Ni  Ni20  1  0.925268  0.074141  0.214632  1
  Ni  Ni21  1  0.284212  0.711325  0.142919  1
  Ni  Ni22  1  0.638122  0.358377  0.070011  1
  O  O23  1  0.902096  0.297302  0.966424  1
  O  O24  1  0.459275  0.328799  0.964078  1
  O  O25  1  0.812266  0.983441  0.887514  1
  O  O26  1  0.239295  0.964331  0.891507  1
  O  O27  1  0.630329  0.584374  0.812414  1
  O  O28  1  0.165842  0.623871  0.809494  1
  O  O29  1  0.974909  0.234192  0.760847  1
  O  O30  1  0.510487  0.273744  0.759087  1
  O  O31  1  0.891412  0.892626  0.675270  1
  O  O32  1  0.335281  0.873445  0.681499  1
  O  O33  1  0.685401  0.536646  0.606679  1
  O  O34  1  0.240512  0.557607  0.605306  1
  O  O35  1  0.593090  0.195304  0.521720  1
  O  O36  1  0.961486  0.836301  0.466853  1
  O  O37  1  0.061413  0.153731  0.526264  1
  O  O38  1  0.403334  0.804208  0.467625  1
  O  O39  1  0.770105  0.440090  0.406584  1
  O  O40  1  0.301973  0.488187  0.401811  1
  O  O41  1  0.677658  0.114115  0.319517  1
  O  O42  1  0.119933  0.083628  0.321739  1
  O  O43  1  0.455938  0.751743  0.249114  1
  O  O44  1  0.027316  0.769414  0.249221  1
  O  O45  1  0.844355  0.366809  0.169635  1
  O  O46  1  0.373663  0.409869  0.164995  1
  O  O47  1  0.740562  0.049704  0.108907  1
  O  O48  1  0.180244  0.016895  0.107953  1
  O  O49  1  0.553026  0.655044  0.050261  1
  O  O50  1  0.082248  0.701320  0.043035  1
