# generated using pymatgen
data_LiCrO2
_symmetry_space_group_name_H-M   'P 1'
_cell_length_a   5.92112378
_cell_length_b   5.92112378
_cell_length_c   5.92112378
_cell_angle_alpha   60.00000000
_cell_angle_beta   60.00000000
_cell_angle_gamma   60.00000000
_symmetry_Int_Tables_number   1
_chemical_formula_structural   LiCrO2
_chemical_formula_sum   'Li4 Cr4 O8'
_cell_volume   146.79032140
_cell_formula_units_Z   4
loop_
 _symmetry_equiv_pos_site_id
 _symmetry_equiv_pos_as_xyz
  1  'x, y, z'
loop_
 _atom_site_type_symbol
 _atom_site_label
 _atom_site_symmetry_multiplicity
 _atom_site_fract_x
 _atom_site_fract_y
 _atom_site_fract_z
 _atom_site_occupancy
  Li  Li0  1  0.625000  0.625000  0.125000  1
  Li  Li1  1  0.125000  0.625000  0.625000  1
  Li  Li2  1  0.625000  0.625000  0.625000  1
  Li  Li3  1  0.625000  0.125000  0.625000  1
  Cr  Cr4  1  0.125000  0.625000  0.125000  1
  Cr  Cr5  1  0.125000  0.125000  0.125000  1
  Cr  Cr6  1  0.625000  0.125000  0.125000  1
  Cr  Cr7  1  0.125000  0.125000  0.625000  1
  O  O8  1  0.882983  0.351050  0.882983  1
  O  O9  1  0.351050  0.882983  0.882983  1
  O  O10  1  0.882983  0.882983  0.882983  1
  O  O11  1  0.367017  0.367017  0.898950  1
  O  O12  1  0.882983  0.882983  0.351050  1
  O  O13  1  0.367017  0.367017  0.367017  1
  O  O14  1  0.898950  0.367017  0.367017  1
  O  O15  1  0.367017  0.898950  0.367017  1
