# generated using pymatgen
data_HfP2O7
_symmetry_space_group_name_H-M   'P 1'
_cell_length_a   5.03334447
_cell_length_b   7.15329491
_cell_length_c   8.44067359
_cell_angle_alpha   91.33146554
_cell_angle_beta   92.85095385
_cell_angle_gamma   107.16567287
_symmetry_Int_Tables_number   1
_chemical_formula_structural   HfP2O7
_chemical_formula_sum   'Hf2 P4 O14'
_cell_volume   289.78062959
_cell_formula_units_Z   2
loop_
 _symmetry_equiv_pos_site_id
 _symmetry_equiv_pos_as_xyz
  1  'x, y, z'
loop_
 _atom_site_type_symbol
 _atom_site_label
 _atom_site_symmetry_multiplicity
 _atom_site_fract_x
 _atom_site_fract_y
 _atom_site_fract_z
 _atom_site_occupancy
  Hf  Hf0  1  0.000000  0.000000  0.000000  1
  Hf  Hf1  1  0.500000  0.500000  0.500000  1
  P  P2  1  0.525261  0.135446  0.761977  1
  P  P3  1  0.121661  0.750798  0.690948  1
  P  P4  1  0.878339  0.249202  0.309052  1
  P  P5  1  0.474739  0.864554  0.238023  1
  O  O6  1  0.368026  0.162593  0.907944  1
  O  O7  1  0.042276  0.766251  0.863143  1
  O  O8  1  0.779534  0.068659  0.807759  1
  O  O9  1  0.294291  0.609886  0.670382  1
  O  O10  1  0.599734  0.314620  0.661098  1
  O  O11  1  0.315050  0.965925  0.647295  1
  O  O12  1  0.870723  0.707304  0.572168  1
  O  O13  1  0.129277  0.292696  0.427832  1
  O  O14  1  0.684950  0.034075  0.352705  1
  O  O15  1  0.400266  0.685380  0.338902  1
  O  O16  1  0.705709  0.390114  0.329618  1
  O  O17  1  0.220466  0.931341  0.192241  1
  O  O18  1  0.957724  0.233749  0.136857  1
  O  O19  1  0.631974  0.837407  0.092056  1
