# generated using pymatgen
data_Li3Cu2F8
_symmetry_space_group_name_H-M   'P 1'
_cell_length_a   5.91305346
_cell_length_b   5.17528759
_cell_length_c   9.64099963
_cell_angle_alpha   90.00000000
_cell_angle_beta   94.61589516
_cell_angle_gamma   90.00000000
_symmetry_Int_Tables_number   1
_chemical_formula_structural   Li3Cu2F8
_chemical_formula_sum   'Li6 Cu4 F16'
_cell_volume   294.07457394
_cell_formula_units_Z   2
loop_
 _symmetry_equiv_pos_site_id
 _symmetry_equiv_pos_as_xyz
  1  'x, y, z'
loop_
 _atom_site_type_symbol
 _atom_site_label
 _atom_site_symmetry_multiplicity
 _atom_site_fract_x
 _atom_site_fract_y
 _atom_site_fract_z
 _atom_site_occupancy
  Li  Li0  1  0.155089  0.503421  0.747303  1
  Li  Li1  1  0.155089  0.996579  0.247303  1
  Li  Li2  1  0.500000  0.500000  0.500000  1
  Li  Li3  1  0.500000  0.000000  0.000000  1
  Li  Li4  1  0.844911  0.003421  0.752697  1
  Li  Li5  1  0.844911  0.496579  0.252697  1
  Cu  Cu6  1  0.362213  0.006189  0.631049  1
  Cu  Cu7  1  0.362213  0.493811  0.131049  1
  Cu  Cu8  1  0.637787  0.506189  0.868951  1
  Cu  Cu9  1  0.637787  0.993811  0.368951  1
  F  F10  1  0.097466  0.845871  0.686812  1
  F  F11  1  0.097466  0.654129  0.186812  1
  F  F12  1  0.221783  0.324381  0.580273  1
  F  F13  1  0.221783  0.175619  0.080273  1
  F  F14  1  0.353615  0.648708  0.931510  1
  F  F15  1  0.353615  0.851292  0.431510  1
  F  F16  1  0.459131  0.191101  0.817403  1
  F  F17  1  0.459131  0.308899  0.317403  1
  F  F18  1  0.540869  0.691101  0.682597  1
  F  F19  1  0.540869  0.808899  0.182597  1
  F  F20  1  0.646385  0.148708  0.568490  1
  F  F21  1  0.646385  0.351292  0.068490  1
  F  F22  1  0.778217  0.824381  0.919727  1
  F  F23  1  0.778217  0.675619  0.419727  1
  F  F24  1  0.902534  0.345871  0.813188  1
  F  F25  1  0.902534  0.154129  0.313188  1
