# generated using pymatgen
data_LiFe2(BO3)2
_symmetry_space_group_name_H-M   'P 1'
_cell_length_a   5.20812045
_cell_length_b   9.11939496
_cell_length_c   11.41725329
_cell_angle_alpha   112.96744856
_cell_angle_beta   102.53233825
_cell_angle_gamma   89.75892557
_symmetry_Int_Tables_number   1
_chemical_formula_structural   LiFe2(BO3)2
_chemical_formula_sum   'Li4 Fe8 B8 O24'
_cell_volume   485.42163822
_cell_formula_units_Z   4
loop_
 _symmetry_equiv_pos_site_id
 _symmetry_equiv_pos_as_xyz
  1  'x, y, z'
loop_
 _atom_site_type_symbol
 _atom_site_label
 _atom_site_symmetry_multiplicity
 _atom_site_fract_x
 _atom_site_fract_y
 _atom_site_fract_z
 _atom_site_occupancy
  Li  Li0  1  0.026558  0.028452  0.387155  1
  Li  Li1  1  0.296711  0.274659  0.917455  1
  Li  Li2  1  0.978680  0.001215  0.659200  1
  Li  Li3  1  0.742319  0.741465  0.136955  1
  Fe  Fe4  1  0.015875  0.357790  0.373536  1
  Fe  Fe5  1  0.257296  0.929041  0.884028  1
  Fe  Fe6  1  0.467049  0.160626  0.623762  1
  Fe  Fe7  1  0.240996  0.564417  0.144767  1
  Fe  Fe8  1  0.772657  0.442127  0.869165  1
  Fe  Fe9  1  0.529599  0.845636  0.387896  1
  Fe  Fe10  1  0.982495  0.646224  0.632788  1
  Fe  Fe11  1  0.747189  0.068919  0.123903  1
  B  B12  1  0.029599  0.687260  0.381409  1
  B  B13  1  0.274514  0.594740  0.878195  1
  B  B14  1  0.486466  0.819401  0.634315  1
  B  B15  1  0.237400  0.888761  0.132675  1
  B  B16  1  0.513169  0.185355  0.374159  1
  B  B17  1  0.766426  0.115689  0.876911  1
  B  B18  1  0.962919  0.309535  0.618236  1
  B  B19  1  0.734714  0.405928  0.129425  1
  O  O20  1  0.020074  0.100838  0.857298  1
  O  O21  1  0.126434  0.687222  0.823130  1
  O  O22  1  0.151927  0.493212  0.921430  1
  O  O23  1  0.079141  0.169434  0.602907  1
  O  O24  1  0.048472  0.417334  0.572923  1
  O  O25  1  0.232021  0.830433  0.660906  1
  O  O26  1  0.256558  0.653378  0.332974  1
  O  O27  1  0.541920  0.601335  0.896935  1
  O  O28  1  0.617783  0.234935  0.848107  1
  O  O29  1  0.426430  0.072716  0.415421  1
  O  O30  1  0.360726  0.303506  0.365903  1
  O  O31  1  0.646683  0.023794  0.922997  1
  O  O32  1  0.358041  0.977744  0.084021  1
  O  O33  1  0.637099  0.700298  0.642365  1
  O  O34  1  0.580919  0.934324  0.596951  1
  O  O35  1  0.386188  0.771595  0.165304  1
  O  O36  1  0.465754  0.399044  0.109291  1
  O  O37  1  0.752905  0.344806  0.678982  1
  O  O38  1  0.764326  0.174740  0.344177  1
  O  O39  1  0.942529  0.585548  0.432069  1
  O  O40  1  0.899800  0.815552  0.374770  1
  O  O41  1  0.859877  0.511893  0.091709  1
  O  O42  1  0.881567  0.310629  0.180934  1
  O  O43  1  0.985861  0.904121  0.151048  1
