# generated using pymatgen
data_Li9Y(NiO4)2
_symmetry_space_group_name_H-M   'P 1'
_cell_length_a   6.50581109
_cell_length_b   7.71254290
_cell_length_c   16.17257172
_cell_angle_alpha   90.00000000
_cell_angle_beta   90.00000000
_cell_angle_gamma   90.00000000
_symmetry_Int_Tables_number   1
_chemical_formula_structural   Li9Y(NiO4)2
_chemical_formula_sum   'Li36 Y4 Ni8 O32'
_cell_volume   811.48057207
_cell_formula_units_Z   4
loop_
 _symmetry_equiv_pos_site_id
 _symmetry_equiv_pos_as_xyz
  1  'x, y, z'
loop_
 _atom_site_type_symbol
 _atom_site_label
 _atom_site_symmetry_multiplicity
 _atom_site_fract_x
 _atom_site_fract_y
 _atom_site_fract_z
 _atom_site_occupancy
  Li  Li0  1  0.000098  0.040367  0.569622  1
  Li  Li1  1  0.499902  0.040367  0.569622  1
  Li  Li2  1  0.750000  0.862153  0.646451  1
  Li  Li3  1  0.999102  0.629601  0.627177  1
  Li  Li4  1  0.500898  0.629601  0.627177  1
  Li  Li5  1  0.250000  0.849773  0.646580  1
  Li  Li6  1  0.750000  0.331474  0.696478  1
  Li  Li7  1  0.509197  0.082490  0.710904  1
  Li  Li8  1  0.990803  0.082490  0.710904  1
  Li  Li9  1  0.009197  0.582490  0.789096  1
  Li  Li10  1  0.490803  0.582490  0.789096  1
  Li  Li11  1  0.250000  0.831474  0.803522  1
  Li  Li12  1  0.750000  0.349773  0.853420  1
  Li  Li13  1  0.000898  0.129601  0.872823  1
  Li  Li14  1  0.499102  0.129601  0.872823  1
  Li  Li15  1  0.250000  0.362153  0.853549  1
  Li  Li16  1  0.500098  0.540367  0.930378  1
  Li  Li17  1  0.999902  0.540367  0.930378  1
  Li  Li18  1  0.000098  0.459633  0.069622  1
  Li  Li19  1  0.499902  0.459633  0.069622  1
  Li  Li20  1  0.750000  0.637847  0.146451  1
  Li  Li21  1  0.500898  0.870399  0.127177  1
  Li  Li22  1  0.999102  0.870399  0.127177  1
  Li  Li23  1  0.250000  0.650227  0.146580  1
  Li  Li24  1  0.750000  0.168526  0.196478  1
  Li  Li25  1  0.509197  0.417510  0.210904  1
  Li  Li26  1  0.990803  0.417510  0.210904  1
  Li  Li27  1  0.009197  0.917510  0.289096  1
  Li  Li28  1  0.490803  0.917510  0.289096  1
  Li  Li29  1  0.250000  0.668526  0.303522  1
  Li  Li30  1  0.750000  0.150227  0.353420  1
  Li  Li31  1  0.000898  0.370399  0.372823  1
  Li  Li32  1  0.499102  0.370399  0.372823  1
  Li  Li33  1  0.250000  0.137847  0.353549  1
  Li  Li34  1  0.500098  0.959633  0.430378  1
  Li  Li35  1  0.999902  0.959633  0.430378  1
  Y  Y36  1  0.250000  0.325446  0.521283  1
  Y  Y37  1  0.750000  0.825446  0.978717  1
  Y  Y38  1  0.250000  0.174554  0.021283  1
  Y  Y39  1  0.750000  0.674554  0.478717  1
  Ni  Ni40  1  0.750000  0.278998  0.533994  1
  Ni  Ni41  1  0.250000  0.330798  0.703869  1
  Ni  Ni42  1  0.750000  0.830798  0.796131  1
  Ni  Ni43  1  0.250000  0.778998  0.966006  1
  Ni  Ni44  1  0.750000  0.221002  0.033994  1
  Ni  Ni45  1  0.250000  0.169202  0.203869  1
  Ni  Ni46  1  0.750000  0.669202  0.296131  1
  Ni  Ni47  1  0.250000  0.721002  0.466006  1
  O  O48  1  0.011977  0.808301  0.532334  1
  O  O49  1  0.488023  0.808301  0.532334  1
  O  O50  1  0.750000  0.503183  0.593762  1
  O  O51  1  0.750000  0.110467  0.631569  1
  O  O52  1  0.250000  0.117186  0.631216  1
  O  O53  1  0.250000  0.513857  0.620758  1
  O  O54  1  0.506518  0.807856  0.721926  1
  O  O55  1  0.993482  0.807856  0.721926  1
  O  O56  1  0.006518  0.307856  0.778074  1
  O  O57  1  0.493482  0.307856  0.778074  1
  O  O58  1  0.750000  0.013857  0.879242  1
  O  O59  1  0.750000  0.617186  0.868784  1
  O  O60  1  0.250000  0.610467  0.868431  1
  O  O61  1  0.250000  0.003183  0.906238  1
  O  O62  1  0.511977  0.308301  0.967666  1
  O  O63  1  0.988023  0.308301  0.967666  1
  O  O64  1  0.011977  0.691699  0.032334  1
  O  O65  1  0.488023  0.691699  0.032334  1
  O  O66  1  0.750000  0.996817  0.093762  1
  O  O67  1  0.750000  0.389533  0.131569  1
  O  O68  1  0.250000  0.382814  0.131216  1
  O  O69  1  0.250000  0.986143  0.120758  1
  O  O70  1  0.506518  0.692144  0.221926  1
  O  O71  1  0.993482  0.692144  0.221926  1
  O  O72  1  0.006518  0.192144  0.278074  1
  O  O73  1  0.493482  0.192144  0.278074  1
  O  O74  1  0.750000  0.486143  0.379242  1
  O  O75  1  0.750000  0.882814  0.368784  1
  O  O76  1  0.250000  0.889533  0.368431  1
  O  O77  1  0.250000  0.496817  0.406238  1
  O  O78  1  0.511977  0.191699  0.467666  1
  O  O79  1  0.988023  0.191699  0.467666  1
