# generated using pymatgen
data_Li3FeO3
_symmetry_space_group_name_H-M   'P 1'
_cell_length_a   8.86528090
_cell_length_b   8.86528090
_cell_length_c   3.64441976
_cell_angle_alpha   90.00000000
_cell_angle_beta   90.00000000
_cell_angle_gamma   90.00000000
_symmetry_Int_Tables_number   1
_chemical_formula_structural   Li3FeO3
_chemical_formula_sum   'Li12 Fe4 O12'
_cell_volume   286.42663089
_cell_formula_units_Z   4
loop_
 _symmetry_equiv_pos_site_id
 _symmetry_equiv_pos_as_xyz
  1  'x, y, z'
loop_
 _atom_site_type_symbol
 _atom_site_label
 _atom_site_symmetry_multiplicity
 _atom_site_fract_x
 _atom_site_fract_y
 _atom_site_fract_z
 _atom_site_occupancy
  Li  Li0  1  0.358042  0.102987  0.500000  1
  Li  Li1  1  0.602987  0.141958  0.000000  1
  Li  Li2  1  0.166172  0.166172  0.000000  1
  Li  Li3  1  0.666172  0.333828  0.500000  1
  Li  Li4  1  0.102987  0.358042  0.500000  1
  Li  Li5  1  0.858042  0.397013  0.000000  1
  Li  Li6  1  0.141958  0.602987  0.000000  1
  Li  Li7  1  0.897013  0.641958  0.500000  1
  Li  Li8  1  0.333828  0.666172  0.500000  1
  Li  Li9  1  0.833828  0.833828  0.000000  1
  Li  Li10  1  0.397013  0.858042  0.000000  1
  Li  Li11  1  0.641958  0.897013  0.500000  1
  Fe  Fe12  1  0.884074  0.115926  0.500000  1
  Fe  Fe13  1  0.384074  0.384074  0.000000  1
  Fe  Fe14  1  0.615926  0.615926  0.000000  1
  Fe  Fe15  1  0.115926  0.884074  0.500000  1
  O  O16  1  0.102079  0.102079  0.500000  1
  O  O17  1  0.676933  0.112533  0.500000  1
  O  O18  1  0.387467  0.176933  0.000000  1
  O  O19  1  0.887467  0.323067  0.500000  1
  O  O20  1  0.176933  0.387467  0.000000  1
  O  O21  1  0.602079  0.397921  0.000000  1
  O  O22  1  0.397921  0.602079  0.000000  1
  O  O23  1  0.823067  0.612533  0.000000  1
  O  O24  1  0.112533  0.676933  0.500000  1
  O  O25  1  0.612533  0.823067  0.000000  1
  O  O26  1  0.323067  0.887467  0.500000  1
  O  O27  1  0.897921  0.897921  0.500000  1
