# generated using pymatgen
data_CuTeO4
_symmetry_space_group_name_H-M   'P 1'
_cell_length_a   6.35564941
_cell_length_b   6.35564941
_cell_length_c   6.35564941
_cell_angle_alpha   126.07925586
_cell_angle_beta   123.49820713
_cell_angle_gamma   81.90500931
_symmetry_Int_Tables_number   1
_chemical_formula_structural   CuTeO4
_chemical_formula_sum   'Cu2 Te2 O8'
_cell_volume   166.43945317
_cell_formula_units_Z   2
loop_
 _symmetry_equiv_pos_site_id
 _symmetry_equiv_pos_as_xyz
  1  'x, y, z'
loop_
 _atom_site_type_symbol
 _atom_site_label
 _atom_site_symmetry_multiplicity
 _atom_site_fract_x
 _atom_site_fract_y
 _atom_site_fract_z
 _atom_site_occupancy
  Cu  Cu0  1  0.000000  0.500000  0.000000  1
  Cu  Cu1  1  0.000000  0.000000  0.500000  1
  Te  Te2  1  0.000000  0.500000  0.500000  1
  Te  Te3  1  0.500000  0.500000  0.000000  1
  O  O4  1  0.829125  0.297627  0.531498  1
  O  O5  1  0.261541  0.740962  0.979421  1
  O  O6  1  0.261541  0.282120  0.520579  1
  O  O7  1  0.266129  0.297627  0.968502  1
  O  O8  1  0.733871  0.702373  0.031498  1
  O  O9  1  0.738459  0.259038  0.020579  1
  O  O10  1  0.738459  0.717880  0.479421  1
  O  O11  1  0.170875  0.702373  0.468502  1
