# generated using pymatgen
data_Li2Ni3SbO8
_symmetry_space_group_name_H-M   'P 1'
_cell_length_a   8.36091461
_cell_length_b   8.36091461
_cell_length_c   8.36091461
_cell_angle_alpha   90.00000000
_cell_angle_beta   90.00000000
_cell_angle_gamma   90.00000000
_symmetry_Int_Tables_number   1
_chemical_formula_structural   Li2Ni3SbO8
_chemical_formula_sum   'Li8 Ni12 Sb4 O32'
_cell_volume   584.46884298
_cell_formula_units_Z   4
loop_
 _symmetry_equiv_pos_site_id
 _symmetry_equiv_pos_as_xyz
  1  'x, y, z'
loop_
 _atom_site_type_symbol
 _atom_site_label
 _atom_site_symmetry_multiplicity
 _atom_site_fract_x
 _atom_site_fract_y
 _atom_site_fract_z
 _atom_site_occupancy
  Li  Li0  1  0.498745  0.498745  0.498745  1
  Li  Li1  1  0.751255  0.751255  0.751255  1
  Li  Li2  1  0.251255  0.748745  0.248745  1
  Li  Li3  1  0.998745  0.001255  0.501255  1
  Li  Li4  1  0.501255  0.998745  0.001255  1
  Li  Li5  1  0.248745  0.251255  0.748745  1
  Li  Li6  1  0.748745  0.248745  0.251255  1
  Li  Li7  1  0.001255  0.501255  0.998745  1
  Ni  Ni8  1  0.125000  0.622532  0.627468  1
  Ni  Ni9  1  0.372532  0.625000  0.877468  1
  Ni  Ni10  1  0.622532  0.627468  0.125000  1
  Ni  Ni11  1  0.122532  0.872532  0.875000  1
  Ni  Ni12  1  0.872532  0.875000  0.122532  1
  Ni  Ni13  1  0.625000  0.877468  0.372532  1
  Ni  Ni14  1  0.875000  0.122532  0.872532  1
  Ni  Ni15  1  0.627468  0.125000  0.622532  1
  Ni  Ni16  1  0.377468  0.127468  0.375000  1
  Ni  Ni17  1  0.877468  0.372532  0.625000  1
  Ni  Ni18  1  0.127468  0.375000  0.377468  1
  Ni  Ni19  1  0.375000  0.377468  0.127468  1
  Sb  Sb20  1  0.875000  0.625000  0.375000  1
  Sb  Sb21  1  0.375000  0.875000  0.625000  1
  Sb  Sb22  1  0.125000  0.125000  0.125000  1
  Sb  Sb23  1  0.625000  0.375000  0.875000  1
  O  O24  1  0.880022  0.606317  0.615070  1
  O  O25  1  0.115070  0.619978  0.393683  1
  O  O26  1  0.390992  0.609008  0.109008  1
  O  O27  1  0.369978  0.634930  0.643683  1
  O  O28  1  0.606317  0.615070  0.880022  1
  O  O29  1  0.140992  0.640992  0.859008  1
  O  O30  1  0.856317  0.630022  0.134930  1
  O  O31  1  0.634930  0.643683  0.369978  1
  O  O32  1  0.134930  0.856317  0.630022  1
  O  O33  1  0.356317  0.869978  0.865070  1
  O  O34  1  0.640992  0.859008  0.140992  1
  O  O35  1  0.106317  0.884930  0.119978  1
  O  O36  1  0.869978  0.865070  0.356317  1
  O  O37  1  0.890992  0.890992  0.890992  1
  O  O38  1  0.615070  0.880022  0.606317  1
  O  O39  1  0.380022  0.893683  0.384930  1
  O  O40  1  0.119978  0.106317  0.884930  1
  O  O41  1  0.884930  0.119978  0.106317  1
  O  O42  1  0.609008  0.109008  0.390992  1
  O  O43  1  0.630022  0.134930  0.856317  1
  O  O44  1  0.393683  0.115070  0.619978  1
  O  O45  1  0.859008  0.140992  0.640992  1
  O  O46  1  0.143683  0.130022  0.365070  1
  O  O47  1  0.365070  0.143683  0.130022  1
  O  O48  1  0.865070  0.356317  0.869978  1
  O  O49  1  0.643683  0.369978  0.634930  1
  O  O50  1  0.359008  0.359008  0.359008  1
  O  O51  1  0.893683  0.384930  0.380022  1
  O  O52  1  0.130022  0.365070  0.143683  1
  O  O53  1  0.109008  0.390992  0.609008  1
  O  O54  1  0.384930  0.380022  0.893683  1
  O  O55  1  0.619978  0.393683  0.115070  1
