# generated using pymatgen
data_LiGdO2
_symmetry_space_group_name_H-M   'P 1'
_cell_length_a   6.36666947
_cell_length_b   6.21573906
_cell_length_c   6.48603049
_cell_angle_alpha   90.00000000
_cell_angle_beta   120.08110927
_cell_angle_gamma   90.00000000
_symmetry_Int_Tables_number   1
_chemical_formula_structural   LiGdO2
_chemical_formula_sum   'Li4 Gd4 O8'
_cell_volume   222.10542250
_cell_formula_units_Z   4
loop_
 _symmetry_equiv_pos_site_id
 _symmetry_equiv_pos_as_xyz
  1  'x, y, z'
loop_
 _atom_site_type_symbol
 _atom_site_label
 _atom_site_symmetry_multiplicity
 _atom_site_fract_x
 _atom_site_fract_y
 _atom_site_fract_z
 _atom_site_occupancy
  Li  Li0  1  0.296846  0.158355  0.570610  1
  Li  Li1  1  0.703154  0.658355  0.929390  1
  Li  Li2  1  0.296846  0.341645  0.070610  1
  Li  Li3  1  0.703154  0.841645  0.429390  1
  Gd  Gd4  1  0.231152  0.867536  0.974610  1
  Gd  Gd5  1  0.231152  0.632464  0.474610  1
  Gd  Gd6  1  0.768848  0.367536  0.525390  1
  Gd  Gd7  1  0.768848  0.132464  0.025390  1
  O  O8  1  0.016139  0.178068  0.856212  1
  O  O9  1  0.016139  0.321932  0.356212  1
  O  O10  1  0.450517  0.894344  0.762987  1
  O  O11  1  0.549483  0.394344  0.737013  1
  O  O12  1  0.450517  0.605656  0.262987  1
  O  O13  1  0.549483  0.105656  0.237013  1
  O  O14  1  0.983861  0.678068  0.643788  1
  O  O15  1  0.983861  0.821932  0.143788  1
