# generated using pymatgen
data_Rb4TiO4
_symmetry_space_group_name_H-M   'P 1'
_cell_length_a   11.12880391
_cell_length_b   6.91769443
_cell_length_c   11.24109244
_cell_angle_alpha   90.00000000
_cell_angle_beta   112.15884939
_cell_angle_gamma   90.00000000
_symmetry_Int_Tables_number   1
_chemical_formula_structural   Rb4TiO4
_chemical_formula_sum   'Rb16 Ti4 O16'
_cell_volume   801.48579666
_cell_formula_units_Z   4
loop_
 _symmetry_equiv_pos_site_id
 _symmetry_equiv_pos_as_xyz
  1  'x, y, z'
loop_
 _atom_site_type_symbol
 _atom_site_label
 _atom_site_symmetry_multiplicity
 _atom_site_fract_x
 _atom_site_fract_y
 _atom_site_fract_z
 _atom_site_occupancy
  Rb  Rb0  1  0.285457  0.682521  0.916270  1
  Rb  Rb1  1  0.393116  0.174886  0.875524  1
  Rb  Rb2  1  0.074100  0.384863  0.655851  1
  Rb  Rb3  1  0.785457  0.817479  0.916270  1
  Rb  Rb4  1  0.893116  0.325114  0.875524  1
  Rb  Rb5  1  0.204374  0.918113  0.567968  1
  Rb  Rb6  1  0.574100  0.115137  0.655851  1
  Rb  Rb7  1  0.295626  0.418113  0.432032  1
  Rb  Rb8  1  0.704374  0.581887  0.567968  1
  Rb  Rb9  1  0.425900  0.884863  0.344149  1
  Rb  Rb10  1  0.795626  0.081887  0.432032  1
  Rb  Rb11  1  0.106884  0.674886  0.124476  1
  Rb  Rb12  1  0.214543  0.182521  0.083730  1
  Rb  Rb13  1  0.925900  0.615137  0.344149  1
  Rb  Rb14  1  0.606884  0.825114  0.124476  1
  Rb  Rb15  1  0.714543  0.317479  0.083730  1
  Ti  Ti16  1  0.486806  0.623654  0.740344  1
  Ti  Ti17  1  0.986806  0.876346  0.740344  1
  Ti  Ti18  1  0.013194  0.123654  0.259656  1
  Ti  Ti19  1  0.513194  0.376346  0.259656  1
  O  O20  1  0.131931  0.034146  0.812039  1
  O  O21  1  0.500462  0.827258  0.852316  1
  O  O22  1  0.334481  0.488175  0.711219  1
  O  O23  1  0.631931  0.465854  0.812039  1
  O  O24  1  0.000462  0.672742  0.852316  1
  O  O25  1  0.477957  0.727407  0.586742  1
  O  O26  1  0.022043  0.227407  0.413258  1
  O  O27  1  0.834481  0.011825  0.711219  1
  O  O28  1  0.165519  0.988175  0.288781  1
  O  O29  1  0.977957  0.772593  0.586742  1
  O  O30  1  0.522043  0.272593  0.413258  1
  O  O31  1  0.999538  0.327258  0.147684  1
  O  O32  1  0.368069  0.534146  0.187961  1
  O  O33  1  0.665519  0.511825  0.288781  1
  O  O34  1  0.499538  0.172742  0.147684  1
  O  O35  1  0.868069  0.965854  0.187961  1
