# generated using pymatgen
data_Ba2SrI6
_symmetry_space_group_name_H-M   'P 1'
_cell_length_a   13.45041819
_cell_length_b   13.45041819
_cell_length_c   13.45041819
_cell_angle_alpha   109.47122063
_cell_angle_beta   109.47122063
_cell_angle_gamma   109.47122063
_symmetry_Int_Tables_number   1
_chemical_formula_structural   Ba2SrI6
_chemical_formula_sum   'Ba8 Sr4 I24'
_cell_volume   1873.20570022
_cell_formula_units_Z   4
loop_
 _symmetry_equiv_pos_site_id
 _symmetry_equiv_pos_as_xyz
  1  'x, y, z'
loop_
 _atom_site_type_symbol
 _atom_site_label
 _atom_site_symmetry_multiplicity
 _atom_site_fract_x
 _atom_site_fract_y
 _atom_site_fract_z
 _atom_site_occupancy
  Ba  Ba0  1  0.810698  0.500000  0.000000  1
  Ba  Ba1  1  0.500000  0.000000  0.189302  1
  Ba  Ba2  1  0.310698  0.310698  0.310698  1
  Ba  Ba3  1  0.500000  0.000000  0.810698  1
  Ba  Ba4  1  0.189302  0.500000  0.000000  1
  Ba  Ba5  1  1.000000  0.189302  0.500000  1
  Ba  Ba6  1  0.689302  0.689302  0.689302  1
  Ba  Ba7  1  0.000000  0.810698  0.500000  1
  Sr  Sr8  1  0.000000  0.000000  0.000000  1
  Sr  Sr9  1  0.500000  0.500000  0.000000  1
  Sr  Sr10  1  0.500000  0.000000  0.500000  1
  Sr  Sr11  1  1.000000  0.500000  0.500000  1
  I  I12  1  0.798941  0.216466  0.279509  1
  I  I13  1  0.582474  0.298941  0.019432  1
  I  I14  1  0.283534  0.082474  0.063043  1
  I  I15  1  0.519432  0.220491  0.436957  1
  I  I16  1  0.783534  0.720491  0.201059  1
  I  I17  1  0.980568  0.417526  0.701059  1
  I  I18  1  0.082474  0.063043  0.283534  1
  I  I19  1  0.720491  0.201059  0.783534  1
  I  I20  1  0.779509  0.563043  0.480568  1
  I  I21  1  0.436957  0.519432  0.220491  1
  I  I22  1  0.063043  0.283534  0.082474  1
  I  I23  1  0.298941  0.019432  0.582474  1
  I  I24  1  0.701059  0.980568  0.417526  1
  I  I25  1  0.563043  0.480568  0.779509  1
  I  I26  1  0.936957  0.716466  0.917526  1
  I  I27  1  0.279509  0.798941  0.216466  1
  I  I28  1  0.220491  0.436957  0.519432  1
  I  I29  1  0.917526  0.936957  0.716466  1
  I  I30  1  0.019432  0.582474  0.298941  1
  I  I31  1  0.216466  0.279509  0.798941  1
  I  I32  1  0.480568  0.779509  0.563043  1
  I  I33  1  0.716466  0.917526  0.936957  1
  I  I34  1  0.417526  0.701059  0.980568  1
  I  I35  1  0.201059  0.783534  0.720491  1
