# generated using pymatgen
data_MnF4
_symmetry_space_group_name_H-M   'P 1'
_cell_length_a   2.96138482
_cell_length_b   4.80763026
_cell_length_c   9.30868909
_cell_angle_alpha   90.00000000
_cell_angle_beta   90.00000000
_cell_angle_gamma   90.00000000
_symmetry_Int_Tables_number   1
_chemical_formula_structural   MnF4
_chemical_formula_sum   'Mn2 F8'
_cell_volume   132.53007133
_cell_formula_units_Z   2
loop_
 _symmetry_equiv_pos_site_id
 _symmetry_equiv_pos_as_xyz
  1  'x, y, z'
loop_
 _atom_site_type_symbol
 _atom_site_label
 _atom_site_symmetry_multiplicity
 _atom_site_fract_x
 _atom_site_fract_y
 _atom_site_fract_z
 _atom_site_occupancy
  Mn  Mn0  1  0.000000  0.000000  0.000000  1
  Mn  Mn1  1  0.000000  0.500000  0.500000  1
  F  F2  1  0.000000  0.785964  0.845480  1
  F  F3  1  0.000000  0.285964  0.654520  1
  F  F4  1  0.500000  0.791396  0.074269  1
  F  F5  1  0.500000  0.708604  0.574269  1
  F  F6  1  0.500000  0.291396  0.425731  1
  F  F7  1  0.500000  0.208604  0.925731  1
  F  F8  1  0.000000  0.714036  0.345480  1
  F  F9  1  0.000000  0.214036  0.154520  1
