# generated using pymatgen
data_Ti3Cr3(SbO8)2
_symmetry_space_group_name_H-M   'P 1'
_cell_length_a   5.95903045
_cell_length_b   5.98813002
_cell_length_c   9.33424258
_cell_angle_alpha   90.23081954
_cell_angle_beta   89.93323766
_cell_angle_gamma   119.81083365
_symmetry_Int_Tables_number   1
_chemical_formula_structural   Ti3Cr3(SbO8)2
_chemical_formula_sum   'Ti3 Cr3 Sb2 O16'
_cell_volume   288.99977191
_cell_formula_units_Z   1
loop_
 _symmetry_equiv_pos_site_id
 _symmetry_equiv_pos_as_xyz
  1  'x, y, z'
loop_
 _atom_site_type_symbol
 _atom_site_label
 _atom_site_symmetry_multiplicity
 _atom_site_fract_x
 _atom_site_fract_y
 _atom_site_fract_z
 _atom_site_occupancy
  Ti  Ti0  1  0.334867  0.168078  0.788385  1
  Ti  Ti1  1  0.830091  0.665020  0.787563  1
  Ti  Ti2  1  0.158753  0.824817  0.299956  1
  Cr  Cr3  1  0.827871  0.171176  0.790501  1
  Cr  Cr4  1  0.170686  0.340646  0.289642  1
  Cr  Cr5  1  0.660693  0.839303  0.279316  1
  Sb  Sb6  1  0.667485  0.325902  0.509772  1
  Sb  Sb7  1  0.334008  0.662670  0.010963  1
  O  O8  1  0.339625  0.162565  0.396833  1
  O  O9  1  0.520807  0.475501  0.658583  1
  O  O10  1  0.659010  0.342150  0.896206  1
  O  O11  1  0.001439  0.996419  0.695325  1
  O  O12  1  0.991916  0.994302  0.198267  1
  O  O13  1  0.829787  0.655911  0.396985  1
  O  O14  1  0.516843  0.043798  0.660724  1
  O  O15  1  0.954496  0.480522  0.659720  1
  O  O16  1  0.174247  0.826434  0.893762  1
  O  O17  1  0.832299  0.164421  0.398998  1
  O  O18  1  0.048048  0.532775  0.161184  1
  O  O19  1  0.482818  0.957128  0.160812  1
  O  O20  1  0.345379  0.680688  0.393572  1
  O  O21  1  0.173621  0.337089  0.898556  1
  O  O22  1  0.484317  0.527605  0.161344  1
  O  O23  1  0.660695  0.824880  0.897309  1
