# generated using pymatgen
data_Li2Cr2Si2O9
_symmetry_space_group_name_H-M   'P 1'
_cell_length_a   5.17085364
_cell_length_b   8.39540981
_cell_length_c   13.99523791
_cell_angle_alpha   90.00000000
_cell_angle_beta   90.00000000
_cell_angle_gamma   90.00000000
_symmetry_Int_Tables_number   1
_chemical_formula_structural   Li2Cr2Si2O9
_chemical_formula_sum   'Li8 Cr8 Si8 O36'
_cell_volume   607.55336599
_cell_formula_units_Z   4
loop_
 _symmetry_equiv_pos_site_id
 _symmetry_equiv_pos_as_xyz
  1  'x, y, z'
loop_
 _atom_site_type_symbol
 _atom_site_label
 _atom_site_symmetry_multiplicity
 _atom_site_fract_x
 _atom_site_fract_y
 _atom_site_fract_z
 _atom_site_occupancy
  Li  Li0  1  0.352317  0.445052  0.160876  1
  Li  Li1  1  0.852317  0.054948  0.160876  1
  Li  Li2  1  0.852317  0.945052  0.339124  1
  Li  Li3  1  0.352317  0.554948  0.339124  1
  Li  Li4  1  0.647683  0.445052  0.660876  1
  Li  Li5  1  0.147683  0.054948  0.660876  1
  Li  Li6  1  0.147683  0.945052  0.839124  1
  Li  Li7  1  0.647683  0.554948  0.839124  1
  Cr  Cr8  1  0.365702  0.843899  0.170535  1
  Cr  Cr9  1  0.865702  0.656101  0.170535  1
  Cr  Cr10  1  0.865702  0.343899  0.329465  1
  Cr  Cr11  1  0.365702  0.156101  0.329465  1
  Cr  Cr12  1  0.634298  0.843899  0.670535  1
  Cr  Cr13  1  0.134298  0.656101  0.670535  1
  Cr  Cr14  1  0.134298  0.343899  0.829465  1
  Cr  Cr15  1  0.634298  0.156101  0.829465  1
  Si  Si16  1  0.786451  0.346512  0.026563  1
  Si  Si17  1  0.286451  0.153488  0.026563  1
  Si  Si18  1  0.286451  0.846512  0.473437  1
  Si  Si19  1  0.786451  0.653488  0.473437  1
  Si  Si20  1  0.213549  0.346512  0.526563  1
  Si  Si21  1  0.713549  0.153488  0.526563  1
  Si  Si22  1  0.713549  0.846512  0.973437  1
  Si  Si23  1  0.213549  0.653488  0.973437  1
  O  O24  1  0.548859  0.237361  0.070101  1
  O  O25  1  0.048859  0.262639  0.070101  1
  O  O26  1  0.743313  0.521084  0.072036  1
  O  O27  1  0.243313  0.978916  0.072036  1
  O  O28  1  0.713071  0.846790  0.090563  1
  O  O29  1  0.213071  0.653210  0.090563  1
  O  O30  1  0.559393  0.675919  0.231279  1
  O  O31  1  0.059393  0.824081  0.231279  1
  O  O32  1  0.022672  0.500000  0.250000  1
  O  O33  1  0.522672  0.000000  0.250000  1
  O  O34  1  0.559393  0.324081  0.268721  1
  O  O35  1  0.059393  0.175919  0.268721  1
  O  O36  1  0.213071  0.346790  0.409437  1
  O  O37  1  0.713071  0.153210  0.409437  1
  O  O38  1  0.743313  0.478916  0.427964  1
  O  O39  1  0.243313  0.021084  0.427964  1
  O  O40  1  0.548859  0.762639  0.429899  1
  O  O41  1  0.048859  0.737361  0.429899  1
  O  O42  1  0.951141  0.262639  0.570101  1
  O  O43  1  0.451141  0.237361  0.570101  1
  O  O44  1  0.756687  0.978916  0.572036  1
  O  O45  1  0.256687  0.521084  0.572036  1
  O  O46  1  0.286929  0.846790  0.590563  1
  O  O47  1  0.786929  0.653210  0.590563  1
  O  O48  1  0.940607  0.824081  0.731279  1
  O  O49  1  0.440607  0.675919  0.731279  1
  O  O50  1  0.977328  0.500000  0.750000  1
  O  O51  1  0.477328  0.000000  0.750000  1
  O  O52  1  0.440607  0.324081  0.768721  1
  O  O53  1  0.940607  0.175919  0.768721  1
  O  O54  1  0.786929  0.346790  0.909437  1
  O  O55  1  0.286929  0.153210  0.909437  1
  O  O56  1  0.256687  0.478916  0.927964  1
  O  O57  1  0.756687  0.021084  0.927964  1
  O  O58  1  0.451141  0.762639  0.929899  1
  O  O59  1  0.951141  0.737361  0.929899  1
