# generated using pymatgen
data_LiCrCoO4
_symmetry_space_group_name_H-M   'P 1'
_cell_length_a   5.80966096
_cell_length_b   5.80966096
_cell_length_c   5.80966096
_cell_angle_alpha   121.03226399
_cell_angle_beta   118.27956331
_cell_angle_gamma   90.61337457
_symmetry_Int_Tables_number   1
_chemical_formula_structural   LiCrCoO4
_chemical_formula_sum   'Li2 Cr2 Co2 O8'
_cell_volume   139.26883790
_cell_formula_units_Z   2
loop_
 _symmetry_equiv_pos_site_id
 _symmetry_equiv_pos_as_xyz
  1  'x, y, z'
loop_
 _atom_site_type_symbol
 _atom_site_label
 _atom_site_symmetry_multiplicity
 _atom_site_fract_x
 _atom_site_fract_y
 _atom_site_fract_z
 _atom_site_occupancy
  Li  Li0  1  0.130174  0.380174  0.250000  1
  Li  Li1  1  0.869826  0.619826  0.750000  1
  Cr  Cr2  1  0.500000  0.000000  0.000000  1
  Cr  Cr3  1  0.000000  0.000000  0.500000  1
  Co  Co4  1  0.500000  0.000000  0.500000  1
  Co  Co5  1  0.500000  0.500000  0.000000  1
  O  O6  1  0.728530  0.208756  0.480226  1
  O  O7  1  0.728530  0.748305  0.019774  1
  O  O8  1  0.718022  0.754420  0.463603  1
  O  O9  1  0.290817  0.754420  0.036397  1
  O  O10  1  0.709183  0.245580  0.963603  1
  O  O11  1  0.281978  0.245580  0.536397  1
  O  O12  1  0.271470  0.251695  0.980226  1
  O  O13  1  0.271470  0.791244  0.519774  1
