# generated using pymatgen
data_V4OF11
_symmetry_space_group_name_H-M   'P 1'
_cell_length_a   5.24070219
_cell_length_b   5.46054462
_cell_length_c   17.49089862
_cell_angle_alpha   82.77941154
_cell_angle_beta   81.38802936
_cell_angle_gamma   61.39587179
_symmetry_Int_Tables_number   1
_chemical_formula_structural   V4OF11
_chemical_formula_sum   'V8 O2 F22'
_cell_volume   433.65084566
_cell_formula_units_Z   2
loop_
 _symmetry_equiv_pos_site_id
 _symmetry_equiv_pos_as_xyz
  1  'x, y, z'
loop_
 _atom_site_type_symbol
 _atom_site_label
 _atom_site_symmetry_multiplicity
 _atom_site_fract_x
 _atom_site_fract_y
 _atom_site_fract_z
 _atom_site_occupancy
  V  V0  1  0.644006  0.611865  0.132016  1
  V  V1  1  0.130311  0.132586  0.623253  1
  V  V2  1  0.237775  0.253465  0.249054  1
  V  V3  1  0.754319  0.753460  0.749235  1
  V  V4  1  0.863231  0.874696  0.376128  1
  V  V5  1  0.380957  0.374585  0.874986  1
  V  V6  1  0.008352  0.996050  0.001221  1
  V  V7  1  0.482899  0.489318  0.507059  1
  O  O8  1  0.341855  0.336410  0.578710  1
  O  O9  1  0.865047  0.460328  0.204143  1
  F  F10  1  0.830848  0.843260  0.088811  1
  F  F11  1  0.911498  0.321117  0.059779  1
  F  F12  1  0.420496  0.803757  0.562924  1
  F  F13  1  0.335892  0.928067  0.188146  1
  F  F14  1  0.625581  0.038257  0.287375  1
  F  F15  1  0.147159  0.535906  0.786071  1
  F  F16  1  0.394214  0.781539  0.043169  1
  F  F17  1  0.415973  0.409260  0.161361  1
  F  F18  1  0.916638  0.919925  0.661241  1
  F  F19  1  0.110440  0.720104  0.463041  1
  F  F20  1  0.150485  0.565486  0.313030  1
  F  F21  1  0.835303  0.445136  0.687357  1
  F  F22  1  0.078745  0.089189  0.337124  1
  F  F23  1  0.883980  0.285616  0.536191  1
  F  F24  1  0.591215  0.590370  0.838221  1
  F  F25  1  0.616050  0.209058  0.963247  1
  F  F26  1  0.653956  0.657211  0.417645  1
  F  F27  1  0.360756  0.970754  0.712397  1
  F  F28  1  0.672822  0.062167  0.811650  1
  F  F29  1  0.090367  0.686515  0.938747  1
  F  F30  1  0.578967  0.196647  0.434700  1
  F  F31  1  0.169861  0.157896  0.911968  1
