# generated using pymatgen
data_Na3SbH30S3N10
_symmetry_space_group_name_H-M   'P 1'
_cell_length_a   10.00047199
_cell_length_b   6.16099549
_cell_length_c   34.04877304
_cell_angle_alpha   90.00000000
_cell_angle_beta   91.34408545
_cell_angle_gamma   90.00000000
_symmetry_Int_Tables_number   1
_chemical_formula_structural   Na3SbH30S3N10
_chemical_formula_sum   'Na12 Sb4 H120 S12 N40'
_cell_volume   2097.26517520
_cell_formula_units_Z   4
loop_
 _symmetry_equiv_pos_site_id
 _symmetry_equiv_pos_as_xyz
  1  'x, y, z'
loop_
 _atom_site_type_symbol
 _atom_site_label
 _atom_site_symmetry_multiplicity
 _atom_site_fract_x
 _atom_site_fract_y
 _atom_site_fract_z
 _atom_site_occupancy
  Na  Na0  1  0.060445  0.498962  0.587879  1
  Na  Na1  1  0.060445  0.001038  0.087879  1
  Na  Na2  1  0.409728  0.550160  0.677333  1
  Na  Na3  1  0.409728  0.949840  0.177333  1
  Na  Na4  1  0.454638  0.479918  0.553119  1
  Na  Na5  1  0.454638  0.020082  0.053119  1
  Na  Na6  1  0.545362  0.979918  0.946881  1
  Na  Na7  1  0.545362  0.520082  0.446881  1
  Na  Na8  1  0.590272  0.050160  0.822667  1
  Na  Na9  1  0.590272  0.449840  0.322667  1
  Na  Na10  1  0.939555  0.998962  0.912121  1
  Na  Na11  1  0.939555  0.501038  0.412121  1
  Sb  Sb12  1  0.312587  0.965300  0.601974  1
  Sb  Sb13  1  0.312587  0.534700  0.101974  1
  Sb  Sb14  1  0.687413  0.465300  0.898026  1
  Sb  Sb15  1  0.687413  0.034700  0.398026  1
  H  H16  1  0.040514  0.738283  0.987139  1
  H  H17  1  0.017737  0.125213  0.642733  1
  H  H18  1  0.031817  0.789246  0.760539  1
  H  H19  1  0.040514  0.761717  0.487139  1
  H  H20  1  0.059546  0.835565  0.838320  1
  H  H21  1  0.017737  0.374787  0.142733  1
  H  H22  1  0.066898  0.327699  0.896924  1
  H  H23  1  0.031817  0.710754  0.260539  1
  H  H24  1  0.059546  0.664435  0.338320  1
  H  H25  1  0.087395  0.294675  0.816049  1
  H  H26  1  0.091086  0.113621  0.532592  1
  H  H27  1  0.122558  0.362397  0.941874  1
  H  H28  1  0.066898  0.172301  0.396924  1
  H  H29  1  0.134070  0.690402  0.872286  1
  H  H30  1  0.105787  0.356598  0.513257  1
  H  H31  1  0.087395  0.205325  0.316049  1
  H  H32  1  0.091086  0.386379  0.032592  1
  H  H33  1  0.122558  0.137603  0.441874  1
  H  H34  1  0.152893  0.619370  0.770968  1
  H  H35  1  0.134070  0.809598  0.372286  1
  H  H36  1  0.105787  0.143402  0.013257  1
  H  H37  1  0.165448  0.791653  0.734121  1
  H  H38  1  0.177906  0.111224  0.793930  1
  H  H39  1  0.170243  0.396865  0.690854  1
  H  H40  1  0.152893  0.880630  0.270968  1
  H  H41  1  0.165448  0.708347  0.234121  1
  H  H42  1  0.224544  0.272649  0.908350  1
  H  H43  1  0.177906  0.388776  0.293930  1
  H  H44  1  0.216713  0.292408  0.733628  1
  H  H45  1  0.170243  0.103135  0.190854  1
  H  H46  1  0.227240  0.146753  0.692768  1
  H  H47  1  0.250772  0.294496  0.822690  1
  H  H48  1  0.224544  0.227351  0.408350  1
  H  H49  1  0.253476  0.858101  0.927497  1
  H  H50  1  0.216713  0.207592  0.233628  1
  H  H51  1  0.227240  0.353247  0.192768  1
  H  H52  1  0.250772  0.205504  0.322690  1
  H  H53  1  0.253476  0.641899  0.427497  1
  H  H54  1  0.307647  0.735059  0.967584  1
  H  H55  1  0.326838  0.201544  0.976139  1
  H  H56  1  0.314936  0.783929  0.811812  1
  H  H57  1  0.307647  0.764941  0.467584  1
  H  H58  1  0.354523  0.645311  0.924208  1
  H  H59  1  0.326838  0.298456  0.476139  1
  H  H60  1  0.365083  0.899575  0.853076  1
  H  H61  1  0.314936  0.716071  0.311812  1
  H  H62  1  0.344147  0.111659  0.510234  1
  H  H63  1  0.354523  0.854689  0.424208  1
  H  H64  1  0.365083  0.600425  0.353076  1
  H  H65  1  0.414546  0.651487  0.843183  1
  H  H66  1  0.344147  0.388341  0.010234  1
  H  H67  1  0.422654  0.851858  0.751092  1
  H  H68  1  0.468108  0.331511  0.981334  1
  H  H69  1  0.429267  0.342833  0.767666  1
  H  H70  1  0.414546  0.848513  0.343183  1
  H  H71  1  0.450402  0.974823  0.709497  1
  H  H72  1  0.422654  0.648142  0.251092  1
  H  H73  1  0.468108  0.168489  0.481334  1
  H  H74  1  0.429267  0.157167  0.267666  1
  H  H75  1  0.450402  0.525177  0.209497  1
  H  H76  1  0.549598  0.474823  0.790503  1
  H  H77  1  0.570733  0.842833  0.732334  1
  H  H78  1  0.531892  0.831511  0.518666  1
  H  H79  1  0.577346  0.351858  0.748908  1
  H  H80  1  0.549598  0.025177  0.290503  1
  H  H81  1  0.585454  0.151487  0.656817  1
  H  H82  1  0.570733  0.657167  0.232334  1
  H  H83  1  0.531892  0.668489  0.018666  1
  H  H84  1  0.577346  0.148142  0.248908  1
  H  H85  1  0.655853  0.611659  0.989766  1
  H  H86  1  0.585454  0.348513  0.156817  1
  H  H87  1  0.634917  0.399575  0.646924  1
  H  H88  1  0.645477  0.145311  0.575792  1
  H  H89  1  0.655853  0.888341  0.489766  1
  H  H90  1  0.685064  0.283929  0.688188  1
  H  H91  1  0.634917  0.100425  0.146924  1
  H  H92  1  0.673162  0.701544  0.523861  1
  H  H93  1  0.645477  0.354689  0.075792  1
  H  H94  1  0.692353  0.235059  0.532416  1
  H  H95  1  0.685064  0.216071  0.188188  1
  H  H96  1  0.673162  0.798456  0.023861  1
  H  H97  1  0.692353  0.264941  0.032416  1
  H  H98  1  0.746524  0.358101  0.572503  1
  H  H99  1  0.749228  0.794496  0.677310  1
  H  H100  1  0.772760  0.646753  0.807232  1
  H  H101  1  0.783287  0.792408  0.766372  1
  H  H102  1  0.746524  0.141899  0.072503  1
  H  H103  1  0.775456  0.772649  0.591650  1
  H  H104  1  0.749228  0.705504  0.177310  1
  H  H105  1  0.772760  0.853247  0.307232  1
  H  H106  1  0.829757  0.896865  0.809146  1
  H  H107  1  0.783287  0.707592  0.266372  1
  H  H108  1  0.822094  0.611224  0.706070  1
  H  H109  1  0.775456  0.727351  0.091650  1
  H  H110  1  0.834552  0.291653  0.765879  1
  H  H111  1  0.847107  0.119370  0.729032  1
  H  H112  1  0.829757  0.603135  0.309146  1
  H  H113  1  0.822094  0.888776  0.206070  1
  H  H114  1  0.834552  0.208347  0.265879  1
  H  H115  1  0.894213  0.856598  0.986743  1
  H  H116  1  0.865930  0.190402  0.627714  1
  H  H117  1  0.847107  0.380630  0.229032  1
  H  H118  1  0.877442  0.862397  0.558126  1
  H  H119  1  0.908914  0.613621  0.967408  1
  H  H120  1  0.912605  0.794675  0.683951  1
  H  H121  1  0.894213  0.643402  0.486743  1
  H  H122  1  0.865930  0.309598  0.127714  1
  H  H123  1  0.933102  0.827699  0.603076  1
  H  H124  1  0.877442  0.637603  0.058126  1
  H  H125  1  0.908914  0.886379  0.467408  1
  H  H126  1  0.912605  0.705325  0.183951  1
  H  H127  1  0.940454  0.335565  0.661680  1
  H  H128  1  0.968183  0.289246  0.739461  1
  H  H129  1  0.933102  0.672301  0.103076  1
  H  H130  1  0.982263  0.625213  0.857267  1
  H  H131  1  0.940454  0.164435  0.161680  1
  H  H132  1  0.959486  0.238283  0.512861  1
  H  H133  1  0.968183  0.210754  0.239461  1
  H  H134  1  0.982263  0.874787  0.357267  1
  H  H135  1  0.959486  0.261717  0.012861  1
  S  S136  1  0.170859  0.791565  0.650545  1
  S  S137  1  0.170859  0.708435  0.150545  1
  S  S138  1  0.240556  0.773112  0.542215  1
  S  S139  1  0.240556  0.726888  0.042215  1
  S  S140  1  0.469562  0.295187  0.885826  1
  S  S141  1  0.469562  0.204813  0.385826  1
  S  S142  1  0.530438  0.795187  0.614174  1
  S  S143  1  0.530438  0.704813  0.114174  1
  S  S144  1  0.759444  0.273112  0.957785  1
  S  S145  1  0.759444  0.226888  0.457785  1
  S  S146  1  0.829141  0.291565  0.849455  1
  S  S147  1  0.829141  0.208435  0.349455  1
  N  N148  1  0.043495  0.755174  0.864108  1
  N  N149  1  0.044610  0.262253  0.529800  1
  N  N150  1  0.043495  0.744826  0.364108  1
  N  N151  1  0.044610  0.237747  0.029800  1
  N  N152  1  0.128515  0.260714  0.918285  1
  N  N153  1  0.133839  0.776827  0.762522  1
  N  N154  1  0.128515  0.239286  0.418285  1
  N  N155  1  0.175935  0.272312  0.801918  1
  N  N156  1  0.133839  0.723173  0.262522  1
  N  N157  1  0.175935  0.227688  0.301918  1
  N  N158  1  0.240354  0.299490  0.704483  1
  N  N159  1  0.240354  0.200510  0.204483  1
  N  N160  1  0.335257  0.783445  0.940065  1
  N  N161  1  0.335257  0.716555  0.440065  1
  N  N162  1  0.392732  0.261255  0.996872  1
  N  N163  1  0.395511  0.801016  0.830731  1
  N  N164  1  0.392732  0.238745  0.496872  1
  N  N165  1  0.395511  0.698984  0.330731  1
  N  N166  1  0.470947  0.836387  0.725092  1
  N  N167  1  0.470947  0.663613  0.225092  1
  N  N168  1  0.529053  0.336387  0.774908  1
  N  N169  1  0.529053  0.163613  0.274908  1
  N  N170  1  0.604489  0.301016  0.669269  1
  N  N171  1  0.607268  0.761255  0.503128  1
  N  N172  1  0.604489  0.198984  0.169269  1
  N  N173  1  0.607268  0.738745  0.003128  1
  N  N174  1  0.664743  0.283445  0.559935  1
  N  N175  1  0.664743  0.216555  0.059935  1
  N  N176  1  0.759646  0.799490  0.795517  1
  N  N177  1  0.759646  0.700510  0.295517  1
  N  N178  1  0.824065  0.772312  0.698082  1
  N  N179  1  0.866161  0.276827  0.737478  1
  N  N180  1  0.824065  0.727688  0.198082  1
  N  N181  1  0.871485  0.760714  0.581715  1
  N  N182  1  0.866161  0.223173  0.237478  1
  N  N183  1  0.871485  0.739286  0.081715  1
  N  N184  1  0.955390  0.762253  0.970200  1
  N  N185  1  0.956505  0.255174  0.635892  1
  N  N186  1  0.955390  0.737747  0.470200  1
  N  N187  1  0.956505  0.244826  0.135892  1
