# generated using pymatgen
data_CsFeBP2HO9
_symmetry_space_group_name_H-M   'P 1'
_cell_length_a   9.48155885
_cell_length_b   8.72368131
_cell_length_c   9.93675004
_cell_angle_alpha   90.00000000
_cell_angle_beta   102.84764577
_cell_angle_gamma   90.00000000
_symmetry_Int_Tables_number   1
_chemical_formula_structural   CsFeBP2HO9
_chemical_formula_sum   'Cs4 Fe4 B4 P8 H4 O36'
_cell_volume   801.33263539
_cell_formula_units_Z   4
loop_
 _symmetry_equiv_pos_site_id
 _symmetry_equiv_pos_as_xyz
  1  'x, y, z'
loop_
 _atom_site_type_symbol
 _atom_site_label
 _atom_site_symmetry_multiplicity
 _atom_site_fract_x
 _atom_site_fract_y
 _atom_site_fract_z
 _atom_site_occupancy
  Cs  Cs0  1  0.193791  0.391042  0.554533  1
  Cs  Cs1  1  0.193791  0.108958  0.054533  1
  Cs  Cs2  1  0.806209  0.891042  0.945467  1
  Cs  Cs3  1  0.806209  0.608958  0.445467  1
  Fe  Fe4  1  0.205808  0.653611  0.929016  1
  Fe  Fe5  1  0.205808  0.846389  0.429016  1
  Fe  Fe6  1  0.794192  0.153611  0.570984  1
  Fe  Fe7  1  0.794192  0.346389  0.070984  1
  B  B8  1  0.341000  0.043658  0.697387  1
  B  B9  1  0.341000  0.456342  0.197387  1
  B  B10  1  0.659000  0.543658  0.802613  1
  B  B11  1  0.659000  0.956342  0.302613  1
  P  P12  1  0.074939  0.927860  0.702132  1
  P  P13  1  0.074939  0.572140  0.202132  1
  P  P14  1  0.418427  0.733143  0.713806  1
  P  P15  1  0.418427  0.766857  0.213806  1
  P  P16  1  0.581573  0.233143  0.786194  1
  P  P17  1  0.581573  0.266857  0.286194  1
  P  P18  1  0.925061  0.427860  0.797868  1
  P  P19  1  0.925061  0.072140  0.297868  1
  H  H20  1  0.398500  0.085954  0.509738  1
  H  H21  1  0.398500  0.414046  0.009738  1
  H  H22  1  0.601500  0.585954  0.990262  1
  H  H23  1  0.601500  0.914046  0.490262  1
  O  O24  1  0.073172  0.504306  0.813022  1
  O  O25  1  0.099603  0.831128  0.835470  1
  O  O26  1  0.087814  0.834340  0.574411  1
  O  O27  1  0.073172  0.995694  0.313022  1
  O  O28  1  0.099603  0.668872  0.335470  1
  O  O29  1  0.196228  0.057291  0.728249  1
  O  O30  1  0.087814  0.665660  0.074411  1
  O  O31  1  0.196228  0.442709  0.228249  1
  O  O32  1  0.339901  0.631560  0.799719  1
  O  O33  1  0.318240  0.041070  0.543604  1
  O  O34  1  0.359372  0.718727  0.558111  1
  O  O35  1  0.417301  0.185001  0.753557  1
  O  O36  1  0.421136  0.905327  0.761504  1
  O  O37  1  0.339901  0.868440  0.299719  1
  O  O38  1  0.318240  0.458930  0.043604  1
  O  O39  1  0.359372  0.781273  0.058111  1
  O  O40  1  0.417301  0.314999  0.253557  1
  O  O41  1  0.421136  0.594673  0.261504  1
  O  O42  1  0.578864  0.405327  0.738496  1
  O  O43  1  0.582699  0.685001  0.746443  1
  O  O44  1  0.640628  0.218727  0.941889  1
  O  O45  1  0.681760  0.541070  0.956396  1
  O  O46  1  0.660099  0.131560  0.700281  1
  O  O47  1  0.578864  0.094673  0.238496  1
  O  O48  1  0.582699  0.814999  0.246443  1
  O  O49  1  0.640628  0.281273  0.441889  1
  O  O50  1  0.681760  0.958930  0.456396  1
  O  O51  1  0.660099  0.368440  0.200281  1
  O  O52  1  0.803772  0.557291  0.771751  1
  O  O53  1  0.912186  0.334340  0.925589  1
  O  O54  1  0.803772  0.942709  0.271751  1
  O  O55  1  0.900397  0.331128  0.664530  1
  O  O56  1  0.926828  0.004306  0.686978  1
  O  O57  1  0.912186  0.165660  0.425589  1
  O  O58  1  0.900397  0.168872  0.164530  1
  O  O59  1  0.926828  0.495694  0.186978  1
