# generated using pymatgen
data_Li3V(BO3)2
_symmetry_space_group_name_H-M   'P 1'
_cell_length_a   5.97130990
_cell_length_b   8.76463351
_cell_length_c   10.43512609
_cell_angle_alpha   90.00000000
_cell_angle_beta   124.41844812
_cell_angle_gamma   90.00000000
_symmetry_Int_Tables_number   1
_chemical_formula_structural   Li3V(BO3)2
_chemical_formula_sum   'Li12 V4 B8 O24'
_cell_volume   450.52509339
_cell_formula_units_Z   4
loop_
 _symmetry_equiv_pos_site_id
 _symmetry_equiv_pos_as_xyz
  1  'x, y, z'
loop_
 _atom_site_type_symbol
 _atom_site_label
 _atom_site_symmetry_multiplicity
 _atom_site_fract_x
 _atom_site_fract_y
 _atom_site_fract_z
 _atom_site_occupancy
  Li  Li0  1  0.837144  0.241542  0.847039  1
  Li  Li1  1  0.627256  0.770407  0.603067  1
  Li  Li2  1  0.881522  0.417391  0.598007  1
  Li  Li3  1  0.118478  0.917391  0.901993  1
  Li  Li4  1  0.372744  0.270407  0.896933  1
  Li  Li5  1  0.162856  0.741542  0.652961  1
  Li  Li6  1  0.837144  0.258458  0.347039  1
  Li  Li7  1  0.627256  0.729593  0.103067  1
  Li  Li8  1  0.881522  0.082609  0.098007  1
  Li  Li9  1  0.118478  0.582609  0.401993  1
  Li  Li10  1  0.372744  0.229593  0.396933  1
  Li  Li11  1  0.162856  0.758458  0.152961  1
  V  V12  1  0.292422  0.401062  0.131023  1
  V  V13  1  0.707578  0.901062  0.368977  1
  V  V14  1  0.292422  0.098938  0.631023  1
  V  V15  1  0.707578  0.598938  0.868977  1
  B  B16  1  0.854707  0.106297  0.635979  1
  B  B17  1  0.613377  0.565161  0.363499  1
  B  B18  1  0.386623  0.065161  0.136501  1
  B  B19  1  0.145293  0.606297  0.864021  1
  B  B20  1  0.854707  0.393703  0.135979  1
  B  B21  1  0.613377  0.934839  0.863499  1
  B  B22  1  0.386623  0.434839  0.636501  1
  B  B23  1  0.145293  0.893703  0.364021  1
  O  O24  1  0.624504  0.140309  0.626883  1
  O  O25  1  0.072715  0.466873  0.896822  1
  O  O26  1  0.949425  0.718044  0.816359  1
  O  O27  1  0.574039  0.411998  0.382665  1
  O  O28  1  0.200348  0.155308  0.013866  1
  O  O29  1  0.454496  0.612269  0.208819  1
  O  O30  1  0.545504  0.112269  0.291181  1
  O  O31  1  0.799652  0.655308  0.486134  1
  O  O32  1  0.050575  0.218044  0.683641  1
  O  O33  1  0.425961  0.911998  0.117335  1
  O  O34  1  0.927285  0.966873  0.603178  1
  O  O35  1  0.375496  0.640309  0.873117  1
  O  O36  1  0.624504  0.359691  0.126883  1
  O  O37  1  0.072715  0.033127  0.396822  1
  O  O38  1  0.574039  0.088002  0.882665  1
  O  O39  1  0.949425  0.781956  0.316359  1
  O  O40  1  0.200348  0.344692  0.513866  1
  O  O41  1  0.454496  0.887731  0.708819  1
  O  O42  1  0.545504  0.387731  0.791181  1
  O  O43  1  0.799652  0.844692  0.986134  1
  O  O44  1  0.425961  0.588002  0.617335  1
  O  O45  1  0.050575  0.281956  0.183641  1
  O  O46  1  0.927285  0.533127  0.103178  1
  O  O47  1  0.375496  0.859691  0.373117  1
