# generated using pymatgen
data_Ti5Mn3O16
_symmetry_space_group_name_H-M   'P 1'
_cell_length_a   5.85941890
_cell_length_b   5.85941890
_cell_length_c   9.06020111
_cell_angle_alpha   89.40039784
_cell_angle_beta   90.59960216
_cell_angle_gamma   119.87449267
_symmetry_Int_Tables_number   1
_chemical_formula_structural   Ti5Mn3O16
_chemical_formula_sum   'Ti5 Mn3 O16'
_cell_volume   269.70790576
_cell_formula_units_Z   1
loop_
 _symmetry_equiv_pos_site_id
 _symmetry_equiv_pos_as_xyz
  1  'x, y, z'
loop_
 _atom_site_type_symbol
 _atom_site_label
 _atom_site_symmetry_multiplicity
 _atom_site_fract_x
 _atom_site_fract_y
 _atom_site_fract_z
 _atom_site_occupancy
  Ti  Ti0  1  0.836758  0.163242  0.714432  1
  Ti  Ti1  1  0.666800  0.827909  0.213809  1
  Ti  Ti2  1  0.330255  0.669745  0.495033  1
  Ti  Ti3  1  0.172091  0.333200  0.213809  1
  Ti  Ti4  1  0.666718  0.333282  0.992618  1
  Mn  Mn5  1  0.171176  0.828825  0.211362  1
  Mn  Mn6  1  0.831964  0.660012  0.711136  1
  Mn  Mn7  1  0.339988  0.168036  0.711136  1
  O  O8  1  0.661095  0.831932  0.600522  1
  O  O9  1  0.478221  0.521779  0.339083  1
  O  O10  1  0.330409  0.669591  0.100144  1
  O  O11  1  0.003662  0.996338  0.314830  1
  O  O12  1  0.004542  0.995458  0.814426  1
  O  O13  1  0.168068  0.338905  0.600522  1
  O  O14  1  0.472327  0.955731  0.336209  1
  O  O15  1  0.044269  0.527673  0.336209  1
  O  O16  1  0.828807  0.171193  0.099672  1
  O  O17  1  0.166993  0.833007  0.602749  1
  O  O18  1  0.955483  0.482118  0.836523  1
  O  O19  1  0.517882  0.044517  0.836523  1
  O  O20  1  0.662484  0.337516  0.602103  1
  O  O21  1  0.830373  0.661978  0.100788  1
  O  O22  1  0.521829  0.478171  0.831278  1
  O  O23  1  0.338022  0.169627  0.100788  1
