# generated using pymatgen
data_BiOF
_symmetry_space_group_name_H-M   'P 1'
_cell_length_a   8.34661456
_cell_length_b   3.94908235
_cell_length_c   12.42451427
_cell_angle_alpha   90.00000000
_cell_angle_beta   109.13261447
_cell_angle_gamma   90.00000000
_symmetry_Int_Tables_number   1
_chemical_formula_structural   BiOF
_chemical_formula_sum   'Bi8 O8 F8'
_cell_volume   386.90880510
_cell_formula_units_Z   8
loop_
 _symmetry_equiv_pos_site_id
 _symmetry_equiv_pos_as_xyz
  1  'x, y, z'
loop_
 _atom_site_type_symbol
 _atom_site_label
 _atom_site_symmetry_multiplicity
 _atom_site_fract_x
 _atom_site_fract_y
 _atom_site_fract_z
 _atom_site_occupancy
  Bi  Bi0  1  0.912949  0.750000  0.121985  1
  Bi  Bi1  1  0.827860  0.250000  0.406166  1
  Bi  Bi2  1  0.678887  0.750000  0.662657  1
  Bi  Bi3  1  0.446942  0.750000  0.125408  1
  Bi  Bi4  1  0.553058  0.250000  0.874592  1
  Bi  Bi5  1  0.321113  0.250000  0.337343  1
  Bi  Bi6  1  0.172140  0.750000  0.593834  1
  Bi  Bi7  1  0.087051  0.250000  0.878015  1
  O  O8  1  0.887030  0.750000  0.503866  1
  O  O9  1  0.648210  0.750000  0.010748  1
  O  O10  1  0.750915  0.250000  0.763446  1
  O  O11  1  0.500774  0.250000  0.243778  1
  O  O12  1  0.499226  0.750000  0.756222  1
  O  O13  1  0.249085  0.750000  0.236554  1
  O  O14  1  0.351790  0.250000  0.989252  1
  O  O15  1  0.112970  0.250000  0.496134  1
  F  F16  1  0.900760  0.250000  0.011981  1
  F  F17  1  0.985969  0.250000  0.244285  1
  F  F18  1  0.757616  0.750000  0.247158  1
  F  F19  1  0.625238  0.250000  0.500162  1
  F  F20  1  0.374762  0.750000  0.499838  1
  F  F21  1  0.242384  0.250000  0.752842  1
  F  F22  1  0.014031  0.750000  0.755715  1
  F  F23  1  0.099240  0.750000  0.988019  1
