# generated using pymatgen
data_LiFe2OF5
_symmetry_space_group_name_H-M   'P 1'
_cell_length_a   5.34813319
_cell_length_b   4.85368871
_cell_length_c   15.21430478
_cell_angle_alpha   90.00000000
_cell_angle_beta   90.68870913
_cell_angle_gamma   90.00000000
_symmetry_Int_Tables_number   1
_chemical_formula_structural   LiFe2OF5
_chemical_formula_sum   'Li4 Fe8 O4 F20'
_cell_volume   394.90703467
_cell_formula_units_Z   4
loop_
 _symmetry_equiv_pos_site_id
 _symmetry_equiv_pos_as_xyz
  1  'x, y, z'
loop_
 _atom_site_type_symbol
 _atom_site_label
 _atom_site_symmetry_multiplicity
 _atom_site_fract_x
 _atom_site_fract_y
 _atom_site_fract_z
 _atom_site_occupancy
  Li  Li0  1  0.129102  0.256959  0.425631  1
  Li  Li1  1  0.129102  0.743041  0.925631  1
  Li  Li2  1  0.814843  0.755046  0.073400  1
  Li  Li3  1  0.814843  0.244954  0.573400  1
  Fe  Fe4  1  0.281161  0.768467  0.250680  1
  Fe  Fe5  1  0.302949  0.216298  0.095603  1
  Fe  Fe6  1  0.281161  0.231533  0.750681  1
  Fe  Fe7  1  0.302949  0.783702  0.595603  1
  Fe  Fe8  1  0.617081  0.727137  0.413014  1
  Fe  Fe9  1  0.792495  0.270909  0.247586  1
  Fe  Fe10  1  0.617081  0.272863  0.913014  1
  Fe  Fe11  1  0.792495  0.729091  0.747586  1
  O  O12  1  0.092788  0.081847  0.197796  1
  O  O13  1  0.092788  0.918153  0.697796  1
  O  O14  1  0.548104  0.526488  0.304196  1
  O  O15  1  0.548104  0.473512  0.804196  1
  F  F16  1  0.165835  0.576070  0.138169  1
  F  F17  1  0.078679  0.001800  0.024358  1
  F  F18  1  0.165835  0.423930  0.638169  1
  F  F19  1  0.078679  0.998200  0.524358  1
  F  F20  1  0.350076  0.539228  0.483167  1
  F  F21  1  0.334498  0.972748  0.362632  1
  F  F22  1  0.565664  0.969394  0.191533  1
  F  F23  1  0.350076  0.460772  0.983167  1
  F  F24  1  0.645129  0.434789  0.136755  1
  F  F25  1  0.334498  0.027252  0.862632  1
  F  F26  1  0.571198  0.024494  0.021939  1
  F  F27  1  0.565664  0.030606  0.691533  1
  F  F28  1  0.645129  0.565211  0.636755  1
  F  F29  1  0.571198  0.975506  0.521939  1
  F  F30  1  0.848103  0.487286  0.469857  1
  F  F31  1  0.823361  0.027821  0.355614  1
  F  F32  1  0.038932  0.523584  0.308068  1
  F  F33  1  0.848103  0.512714  0.969857  1
  F  F34  1  0.823361  0.972179  0.855614  1
  F  F35  1  0.038932  0.476416  0.808068  1
