# generated using pymatgen
data_LiMn3(BO3)3
_symmetry_space_group_name_H-M   'P 1'
_cell_length_a   5.26075541
_cell_length_b   6.17102588
_cell_length_c   11.80267628
_cell_angle_alpha   81.74502698
_cell_angle_beta   77.63820180
_cell_angle_gamma   87.91981812
_symmetry_Int_Tables_number   1
_chemical_formula_structural   LiMn3(BO3)3
_chemical_formula_sum   'Li2 Mn6 B6 O18'
_cell_volume   370.39744813
_cell_formula_units_Z   2
loop_
 _symmetry_equiv_pos_site_id
 _symmetry_equiv_pos_as_xyz
  1  'x, y, z'
loop_
 _atom_site_type_symbol
 _atom_site_label
 _atom_site_symmetry_multiplicity
 _atom_site_fract_x
 _atom_site_fract_y
 _atom_site_fract_z
 _atom_site_occupancy
  Li  Li0  1  0.304260  0.034904  0.704145  1
  Li  Li1  1  0.695740  0.965096  0.295855  1
  Mn  Mn2  1  0.843298  0.874855  0.619455  1
  Mn  Mn3  1  0.485710  0.457016  0.713384  1
  Mn  Mn4  1  0.156702  0.125145  0.380545  1
  Mn  Mn5  1  0.514290  0.542984  0.286616  1
  Mn  Mn6  1  0.167976  0.211541  0.961476  1
  Mn  Mn7  1  0.832024  0.788459  0.038524  1
  B  B8  1  0.576896  0.225384  0.496699  1
  B  B9  1  0.911235  0.576048  0.830540  1
  B  B10  1  0.250951  0.927247  0.165878  1
  B  B11  1  0.423104  0.774616  0.503301  1
  B  B12  1  0.749049  0.072753  0.834122  1
  B  B13  1  0.088765  0.423952  0.169460  1
  O  O14  1  0.499616  0.137725  0.824634  1
  O  O15  1  0.935547  0.020141  0.741815  1
  O  O16  1  0.822488  0.142713  0.509357  1
  O  O17  1  0.404403  0.291196  0.586483  1
  O  O18  1  0.518935  0.216806  0.385801  1
  O  O19  1  0.857172  0.593216  0.717698  1
  O  O20  1  0.500384  0.862275  0.175366  1
  O  O21  1  0.481065  0.783194  0.614199  1
  O  O22  1  0.064453  0.979859  0.258185  1
  O  O23  1  0.595597  0.708804  0.413517  1
  O  O24  1  0.168529  0.923457  0.059572  1
  O  O25  1  0.177512  0.857287  0.490643  1
  O  O26  1  0.831471  0.076543  0.940428  1
  O  O27  1  0.142828  0.406784  0.282302  1
  O  O28  1  0.263853  0.347364  0.082247  1
  O  O29  1  0.858329  0.530806  0.153453  1
  O  O30  1  0.736147  0.652636  0.917753  1
  O  O31  1  0.141671  0.469194  0.846547  1
