# generated using pymatgen
data_Li2Cr(Si2O5)2
_symmetry_space_group_name_H-M   'P 1'
_cell_length_a   11.15650173
_cell_length_b   7.71906617
_cell_length_c   11.22045610
_cell_angle_alpha   90.00000000
_cell_angle_beta   111.34924724
_cell_angle_gamma   90.00000000
_symmetry_Int_Tables_number   1
_chemical_formula_structural   Li2Cr(Si2O5)2
_chemical_formula_sum   'Li8 Cr4 Si16 O40'
_cell_volume   899.97323687
_cell_formula_units_Z   4
loop_
 _symmetry_equiv_pos_site_id
 _symmetry_equiv_pos_as_xyz
  1  'x, y, z'
loop_
 _atom_site_type_symbol
 _atom_site_label
 _atom_site_symmetry_multiplicity
 _atom_site_fract_x
 _atom_site_fract_y
 _atom_site_fract_z
 _atom_site_occupancy
  Li  Li0  1  0.088428  0.750000  0.394079  1
  Li  Li1  1  0.024594  0.750000  0.102909  1
  Li  Li2  1  0.362058  0.750000  0.868132  1
  Li  Li3  1  0.381034  0.750000  0.459670  1
  Li  Li4  1  0.618966  0.250000  0.540330  1
  Li  Li5  1  0.637942  0.250000  0.131868  1
  Li  Li6  1  0.975406  0.250000  0.897091  1
  Li  Li7  1  0.911572  0.250000  0.605921  1
  Cr  Cr8  1  0.211042  0.982963  0.279463  1
  Cr  Cr9  1  0.211042  0.517037  0.279463  1
  Cr  Cr10  1  0.788958  0.482963  0.720537  1
  Cr  Cr11  1  0.788958  0.017037  0.720537  1
  Si  Si12  1  0.090032  0.548698  0.741397  1
  Si  Si13  1  0.090032  0.951302  0.741397  1
  Si  Si14  1  0.260623  0.045942  0.589472  1
  Si  Si15  1  0.260623  0.454058  0.589472  1
  Si  Si16  1  0.241940  0.449892  0.010269  1
  Si  Si17  1  0.241940  0.050108  0.010269  1
  Si  Si18  1  0.529600  0.447728  0.775473  1
  Si  Si19  1  0.529600  0.052272  0.775473  1
  Si  Si20  1  0.470400  0.947728  0.224527  1
  Si  Si21  1  0.470400  0.552272  0.224527  1
  Si  Si22  1  0.758060  0.949892  0.989731  1
  Si  Si23  1  0.758060  0.550108  0.989731  1
  Si  Si24  1  0.739377  0.954058  0.410528  1
  Si  Si25  1  0.739377  0.545942  0.410528  1
  Si  Si26  1  0.909968  0.451302  0.258603  1
  Si  Si27  1  0.909968  0.048698  0.258603  1
  O  O28  1  0.047018  0.750000  0.701036  1
  O  O29  1  0.221245  0.942765  0.875129  1
  O  O30  1  0.221245  0.557235  0.875129  1
  O  O31  1  0.190567  0.250000  0.966615  1
  O  O32  1  0.132200  0.464170  0.628249  1
  O  O33  1  0.132200  0.035830  0.628249  1
  O  O34  1  0.023020  0.934239  0.243837  1
  O  O35  1  0.023020  0.565761  0.243837  1
  O  O36  1  0.287814  0.250000  0.565920  1
  O  O37  1  0.242817  0.929743  0.465869  1
  O  O38  1  0.242817  0.570257  0.465869  1
  O  O39  1  0.164859  0.962754  0.089831  1
  O  O40  1  0.164859  0.537246  0.089831  1
  O  O41  1  0.381766  0.529804  0.715974  1
  O  O42  1  0.381766  0.970196  0.715974  1
  O  O43  1  0.519127  0.250000  0.825230  1
  O  O44  1  0.600622  0.942355  0.909975  1
  O  O45  1  0.600622  0.557645  0.909975  1
  O  O46  1  0.401350  0.959717  0.326997  1
  O  O47  1  0.401350  0.540283  0.326997  1
  O  O48  1  0.598650  0.459717  0.673003  1
  O  O49  1  0.598650  0.040283  0.673003  1
  O  O50  1  0.399378  0.442355  0.090025  1
  O  O51  1  0.399378  0.057645  0.090025  1
  O  O52  1  0.480873  0.750000  0.174770  1
  O  O53  1  0.618234  0.470196  0.284026  1
  O  O54  1  0.618234  0.029804  0.284026  1
  O  O55  1  0.835141  0.037246  0.910169  1
  O  O56  1  0.835141  0.462754  0.910169  1
  O  O57  1  0.757183  0.429743  0.534131  1
  O  O58  1  0.757183  0.070257  0.534131  1
  O  O59  1  0.712186  0.750000  0.434080  1
  O  O60  1  0.976980  0.434239  0.756163  1
  O  O61  1  0.976980  0.065761  0.756163  1
  O  O62  1  0.867800  0.964170  0.371751  1
  O  O63  1  0.867800  0.535830  0.371751  1
  O  O64  1  0.809433  0.750000  0.033385  1
  O  O65  1  0.778755  0.442765  0.124871  1
  O  O66  1  0.778755  0.057235  0.124871  1
  O  O67  1  0.952982  0.250000  0.298964  1
