# generated using pymatgen
data_Li4Ni3O3F4
_symmetry_space_group_name_H-M   'P 1'
_cell_length_a   14.67827869
_cell_length_b   14.67827869
_cell_length_c   14.67827869
_cell_angle_alpha   168.49522250
_cell_angle_beta   168.49522250
_cell_angle_gamma   16.29778234
_symmetry_Int_Tables_number   1
_chemical_formula_structural   Li4Ni3O3F4
_chemical_formula_sum   'Li4 Ni3 O3 F4'
_cell_volume   125.79678753
_cell_formula_units_Z   1
loop_
 _symmetry_equiv_pos_site_id
 _symmetry_equiv_pos_as_xyz
  1  'x, y, z'
loop_
 _atom_site_type_symbol
 _atom_site_label
 _atom_site_symmetry_multiplicity
 _atom_site_fract_x
 _atom_site_fract_y
 _atom_site_fract_z
 _atom_site_occupancy
  Li  Li0  1  0.355064  0.355064  0.000000  1
  Li  Li1  1  0.644936  0.644936  0.000000  1
  Li  Li2  1  0.215830  0.215830  0.000000  1
  Li  Li3  1  0.784170  0.784170  0.000000  1
  Ni  Ni4  1  0.927847  0.927847  0.000000  1
  Ni  Ni5  1  0.500000  0.500000  0.000000  1
  Ni  Ni6  1  0.072153  0.072153  0.000000  1
  O  O7  1  0.426771  0.426771  0.000000  1
  O  O8  1  0.000000  0.000000  0.000000  1
  O  O9  1  0.573229  0.573229  0.000000  1
  F  F10  1  0.853260  0.853260  0.000000  1
  F  F11  1  0.146740  0.146740  0.000000  1
  F  F12  1  0.715368  0.715368  0.000000  1
  F  F13  1  0.284633  0.284633  0.000000  1
