# generated using pymatgen
data_Li4CrSb(TeO6)2
_symmetry_space_group_name_H-M   'P 1'
_cell_length_a   5.16549061
_cell_length_b   5.41081387
_cell_length_c   7.48191780
_cell_angle_alpha   93.62671509
_cell_angle_beta   90.00681360
_cell_angle_gamma   90.03601544
_symmetry_Int_Tables_number   1
_chemical_formula_structural   Li4CrSb(TeO6)2
_chemical_formula_sum   'Li4 Cr1 Sb1 Te2 O12'
_cell_volume   208.69709195
_cell_formula_units_Z   1
loop_
 _symmetry_equiv_pos_site_id
 _symmetry_equiv_pos_as_xyz
  1  'x, y, z'
loop_
 _atom_site_type_symbol
 _atom_site_label
 _atom_site_symmetry_multiplicity
 _atom_site_fract_x
 _atom_site_fract_y
 _atom_site_fract_z
 _atom_site_occupancy
  Li  Li0  1  0.002173  0.577325  0.734417  1
  Li  Li1  1  0.496709  0.060540  0.196284  1
  Li  Li2  1  0.996339  0.585120  0.194620  1
  Li  Li3  1  0.504303  0.031471  0.748613  1
  Cr  Cr4  1  0.999539  0.008534  0.999105  1
  Sb  Sb5  1  0.500819  0.500970  0.496505  1
  Te  Te6  1  0.999965  0.003659  0.498671  1
  Te  Te7  1  0.500038  0.501213  0.998983  1
  O  O8  1  0.306108  0.809414  0.577850  1
  O  O9  1  0.126988  0.986597  0.260089  1
  O  O10  1  0.326713  0.187156  0.951447  1
  O  O11  1  0.186205  0.308361  0.577268  1
  O  O12  1  0.795018  0.312083  0.070183  1
  O  O13  1  0.362866  0.487595  0.250146  1
  O  O14  1  0.632901  0.482543  0.748403  1
  O  O15  1  0.189496  0.677136  0.949983  1
  O  O16  1  0.828404  0.678278  0.436538  1
  O  O17  1  0.690175  0.797328  0.065001  1
  O  O18  1  0.877391  0.975147  0.739251  1
  O  O19  1  0.677852  0.171931  0.435443  1
