# generated using pymatgen
data_NaCrPCO7
_symmetry_space_group_name_H-M   'P 1'
_cell_length_a   5.28253846
_cell_length_b   6.29847624
_cell_length_c   9.06650910
_cell_angle_alpha   90.00000000
_cell_angle_beta   92.16748759
_cell_angle_gamma   90.00000000
_symmetry_Int_Tables_number   1
_chemical_formula_structural   NaCrPCO7
_chemical_formula_sum   'Na2 Cr2 P2 C2 O14'
_cell_volume   301.44454751
_cell_formula_units_Z   2
loop_
 _symmetry_equiv_pos_site_id
 _symmetry_equiv_pos_as_xyz
  1  'x, y, z'
loop_
 _atom_site_type_symbol
 _atom_site_label
 _atom_site_symmetry_multiplicity
 _atom_site_fract_x
 _atom_site_fract_y
 _atom_site_fract_z
 _atom_site_occupancy
  Na  Na0  1  0.762445  0.522719  0.232124  1
  Na  Na1  1  0.237555  0.022719  0.767876  1
  Cr  Cr2  1  0.213733  0.235772  0.340120  1
  Cr  Cr3  1  0.786267  0.735772  0.659880  1
  P  P4  1  0.279838  0.742965  0.433616  1
  P  P5  1  0.720162  0.242965  0.566384  1
  C  C6  1  0.271586  0.256102  0.079174  1
  C  C7  1  0.728414  0.756102  0.920826  1
  O  O8  1  0.688195  0.757055  0.053189  1
  O  O9  1  0.049204  0.250219  0.140678  1
  O  O10  1  0.455824  0.258802  0.187666  1
  O  O11  1  0.219042  0.938862  0.332992  1
  O  O12  1  0.204537  0.550143  0.336325  1
  O  O13  1  0.879929  0.254396  0.427411  1
  O  O14  1  0.565211  0.735114  0.475482  1
  O  O15  1  0.434789  0.235114  0.524518  1
  O  O16  1  0.120071  0.754396  0.572589  1
  O  O17  1  0.795463  0.050143  0.663675  1
  O  O18  1  0.780958  0.438862  0.667008  1
  O  O19  1  0.544176  0.758802  0.812334  1
  O  O20  1  0.950796  0.750219  0.859322  1
  O  O21  1  0.311805  0.257055  0.946811  1
