# generated using pymatgen
data_LiCr(PO3)4
_symmetry_space_group_name_H-M   'P 1'
_cell_length_a   8.51243141
_cell_length_b   8.51243141
_cell_length_c   9.53030661
_cell_angle_alpha   60.77880613
_cell_angle_beta   119.22119387
_cell_angle_gamma   129.14677400
_symmetry_Int_Tables_number   1
_chemical_formula_structural   LiCr(PO3)4
_chemical_formula_sum   'Li2 Cr2 P8 O24'
_cell_volume   450.58141594
_cell_formula_units_Z   2
loop_
 _symmetry_equiv_pos_site_id
 _symmetry_equiv_pos_as_xyz
  1  'x, y, z'
loop_
 _atom_site_type_symbol
 _atom_site_label
 _atom_site_symmetry_multiplicity
 _atom_site_fract_x
 _atom_site_fract_y
 _atom_site_fract_z
 _atom_site_occupancy
  Li  Li0  1  0.691053  0.691053  0.250000  1
  Li  Li1  1  0.308947  0.308947  0.750000  1
  Cr  Cr2  1  0.137142  0.137142  0.250000  1
  Cr  Cr3  1  0.862858  0.862858  0.750000  1
  P  P4  1  0.026331  0.302014  0.833183  1
  P  P5  1  0.442516  0.702187  0.863484  1
  P  P6  1  0.702187  0.442516  0.636516  1
  P  P7  1  0.302014  0.026331  0.666817  1
  P  P8  1  0.697986  0.973669  0.333183  1
  P  P9  1  0.297813  0.557484  0.363484  1
  P  P10  1  0.557484  0.297813  0.136516  1
  P  P11  1  0.973669  0.697986  0.166817  1
  O  O12  1  0.606687  0.807171  0.777086  1
  O  O13  1  0.232878  0.514657  0.780254  1
  O  O14  1  0.024627  0.255200  0.006428  1
  O  O15  1  0.850262  0.351332  0.696134  1
  O  O16  1  0.985606  0.856456  0.207203  1
  O  O17  1  0.351332  0.850262  0.803866  1
  O  O18  1  0.255200  0.024627  0.493572  1
  O  O19  1  0.632685  0.489493  0.451969  1
  O  O20  1  0.489493  0.632685  0.048031  1
  O  O21  1  0.514657  0.232878  0.719746  1
  O  O22  1  0.807172  0.606687  0.722914  1
  O  O23  1  0.856456  0.985606  0.292797  1
  O  O24  1  0.143544  0.014394  0.707203  1
  O  O25  1  0.192829  0.393313  0.277086  1
  O  O26  1  0.485343  0.767122  0.280254  1
  O  O27  1  0.510507  0.367315  0.951969  1
  O  O28  1  0.367315  0.510507  0.548031  1
  O  O29  1  0.744800  0.975373  0.506428  1
  O  O30  1  0.648668  0.149738  0.196134  1
  O  O31  1  0.014394  0.143544  0.792797  1
  O  O32  1  0.149738  0.648668  0.303866  1
  O  O33  1  0.975373  0.744800  0.993572  1
  O  O34  1  0.767122  0.485343  0.219746  1
  O  O35  1  0.393313  0.192828  0.222914  1
