# generated using pymatgen
data_Mn2(SO4)3
_symmetry_space_group_name_H-M   'P 1'
_cell_length_a   8.55821261
_cell_length_b   8.59726990
_cell_length_c   14.30784319
_cell_angle_alpha   90.00000000
_cell_angle_beta   124.66244280
_cell_angle_gamma   90.00000000
_symmetry_Int_Tables_number   1
_chemical_formula_structural   Mn2(SO4)3
_chemical_formula_sum   'Mn8 S12 O48'
_cell_volume   865.88995326
_cell_formula_units_Z   4
loop_
 _symmetry_equiv_pos_site_id
 _symmetry_equiv_pos_as_xyz
  1  'x, y, z'
loop_
 _atom_site_type_symbol
 _atom_site_label
 _atom_site_symmetry_multiplicity
 _atom_site_fract_x
 _atom_site_fract_y
 _atom_site_fract_z
 _atom_site_occupancy
  Mn  Mn0  1  0.365878  0.969757  0.112355  1
  Mn  Mn1  1  0.634122  0.469757  0.387645  1
  Mn  Mn2  1  0.866626  0.031764  0.615599  1
  Mn  Mn3  1  0.133374  0.531764  0.884401  1
  Mn  Mn4  1  0.866626  0.468236  0.115599  1
  Mn  Mn5  1  0.133374  0.968236  0.384401  1
  Mn  Mn6  1  0.365878  0.530243  0.612355  1
  Mn  Mn7  1  0.634122  0.030243  0.887645  1
  S  S8  1  0.555864  0.754339  0.508566  1
  S  S9  1  0.262132  0.622685  0.149707  1
  S  S10  1  0.974132  0.882761  0.855269  1
  S  S11  1  0.737868  0.122685  0.350293  1
  S  S12  1  0.025868  0.382761  0.644731  1
  S  S13  1  0.444136  0.254339  0.991434  1
  S  S14  1  0.555864  0.745661  0.008566  1
  S  S15  1  0.974132  0.617239  0.355269  1
  S  S16  1  0.262132  0.877315  0.649707  1
  S  S17  1  0.025868  0.117239  0.144731  1
  S  S18  1  0.737868  0.377315  0.850293  1
  S  S19  1  0.444136  0.245661  0.491434  1
  O  O20  1  0.596559  0.132212  0.553200  1
  O  O21  1  0.144417  0.117764  0.100765  1
  O  O22  1  0.443531  0.322450  0.399277  1
  O  O23  1  0.860072  0.417504  0.812881  1
  O  O24  1  0.525761  0.641316  0.419611  1
  O  O25  1  0.291922  0.796576  0.166544  1
  O  O26  1  0.160397  0.588676  0.026350  1
  O  O27  1  0.883909  0.991735  0.756325  1
  O  O28  1  0.980595  0.725301  0.812525  1
  O  O29  1  0.747157  0.825723  0.556825  1
  O  O30  1  0.445184  0.538043  0.213852  1
  O  O31  1  0.554816  0.038043  0.286148  1
  O  O32  1  0.170924  0.935900  0.940656  1
  O  O33  1  0.829076  0.435900  0.559344  1
  O  O34  1  0.252843  0.325723  0.943175  1
  O  O35  1  0.019405  0.225301  0.687475  1
  O  O36  1  0.839603  0.088676  0.473650  1
  O  O37  1  0.116091  0.491735  0.743675  1
  O  O38  1  0.708078  0.296576  0.333456  1
  O  O39  1  0.474239  0.141316  0.080389  1
  O  O40  1  0.556469  0.822450  0.100723  1
  O  O41  1  0.855583  0.617764  0.399235  1
  O  O42  1  0.139928  0.917504  0.687119  1
  O  O43  1  0.403441  0.632212  0.946800  1
  O  O44  1  0.596559  0.367788  0.053200  1
  O  O45  1  0.860072  0.082496  0.312881  1
  O  O46  1  0.144417  0.382236  0.600765  1
  O  O47  1  0.443531  0.177550  0.899277  1
  O  O48  1  0.525761  0.858684  0.919611  1
  O  O49  1  0.291922  0.703424  0.666544  1
  O  O50  1  0.883909  0.508265  0.256325  1
  O  O51  1  0.160397  0.911324  0.526350  1
  O  O52  1  0.980595  0.774699  0.312525  1
  O  O53  1  0.747157  0.674277  0.056825  1
  O  O54  1  0.170924  0.564100  0.440656  1
  O  O55  1  0.829076  0.064100  0.059344  1
  O  O56  1  0.445184  0.961957  0.713852  1
  O  O57  1  0.554816  0.461957  0.786148  1
  O  O58  1  0.252843  0.174277  0.443175  1
  O  O59  1  0.019405  0.274699  0.187475  1
  O  O60  1  0.116091  0.008265  0.243675  1
  O  O61  1  0.839603  0.411324  0.973650  1
  O  O62  1  0.708078  0.203424  0.833456  1
  O  O63  1  0.474239  0.358684  0.580389  1
  O  O64  1  0.139928  0.582496  0.187119  1
  O  O65  1  0.556469  0.677550  0.600723  1
  O  O66  1  0.855583  0.882236  0.899235  1
  O  O67  1  0.403441  0.867788  0.446800  1
