# generated using pymatgen
data_Li2CrP2O7
_symmetry_space_group_name_H-M   'P 1'
_cell_length_a   8.56785798
_cell_length_b   5.09421283
_cell_length_c   14.45715258
_cell_angle_alpha   90.00000000
_cell_angle_beta   118.10777714
_cell_angle_gamma   90.00000000
_symmetry_Int_Tables_number   1
_chemical_formula_structural   Li2CrP2O7
_chemical_formula_sum   'Li8 Cr4 P8 O28'
_cell_volume   556.58522949
_cell_formula_units_Z   4
loop_
 _symmetry_equiv_pos_site_id
 _symmetry_equiv_pos_as_xyz
  1  'x, y, z'
loop_
 _atom_site_type_symbol
 _atom_site_label
 _atom_site_symmetry_multiplicity
 _atom_site_fract_x
 _atom_site_fract_y
 _atom_site_fract_z
 _atom_site_occupancy
  Li  Li0  1  0.500453  0.724331  0.078913  1
  Li  Li1  1  0.063788  0.256603  0.185301  1
  Li  Li2  1  0.499547  0.224331  0.421087  1
  Li  Li3  1  0.936212  0.756603  0.314699  1
  Li  Li4  1  0.063788  0.243397  0.685301  1
  Li  Li5  1  0.500453  0.775669  0.578913  1
  Li  Li6  1  0.936212  0.743397  0.814699  1
  Li  Li7  1  0.499547  0.275669  0.921087  1
  Cr  Cr8  1  0.778488  0.760827  0.019896  1
  Cr  Cr9  1  0.778488  0.739173  0.519896  1
  Cr  Cr10  1  0.221512  0.260827  0.480104  1
  Cr  Cr11  1  0.221512  0.239173  0.980104  1
  P  P12  1  0.195798  0.748859  0.124322  1
  P  P13  1  0.677340  0.239032  0.150180  1
  P  P14  1  0.804202  0.248859  0.375678  1
  P  P15  1  0.322660  0.739032  0.349820  1
  P  P16  1  0.677340  0.260968  0.650180  1
  P  P17  1  0.195798  0.751141  0.624322  1
  P  P18  1  0.322660  0.760968  0.849820  1
  P  P19  1  0.804202  0.251141  0.875678  1
  O  O20  1  0.282714  0.870359  0.063355  1
  O  O21  1  0.168089  0.454096  0.107342  1
  O  O22  1  0.493066  0.317112  0.061588  1
  O  O23  1  0.819924  0.415355  0.146560  1
  O  O24  1  0.341697  0.808413  0.246167  1
  O  O25  1  0.715440  0.944834  0.152820  1
  O  O26  1  0.029927  0.895392  0.112032  1
  O  O27  1  0.658303  0.308413  0.253833  1
  O  O28  1  0.506934  0.817112  0.438412  1
  O  O29  1  0.831911  0.954096  0.392658  1
  O  O30  1  0.970073  0.395392  0.387968  1
  O  O31  1  0.717286  0.370359  0.436645  1
  O  O32  1  0.284560  0.444834  0.347180  1
  O  O33  1  0.180076  0.915355  0.353440  1
  O  O34  1  0.819924  0.084645  0.646560  1
  O  O35  1  0.715440  0.555166  0.652820  1
  O  O36  1  0.282714  0.629641  0.563355  1
  O  O37  1  0.029927  0.604608  0.612032  1
  O  O38  1  0.168089  0.045904  0.607342  1
  O  O39  1  0.493066  0.182888  0.561588  1
  O  O40  1  0.341697  0.691587  0.746167  1
  O  O41  1  0.970073  0.104608  0.887968  1
  O  O42  1  0.284560  0.055166  0.847180  1
  O  O43  1  0.658303  0.191587  0.753833  1
  O  O44  1  0.180076  0.584645  0.853440  1
  O  O45  1  0.506934  0.682888  0.938412  1
  O  O46  1  0.831911  0.545904  0.892658  1
  O  O47  1  0.717286  0.129641  0.936645  1
