# generated using pymatgen
data_Mn2PH2CO7
_symmetry_space_group_name_H-M   'P 1'
_cell_length_a   10.17523094
_cell_length_b   6.59415255
_cell_length_c   10.34499060
_cell_angle_alpha   90.00000000
_cell_angle_beta   116.48807272
_cell_angle_gamma   90.00000000
_symmetry_Int_Tables_number   1
_chemical_formula_structural   Mn2PH2CO7
_chemical_formula_sum   'Mn8 P4 H8 C4 O28'
_cell_volume   621.25459276
_cell_formula_units_Z   4
loop_
 _symmetry_equiv_pos_site_id
 _symmetry_equiv_pos_as_xyz
  1  'x, y, z'
loop_
 _atom_site_type_symbol
 _atom_site_label
 _atom_site_symmetry_multiplicity
 _atom_site_fract_x
 _atom_site_fract_y
 _atom_site_fract_z
 _atom_site_occupancy
  Mn  Mn0  1  0.025753  0.146318  0.883649  1
  Mn  Mn1  1  0.525753  0.353682  0.883649  1
  Mn  Mn2  1  0.267073  0.973714  0.765469  1
  Mn  Mn3  1  0.767073  0.526286  0.765469  1
  Mn  Mn4  1  0.232927  0.473714  0.234531  1
  Mn  Mn5  1  0.732927  0.026286  0.234531  1
  Mn  Mn6  1  0.474247  0.646318  0.116351  1
  Mn  Mn7  1  0.974247  0.853682  0.116351  1
  P  P8  1  0.105437  0.651319  0.898155  1
  P  P9  1  0.605437  0.848681  0.898155  1
  P  P10  1  0.394563  0.151319  0.101845  1
  P  P11  1  0.894563  0.348681  0.101845  1
  H  H12  1  0.221472  0.455531  0.734490  1
  H  H13  1  0.278224  0.378433  0.621950  1
  H  H14  1  0.721472  0.044469  0.734490  1
  H  H15  1  0.778224  0.121567  0.621950  1
  H  H16  1  0.221776  0.878433  0.378050  1
  H  H17  1  0.278528  0.955531  0.265510  1
  H  H18  1  0.721776  0.621567  0.378050  1
  H  H19  1  0.778528  0.544469  0.265510  1
  C  C20  1  0.041504  0.954026  0.459479  1
  C  C21  1  0.458496  0.454026  0.540521  1
  C  C22  1  0.541504  0.545974  0.459479  1
  C  C23  1  0.958496  0.045974  0.540521  1
  O  O24  1  0.014578  0.826903  0.921857  1
  O  O25  1  0.261428  0.098849  0.955030  1
  O  O26  1  0.161947  0.700794  0.786268  1
  O  O27  1  0.514578  0.673097  0.921857  1
  O  O28  1  0.036833  0.090474  0.671929  1
  O  O29  1  0.497382  0.033337  0.843433  1
  O  O30  1  0.761428  0.401151  0.955030  1
  O  O31  1  0.281659  0.349306  0.717735  1
  O  O32  1  0.661947  0.799206  0.786268  1
  O  O33  1  0.179369  0.930415  0.528224  1
  O  O34  1  0.536833  0.409526  0.671929  1
  O  O35  1  0.997382  0.466663  0.843433  1
  O  O36  1  0.781659  0.150694  0.717735  1
  O  O37  1  0.320631  0.430415  0.471776  1
  O  O38  1  0.679369  0.569585  0.528224  1
  O  O39  1  0.218341  0.849306  0.282265  1
  O  O40  1  0.002618  0.533337  0.156567  1
  O  O41  1  0.463167  0.590474  0.328071  1
  O  O42  1  0.820631  0.069585  0.471776  1
  O  O43  1  0.338053  0.200794  0.213732  1
  O  O44  1  0.718341  0.650694  0.282265  1
  O  O45  1  0.238572  0.598849  0.044970  1
  O  O46  1  0.502618  0.966663  0.156567  1
  O  O47  1  0.963167  0.909526  0.328071  1
  O  O48  1  0.485422  0.326903  0.078143  1
  O  O49  1  0.838053  0.299206  0.213732  1
  O  O50  1  0.738572  0.901151  0.044970  1
  O  O51  1  0.985422  0.173097  0.078143  1
