# generated using pymatgen
data_Fe3Co2P6WO24
_symmetry_space_group_name_H-M   'P 1'
_cell_length_a   8.56021675
_cell_length_b   8.56021675
_cell_length_c   8.56021675
_cell_angle_alpha   60.91070044
_cell_angle_beta   60.91070044
_cell_angle_gamma   60.91070044
_symmetry_Int_Tables_number   1
_chemical_formula_structural   Fe3Co2P6WO24
_chemical_formula_sum   'Fe3 Co2 P6 W1 O24'
_cell_volume   452.65077116
_cell_formula_units_Z   1
loop_
 _symmetry_equiv_pos_site_id
 _symmetry_equiv_pos_as_xyz
  1  'x, y, z'
loop_
 _atom_site_type_symbol
 _atom_site_label
 _atom_site_symmetry_multiplicity
 _atom_site_fract_x
 _atom_site_fract_y
 _atom_site_fract_z
 _atom_site_occupancy
  Fe  Fe0  1  0.642815  0.642815  0.642815  1
  Fe  Fe1  1  0.854552  0.854552  0.854552  1
  Fe  Fe2  1  0.356640  0.356640  0.356640  1
  Co  Co3  1  0.994496  0.994496  0.994496  1
  Co  Co4  1  0.499115  0.499115  0.499115  1
  P  P5  1  0.953851  0.253524  0.548673  1
  P  P6  1  0.548673  0.953851  0.253524  1
  P  P7  1  0.253524  0.548673  0.953851  1
  P  P8  1  0.744832  0.461328  0.044588  1
  P  P9  1  0.461328  0.044588  0.744832  1
  P  P10  1  0.044588  0.744832  0.461328  1
  W  W11  1  0.142271  0.142271  0.142271  1
  O  O12  1  0.501040  0.110018  0.321674  1
  O  O13  1  0.321674  0.501040  0.110018  1
  O  O14  1  0.110018  0.321674  0.501040  1
  O  O15  1  0.941194  0.091200  0.740959  1
  O  O16  1  0.000596  0.179567  0.388813  1
  O  O17  1  0.758494  0.409859  0.552942  1
  O  O18  1  0.740959  0.941194  0.091200  1
  O  O19  1  0.552942  0.758494  0.409859  1
  O  O20  1  0.819691  0.610822  0.002855  1
  O  O21  1  0.409859  0.552942  0.758494  1
  O  O22  1  0.908880  0.258528  0.065008  1
  O  O23  1  0.610822  0.002855  0.819691  1
  O  O24  1  0.388813  0.000596  0.179567  1
  O  O25  1  0.091200  0.740959  0.941194  1
  O  O26  1  0.590068  0.441698  0.242279  1
  O  O27  1  0.179567  0.388813  0.000596  1
  O  O28  1  0.441698  0.242279  0.590068  1
  O  O29  1  0.258528  0.065008  0.908880  1
  O  O30  1  0.242279  0.590068  0.441698  1
  O  O31  1  0.002855  0.819691  0.610822  1
  O  O32  1  0.065008  0.908880  0.258528  1
  O  O33  1  0.886168  0.688028  0.492932  1
  O  O34  1  0.688028  0.492932  0.886168  1
  O  O35  1  0.492932  0.886168  0.688028  1
