# generated using pymatgen
data_Na4Ti7O16
_symmetry_space_group_name_H-M   'P 1'
_cell_length_a   6.17435513
_cell_length_b   6.08497783
_cell_length_c   9.02608167
_cell_angle_alpha   90.00000000
_cell_angle_beta   93.53451298
_cell_angle_gamma   90.00000000
_symmetry_Int_Tables_number   1
_chemical_formula_structural   Na4Ti7O16
_chemical_formula_sum   'Na4 Ti7 O16'
_cell_volume   338.47218274
_cell_formula_units_Z   1
loop_
 _symmetry_equiv_pos_site_id
 _symmetry_equiv_pos_as_xyz
  1  'x, y, z'
loop_
 _atom_site_type_symbol
 _atom_site_label
 _atom_site_symmetry_multiplicity
 _atom_site_fract_x
 _atom_site_fract_y
 _atom_site_fract_z
 _atom_site_occupancy
  Na  Na0  1  0.244913  0.000000  0.373240  1
  Na  Na1  1  0.227649  0.500000  0.120889  1
  Na  Na2  1  0.772351  0.500000  0.879111  1
  Na  Na3  1  0.755087  0.000000  0.626760  1
  Ti  Ti4  1  0.736855  0.244497  0.244105  1
  Ti  Ti5  1  0.736855  0.755503  0.244105  1
  Ti  Ti6  1  0.500000  0.000000  0.000000  1
  Ti  Ti7  1  0.263145  0.244497  0.755895  1
  Ti  Ti8  1  0.263145  0.755503  0.755895  1
  Ti  Ti9  1  0.000000  0.500000  0.500000  1
  Ti  Ti10  1  0.500000  0.500000  0.500000  1
  O  O11  1  0.519216  0.500000  0.280386  1
  O  O12  1  0.947896  0.500000  0.275396  1
  O  O13  1  0.508618  0.000000  0.223961  1
  O  O14  1  0.917062  0.000000  0.278052  1
  O  O15  1  0.717616  0.767629  0.043030  1
  O  O16  1  0.717616  0.232371  0.043030  1
  O  O17  1  0.282384  0.767629  0.956970  1
  O  O18  1  0.282384  0.232371  0.956970  1
  O  O19  1  0.082938  0.000000  0.721948  1
  O  O20  1  0.052104  0.500000  0.724604  1
  O  O21  1  0.480784  0.500000  0.719614  1
  O  O22  1  0.491382  0.000000  0.776039  1
  O  O23  1  0.250358  0.292998  0.510642  1
  O  O24  1  0.250358  0.707002  0.510642  1
  O  O25  1  0.749642  0.707002  0.489358  1
  O  O26  1  0.749642  0.292998  0.489358  1
