# generated using pymatgen
data_V6O5F19
_symmetry_space_group_name_H-M   'P 1'
_cell_length_a   5.33866975
_cell_length_b   5.48393897
_cell_length_c   14.81947993
_cell_angle_alpha   100.59683704
_cell_angle_beta   90.02609961
_cell_angle_gamma   90.87187995
_symmetry_Int_Tables_number   1
_chemical_formula_structural   V6O5F19
_chemical_formula_sum   'V6 O5 F19'
_cell_volume   426.41788057
_cell_formula_units_Z   1
loop_
 _symmetry_equiv_pos_site_id
 _symmetry_equiv_pos_as_xyz
  1  'x, y, z'
loop_
 _atom_site_type_symbol
 _atom_site_label
 _atom_site_symmetry_multiplicity
 _atom_site_fract_x
 _atom_site_fract_y
 _atom_site_fract_z
 _atom_site_occupancy
  V  V0  1  0.965883  0.036812  0.996705  1
  V  V1  1  0.558046  0.804304  0.660750  1
  V  V2  1  0.991133  0.649682  0.332667  1
  V  V3  1  0.460193  0.533629  0.003341  1
  V  V4  1  0.054383  0.356299  0.672369  1
  V  V5  1  0.474375  0.125057  0.336117  1
  O  O6  1  0.294541  0.894902  0.356314  1
  O  O7  1  0.231049  0.725197  0.018432  1
  O  O8  1  0.788482  0.261237  0.981585  1
  O  O9  1  0.285953  0.563749  0.687927  1
  O  O10  1  0.785614  0.602246  0.641964  1
  F  F11  1  0.202697  0.377741  0.358640  1
  F  F12  1  0.272928  0.242685  0.028725  1
  F  F13  1  0.705833  0.450141  0.309563  1
  F  F14  1  0.092386  0.937347  0.885406  1
  F  F15  1  0.402078  0.772296  0.553167  1
  F  F16  1  0.095412  0.594210  0.217614  1
  F  F17  1  0.563061  0.894757  0.781663  1
  F  F18  1  0.927523  0.750418  0.450501  1
  F  F19  1  0.596728  0.571986  0.114429  1
  F  F20  1  0.207776  0.081025  0.693187  1
  F  F21  1  0.711445  0.091217  0.644196  1
  F  F22  1  0.779280  0.940356  0.307970  1
  F  F23  1  0.437053  0.406099  0.884500  1
  F  F24  1  0.056638  0.263239  0.551533  1
  F  F25  1  0.420706  0.116641  0.217941  1
  F  F26  1  0.901178  0.405931  0.780237  1
  F  F27  1  0.592327  0.253098  0.446637  1
  F  F28  1  0.929639  0.030322  0.115249  1
  F  F29  1  0.715656  0.767375  0.970669  1
