# generated using pymatgen
data_Li3Fe4(BO3)4
_symmetry_space_group_name_H-M   'P 1'
_cell_length_a   5.25037974
_cell_length_b   9.03181688
_cell_length_c   10.21909640
_cell_angle_alpha   89.07765249
_cell_angle_beta   89.19928227
_cell_angle_gamma   89.65053157
_symmetry_Int_Tables_number   1
_chemical_formula_structural   Li3Fe4(BO3)4
_chemical_formula_sum   'Li6 Fe8 B8 O24'
_cell_volume   484.47587048
_cell_formula_units_Z   2
loop_
 _symmetry_equiv_pos_site_id
 _symmetry_equiv_pos_as_xyz
  1  'x, y, z'
loop_
 _atom_site_type_symbol
 _atom_site_label
 _atom_site_symmetry_multiplicity
 _atom_site_fract_x
 _atom_site_fract_y
 _atom_site_fract_z
 _atom_site_occupancy
  Li  Li0  1  0.180749  0.161988  0.157529  1
  Li  Li1  1  0.318067  0.328193  0.421042  1
  Li  Li2  1  0.339750  0.325267  0.904500  1
  Li  Li3  1  0.651518  0.677354  0.665618  1
  Li  Li4  1  0.686871  0.663426  0.162961  1
  Li  Li5  1  0.824884  0.833981  0.403777  1
  Fe  Fe6  1  0.146879  0.846576  0.633901  1
  Fe  Fe7  1  0.182620  0.500001  0.133000  1
  Fe  Fe8  1  0.323336  0.989756  0.880419  1
  Fe  Fe9  1  0.336700  0.666895  0.384196  1
  Fe  Fe10  1  0.678880  0.333400  0.631824  1
  Fe  Fe11  1  0.681966  0.994442  0.124240  1
  Fe  Fe12  1  0.833896  0.158654  0.378299  1
  Fe  Fe13  1  0.835324  0.508170  0.888387  1
  B  B14  1  0.176810  0.505358  0.626367  1
  B  B15  1  0.173267  0.829272  0.128443  1
  B  B16  1  0.332216  0.999276  0.374311  1
  B  B17  1  0.328405  0.663677  0.873721  1
  B  B18  1  0.650175  0.998275  0.629383  1
  B  B19  1  0.670942  0.330814  0.126313  1
  B  B20  1  0.836138  0.496203  0.381650  1
  B  B21  1  0.826337  0.166991  0.876680  1
  O  O22  1  0.093551  0.484355  0.350854  1
  O  O23  1  0.087425  0.159650  0.884321  1
  O  O24  1  0.187745  0.793517  0.850438  1
  O  O25  1  0.196541  0.876187  0.418268  1
  O  O26  1  0.211489  0.134701  0.358527  1
  O  O27  1  0.204621  0.534038  0.915428  1
  O  O28  1  0.318687  0.375674  0.624049  1
  O  O29  1  0.294304  0.960051  0.083416  1
  O  O30  1  0.294365  0.637946  0.597135  1
  O  O31  1  0.321389  0.707643  0.165602  1
  O  O32  1  0.409402  0.321202  0.110403  1
  O  O33  1  0.410243  0.999715  0.687052  1
  O  O34  1  0.589202  0.986871  0.342546  1
  O  O35  1  0.583004  0.663795  0.852044  1
  O  O36  1  0.702205  0.297028  0.830597  1
  O  O37  1  0.701476  0.371085  0.427789  1
  O  O38  1  0.710641  0.629310  0.365549  1
  O  O39  1  0.673350  0.051664  0.919191  1
  O  O40  1  0.793038  0.464424  0.097917  1
  O  O41  1  0.775423  0.867491  0.605591  1
  O  O42  1  0.761820  0.131397  0.589382  1
  O  O43  1  0.809438  0.207641  0.166261  1
  O  O44  1  0.914732  0.823862  0.139585  1
  O  O45  1  0.914385  0.501933  0.654531  1
