# generated using pymatgen
data_Na2SnGe2(HO4)2
_symmetry_space_group_name_H-M   'P 1'
_cell_length_a   5.67779935
_cell_length_b   5.95107816
_cell_length_c   11.47480758
_cell_angle_alpha   87.61990676
_cell_angle_beta   80.50560615
_cell_angle_gamma   75.49240208
_symmetry_Int_Tables_number   1
_chemical_formula_structural   Na2SnGe2(HO4)2
_chemical_formula_sum   'Na4 Sn2 Ge4 H4 O16'
_cell_volume   370.21805176
_cell_formula_units_Z   2
loop_
 _symmetry_equiv_pos_site_id
 _symmetry_equiv_pos_as_xyz
  1  'x, y, z'
loop_
 _atom_site_type_symbol
 _atom_site_label
 _atom_site_symmetry_multiplicity
 _atom_site_fract_x
 _atom_site_fract_y
 _atom_site_fract_z
 _atom_site_occupancy
  Na  Na0  1  0.782356  0.387768  0.564040  1
  Na  Na1  1  0.217644  0.612232  0.435960  1
  Na  Na2  1  0.497634  0.180645  0.853259  1
  Na  Na3  1  0.502366  0.819355  0.146741  1
  Sn  Sn4  1  0.000000  0.000000  0.000000  1
  Sn  Sn5  1  0.500000  0.000000  0.500000  1
  Ge  Ge6  1  0.317780  0.723752  0.748821  1
  Ge  Ge7  1  0.682220  0.276248  0.251179  1
  Ge  Ge8  1  0.829350  0.561685  0.871399  1
  Ge  Ge9  1  0.170650  0.438315  0.128601  1
  H  H10  1  0.207862  0.310447  0.637185  1
  H  H11  1  0.792138  0.689553  0.362815  1
  H  H12  1  0.779001  0.919329  0.656478  1
  H  H13  1  0.220999  0.080671  0.343522  1
  O  O14  1  0.750077  0.830448  0.944973  1
  O  O15  1  0.249923  0.169552  0.055027  1
  O  O16  1  0.782200  0.320696  0.956415  1
  O  O17  1  0.217800  0.679304  0.043585  1
  O  O18  1  0.140451  0.508946  0.790656  1
  O  O19  1  0.859549  0.491054  0.209344  1
  O  O20  1  0.631497  0.568844  0.761625  1
  O  O21  1  0.368503  0.431156  0.238375  1
  O  O22  1  0.204368  0.975808  0.833584  1
  O  O23  1  0.795632  0.024192  0.166416  1
  O  O24  1  0.323171  0.762208  0.597193  1
  O  O25  1  0.676829  0.237792  0.402807  1
  O  O26  1  0.204450  0.277133  0.554548  1
  O  O27  1  0.795550  0.722867  0.445452  1
  O  O28  1  0.649481  0.058018  0.647520  1
  O  O29  1  0.350519  0.941982  0.352480  1
