# generated using pymatgen
data_LiMn(CO3)2
_symmetry_space_group_name_H-M   'P 1'
_cell_length_a   5.13838429
_cell_length_b   7.81815343
_cell_length_c   6.58156150
_cell_angle_alpha   90.00000000
_cell_angle_beta   111.82282732
_cell_angle_gamma   90.00000000
_symmetry_Int_Tables_number   1
_chemical_formula_structural   LiMn(CO3)2
_chemical_formula_sum   'Li2 Mn2 C4 O12'
_cell_volume   245.45153152
_cell_formula_units_Z   2
loop_
 _symmetry_equiv_pos_site_id
 _symmetry_equiv_pos_as_xyz
  1  'x, y, z'
loop_
 _atom_site_type_symbol
 _atom_site_label
 _atom_site_symmetry_multiplicity
 _atom_site_fract_x
 _atom_site_fract_y
 _atom_site_fract_z
 _atom_site_occupancy
  Li  Li0  1  0.860805  0.059349  0.896342  1
  Li  Li1  1  0.139195  0.559349  0.103658  1
  Mn  Mn2  1  0.509053  0.997221  0.267243  1
  Mn  Mn3  1  0.490947  0.497221  0.732757  1
  C  C4  1  0.351773  0.263186  0.356134  1
  C  C5  1  0.648227  0.763186  0.643866  1
  C  C6  1  0.345604  0.242039  0.872859  1
  C  C7  1  0.654396  0.742039  0.127141  1
  O  O8  1  0.600587  0.238773  0.348569  1
  O  O9  1  0.198342  0.125449  0.319956  1
  O  O10  1  0.270886  0.409791  0.392222  1
  O  O11  1  0.729114  0.909791  0.607778  1
  O  O12  1  0.801658  0.625449  0.680044  1
  O  O13  1  0.399413  0.738773  0.651431  1
  O  O14  1  0.578036  0.250389  0.831265  1
  O  O15  1  0.217684  0.390036  0.854372  1
  O  O16  1  0.256164  0.104756  0.922459  1
  O  O17  1  0.743836  0.604756  0.077541  1
  O  O18  1  0.782316  0.890036  0.145628  1
  O  O19  1  0.421964  0.750389  0.168735  1
