# generated using pymatgen
data_LiAgF3
_symmetry_space_group_name_H-M   'P 1'
_cell_length_a   6.79788533
_cell_length_b   6.79788533
_cell_length_c   6.06056389
_cell_angle_alpha   87.76999729
_cell_angle_beta   92.23000271
_cell_angle_gamma   92.94615318
_symmetry_Int_Tables_number   1
_chemical_formula_structural   LiAgF3
_chemical_formula_sum   'Li4 Ag4 F12'
_cell_volume   279.29296478
_cell_formula_units_Z   4
loop_
 _symmetry_equiv_pos_site_id
 _symmetry_equiv_pos_as_xyz
  1  'x, y, z'
loop_
 _atom_site_type_symbol
 _atom_site_label
 _atom_site_symmetry_multiplicity
 _atom_site_fract_x
 _atom_site_fract_y
 _atom_site_fract_z
 _atom_site_occupancy
  Li  Li0  1  0.902270  0.271396  0.694562  1
  Li  Li1  1  0.728604  0.097730  0.194562  1
  Li  Li2  1  0.271396  0.902270  0.805438  1
  Li  Li3  1  0.097730  0.728604  0.305438  1
  Ag  Ag4  1  0.789814  0.789814  0.750000  1
  Ag  Ag5  1  0.590651  0.590651  0.250000  1
  Ag  Ag6  1  0.409349  0.409349  0.750000  1
  Ag  Ag7  1  0.210186  0.210186  0.250000  1
  F  F8  1  0.925243  0.198033  0.395266  1
  F  F9  1  0.872131  0.622295  0.143126  1
  F  F10  1  0.801967  0.074757  0.895266  1
  F  F11  1  0.705916  0.476339  0.664281  1
  F  F12  1  0.622295  0.872131  0.356874  1
  F  F13  1  0.523661  0.294084  0.164281  1
  F  F14  1  0.476339  0.705916  0.835719  1
  F  F15  1  0.377705  0.127869  0.643126  1
  F  F16  1  0.294084  0.523661  0.335719  1
  F  F17  1  0.198033  0.925243  0.104734  1
  F  F18  1  0.127869  0.377705  0.856874  1
  F  F19  1  0.074757  0.801967  0.604734  1
