# generated using pymatgen
data_Li8ZrO6
_symmetry_space_group_name_H-M   'P 1'
_cell_length_a   6.11830408
_cell_length_b   6.11830408
_cell_length_c   6.11830408
_cell_angle_alpha   53.81167170
_cell_angle_beta   53.81167170
_cell_angle_gamma   53.81167170
_symmetry_Int_Tables_number   1
_chemical_formula_structural   Li8ZrO6
_chemical_formula_sum   'Li8 Zr1 O6'
_cell_volume   138.52415142
_cell_formula_units_Z   1
loop_
 _symmetry_equiv_pos_site_id
 _symmetry_equiv_pos_as_xyz
  1  'x, y, z'
loop_
 _atom_site_type_symbol
 _atom_site_label
 _atom_site_symmetry_multiplicity
 _atom_site_fract_x
 _atom_site_fract_y
 _atom_site_fract_z
 _atom_site_occupancy
  Li  Li0  1  0.233384  0.505331  0.896654  1
  Li  Li1  1  0.103346  0.766616  0.494669  1
  Li  Li2  1  0.494669  0.103346  0.766616  1
  Li  Li3  1  0.655105  0.655105  0.655105  1
  Li  Li4  1  0.344895  0.344895  0.344895  1
  Li  Li5  1  0.505331  0.896654  0.233384  1
  Li  Li6  1  0.896654  0.233384  0.505331  1
  Li  Li7  1  0.766616  0.494669  0.103346  1
  Zr  Zr8  1  0.000000  0.000000  0.000000  1
  O  O9  1  0.092581  0.387252  0.764432  1
  O  O10  1  0.235568  0.907419  0.612748  1
  O  O11  1  0.612748  0.235568  0.907419  1
  O  O12  1  0.387252  0.764432  0.092581  1
  O  O13  1  0.764432  0.092581  0.387252  1
  O  O14  1  0.907419  0.612748  0.235568  1
