# generated using pymatgen
data_LiV2(CO3)4
_symmetry_space_group_name_H-M   'P 1'
_cell_length_a   7.50353683
_cell_length_b   7.50353683
_cell_length_c   8.72982280
_cell_angle_alpha   72.97465342
_cell_angle_beta   107.02534658
_cell_angle_gamma   73.86965866
_symmetry_Int_Tables_number   1
_chemical_formula_structural   LiV2(CO3)4
_chemical_formula_sum   'Li2 V4 C8 O24'
_cell_volume   412.32337001
_cell_formula_units_Z   2
loop_
 _symmetry_equiv_pos_site_id
 _symmetry_equiv_pos_as_xyz
  1  'x, y, z'
loop_
 _atom_site_type_symbol
 _atom_site_label
 _atom_site_symmetry_multiplicity
 _atom_site_fract_x
 _atom_site_fract_y
 _atom_site_fract_z
 _atom_site_occupancy
  Li  Li0  1  0.250543  0.002188  0.000632  1
  Li  Li1  1  0.997812  0.749457  0.500632  1
  V  V2  1  0.750365  0.004461  0.000358  1
  V  V3  1  0.504864  0.750207  0.499766  1
  V  V4  1  0.995539  0.249635  0.500358  1
  V  V5  1  0.249793  0.495136  0.999766  1
  C  C6  1  0.451032  0.436147  0.754270  1
  C  C7  1  0.048319  0.564182  0.243101  1
  C  C8  1  0.939610  0.452560  0.741000  1
  C  C9  1  0.435818  0.951681  0.743101  1
  C  C10  1  0.059904  0.046726  0.261378  1
  C  C11  1  0.563853  0.548968  0.254270  1
  C  C12  1  0.953274  0.940096  0.761378  1
  C  C13  1  0.547440  0.060390  0.241000  1
  O  O14  1  0.493220  0.967865  0.893553  1
  O  O15  1  0.601463  0.284074  0.893733  1
  O  O16  1  0.479418  0.489817  0.613275  1
  O  O17  1  0.032135  0.506780  0.393553  1
  O  O18  1  0.894105  0.721133  0.112414  1
  O  O19  1  0.019033  0.281329  0.730958  1
  O  O20  1  0.526716  0.796136  0.724431  1
  O  O21  1  0.285586  0.525540  0.765057  1
  O  O22  1  0.790007  0.018909  0.777978  1
  O  O23  1  0.191895  0.880631  0.394847  1
  O  O24  1  0.715926  0.398537  0.393733  1
  O  O25  1  0.002991  0.043549  0.104658  1
  O  O26  1  0.992611  0.465408  0.889778  1
  O  O27  1  0.812322  0.613140  0.598814  1
  O  O28  1  0.278867  0.105895  0.612414  1
  O  O29  1  0.718671  0.980967  0.230958  1
  O  O30  1  0.203864  0.473284  0.224431  1
  O  O31  1  0.981091  0.209993  0.277978  1
  O  O32  1  0.474460  0.714414  0.265057  1
  O  O33  1  0.119369  0.808105  0.894847  1
  O  O34  1  0.956451  0.997009  0.604658  1
  O  O35  1  0.534592  0.007389  0.389778  1
  O  O36  1  0.386860  0.187678  0.098814  1
  O  O37  1  0.510183  0.520582  0.113275  1
