# generated using pymatgen
data_Fe(PO3)3
_symmetry_space_group_name_H-M   'P 1'
_cell_length_a   6.94251580
_cell_length_b   7.21935367
_cell_length_c   7.32427756
_cell_angle_alpha   83.80417024
_cell_angle_beta   84.50386309
_cell_angle_gamma   76.48194712
_symmetry_Int_Tables_number   1
_chemical_formula_structural   Fe(PO3)3
_chemical_formula_sum   'Fe2 P6 O18'
_cell_volume   353.89509350
_cell_formula_units_Z   2
loop_
 _symmetry_equiv_pos_site_id
 _symmetry_equiv_pos_as_xyz
  1  'x, y, z'
loop_
 _atom_site_type_symbol
 _atom_site_label
 _atom_site_symmetry_multiplicity
 _atom_site_fract_x
 _atom_site_fract_y
 _atom_site_fract_z
 _atom_site_occupancy
  Fe  Fe0  1  0.571602  0.150891  0.183445  1
  Fe  Fe1  1  0.428398  0.849109  0.816555  1
  P  P2  1  0.244709  0.557633  0.148371  1
  P  P3  1  0.862066  0.769145  0.301131  1
  P  P4  1  0.445545  0.776786  0.366332  1
  P  P5  1  0.554455  0.223214  0.633668  1
  P  P6  1  0.137934  0.230855  0.698869  1
  P  P7  1  0.755291  0.442367  0.851629  1
  O  O8  1  0.709699  0.320623  0.023700  1
  O  O9  1  0.318878  0.344608  0.147055  1
  O  O10  1  0.798663  0.935726  0.154339  1
  O  O11  1  0.404699  0.952896  0.229502  1
  O  O12  1  0.012139  0.598225  0.193837  1
  O  O13  1  0.331959  0.621996  0.321892  1
  O  O14  1  0.672031  0.665244  0.336953  1
  O  O15  1  0.605818  0.192531  0.432814  1
  O  O16  1  0.062388  0.199644  0.527512  1
  O  O17  1  0.937612  0.800356  0.472488  1
  O  O18  1  0.394182  0.807469  0.567186  1
  O  O19  1  0.327969  0.334756  0.663047  1
  O  O20  1  0.668041  0.378004  0.678108  1
  O  O21  1  0.987861  0.401775  0.806163  1
  O  O22  1  0.595301  0.047104  0.770498  1
  O  O23  1  0.201337  0.064274  0.845661  1
  O  O24  1  0.681122  0.655392  0.852945  1
  O  O25  1  0.290301  0.679377  0.976300  1
