# generated using pymatgen
data_Ba3GeO5
_symmetry_space_group_name_H-M   'P 1'
_cell_length_a   10.71486047
_cell_length_b   10.71486047
_cell_length_c   10.71486047
_cell_angle_alpha   44.24787779
_cell_angle_beta   44.24787779
_cell_angle_gamma   44.24787779
_symmetry_Int_Tables_number   1
_chemical_formula_structural   Ba3GeO5
_chemical_formula_sum   'Ba9 Ge3 O15'
_cell_volume   544.27284408
_cell_formula_units_Z   3
loop_
 _symmetry_equiv_pos_site_id
 _symmetry_equiv_pos_as_xyz
  1  'x, y, z'
loop_
 _atom_site_type_symbol
 _atom_site_label
 _atom_site_symmetry_multiplicity
 _atom_site_fract_x
 _atom_site_fract_y
 _atom_site_fract_z
 _atom_site_occupancy
  Ba  Ba0  1  0.285624  0.755041  0.285624  1
  Ba  Ba1  1  0.718297  0.718297  0.234307  1
  Ba  Ba2  1  0.755041  0.285624  0.285624  1
  Ba  Ba3  1  0.010098  0.496729  0.496729  1
  Ba  Ba4  1  0.234307  0.718297  0.718297  1
  Ba  Ba5  1  0.285624  0.285624  0.755041  1
  Ba  Ba6  1  0.718297  0.234307  0.718297  1
  Ba  Ba7  1  0.496729  0.010098  0.496729  1
  Ba  Ba8  1  0.496729  0.496729  0.010098  1
  Ge  Ge9  1  0.998997  0.998997  0.998997  1
  Ge  Ge10  1  0.780845  0.780845  0.780845  1
  Ge  Ge11  1  0.215016  0.215016  0.215016  1
  O  O12  1  0.356356  0.994967  0.356356  1
  O  O13  1  0.622921  0.622921  0.622921  1
  O  O14  1  0.640247  0.002919  0.640247  1
  O  O15  1  0.640247  0.640247  0.002919  1
  O  O16  1  0.937686  0.937686  0.937686  1
  O  O17  1  0.842238  0.842238  0.842238  1
  O  O18  1  0.994967  0.356356  0.356356  1
  O  O19  1  0.002919  0.640247  0.640247  1
  O  O20  1  0.152769  0.152769  0.152769  1
  O  O21  1  0.139752  0.774966  0.139752  1
  O  O22  1  0.139752  0.139752  0.774966  1
  O  O23  1  0.356356  0.356356  0.994967  1
  O  O24  1  0.382614  0.382614  0.382614  1
  O  O25  1  0.499750  0.499750  0.499750  1
  O  O26  1  0.774966  0.139752  0.139752  1
