# generated using pymatgen
data_La2S2O
_symmetry_space_group_name_H-M   'P 1'
_cell_length_a   7.23036765
_cell_length_b   7.37316220
_cell_length_c   8.70065818
_cell_angle_alpha   90.00000000
_cell_angle_beta   98.54595530
_cell_angle_gamma   90.00000000
_symmetry_Int_Tables_number   1
_chemical_formula_structural   La2S2O
_chemical_formula_sum   'La8 S8 O4'
_cell_volume   458.68795018
_cell_formula_units_Z   4
loop_
 _symmetry_equiv_pos_site_id
 _symmetry_equiv_pos_as_xyz
  1  'x, y, z'
loop_
 _atom_site_type_symbol
 _atom_site_label
 _atom_site_symmetry_multiplicity
 _atom_site_fract_x
 _atom_site_fract_y
 _atom_site_fract_z
 _atom_site_occupancy
  La  La0  1  0.252028  0.444214  0.136799  1
  La  La1  1  0.752028  0.055786  0.136799  1
  La  La2  1  0.187380  0.862951  0.419651  1
  La  La3  1  0.687380  0.637049  0.419651  1
  La  La4  1  0.312620  0.362951  0.580349  1
  La  La5  1  0.812620  0.137049  0.580349  1
  La  La6  1  0.247972  0.944214  0.863201  1
  La  La7  1  0.747972  0.555786  0.863201  1
  S  S8  1  0.027489  0.774256  0.079231  1
  S  S9  1  0.527489  0.725744  0.079231  1
  S  S10  1  0.437062  0.144637  0.323400  1
  S  S11  1  0.937062  0.355363  0.323400  1
  S  S12  1  0.062938  0.644637  0.676600  1
  S  S13  1  0.562938  0.855363  0.676600  1
  S  S14  1  0.472511  0.274256  0.920769  1
  S  S15  1  0.972511  0.225744  0.920769  1
  O  O16  1  0.350454  0.584846  0.382637  1
  O  O17  1  0.850454  0.915154  0.382637  1
  O  O18  1  0.149546  0.084846  0.617363  1
  O  O19  1  0.649546  0.415154  0.617363  1
