# generated using pymatgen
data_Mn3VTe2(PO4)6
_symmetry_space_group_name_H-M   'P 1'
_cell_length_a   8.87232559
_cell_length_b   8.87232559
_cell_length_c   8.87232559
_cell_angle_alpha   59.88841315
_cell_angle_beta   59.88841315
_cell_angle_gamma   59.88841315
_symmetry_Int_Tables_number   1
_chemical_formula_structural   Mn3VTe2(PO4)6
_chemical_formula_sum   'Mn3 V1 Te2 P6 O24'
_cell_volume   492.60238142
_cell_formula_units_Z   1
loop_
 _symmetry_equiv_pos_site_id
 _symmetry_equiv_pos_as_xyz
  1  'x, y, z'
loop_
 _atom_site_type_symbol
 _atom_site_label
 _atom_site_symmetry_multiplicity
 _atom_site_fract_x
 _atom_site_fract_y
 _atom_site_fract_z
 _atom_site_occupancy
  Mn  Mn0  1  0.839478  0.839478  0.839478  1
  Mn  Mn1  1  0.651099  0.651099  0.651099  1
  Mn  Mn2  1  0.345461  0.345461  0.345461  1
  V  V3  1  0.145867  0.145867  0.145867  1
  Te  Te4  1  0.982459  0.982459  0.982459  1
  Te  Te5  1  0.490088  0.490088  0.490088  1
  P  P6  1  0.251544  0.541331  0.956433  1
  P  P7  1  0.956433  0.251544  0.541331  1
  P  P8  1  0.541331  0.956433  0.251544  1
  P  P9  1  0.446454  0.056978  0.757012  1
  P  P10  1  0.056978  0.757012  0.446454  1
  P  P11  1  0.757012  0.446454  0.056978  1
  O  O12  1  0.699721  0.471070  0.909582  1
  O  O13  1  0.471070  0.909582  0.699721  1
  O  O14  1  0.083199  0.744536  0.937188  1
  O  O15  1  0.909582  0.699721  0.471070  1
  O  O16  1  0.395581  0.559831  0.759430  1
  O  O17  1  0.173190  0.392069  0.013490  1
  O  O18  1  0.937188  0.083199  0.744536  1
  O  O19  1  0.759430  0.395581  0.559831  1
  O  O20  1  0.559831  0.759430  0.395581  1
  O  O21  1  0.600093  0.031155  0.805357  1
  O  O22  1  0.254274  0.085411  0.917960  1
  O  O23  1  0.031155  0.805357  0.600093  1
  O  O24  1  0.013490  0.173190  0.392069  1
  O  O25  1  0.744536  0.937188  0.083199  1
  O  O26  1  0.392069  0.013490  0.173190  1
  O  O27  1  0.420184  0.256878  0.594732  1
  O  O28  1  0.256878  0.594732  0.420184  1
  O  O29  1  0.085411  0.917960  0.254274  1
  O  O30  1  0.805357  0.600093  0.031155  1
  O  O31  1  0.594732  0.420184  0.256878  1
  O  O32  1  0.094610  0.315412  0.520844  1
  O  O33  1  0.917960  0.254274  0.085411  1
  O  O34  1  0.520844  0.094610  0.315412  1
  O  O35  1  0.315412  0.520844  0.094610  1
