# generated using pymatgen
data_V3(O2F)2
_symmetry_space_group_name_H-M   'P 1'
_cell_length_a   5.65055533
_cell_length_b   4.72445929
_cell_length_c   7.55169361
_cell_angle_alpha   90.00000000
_cell_angle_beta   95.19906290
_cell_angle_gamma   90.00000000
_symmetry_Int_Tables_number   1
_chemical_formula_structural   V3(O2F)2
_chemical_formula_sum   'V6 O8 F4'
_cell_volume   200.76924195
_cell_formula_units_Z   2
loop_
 _symmetry_equiv_pos_site_id
 _symmetry_equiv_pos_as_xyz
  1  'x, y, z'
loop_
 _atom_site_type_symbol
 _atom_site_label
 _atom_site_symmetry_multiplicity
 _atom_site_fract_x
 _atom_site_fract_y
 _atom_site_fract_z
 _atom_site_occupancy
  V  V0  1  0.346232  0.534116  0.843939  1
  V  V1  1  0.653768  0.465884  0.156061  1
  V  V2  1  0.000000  0.500000  0.500000  1
  V  V3  1  0.846232  0.965884  0.843939  1
  V  V4  1  0.500000  0.000000  0.500000  1
  V  V5  1  0.153768  0.034116  0.156061  1
  O  O6  1  0.801890  0.811976  0.609002  1
  O  O7  1  0.142030  0.797995  0.942386  1
  O  O8  1  0.642030  0.702005  0.942386  1
  O  O9  1  0.301890  0.688024  0.609002  1
  O  O10  1  0.698110  0.311976  0.390998  1
  O  O11  1  0.357970  0.297995  0.057614  1
  O  O12  1  0.198110  0.188024  0.390998  1
  O  O13  1  0.857970  0.202005  0.057614  1
  F  F14  1  0.457751  0.795498  0.257409  1
  F  F15  1  0.957751  0.704502  0.257409  1
  F  F16  1  0.042249  0.295498  0.742591  1
  F  F17  1  0.542249  0.204502  0.742591  1
