# generated using pymatgen
data_LiP2WO7
_symmetry_space_group_name_H-M   'P 1'
_cell_length_a   8.61048679
_cell_length_b   5.09656882
_cell_length_c   13.87921555
_cell_angle_alpha   90.00000000
_cell_angle_beta   115.16963903
_cell_angle_gamma   90.00000000
_symmetry_Int_Tables_number   1
_chemical_formula_structural   LiP2WO7
_chemical_formula_sum   'Li4 P8 W4 O28'
_cell_volume   551.24455468
_cell_formula_units_Z   4
loop_
 _symmetry_equiv_pos_site_id
 _symmetry_equiv_pos_as_xyz
  1  'x, y, z'
loop_
 _atom_site_type_symbol
 _atom_site_label
 _atom_site_symmetry_multiplicity
 _atom_site_fract_x
 _atom_site_fract_y
 _atom_site_fract_z
 _atom_site_occupancy
  Li  Li0  1  0.407829  0.279716  0.290788  1
  Li  Li1  1  0.592171  0.779716  0.209212  1
  Li  Li2  1  0.407829  0.220284  0.790788  1
  Li  Li3  1  0.592171  0.720284  0.709212  1
  P  P4  1  0.174019  0.760833  0.148955  1
  P  P5  1  0.700275  0.228885  0.621672  1
  P  P6  1  0.825981  0.260833  0.351045  1
  P  P7  1  0.700275  0.271115  0.121672  1
  P  P8  1  0.299725  0.728885  0.878328  1
  P  P9  1  0.174019  0.739167  0.648955  1
  P  P10  1  0.299725  0.771115  0.378328  1
  P  P11  1  0.825981  0.239167  0.851045  1
  W  W12  1  0.269181  0.242649  0.029417  1
  W  W13  1  0.730819  0.742649  0.470583  1
  W  W14  1  0.269181  0.257351  0.529417  1
  W  W15  1  0.730819  0.757351  0.970583  1
  O  O16  1  0.247652  0.042123  0.160718  1
  O  O17  1  0.310030  0.562513  0.146605  1
  O  O18  1  0.462705  0.651699  0.375286  1
  O  O19  1  0.682347  0.930737  0.600206  1
  O  O20  1  0.846027  0.283506  0.740829  1
  O  O21  1  0.760931  0.371234  0.548642  1
  O  O22  1  0.999927  0.282954  0.938592  1
  O  O23  1  0.537295  0.151699  0.124714  1
  O  O24  1  0.689970  0.062513  0.353395  1
  O  O25  1  0.752348  0.542123  0.339282  1
  O  O26  1  0.000073  0.782954  0.561408  1
  O  O27  1  0.682347  0.569263  0.100206  1
  O  O28  1  0.239069  0.871234  0.951358  1
  O  O29  1  0.153973  0.783506  0.759171  1
  O  O30  1  0.846027  0.216494  0.240829  1
  O  O31  1  0.760931  0.128766  0.048642  1
  O  O32  1  0.317653  0.430737  0.899794  1
  O  O33  1  0.999927  0.217046  0.438592  1
  O  O34  1  0.247652  0.457877  0.660718  1
  O  O35  1  0.310030  0.937487  0.646605  1
  O  O36  1  0.462705  0.848301  0.875286  1
  O  O37  1  0.000073  0.717046  0.061408  1
  O  O38  1  0.239069  0.628766  0.451358  1
  O  O39  1  0.153973  0.716494  0.259171  1
  O  O40  1  0.317653  0.069263  0.399794  1
  O  O41  1  0.537295  0.348301  0.624714  1
  O  O42  1  0.689970  0.437487  0.853395  1
  O  O43  1  0.752348  0.957877  0.839282  1
