# generated using pymatgen
data_Li2BiBO4
_symmetry_space_group_name_H-M   'P 1'
_cell_length_a   4.82420872
_cell_length_b   6.85174766
_cell_length_c   10.33408173
_cell_angle_alpha   90.00000000
_cell_angle_beta   90.00000000
_cell_angle_gamma   90.00000000
_symmetry_Int_Tables_number   1
_chemical_formula_structural   Li2BiBO4
_chemical_formula_sum   'Li8 Bi4 B4 O16'
_cell_volume   341.58543272
_cell_formula_units_Z   4
loop_
 _symmetry_equiv_pos_site_id
 _symmetry_equiv_pos_as_xyz
  1  'x, y, z'
loop_
 _atom_site_type_symbol
 _atom_site_label
 _atom_site_symmetry_multiplicity
 _atom_site_fract_x
 _atom_site_fract_y
 _atom_site_fract_z
 _atom_site_occupancy
  Li  Li0  1  0.215389  0.995392  0.160312  1
  Li  Li1  1  0.284611  0.995392  0.660312  1
  Li  Li2  1  0.215389  0.504608  0.160312  1
  Li  Li3  1  0.284611  0.504608  0.660312  1
  Li  Li4  1  0.715389  0.495392  0.339688  1
  Li  Li5  1  0.784611  0.495392  0.839688  1
  Li  Li6  1  0.784611  0.004608  0.839688  1
  Li  Li7  1  0.715389  0.004608  0.339688  1
  Bi  Bi8  1  0.732579  0.250000  0.101681  1
  Bi  Bi9  1  0.767421  0.250000  0.601681  1
  Bi  Bi10  1  0.232579  0.750000  0.398319  1
  Bi  Bi11  1  0.267421  0.750000  0.898319  1
  B  B12  1  0.226452  0.250000  0.401601  1
  B  B13  1  0.273548  0.250000  0.901601  1
  B  B14  1  0.726452  0.750000  0.098399  1
  B  B15  1  0.773548  0.750000  0.598399  1
  O  O16  1  0.326496  0.074044  0.336835  1
  O  O17  1  0.173504  0.074044  0.836835  1
  O  O18  1  0.903465  0.250000  0.400412  1
  O  O19  1  0.194796  0.250000  0.047665  1
  O  O20  1  0.305204  0.250000  0.547665  1
  O  O21  1  0.596535  0.250000  0.900412  1
  O  O22  1  0.326496  0.425956  0.336835  1
  O  O23  1  0.173504  0.425956  0.836835  1
  O  O24  1  0.673504  0.574044  0.663165  1
  O  O25  1  0.826496  0.574044  0.163165  1
  O  O26  1  0.694796  0.750000  0.452335  1
  O  O27  1  0.403465  0.750000  0.099588  1
  O  O28  1  0.805204  0.750000  0.952335  1
  O  O29  1  0.096535  0.750000  0.599588  1
  O  O30  1  0.826496  0.925956  0.163165  1
  O  O31  1  0.673504  0.925956  0.663165  1
