# generated using pymatgen
data_Ti2Sb(PO4)3
_symmetry_space_group_name_H-M   'P 1'
_cell_length_a   8.95807751
_cell_length_b   8.95807751
_cell_length_c   8.95807751
_cell_angle_alpha   58.05230292
_cell_angle_beta   58.05230292
_cell_angle_gamma   58.05230292
_symmetry_Int_Tables_number   1
_chemical_formula_structural   Ti2Sb(PO4)3
_chemical_formula_sum   'Ti4 Sb2 P6 O24'
_cell_volume   485.60705729
_cell_formula_units_Z   2
loop_
 _symmetry_equiv_pos_site_id
 _symmetry_equiv_pos_as_xyz
  1  'x, y, z'
loop_
 _atom_site_type_symbol
 _atom_site_label
 _atom_site_symmetry_multiplicity
 _atom_site_fract_x
 _atom_site_fract_y
 _atom_site_fract_z
 _atom_site_occupancy
  Ti  Ti0  1  0.851971  0.851971  0.851971  1
  Ti  Ti1  1  0.648029  0.648029  0.648029  1
  Ti  Ti2  1  0.351971  0.351971  0.351971  1
  Ti  Ti3  1  0.148029  0.148029  0.148029  1
  Sb  Sb4  1  0.000000  0.000000  0.000000  1
  Sb  Sb5  1  0.500000  0.500000  0.500000  1
  P  P6  1  0.250000  0.540799  0.959201  1
  P  P7  1  0.959201  0.250000  0.540799  1
  P  P8  1  0.540799  0.959201  0.250000  1
  P  P9  1  0.459201  0.040799  0.750000  1
  P  P10  1  0.040799  0.750000  0.459201  1
  P  P11  1  0.750000  0.459201  0.040799  1
  O  O12  1  0.699442  0.494947  0.882625  1
  O  O13  1  0.494947  0.882625  0.699442  1
  O  O14  1  0.081448  0.730191  0.937412  1
  O  O15  1  0.882625  0.699442  0.494947  1
  O  O16  1  0.199442  0.382625  0.994947  1
  O  O17  1  0.418552  0.562588  0.769809  1
  O  O18  1  0.937412  0.081448  0.730191  1
  O  O19  1  0.769809  0.418552  0.562588  1
  O  O20  1  0.617375  0.005053  0.800558  1
  O  O21  1  0.562588  0.769809  0.418552  1
  O  O22  1  0.269809  0.062588  0.918552  1
  O  O23  1  0.005053  0.800558  0.617375  1
  O  O24  1  0.994947  0.199442  0.382625  1
  O  O25  1  0.730191  0.937412  0.081448  1
  O  O26  1  0.437412  0.230191  0.581448  1
  O  O27  1  0.382625  0.994947  0.199442  1
  O  O28  1  0.230191  0.581448  0.437412  1
  O  O29  1  0.062588  0.918552  0.269809  1
  O  O30  1  0.581448  0.437412  0.230191  1
  O  O31  1  0.800558  0.617375  0.005053  1
  O  O32  1  0.117375  0.300558  0.505053  1
  O  O33  1  0.918552  0.269809  0.062588  1
  O  O34  1  0.505053  0.117375  0.300558  1
  O  O35  1  0.300558  0.505053  0.117375  1
