# generated using pymatgen
data_LiCo3Sb(PO4)6
_symmetry_space_group_name_H-M   'P 1'
_cell_length_a   8.48765005
_cell_length_b   8.48994211
_cell_length_c   8.51320041
_cell_angle_alpha   119.81363804
_cell_angle_beta   90.08736407
_cell_angle_gamma   119.97888358
_symmetry_Int_Tables_number   1
_chemical_formula_structural   LiCo3Sb(PO4)6
_chemical_formula_sum   'Li1 Co3 Sb1 P6 O24'
_cell_volume   434.80768417
_cell_formula_units_Z   1
loop_
 _symmetry_equiv_pos_site_id
 _symmetry_equiv_pos_as_xyz
  1  'x, y, z'
loop_
 _atom_site_type_symbol
 _atom_site_label
 _atom_site_symmetry_multiplicity
 _atom_site_fract_x
 _atom_site_fract_y
 _atom_site_fract_z
 _atom_site_occupancy
  Li  Li0  1  0.014968  0.510613  0.485362  1
  Co  Co1  1  0.724810  0.863352  0.415725  1
  Co  Co2  1  0.288175  0.642047  0.067655  1
  Co  Co3  1  0.724776  0.362909  0.916350  1
  Sb  Sb4  1  0.279905  0.138876  0.580429  1
  P  P5  1  0.503914  0.956677  0.243519  1
  P  P6  1  0.801181  0.548641  0.242808  1
  P  P7  1  0.783387  0.746210  0.741850  1
  P  P8  1  0.210336  0.253103  0.243212  1
  P  P9  1  0.222387  0.475049  0.744518  1
  P  P10  1  0.512831  0.035106  0.741131  1
  O  O11  1  0.440881  0.636342  0.558205  1
  O  O12  1  0.373678  0.868852  0.925795  1
  O  O13  1  0.569079  0.694512  0.930218  1
  O  O14  1  0.673855  0.934134  0.244738  1
  O  O15  1  0.357697  0.978972  0.433600  1
  O  O16  1  0.193756  0.492407  0.934202  1
  O  O17  1  0.328394  0.764030  0.248445  1
  O  O18  1  0.823187  0.739064  0.243392  1
  O  O19  1  0.817393  0.808065  0.551359  1
  O  O20  1  0.988439  0.563420  0.250182  1
  O  O21  1  0.969236  0.913187  0.754527  1
  O  O22  1  0.188074  0.424662  0.251592  1
  O  O23  1  0.586349  0.378336  0.430060  1
  O  O24  1  0.810854  0.580816  0.731915  1
  O  O25  1  0.020182  0.084571  0.240013  1
  O  O26  1  0.186754  0.204756  0.433318  1
  O  O27  1  0.040624  0.458279  0.733218  1
  O  O28  1  0.193432  0.277144  0.751425  1
  O  O29  1  0.683931  0.227758  0.737762  1
  O  O30  1  0.810011  0.513391  0.064663  1
  O  O31  1  0.650898  0.015256  0.550284  1
  O  O32  1  0.334562  0.054613  0.751254  1
  O  O33  1  0.422865  0.296992  0.068234  1
  O  O34  1  0.638936  0.128158  0.069063  1
