# generated using pymatgen
data_BaYF5
_symmetry_space_group_name_H-M   'P 1'
_cell_length_a   5.62452618
_cell_length_b   9.80562261
_cell_length_c   8.34394728
_cell_angle_alpha   90.00000000
_cell_angle_beta   92.83127718
_cell_angle_gamma   90.00000000
_symmetry_Int_Tables_number   1
_chemical_formula_structural   BaYF5
_chemical_formula_sum   'Ba4 Y4 F20'
_cell_volume   459.62348495
_cell_formula_units_Z   4
loop_
 _symmetry_equiv_pos_site_id
 _symmetry_equiv_pos_as_xyz
  1  'x, y, z'
loop_
 _atom_site_type_symbol
 _atom_site_label
 _atom_site_symmetry_multiplicity
 _atom_site_fract_x
 _atom_site_fract_y
 _atom_site_fract_z
 _atom_site_occupancy
  Ba  Ba0  1  0.000693  0.568413  0.256805  1
  Ba  Ba1  1  0.498130  0.300517  0.994143  1
  Ba  Ba2  1  0.501870  0.800517  0.005857  1
  Ba  Ba3  1  0.999307  0.068413  0.743195  1
  Y  Y4  1  0.004521  0.061751  0.261967  1
  Y  Y5  1  0.467787  0.317683  0.459154  1
  Y  Y6  1  0.532213  0.817683  0.540846  1
  Y  Y7  1  0.995479  0.561751  0.738033  1
  F  F8  1  0.856207  0.688293  0.509666  1
  F  F9  1  0.189040  0.596158  0.980289  1
  F  F10  1  0.099721  0.345370  0.818908  1
  F  F11  1  0.229030  0.482719  0.526025  1
  F  F12  1  0.174154  0.289481  0.219218  1
  F  F13  1  0.239936  0.939661  0.431438  1
  F  F14  1  0.317658  0.697064  0.704082  1
  F  F15  1  0.424529  0.720666  0.309910  1
  F  F16  1  0.436909  0.955806  0.746618  1
  F  F17  1  0.282457  0.034916  0.080419  1
  F  F18  1  0.717543  0.534916  0.919581  1
  F  F19  1  0.563091  0.455806  0.253382  1
  F  F20  1  0.575471  0.220666  0.690090  1
  F  F21  1  0.682342  0.197064  0.295918  1
  F  F22  1  0.760064  0.439661  0.568562  1
  F  F23  1  0.825846  0.789481  0.780782  1
  F  F24  1  0.770970  0.982719  0.473975  1
  F  F25  1  0.900279  0.845370  0.181092  1
  F  F26  1  0.810960  0.096158  0.019711  1
  F  F27  1  0.143793  0.188293  0.490334  1
