# generated using pymatgen
data_RbCrH4(C2O5)2
_symmetry_space_group_name_H-M   'P 1'
_cell_length_a   5.00205449
_cell_length_b   5.00205449
_cell_length_c   10.27487405
_cell_angle_alpha   88.55565149
_cell_angle_beta   91.44434851
_cell_angle_gamma   85.49781636
_symmetry_Int_Tables_number   1
_chemical_formula_structural   RbCrH4(C2O5)2
_chemical_formula_sum   'Rb1 Cr1 H4 C4 O10'
_cell_volume   256.11295855
_cell_formula_units_Z   1
loop_
 _symmetry_equiv_pos_site_id
 _symmetry_equiv_pos_as_xyz
  1  'x, y, z'
loop_
 _atom_site_type_symbol
 _atom_site_label
 _atom_site_symmetry_multiplicity
 _atom_site_fract_x
 _atom_site_fract_y
 _atom_site_fract_z
 _atom_site_occupancy
  Rb  Rb0  1  0.500000  0.500000  0.500000  1
  Cr  Cr1  1  0.000000  0.000000  0.000000  1
  H  H2  1  0.768955  0.455072  0.896570  1
  H  H3  1  0.544928  0.231045  0.896570  1
  H  H4  1  0.231045  0.544928  0.103430  1
  H  H5  1  0.455072  0.768955  0.103430  1
  C  C6  1  0.978817  0.232880  0.247683  1
  C  C7  1  0.767120  0.021183  0.247683  1
  C  C8  1  0.232880  0.978817  0.752317  1
  C  C9  1  0.021183  0.767120  0.752317  1
  O  O10  1  0.713001  0.286999  0.939035  1
  O  O11  1  0.991470  0.624179  0.658518  1
  O  O12  1  0.375821  0.008530  0.658518  1
  O  O13  1  0.887908  0.754922  0.860992  1
  O  O14  1  0.245078  0.112092  0.860992  1
  O  O15  1  0.754922  0.887908  0.139008  1
  O  O16  1  0.112092  0.245078  0.139008  1
  O  O17  1  0.624179  0.991470  0.341482  1
  O  O18  1  0.008530  0.375821  0.341482  1
  O  O19  1  0.286999  0.713001  0.060965  1
