# generated using pymatgen
data_Na3Li3Fe2P2(CO7)2
_symmetry_space_group_name_H-M   'P 1'
_cell_length_a   5.07631414
_cell_length_b   6.66499151
_cell_length_c   8.72434587
_cell_angle_alpha   90.51056941
_cell_angle_beta   91.65491944
_cell_angle_gamma   90.20907941
_symmetry_Int_Tables_number   1
_chemical_formula_structural   Na3Li3Fe2P2(CO7)2
_chemical_formula_sum   'Na3 Li3 Fe2 P2 C2 O14'
_cell_volume   295.03885874
_cell_formula_units_Z   1
loop_
 _symmetry_equiv_pos_site_id
 _symmetry_equiv_pos_as_xyz
  1  'x, y, z'
loop_
 _atom_site_type_symbol
 _atom_site_label
 _atom_site_symmetry_multiplicity
 _atom_site_fract_x
 _atom_site_fract_y
 _atom_site_fract_z
 _atom_site_occupancy
  Na  Na0  1  0.239622  0.256962  0.083442  1
  Na  Na1  1  0.752897  0.999337  0.257321  1
  Na  Na2  1  0.248380  0.501477  0.743998  1
  Li  Li3  1  0.776083  0.477837  0.277495  1
  Li  Li4  1  0.238860  0.986638  0.728838  1
  Li  Li5  1  0.748318  0.754257  0.907664  1
  Fe  Fe6  1  0.223948  0.744663  0.354357  1
  Fe  Fe7  1  0.779869  0.244952  0.648280  1
  P  P8  1  0.294379  0.247846  0.413864  1
  P  P9  1  0.705631  0.748746  0.591590  1
  C  C10  1  0.269228  0.756837  0.045507  1
  C  C11  1  0.726670  0.255722  0.946762  1
  O  O12  1  0.713138  0.275026  0.094047  1
  O  O13  1  0.023271  0.752989  0.082826  1
  O  O14  1  0.452792  0.737845  0.152572  1
  O  O15  1  0.227294  0.060071  0.312915  1
  O  O16  1  0.175866  0.429920  0.325305  1
  O  O17  1  0.601771  0.272949  0.429013  1
  O  O18  1  0.822491  0.732268  0.429549  1
  O  O19  1  0.183334  0.230483  0.576200  1
  O  O20  1  0.399572  0.771869  0.573035  1
  O  O21  1  0.768571  0.562736  0.693014  1
  O  O22  1  0.820715  0.930004  0.686035  1
  O  O23  1  0.515249  0.235613  0.860319  1
  O  O24  1  0.953742  0.255423  0.881280  1
  O  O25  1  0.338304  0.777532  0.904771  1
