# generated using pymatgen
data_V2(OF)3
_symmetry_space_group_name_H-M   'P 1'
_cell_length_a   5.21627070
_cell_length_b   5.23703084
_cell_length_c   13.24669762
_cell_angle_alpha   89.79642220
_cell_angle_beta   89.69926238
_cell_angle_gamma   60.13160246
_symmetry_Int_Tables_number   1
_chemical_formula_structural   V2(OF)3
_chemical_formula_sum   'V6 O9 F9'
_cell_volume   313.79908072
_cell_formula_units_Z   3
loop_
 _symmetry_equiv_pos_site_id
 _symmetry_equiv_pos_as_xyz
  1  'x, y, z'
loop_
 _atom_site_type_symbol
 _atom_site_label
 _atom_site_symmetry_multiplicity
 _atom_site_fract_x
 _atom_site_fract_y
 _atom_site_fract_z
 _atom_site_occupancy
  V  V0  1  0.955338  0.023927  0.508582  1
  V  V1  1  0.985401  0.994881  0.006238  1
  V  V2  1  0.362464  0.286549  0.174865  1
  V  V3  1  0.683577  0.608813  0.333968  1
  V  V4  1  0.271324  0.378525  0.667125  1
  V  V5  1  0.656022  0.705841  0.847101  1
  O  O6  1  0.582399  0.425224  0.253350  1
  O  O7  1  0.672260  0.239275  0.583473  1
  O  O8  1  0.905990  0.756415  0.912097  1
  O  O9  1  0.687149  0.086699  0.081943  1
  O  O10  1  0.000301  0.425318  0.746942  1
  O  O11  1  0.907365  0.339933  0.414547  1
  O  O12  1  0.430186  0.998571  0.246959  1
  O  O13  1  0.093311  0.658550  0.584435  1
  O  O14  1  0.345235  0.904388  0.915363  1
  F  F15  1  0.997295  0.587505  0.248348  1
  F  F16  1  0.747880  0.914317  0.411553  1
  F  F17  1  0.421191  0.575856  0.748073  1
  F  F18  1  0.267325  0.661625  0.083183  1
  F  F19  1  0.581498  0.996194  0.746856  1
  F  F20  1  0.756581  0.333784  0.910645  1
  F  F21  1  0.261289  0.080513  0.582574  1
  F  F22  1  0.092280  0.259951  0.078219  1
  F  F23  1  0.336340  0.757341  0.413564  1
