# generated using pymatgen
data_Fe3(O2F)2
_symmetry_space_group_name_H-M   'P 1'
_cell_length_a   5.64878343
_cell_length_b   5.64878343
_cell_length_c   7.67983384
_cell_angle_alpha   68.60204339
_cell_angle_beta   111.39795661
_cell_angle_gamma   110.80811514
_symmetry_Int_Tables_number   1
_chemical_formula_structural   Fe3(O2F)2
_chemical_formula_sum   'Fe6 O8 F4'
_cell_volume   205.34228832
_cell_formula_units_Z   2
loop_
 _symmetry_equiv_pos_site_id
 _symmetry_equiv_pos_as_xyz
  1  'x, y, z'
loop_
 _atom_site_type_symbol
 _atom_site_label
 _atom_site_symmetry_multiplicity
 _atom_site_fract_x
 _atom_site_fract_y
 _atom_site_fract_z
 _atom_site_occupancy
  Fe  Fe0  1  0.675960  0.324040  0.146066  1
  Fe  Fe1  1  0.339794  0.660206  0.344971  1
  Fe  Fe2  1  0.657315  0.342685  0.678383  1
  Fe  Fe3  1  0.342920  0.657080  0.814260  1
  Fe  Fe4  1  0.997147  0.002853  0.504944  1
  Fe  Fe5  1  0.991054  0.008946  0.003006  1
  O  O6  1  0.643484  0.971031  0.332349  1
  O  O7  1  0.970253  0.646027  0.665824  1
  O  O8  1  0.771697  0.228303  0.958749  1
  O  O9  1  0.433334  0.566666  0.623372  1
  O  O10  1  0.353973  0.029747  0.665824  1
  O  O11  1  0.028969  0.356516  0.332349  1
  O  O12  1  0.697139  0.693314  0.000274  1
  O  O13  1  0.306686  0.302861  0.000274  1
  F  F14  1  0.892656  0.107344  0.701223  1
  F  F15  1  0.225823  0.774177  0.050821  1
  F  F16  1  0.568356  0.431644  0.377303  1
  F  F17  1  0.103442  0.896558  0.300009  1
