# generated using pymatgen
data_UVC2
_symmetry_space_group_name_H-M   'P 1'
_cell_length_a   3.19117739
_cell_length_b   5.56007650
_cell_length_c   10.77836691
_cell_angle_alpha   90.00000000
_cell_angle_beta   90.00000000
_cell_angle_gamma   90.00000000
_symmetry_Int_Tables_number   1
_chemical_formula_structural   UVC2
_chemical_formula_sum   'U4 V4 C8'
_cell_volume   191.24261643
_cell_formula_units_Z   4
loop_
 _symmetry_equiv_pos_site_id
 _symmetry_equiv_pos_as_xyz
  1  'x, y, z'
loop_
 _atom_site_type_symbol
 _atom_site_label
 _atom_site_symmetry_multiplicity
 _atom_site_fract_x
 _atom_site_fract_y
 _atom_site_fract_z
 _atom_site_occupancy
  U  U0  1  0.250000  0.578297  0.641238  1
  U  U1  1  0.750000  0.421703  0.358762  1
  U  U2  1  0.250000  0.078297  0.858762  1
  U  U3  1  0.750000  0.921703  0.141238  1
  V  V4  1  0.750000  0.578336  0.899351  1
  V  V5  1  0.750000  0.078336  0.600649  1
  V  V6  1  0.250000  0.421664  0.100649  1
  V  V7  1  0.250000  0.921664  0.399351  1
  C  C8  1  0.250000  0.234763  0.509299  1
  C  C9  1  0.750000  0.765237  0.490701  1
  C  C10  1  0.250000  0.734763  0.990701  1
  C  C11  1  0.750000  0.265237  0.009299  1
  C  C12  1  0.250000  0.668036  0.254073  1
  C  C13  1  0.750000  0.831964  0.754073  1
  C  C14  1  0.250000  0.168036  0.245927  1
  C  C15  1  0.750000  0.331964  0.745927  1
