# generated using pymatgen
data_LiAgF2
_symmetry_space_group_name_H-M   'P 1'
_cell_length_a   3.03508813
_cell_length_b   3.03508813
_cell_length_c   6.09283480
_cell_angle_alpha   89.03485564
_cell_angle_beta   90.96514436
_cell_angle_gamma   119.37695678
_symmetry_Int_Tables_number   1
_chemical_formula_structural   LiAgF2
_chemical_formula_sum   'Li1 Ag1 F2'
_cell_volume   48.89927907
_cell_formula_units_Z   1
loop_
 _symmetry_equiv_pos_site_id
 _symmetry_equiv_pos_as_xyz
  1  'x, y, z'
loop_
 _atom_site_type_symbol
 _atom_site_label
 _atom_site_symmetry_multiplicity
 _atom_site_fract_x
 _atom_site_fract_y
 _atom_site_fract_z
 _atom_site_occupancy
  Li  Li0  1  0.500000  0.500000  0.500000  1
  Ag  Ag1  1  0.000000  0.000000  0.000000  1
  F  F2  1  0.171696  0.828304  0.681012  1
  F  F3  1  0.828304  0.171696  0.318988  1
