# generated using pymatgen
data_Li4Co3Cu3(WO8)2
_symmetry_space_group_name_H-M   'P 1'
_cell_length_a   5.90276159
_cell_length_b   5.90276159
_cell_length_c   9.59259758
_cell_angle_alpha   86.32187728
_cell_angle_beta   93.67812272
_cell_angle_gamma   121.48502861
_symmetry_Int_Tables_number   1
_chemical_formula_structural   Li4Co3Cu3(WO8)2
_chemical_formula_sum   'Li4 Co3 Cu3 W2 O16'
_cell_volume   284.25279464
_cell_formula_units_Z   1
loop_
 _symmetry_equiv_pos_site_id
 _symmetry_equiv_pos_as_xyz
  1  'x, y, z'
loop_
 _atom_site_type_symbol
 _atom_site_label
 _atom_site_symmetry_multiplicity
 _atom_site_fract_x
 _atom_site_fract_y
 _atom_site_fract_z
 _atom_site_occupancy
  Li  Li0  1  0.671315  0.328685  0.095235  1
  Li  Li1  1  0.995498  0.004502  0.009854  1
  Li  Li2  1  0.994036  0.005964  0.511511  1
  Li  Li3  1  0.344061  0.655939  0.590439  1
  Co  Co4  1  0.829764  0.170236  0.783499  1
  Co  Co5  1  0.659651  0.832906  0.286792  1
  Co  Co6  1  0.167094  0.340349  0.286792  1
  Cu  Cu7  1  0.824425  0.661686  0.786271  1
  Cu  Cu8  1  0.338314  0.175575  0.786271  1
  Cu  Cu9  1  0.166928  0.833072  0.285491  1
  W  W10  1  0.677014  0.322986  0.507557  1
  W  W11  1  0.330710  0.669290  0.014805  1
  O  O12  1  0.825465  0.665291  0.413255  1
  O  O13  1  0.529675  0.470325  0.642911  1
  O  O14  1  0.674569  0.325431  0.876603  1
  O  O15  1  0.991797  0.008203  0.705038  1
  O  O16  1  0.991833  0.008167  0.198836  1
  O  O17  1  0.334709  0.174535  0.413255  1
  O  O18  1  0.975709  0.451369  0.643689  1
  O  O19  1  0.548631  0.024291  0.643689  1
  O  O20  1  0.160624  0.839376  0.924693  1
  O  O21  1  0.829103  0.170897  0.391754  1
  O  O22  1  0.495288  0.961622  0.156251  1
  O  O23  1  0.038378  0.504712  0.156251  1
  O  O24  1  0.338395  0.661605  0.382401  1
  O  O25  1  0.646176  0.850036  0.914989  1
  O  O26  1  0.478589  0.521411  0.170293  1
  O  O27  1  0.149964  0.353824  0.914989  1
