# generated using pymatgen
data_LiCo2C2O7
_symmetry_space_group_name_H-M   'P 1'
_cell_length_a   4.79492200
_cell_length_b   4.79492200
_cell_length_c   15.66035064
_cell_angle_alpha   89.17578242
_cell_angle_beta   90.82421758
_cell_angle_gamma   60.47648265
_symmetry_Int_Tables_number   1
_chemical_formula_structural   LiCo2C2O7
_chemical_formula_sum   'Li2 Co4 C4 O14'
_cell_volume   313.17220018
_cell_formula_units_Z   2
loop_
 _symmetry_equiv_pos_site_id
 _symmetry_equiv_pos_as_xyz
  1  'x, y, z'
loop_
 _atom_site_type_symbol
 _atom_site_label
 _atom_site_symmetry_multiplicity
 _atom_site_fract_x
 _atom_site_fract_y
 _atom_site_fract_z
 _atom_site_occupancy
  Li  Li0  1  0.994864  0.002207  0.501139  1
  Li  Li1  1  0.997793  0.005136  0.001139  1
  Co  Co2  1  0.334989  0.316096  0.634524  1
  Co  Co3  1  0.315051  0.356851  0.861656  1
  Co  Co4  1  0.683904  0.665011  0.134524  1
  Co  Co5  1  0.643149  0.684949  0.361656  1
  C  C6  1  0.666515  0.665913  0.586297  1
  C  C7  1  0.663123  0.671257  0.913545  1
  C  C8  1  0.328743  0.336877  0.413545  1
  C  C9  1  0.334087  0.333485  0.086297  1
  O  O10  1  0.684261  0.927503  0.584333  1
  O  O11  1  0.318629  0.610591  0.089225  1
  O  O12  1  0.929184  0.681937  0.917134  1
  O  O13  1  0.067816  0.610512  0.410624  1
  O  O14  1  0.389488  0.932184  0.910624  1
  O  O15  1  0.605994  0.323557  0.414521  1
  O  O16  1  0.363008  0.315177  0.753357  1
  O  O17  1  0.684823  0.636992  0.253357  1
  O  O18  1  0.389409  0.681371  0.589225  1
  O  O19  1  0.610202  0.073648  0.083671  1
  O  O20  1  0.926352  0.389798  0.583671  1
  O  O21  1  0.072497  0.315739  0.084333  1
  O  O22  1  0.676443  0.394006  0.914521  1
  O  O23  1  0.318063  0.070816  0.417134  1
