# generated using pymatgen
data_Li2FePCO7
_symmetry_space_group_name_H-M   'P 1'
_cell_length_a   5.07340241
_cell_length_b   8.45584857
_cell_length_c   12.83393652
_cell_angle_alpha   94.48551746
_cell_angle_beta   93.64364106
_cell_angle_gamma   95.52513926
_symmetry_Int_Tables_number   1
_chemical_formula_structural   Li2FePCO7
_chemical_formula_sum   'Li8 Fe4 P4 C4 O28'
_cell_volume   544.93496912
_cell_formula_units_Z   4
loop_
 _symmetry_equiv_pos_site_id
 _symmetry_equiv_pos_as_xyz
  1  'x, y, z'
loop_
 _atom_site_type_symbol
 _atom_site_label
 _atom_site_symmetry_multiplicity
 _atom_site_fract_x
 _atom_site_fract_y
 _atom_site_fract_z
 _atom_site_occupancy
  Li  Li0  1  0.244484  0.257970  0.282108  1
  Li  Li1  1  0.283364  0.918539  0.097817  1
  Li  Li2  1  0.207707  0.248754  0.775774  1
  Li  Li3  1  0.126812  0.219262  0.508356  1
  Li  Li4  1  0.716636  0.081461  0.902183  1
  Li  Li5  1  0.873188  0.780738  0.491644  1
  Li  Li6  1  0.792293  0.751246  0.224226  1
  Li  Li7  1  0.755516  0.742030  0.717892  1
  Fe  Fe8  1  0.301455  0.655881  0.877337  1
  Fe  Fe9  1  0.323268  0.660747  0.376965  1
  Fe  Fe10  1  0.698545  0.344119  0.122663  1
  Fe  Fe11  1  0.676732  0.339253  0.623035  1
  P  P12  1  0.238830  0.583568  0.121907  1
  P  P13  1  0.215710  0.574888  0.621643  1
  P  P14  1  0.761170  0.416432  0.878093  1
  P  P15  1  0.784290  0.425112  0.378357  1
  C  C16  1  0.170181  0.936158  0.858207  1
  C  C17  1  0.249023  0.949524  0.377970  1
  C  C18  1  0.829819  0.063842  0.141793  1
  C  C19  1  0.750977  0.050476  0.622030  1
  O  O20  1  0.418335  0.914620  0.882811  1
  O  O21  1  0.360072  0.427866  0.093843  1
  O  O22  1  0.392692  0.677221  0.220970  1
  O  O23  1  0.480788  0.898849  0.391874  1
  O  O24  1  0.324396  0.412439  0.589008  1
  O  O25  1  0.383266  0.654343  0.719993  1
  O  O26  1  0.259266  0.697726  0.032748  1
  O  O27  1  0.085128  0.073115  0.856921  1
  O  O28  1  0.226028  0.682420  0.529922  1
  O  O29  1  0.204875  0.094830  0.381868  1
  O  O30  1  0.058980  0.451609  0.855497  1
  O  O31  1  0.989504  0.195110  0.160090  1
  O  O32  1  0.082288  0.456495  0.351765  1
  O  O33  1  0.950949  0.168675  0.640413  1
  O  O34  1  0.010496  0.804890  0.839910  1
  O  O35  1  0.941020  0.548391  0.144503  1
  O  O36  1  0.049051  0.831325  0.359587  1
  O  O37  1  0.917712  0.543505  0.648235  1
  O  O38  1  0.914872  0.926885  0.143079  1
  O  O39  1  0.740734  0.302274  0.967252  1
  O  O40  1  0.795125  0.905170  0.618132  1
  O  O41  1  0.773972  0.317580  0.470078  1
  O  O42  1  0.639928  0.572134  0.906157  1
  O  O43  1  0.581665  0.085380  0.117189  1
  O  O44  1  0.616734  0.345657  0.280007  1
  O  O45  1  0.675604  0.587561  0.410992  1
  O  O46  1  0.519212  0.101151  0.608126  1
  O  O47  1  0.607308  0.322779  0.779030  1
