# generated using pymatgen
data_Mn4CuO8
_symmetry_space_group_name_H-M   'P 1'
_cell_length_a   6.01074185
_cell_length_b   6.01074185
_cell_length_c   6.01617967
_cell_angle_alpha   60.96288810
_cell_angle_beta   119.03711190
_cell_angle_gamma   122.12739198
_symmetry_Int_Tables_number   1
_chemical_formula_structural   Mn4CuO8
_chemical_formula_sum   'Mn4 Cu1 O8'
_cell_volume   153.16928879
_cell_formula_units_Z   1
loop_
 _symmetry_equiv_pos_site_id
 _symmetry_equiv_pos_as_xyz
  1  'x, y, z'
loop_
 _atom_site_type_symbol
 _atom_site_label
 _atom_site_symmetry_multiplicity
 _atom_site_fract_x
 _atom_site_fract_y
 _atom_site_fract_z
 _atom_site_occupancy
  Mn  Mn0  1  0.500000  0.500000  0.500000  1
  Mn  Mn1  1  0.000000  0.000000  0.000000  1
  Mn  Mn2  1  0.000000  0.500000  0.000000  1
  Mn  Mn3  1  0.500000  1.000000  0.000000  1
  Cu  Cu4  1  0.500000  0.500000  0.000000  1
  O  O5  1  0.737412  0.262588  0.198482  1
  O  O6  1  0.720226  0.777869  0.197997  1
  O  O7  1  0.222131  0.279774  0.197997  1
  O  O8  1  0.257509  0.742491  0.220544  1
  O  O9  1  0.742491  0.257509  0.779456  1
  O  O10  1  0.777869  0.720226  0.802003  1
  O  O11  1  0.279774  0.222131  0.802003  1
  O  O12  1  0.262588  0.737412  0.801518  1
