# generated using pymatgen
data_Li13Mn2O9
_symmetry_space_group_name_H-M   'P 1'
_cell_length_a   5.72910005
_cell_length_b   5.79712549
_cell_length_c   8.21602000
_cell_angle_alpha   88.81535159
_cell_angle_beta   87.86052741
_cell_angle_gamma   60.45811844
_symmetry_Int_Tables_number   1
_chemical_formula_structural   Li13Mn2O9
_chemical_formula_sum   'Li13 Mn2 O9'
_cell_volume   237.23200878
_cell_formula_units_Z   1
loop_
 _symmetry_equiv_pos_site_id
 _symmetry_equiv_pos_as_xyz
  1  'x, y, z'
loop_
 _atom_site_type_symbol
 _atom_site_label
 _atom_site_symmetry_multiplicity
 _atom_site_fract_x
 _atom_site_fract_y
 _atom_site_fract_z
 _atom_site_occupancy
  Li  Li0  1  0.707992  0.319346  0.562130  1
  Li  Li1  1  0.666855  0.310269  0.064507  1
  Li  Li2  1  0.399716  0.312541  0.787451  1
  Li  Li3  1  0.989770  0.980126  0.785780  1
  Li  Li4  1  0.025988  0.624414  0.582565  1
  Li  Li5  1  0.023859  0.700416  0.046311  1
  Li  Li6  1  0.287327  0.047452  0.574117  1
  Li  Li7  1  0.032824  0.313795  0.934596  1
  Li  Li8  1  0.691030  0.970142  0.420698  1
  Li  Li9  1  0.723712  0.618539  0.249932  1
  Li  Li10  1  0.010227  0.021163  0.249842  1
  Li  Li11  1  0.381568  0.950836  0.064642  1
  Li  Li12  1  0.351269  0.671900  0.414078  1
  Mn  Mn13  1  0.296914  0.326444  0.264114  1
  Mn  Mn14  1  0.625798  0.683332  0.780587  1
  O  O15  1  0.648258  0.321767  0.331476  1
  O  O16  1  0.330416  0.326338  0.019452  1
  O  O17  1  0.017343  0.683087  0.337075  1
  O  O18  1  0.377249  0.963913  0.329533  1
  O  O19  1  0.665412  0.981939  0.663838  1
  O  O20  1  0.980477  0.340247  0.692493  1
  O  O21  1  0.716250  0.638384  0.006744  1
  O  O22  1  0.025052  0.015627  0.013828  1
  O  O23  1  0.350514  0.660632  0.654146  1
