# generated using pymatgen
data_LiAg2F6
_symmetry_space_group_name_H-M   'P 1'
_cell_length_a   5.47439750
_cell_length_b   5.47439750
_cell_length_c   4.81775358
_cell_angle_alpha   90.00000000
_cell_angle_beta   90.00000000
_cell_angle_gamma   120.00000000
_symmetry_Int_Tables_number   1
_chemical_formula_structural   LiAg2F6
_chemical_formula_sum   'Li1 Ag2 F6'
_cell_volume   125.03968519
_cell_formula_units_Z   1
loop_
 _symmetry_equiv_pos_site_id
 _symmetry_equiv_pos_as_xyz
  1  'x, y, z'
loop_
 _atom_site_type_symbol
 _atom_site_label
 _atom_site_symmetry_multiplicity
 _atom_site_fract_x
 _atom_site_fract_y
 _atom_site_fract_z
 _atom_site_occupancy
  Li  Li0  1  0.000000  0.000000  0.000000  1
  Ag  Ag1  1  0.333333  0.666667  0.743048  1
  Ag  Ag2  1  0.666667  0.333333  0.256952  1
  F  F3  1  0.657151  0.657151  0.000000  1
  F  F4  1  0.354444  0.354444  0.500000  1
  F  F5  1  0.000000  0.645556  0.500000  1
  F  F6  1  0.000000  0.342849  0.000000  1
  F  F7  1  0.342849  0.000000  0.000000  1
  F  F8  1  0.645556  0.000000  0.500000  1
