# generated using pymatgen
data_CoPO4
_symmetry_space_group_name_H-M   'P 1'
_cell_length_a   8.66020091
_cell_length_b   8.66020091
_cell_length_c   8.66020091
_cell_angle_alpha   108.18168144
_cell_angle_beta   108.18168144
_cell_angle_gamma   108.18168144
_symmetry_Int_Tables_number   1
_chemical_formula_structural   CoPO4
_chemical_formula_sum   'Co6 P6 O24'
_cell_volume   522.49960284
_cell_formula_units_Z   6
loop_
 _symmetry_equiv_pos_site_id
 _symmetry_equiv_pos_as_xyz
  1  'x, y, z'
loop_
 _atom_site_type_symbol
 _atom_site_label
 _atom_site_symmetry_multiplicity
 _atom_site_fract_x
 _atom_site_fract_y
 _atom_site_fract_z
 _atom_site_occupancy
  Co  Co0  1  0.528506  0.942982  0.760216  1
  Co  Co1  1  0.452758  0.044428  0.236853  1
  Co  Co2  1  0.236853  0.452758  0.044428  1
  Co  Co3  1  0.760216  0.528506  0.942982  1
  Co  Co4  1  0.942982  0.760216  0.528506  1
  Co  Co5  1  0.044428  0.236853  0.452758  1
  P  P6  1  0.387860  0.570778  0.795670  1
  P  P7  1  0.570778  0.795670  0.387860  1
  P  P8  1  0.879464  0.283561  0.089790  1
  P  P9  1  0.089790  0.879464  0.283561  1
  P  P10  1  0.283561  0.089790  0.879464  1
  P  P11  1  0.795670  0.387860  0.570778  1
  O  O12  1  0.586419  0.612016  0.906650  1
  O  O13  1  0.719719  0.383942  0.709689  1
  O  O14  1  0.289570  0.585258  0.918258  1
  O  O15  1  0.081314  0.990070  0.734382  1
  O  O16  1  0.635546  0.284470  0.375313  1
  O  O17  1  0.918258  0.289570  0.585258  1
  O  O18  1  0.612016  0.906650  0.586419  1
  O  O19  1  0.709689  0.719719  0.383942  1
  O  O20  1  0.086859  0.781727  0.406874  1
  O  O21  1  0.781727  0.406874  0.086859  1
  O  O22  1  0.906650  0.586419  0.612016  1
  O  O23  1  0.990070  0.734382  0.081314  1
  O  O24  1  0.286950  0.001634  0.332960  1
  O  O25  1  0.284470  0.375313  0.635546  1
  O  O26  1  0.383942  0.709689  0.719719  1
  O  O27  1  0.734382  0.081314  0.990070  1
  O  O28  1  0.406874  0.086859  0.781727  1
  O  O29  1  0.332960  0.286950  0.001634  1
  O  O30  1  0.990113  0.998677  0.317135  1
  O  O31  1  0.001634  0.332960  0.286950  1
  O  O32  1  0.375313  0.635546  0.284470  1
  O  O33  1  0.998677  0.317135  0.990113  1
  O  O34  1  0.585258  0.918258  0.289570  1
  O  O35  1  0.317135  0.990113  0.998677  1
