# generated using pymatgen
data_Fe3OF5
_symmetry_space_group_name_H-M   'P 1'
_cell_length_a   5.78886085
_cell_length_b   5.82870706
_cell_length_c   7.50616275
_cell_angle_alpha   73.00626196
_cell_angle_beta   72.57955858
_cell_angle_gamma   71.33211766
_symmetry_Int_Tables_number   1
_chemical_formula_structural   Fe3OF5
_chemical_formula_sum   'Fe6 O2 F10'
_cell_volume   223.46835410
_cell_formula_units_Z   2
loop_
 _symmetry_equiv_pos_site_id
 _symmetry_equiv_pos_as_xyz
  1  'x, y, z'
loop_
 _atom_site_type_symbol
 _atom_site_label
 _atom_site_symmetry_multiplicity
 _atom_site_fract_x
 _atom_site_fract_y
 _atom_site_fract_z
 _atom_site_occupancy
  Fe  Fe0  1  0.651254  0.665074  0.846414  1
  Fe  Fe1  1  0.338173  0.339811  0.649334  1
  Fe  Fe2  1  0.650341  0.663066  0.327965  1
  Fe  Fe3  1  0.338660  0.363928  0.169603  1
  Fe  Fe4  1  0.996794  0.002742  0.495435  1
  Fe  Fe5  1  0.020915  0.980412  0.005820  1
  O  O6  1  0.422647  0.422493  0.381229  1
  O  O7  1  0.307355  0.679610  0.008103  1
  F  F8  1  0.029829  0.631963  0.675327  1
  F  F9  1  0.361933  0.987660  0.316420  1
  F  F10  1  0.885170  0.894360  0.311287  1
  F  F11  1  0.248440  0.244695  0.948215  1
  F  F12  1  0.559044  0.550400  0.637482  1
  F  F13  1  0.772452  0.768901  0.036437  1
  F  F14  1  0.109063  0.118312  0.688063  1
  F  F15  1  0.977407  0.368957  0.317952  1
  F  F16  1  0.628164  0.039591  0.672665  1
  F  F17  1  0.702360  0.278027  0.012249  1
