# generated using pymatgen
data_Li5VCr3O8
_symmetry_space_group_name_H-M   'P 1'
_cell_length_a   5.99921700
_cell_length_b   5.99921700
_cell_length_c   9.92874914
_cell_angle_alpha   90.00000000
_cell_angle_beta   90.00000000
_cell_angle_gamma   120.00000000
_symmetry_Int_Tables_number   1
_chemical_formula_structural   Li5VCr3O8
_chemical_formula_sum   'Li10 V2 Cr6 O16'
_cell_volume   309.46697694
_cell_formula_units_Z   2
loop_
 _symmetry_equiv_pos_site_id
 _symmetry_equiv_pos_as_xyz
  1  'x, y, z'
loop_
 _atom_site_type_symbol
 _atom_site_label
 _atom_site_symmetry_multiplicity
 _atom_site_fract_x
 _atom_site_fract_y
 _atom_site_fract_z
 _atom_site_occupancy
  Li  Li0  1  0.195327  0.804673  0.047295  1
  Li  Li1  1  0.609346  0.804673  0.047295  1
  Li  Li2  1  0.333333  0.666667  0.261394  1
  Li  Li3  1  0.195327  0.390654  0.047295  1
  Li  Li4  1  0.804673  0.609346  0.547295  1
  Li  Li5  1  0.000000  0.000000  0.471100  1
  Li  Li6  1  0.666667  0.333333  0.761394  1
  Li  Li7  1  0.390654  0.195327  0.547295  1
  Li  Li8  1  0.000000  0.000000  0.971100  1
  Li  Li9  1  0.804673  0.195327  0.547295  1
  V  V10  1  0.333333  0.666667  0.511465  1
  V  V11  1  0.666667  0.333333  0.011465  1
  Cr  Cr12  1  0.168155  0.831845  0.772838  1
  Cr  Cr13  1  0.663690  0.831845  0.772838  1
  Cr  Cr14  1  0.168155  0.336310  0.772838  1
  Cr  Cr15  1  0.831845  0.663690  0.272838  1
  Cr  Cr16  1  0.336310  0.168155  0.272838  1
  Cr  Cr17  1  0.831845  0.168155  0.272838  1
  O  O18  1  0.159789  0.840211  0.388258  1
  O  O19  1  0.492093  0.984185  0.655709  1
  O  O20  1  0.333333  0.666667  0.887839  1
  O  O21  1  0.680423  0.840211  0.388258  1
  O  O22  1  0.015815  0.507907  0.655709  1
  O  O23  1  0.492093  0.507907  0.655709  1
  O  O24  1  0.159789  0.319577  0.388258  1
  O  O25  1  0.840211  0.680423  0.888258  1
  O  O26  1  0.507907  0.492093  0.155709  1
  O  O27  1  0.666667  0.333333  0.387839  1
  O  O28  1  0.984185  0.492093  0.155709  1
  O  O29  1  0.000000  0.000000  0.160977  1
  O  O30  1  0.319577  0.159789  0.888258  1
  O  O31  1  0.000000  0.000000  0.660977  1
  O  O32  1  0.507907  0.015815  0.155709  1
  O  O33  1  0.840211  0.159789  0.888258  1
