# generated using pymatgen
data_Er3Sb5O12
_symmetry_space_group_name_H-M   'P 1'
_cell_length_a   9.39762382
_cell_length_b   9.39762382
_cell_length_c   9.39762382
_cell_angle_alpha   109.47122063
_cell_angle_beta   109.47122063
_cell_angle_gamma   109.47122063
_symmetry_Int_Tables_number   1
_chemical_formula_structural   Er3Sb5O12
_chemical_formula_sum   'Er6 Sb10 O24'
_cell_volume   638.89910294
_cell_formula_units_Z   2
loop_
 _symmetry_equiv_pos_site_id
 _symmetry_equiv_pos_as_xyz
  1  'x, y, z'
loop_
 _atom_site_type_symbol
 _atom_site_label
 _atom_site_symmetry_multiplicity
 _atom_site_fract_x
 _atom_site_fract_y
 _atom_site_fract_z
 _atom_site_occupancy
  Er  Er0  1  0.750000  0.250000  0.500000  1
  Er  Er1  1  0.750000  0.500000  0.250000  1
  Er  Er2  1  0.500000  0.250000  0.750000  1
  Er  Er3  1  0.500000  0.750000  0.250000  1
  Er  Er4  1  0.250000  0.750000  0.500000  1
  Er  Er5  1  0.250000  0.500000  0.750000  1
  Sb  Sb6  1  0.516809  0.000000  1.000000  1
  Sb  Sb7  1  0.283839  0.000000  0.283839  1
  Sb  Sb8  1  0.283839  0.283839  0.000000  1
  Sb  Sb9  1  0.716161  0.000000  0.716161  1
  Sb  Sb10  1  0.716161  0.716161  0.000000  1
  Sb  Sb11  1  0.000000  0.516809  0.000000  1
  Sb  Sb12  1  0.000000  0.000000  0.516809  1
  Sb  Sb13  1  0.483191  0.483191  0.483191  1
  Sb  Sb14  1  1.000000  0.283839  0.283839  1
  Sb  Sb15  1  1.000000  0.716161  0.716161  1
  O  O16  1  0.481189  0.000000  0.202385  1
  O  O17  1  0.481189  0.202385  0.000000  1
  O  O18  1  0.702510  0.500509  1.000000  1
  O  O19  1  0.702510  0.000000  0.500509  1
  O  O20  1  0.797998  0.297490  0.297490  1
  O  O21  1  0.499492  0.499492  0.202002  1
  O  O22  1  0.499492  0.202002  0.499492  1
  O  O23  1  0.500509  0.702510  0.000000  1
  O  O24  1  0.500509  0.000000  0.702510  1
  O  O25  1  0.721196  0.518811  0.518811  1
  O  O26  1  0.797615  0.278804  0.797615  1
  O  O27  1  0.797615  0.797615  0.278804  1
  O  O28  1  0.202385  0.481189  0.000000  1
  O  O29  1  0.202385  0.000000  0.481189  1
  O  O30  1  0.518811  0.721196  0.518811  1
  O  O31  1  0.518811  0.518811  0.721196  1
  O  O32  1  0.000000  0.481189  0.202385  1
  O  O33  1  0.000000  0.202385  0.481189  1
  O  O34  1  0.297490  0.797998  0.297490  1
  O  O35  1  0.297490  0.297490  0.797998  1
  O  O36  1  0.202002  0.499492  0.499492  1
  O  O37  1  0.000000  0.702510  0.500509  1
  O  O38  1  1.000000  0.500509  0.702510  1
  O  O39  1  0.278804  0.797615  0.797615  1
