# generated using pymatgen
data_Li5Mn4P4O16F
_symmetry_space_group_name_H-M   'P 1'
_cell_length_a   8.32109509
_cell_length_b   8.32109509
_cell_length_c   8.32109509
_cell_angle_alpha   95.77711611
_cell_angle_beta   95.77711611
_cell_angle_gamma   143.00443877
_symmetry_Int_Tables_number   1
_chemical_formula_structural   Li5Mn4P4O16F
_chemical_formula_sum   'Li5 Mn4 P4 O16 F1'
_cell_volume   328.79260362
_cell_formula_units_Z   1
loop_
 _symmetry_equiv_pos_site_id
 _symmetry_equiv_pos_as_xyz
  1  'x, y, z'
loop_
 _atom_site_type_symbol
 _atom_site_label
 _atom_site_symmetry_multiplicity
 _atom_site_fract_x
 _atom_site_fract_y
 _atom_site_fract_z
 _atom_site_occupancy
  Li  Li0  1  0.500000  0.500000  0.000000  1
  Li  Li1  1  0.989147  0.659839  0.545231  1
  Li  Li2  1  0.556084  0.010853  0.670692  1
  Li  Li3  1  0.340161  0.885392  0.329308  1
  Li  Li4  1  0.114608  0.443916  0.454769  1
  Mn  Mn5  1  0.118724  0.834799  0.952155  1
  Mn  Mn6  1  0.165201  0.117356  0.283926  1
  Mn  Mn7  1  0.833431  0.881276  0.716074  1
  Mn  Mn8  1  0.882644  0.166569  0.047845  1
  P  P9  1  0.439670  0.274839  0.654625  1
  P  P10  1  0.214955  0.560330  0.835169  1
  P  P11  1  0.725161  0.379786  0.164831  1
  P  P12  1  0.620214  0.785045  0.345375  1
  O  O13  1  0.301377  0.172331  0.800058  1
  O  O14  1  0.768938  0.564732  0.727264  1
  O  O15  1  0.668752  0.212229  0.005101  1
  O  O16  1  0.787771  0.792872  0.456524  1
  O  O17  1  0.374127  0.054598  0.550726  1
  O  O18  1  0.176598  0.625873  0.680471  1
  O  O19  1  0.498682  0.698623  0.870954  1
  O  O20  1  0.958325  0.231062  0.795793  1
  O  O21  1  0.435268  0.162532  0.204207  1
  O  O22  1  0.827669  0.627727  0.129046  1
  O  O23  1  0.945402  0.496127  0.319529  1
  O  O24  1  0.503872  0.823402  0.449274  1
  O  O25  1  0.336348  0.331248  0.543476  1
  O  O26  1  0.207128  0.663652  0.994899  1
  O  O27  1  0.837468  0.041675  0.272736  1
  O  O28  1  0.372273  0.501318  0.199942  1
  F  F29  1  0.000000  0.000000  0.000000  1
