# generated using pymatgen
data_Li5V3CrO8
_symmetry_space_group_name_H-M   'P 1'
_cell_length_a   6.02248289
_cell_length_b   6.02248289
_cell_length_c   9.92334727
_cell_angle_alpha   89.84166089
_cell_angle_beta   90.15833911
_cell_angle_gamma   59.41613896
_symmetry_Int_Tables_number   1
_chemical_formula_structural   Li5V3CrO8
_chemical_formula_sum   'Li10 V6 Cr2 O16'
_cell_volume   309.84744514
_cell_formula_units_Z   2
loop_
 _symmetry_equiv_pos_site_id
 _symmetry_equiv_pos_as_xyz
  1  'x, y, z'
loop_
 _atom_site_type_symbol
 _atom_site_label
 _atom_site_symmetry_multiplicity
 _atom_site_fract_x
 _atom_site_fract_y
 _atom_site_fract_z
 _atom_site_occupancy
  Li  Li0  1  0.014891  0.985161  0.513168  1
  Li  Li1  1  0.346763  0.316519  0.725617  1
  Li  Li2  1  0.209053  0.594330  0.944603  1
  Li  Li3  1  0.623605  0.180680  0.941668  1
  Li  Li4  1  0.208964  0.181625  0.941607  1
  Li  Li5  1  0.818375  0.791036  0.441607  1
  Li  Li6  1  0.683481  0.653237  0.225617  1
  Li  Li7  1  0.405670  0.790947  0.444603  1
  Li  Li8  1  0.819320  0.376395  0.441668  1
  Li  Li9  1  0.014839  0.985109  0.013168  1
  V  V10  1  0.188341  0.645626  0.213379  1
  V  V11  1  0.354374  0.811659  0.713379  1
  V  V12  1  0.671950  0.158721  0.211081  1
  V  V13  1  0.186489  0.153776  0.213034  1
  V  V14  1  0.846224  0.813511  0.713034  1
  V  V15  1  0.841279  0.328050  0.711081  1
  Cr  Cr16  1  0.346261  0.318062  0.472862  1
  Cr  Cr17  1  0.681938  0.653739  0.972862  1
  O  O18  1  0.181429  0.650082  0.589165  1
  O  O19  1  0.496917  0.480945  0.342460  1
  O  O20  1  0.017719  0.976883  0.823102  1
  O  O21  1  0.681745  0.144177  0.588939  1
  O  O22  1  0.035331  0.475912  0.340557  1
  O  O23  1  0.332430  0.325715  0.093352  1
  O  O24  1  0.496276  0.008464  0.340244  1
  O  O25  1  0.856060  0.814471  0.089124  1
  O  O26  1  0.185529  0.143940  0.589124  1
  O  O27  1  0.524088  0.964669  0.840557  1
  O  O28  1  0.349918  0.818571  0.089165  1
  O  O29  1  0.991536  0.503724  0.840244  1
  O  O30  1  0.674285  0.667570  0.593352  1
  O  O31  1  0.519055  0.503083  0.842460  1
  O  O32  1  0.855823  0.318255  0.088939  1
  O  O33  1  0.023117  0.982281  0.323102  1
