# generated using pymatgen
data_Li2Fe3Co7O20
_symmetry_space_group_name_H-M   'P 1'
_cell_length_a   5.86505914
_cell_length_b   2.88056330
_cell_length_c   20.51243681
_cell_angle_alpha   90.00000000
_cell_angle_beta   97.40935688
_cell_angle_gamma   90.00000000
_symmetry_Int_Tables_number   1
_chemical_formula_structural   Li2Fe3Co7O20
_chemical_formula_sum   'Li2 Fe3 Co7 O20'
_cell_volume   343.65727470
_cell_formula_units_Z   1
loop_
 _symmetry_equiv_pos_site_id
 _symmetry_equiv_pos_as_xyz
  1  'x, y, z'
loop_
 _atom_site_type_symbol
 _atom_site_label
 _atom_site_symmetry_multiplicity
 _atom_site_fract_x
 _atom_site_fract_y
 _atom_site_fract_z
 _atom_site_occupancy
  Li  Li0  1  0.000000  0.500000  0.500000  1
  Li  Li1  1  0.000000  0.000000  0.000000  1
  Fe  Fe2  1  0.901212  0.000000  0.797875  1
  Fe  Fe3  1  0.500000  0.000000  0.000000  1
  Fe  Fe4  1  0.098788  0.000000  0.202125  1
  Co  Co5  1  0.681884  0.000000  0.398837  1
  Co  Co6  1  0.500000  0.500000  0.500000  1
  Co  Co7  1  0.318116  0.000000  0.601163  1
  Co  Co8  1  0.103520  0.500000  0.696861  1
  Co  Co9  1  0.692498  0.500000  0.897524  1
  Co  Co10  1  0.307502  0.500000  0.102476  1
  Co  Co11  1  0.896480  0.500000  0.303139  1
  O  O12  1  0.481147  0.500000  0.407842  1
  O  O13  1  0.714855  0.000000  0.492569  1
  O  O14  1  0.285145  0.000000  0.507431  1
  O  O15  1  0.104908  0.500000  0.603762  1
  O  O16  1  0.518853  0.500000  0.592158  1
  O  O17  1  0.897335  0.000000  0.699250  1
  O  O18  1  0.312940  0.000000  0.691968  1
  O  O19  1  0.120582  0.500000  0.787445  1
  O  O20  1  0.682874  0.500000  0.807701  1
  O  O21  1  0.905808  0.000000  0.897688  1
  O  O22  1  0.488411  0.000000  0.902414  1
  O  O23  1  0.730779  0.500000  0.990898  1
  O  O24  1  0.269221  0.500000  0.009102  1
  O  O25  1  0.094192  0.000000  0.102312  1
  O  O26  1  0.511589  0.000000  0.097586  1
  O  O27  1  0.879418  0.500000  0.212555  1
  O  O28  1  0.317126  0.500000  0.192299  1
  O  O29  1  0.102665  0.000000  0.300750  1
  O  O30  1  0.687060  0.000000  0.308032  1
  O  O31  1  0.895092  0.500000  0.396238  1
