# generated using pymatgen
data_Li3Co(NiO2)4
_symmetry_space_group_name_H-M   'P 1'
_cell_length_a   5.83452412
_cell_length_b   5.83452412
_cell_length_c   5.80980813
_cell_angle_alpha   60.12537880
_cell_angle_beta   119.87462120
_cell_angle_gamma   120.86970562
_symmetry_Int_Tables_number   1
_chemical_formula_structural   Li3Co(NiO2)4
_chemical_formula_sum   'Li3 Co1 Ni4 O8'
_cell_volume   139.16546333
_cell_formula_units_Z   1
loop_
 _symmetry_equiv_pos_site_id
 _symmetry_equiv_pos_as_xyz
  1  'x, y, z'
loop_
 _atom_site_type_symbol
 _atom_site_label
 _atom_site_symmetry_multiplicity
 _atom_site_fract_x
 _atom_site_fract_y
 _atom_site_fract_z
 _atom_site_occupancy
  Li  Li0  1  0.500000  1.000000  0.000000  1
  Li  Li1  1  0.000000  0.000000  0.500000  1
  Li  Li2  1  0.000000  0.500000  0.000000  1
  Co  Co3  1  0.500000  0.500000  0.000000  1
  Ni  Ni4  1  0.000000  0.500000  0.500000  1
  Ni  Ni5  1  0.000000  0.000000  0.000000  1
  Ni  Ni6  1  0.500000  0.500000  0.500000  1
  Ni  Ni7  1  0.500000  1.000000  0.500000  1
  O  O8  1  0.737436  0.736458  0.763259  1
  O  O9  1  0.262564  0.263542  0.236741  1
  O  O10  1  0.269882  0.730118  0.751573  1
  O  O11  1  0.730118  0.269882  0.248427  1
  O  O12  1  0.249645  0.750355  0.278017  1
  O  O13  1  0.750355  0.249645  0.721983  1
  O  O14  1  0.263542  0.262564  0.763259  1
  O  O15  1  0.736458  0.737436  0.236741  1
