# generated using pymatgen
data_Na5V7O14
_symmetry_space_group_name_H-M   'P 1'
_cell_length_a   5.20066350
_cell_length_b   7.26682945
_cell_length_c   8.39236101
_cell_angle_alpha   90.59617121
_cell_angle_beta   102.66111688
_cell_angle_gamma   98.17344884
_symmetry_Int_Tables_number   1
_chemical_formula_structural   Na5V7O14
_chemical_formula_sum   'Na5 V7 O14'
_cell_volume   306.02732278
_cell_formula_units_Z   1
loop_
 _symmetry_equiv_pos_site_id
 _symmetry_equiv_pos_as_xyz
  1  'x, y, z'
loop_
 _atom_site_type_symbol
 _atom_site_label
 _atom_site_symmetry_multiplicity
 _atom_site_fract_x
 _atom_site_fract_y
 _atom_site_fract_z
 _atom_site_occupancy
  Na  Na0  1  0.077850  0.654852  0.651609  1
  Na  Na1  1  0.500000  0.500000  0.500000  1
  Na  Na2  1  0.922150  0.345148  0.348391  1
  Na  Na3  1  0.785230  0.067511  0.067920  1
  Na  Na4  1  0.214770  0.932489  0.932080  1
  V  V5  1  0.852984  0.212797  0.712196  1
  V  V6  1  0.147016  0.787203  0.287804  1
  V  V7  1  0.575978  0.640817  0.146308  1
  V  V8  1  0.285708  0.073296  0.568682  1
  V  V9  1  0.000000  0.500000  0.000000  1
  V  V10  1  0.714292  0.926704  0.431318  1
  V  V11  1  0.424022  0.359183  0.853692  1
  O  O12  1  0.756558  0.465717  0.774590  1
  O  O13  1  0.179294  0.330871  0.625654  1
  O  O14  1  0.820706  0.669129  0.374346  1
  O  O15  1  0.605416  0.179733  0.488252  1
  O  O16  1  0.243442  0.534283  0.225410  1
  O  O17  1  0.967944  0.960837  0.649494  1
  O  O18  1  0.902205  0.751849  0.062872  1
  O  O19  1  0.394584  0.820267  0.511748  1
  O  O20  1  0.032056  0.039163  0.350506  1
  O  O21  1  0.697545  0.390407  0.077333  1
  O  O22  1  0.302455  0.609593  0.922667  1
  O  O23  1  0.097795  0.248151  0.937128  1
  O  O24  1  0.482911  0.895787  0.206464  1
  O  O25  1  0.517089  0.104213  0.793536  1
