# generated using pymatgen
data_LiP2WO7
_symmetry_space_group_name_H-M   'P 1'
_cell_length_a   7.37456307
_cell_length_b   8.29882072
_cell_length_c   9.88065758
_cell_angle_alpha   90.00000000
_cell_angle_beta   110.90156262
_cell_angle_gamma   90.00000000
_symmetry_Int_Tables_number   1
_chemical_formula_structural   LiP2WO7
_chemical_formula_sum   'Li4 P8 W4 O28'
_cell_volume   564.90568538
_cell_formula_units_Z   4
loop_
 _symmetry_equiv_pos_site_id
 _symmetry_equiv_pos_as_xyz
  1  'x, y, z'
loop_
 _atom_site_type_symbol
 _atom_site_label
 _atom_site_symmetry_multiplicity
 _atom_site_fract_x
 _atom_site_fract_y
 _atom_site_fract_z
 _atom_site_occupancy
  Li  Li0  1  0.701393  0.521840  0.226813  1
  Li  Li1  1  0.701393  0.978160  0.726813  1
  Li  Li2  1  0.298607  0.021840  0.273187  1
  Li  Li3  1  0.298607  0.478160  0.773187  1
  P  P4  1  0.917428  0.742823  0.041785  1
  P  P5  1  0.917428  0.757177  0.541785  1
  P  P6  1  0.666261  0.283653  0.450334  1
  P  P7  1  0.333739  0.783653  0.049666  1
  P  P8  1  0.666261  0.216347  0.950334  1
  P  P9  1  0.333739  0.716347  0.549666  1
  P  P10  1  0.082572  0.242823  0.458215  1
  P  P11  1  0.082572  0.257177  0.958215  1
  W  W12  1  0.744078  0.998759  0.251458  1
  W  W13  1  0.744078  0.501241  0.751458  1
  W  W14  1  0.255922  0.498759  0.248542  1
  W  W15  1  0.255922  0.001241  0.748542  1
  O  O16  1  0.955343  0.587362  0.133893  1
  O  O17  1  0.814586  0.872270  0.093662  1
  O  O18  1  0.955343  0.912638  0.633893  1
  O  O19  1  0.873102  0.325028  0.433718  1
  O  O20  1  0.683881  0.209129  0.108602  1
  O  O21  1  0.814444  0.781518  0.379089  1
  O  O22  1  0.814586  0.627730  0.593662  1
  O  O23  1  0.605783  0.112216  0.391382  1
  O  O24  1  0.873102  0.174972  0.933718  1
  O  O25  1  0.683881  0.290871  0.608602  1
  O  O26  1  0.451633  0.916669  0.150247  1
  O  O27  1  0.814444  0.718482  0.879089  1
  O  O28  1  0.548367  0.416669  0.349753  1
  O  O29  1  0.394217  0.612216  0.108618  1
  O  O30  1  0.605783  0.387784  0.891382  1
  O  O31  1  0.451633  0.583331  0.650247  1
  O  O32  1  0.185556  0.281518  0.120911  1
  O  O33  1  0.548367  0.083331  0.849753  1
  O  O34  1  0.316119  0.709129  0.391398  1
  O  O35  1  0.126898  0.825028  0.066282  1
  O  O36  1  0.394217  0.887784  0.608618  1
  O  O37  1  0.185414  0.372270  0.406338  1
  O  O38  1  0.185556  0.218482  0.620911  1
  O  O39  1  0.316119  0.790871  0.891398  1
  O  O40  1  0.126898  0.674972  0.566282  1
  O  O41  1  0.044657  0.087362  0.366107  1
  O  O42  1  0.185414  0.127730  0.906338  1
  O  O43  1  0.044657  0.412638  0.866107  1
