# generated using pymatgen
data_Li4Mn3Fe(BO3)4
_symmetry_space_group_name_H-M   'P 1'
_cell_length_a   5.28293566
_cell_length_b   6.24850943
_cell_length_c   7.96155311
_cell_angle_alpha   77.55414990
_cell_angle_beta   88.06124180
_cell_angle_gamma   88.72725505
_symmetry_Int_Tables_number   1
_chemical_formula_structural   Li4Mn3Fe(BO3)4
_chemical_formula_sum   'Li4 Mn3 Fe1 B4 O12'
_cell_volume   256.46163823
_cell_formula_units_Z   1
loop_
 _symmetry_equiv_pos_site_id
 _symmetry_equiv_pos_as_xyz
  1  'x, y, z'
loop_
 _atom_site_type_symbol
 _atom_site_label
 _atom_site_symmetry_multiplicity
 _atom_site_fract_x
 _atom_site_fract_y
 _atom_site_fract_z
 _atom_site_occupancy
  Li  Li0  1  0.566205  0.870150  0.802727  1
  Li  Li1  1  0.932776  0.630434  0.697295  1
  Li  Li2  1  0.065332  0.368481  0.301552  1
  Li  Li3  1  0.432061  0.130354  0.197797  1
  Mn  Mn4  1  0.428407  0.410308  0.823773  1
  Mn  Mn5  1  0.069137  0.091698  0.676868  1
  Mn  Mn6  1  0.573186  0.590864  0.177233  1
  Fe  Fe7  1  0.931951  0.907493  0.326699  1
  B  B8  1  0.430599  0.765272  0.495933  1
  B  B9  1  0.926388  0.261562  0.000049  1
  B  B10  1  0.072926  0.737643  0.002382  1
  B  B11  1  0.571677  0.235532  0.500994  1
  O  O12  1  0.330967  0.703624  0.973977  1
  O  O13  1  0.921176  0.834070  0.867306  1
  O  O14  1  0.035273  0.340220  0.834899  1
  O  O15  1  0.169241  0.794825  0.519763  1
  O  O16  1  0.576885  0.666244  0.632195  1
  O  O17  1  0.543886  0.845072  0.332979  1
  O  O18  1  0.463351  0.158331  0.666282  1
  O  O19  1  0.419592  0.335538  0.367672  1
  O  O20  1  0.829963  0.202924  0.472782  1
  O  O21  1  0.964929  0.662252  0.167599  1
  O  O22  1  0.075803  0.160302  0.133919  1
  O  O23  1  0.668288  0.296805  0.027323  1
