# generated using pymatgen
data_SmCoSe2ClO6
_symmetry_space_group_name_H-M   'P 1'
_cell_length_a   7.24712284
_cell_length_b   9.03875492
_cell_length_c   12.10237517
_cell_angle_alpha   97.49894255
_cell_angle_beta   105.53335612
_cell_angle_gamma   107.96437726
_symmetry_Int_Tables_number   1
_chemical_formula_structural   SmCoSe2ClO6
_chemical_formula_sum   'Sm4 Co4 Se8 Cl4 O24'
_cell_volume   706.65887198
_cell_formula_units_Z   4
loop_
 _symmetry_equiv_pos_site_id
 _symmetry_equiv_pos_as_xyz
  1  'x, y, z'
loop_
 _atom_site_type_symbol
 _atom_site_label
 _atom_site_symmetry_multiplicity
 _atom_site_fract_x
 _atom_site_fract_y
 _atom_site_fract_z
 _atom_site_occupancy
  Sm  Sm0  1  0.166949  0.381404  0.434768  1
  Sm  Sm1  1  0.182151  0.902505  0.936364  1
  Sm  Sm2  1  0.817849  0.097495  0.063636  1
  Sm  Sm3  1  0.833051  0.618596  0.565232  1
  Co  Co4  1  0.094908  0.098327  0.652249  1
  Co  Co5  1  0.905092  0.901673  0.347751  1
  Co  Co6  1  0.079017  0.615514  0.155586  1
  Co  Co7  1  0.920983  0.384486  0.844414  1
  Se  Se8  1  0.481048  0.253046  0.922384  1
  Se  Se9  1  0.243115  0.013986  0.250462  1
  Se  Se10  1  0.518952  0.746954  0.077616  1
  Se  Se11  1  0.536389  0.267256  0.590509  1
  Se  Se12  1  0.733487  0.395998  0.257769  1
  Se  Se13  1  0.756885  0.986014  0.749538  1
  Se  Se14  1  0.463611  0.732744  0.409491  1
  Se  Se15  1  0.266513  0.604002  0.742231  1
  Cl  Cl16  1  0.871790  0.623260  0.949631  1
  Cl  Cl17  1  0.840955  0.110044  0.467730  1
  Cl  Cl18  1  0.128210  0.376740  0.050369  1
  Cl  Cl19  1  0.159045  0.889956  0.532270  1
  O  O20  1  0.868816  0.886183  0.671638  1
  O  O21  1  0.311392  0.281232  0.612396  1
  O  O22  1  0.471969  0.640349  0.526390  1
  O  O23  1  0.278558  0.096089  0.817221  1
  O  O24  1  0.902980  0.503070  0.398011  1
  O  O25  1  0.528031  0.359651  0.473610  1
  O  O26  1  0.123070  0.726328  0.757678  1
  O  O27  1  0.111586  0.016741  0.107763  1
  O  O28  1  0.101439  0.827239  0.263426  1
  O  O29  1  0.888414  0.983259  0.892237  1
  O  O30  1  0.688608  0.718768  0.387604  1
  O  O31  1  0.690715  0.221751  0.893557  1
  O  O32  1  0.513776  0.848910  0.964543  1
  O  O33  1  0.898561  0.172761  0.736574  1
  O  O34  1  0.721442  0.903911  0.182779  1
  O  O35  1  0.097020  0.496930  0.601989  1
  O  O36  1  0.730890  0.430316  0.695109  1
  O  O37  1  0.876930  0.273672  0.242322  1
  O  O38  1  0.269110  0.569684  0.304891  1
  O  O39  1  0.309285  0.778249  0.106443  1
  O  O40  1  0.790888  0.514424  0.164229  1
  O  O41  1  0.486224  0.151090  0.035457  1
  O  O42  1  0.131184  0.113817  0.328362  1
  O  O43  1  0.209112  0.485576  0.835771  1
