# generated using pymatgen
data_LiCoPO4
_symmetry_space_group_name_H-M   'P 1'
_cell_length_a   5.47568330
_cell_length_b   6.26061071
_cell_length_c   9.25552926
_cell_angle_alpha   75.81054108
_cell_angle_beta   82.81804957
_cell_angle_gamma   77.38247918
_symmetry_Int_Tables_number   1
_chemical_formula_structural   LiCoPO4
_chemical_formula_sum   'Li4 Co4 P4 O16'
_cell_volume   299.32291899
_cell_formula_units_Z   4
loop_
 _symmetry_equiv_pos_site_id
 _symmetry_equiv_pos_as_xyz
  1  'x, y, z'
loop_
 _atom_site_type_symbol
 _atom_site_label
 _atom_site_symmetry_multiplicity
 _atom_site_fract_x
 _atom_site_fract_y
 _atom_site_fract_z
 _atom_site_occupancy
  Li  Li0  1  0.322169  0.996700  0.760481  1
  Li  Li1  1  0.804896  0.152532  0.578307  1
  Li  Li2  1  0.195104  0.847468  0.421693  1
  Li  Li3  1  0.677831  0.003300  0.239519  1
  Co  Co4  1  0.717384  0.337953  0.912270  1
  Co  Co5  1  0.153581  0.541801  0.716333  1
  Co  Co6  1  0.846419  0.458199  0.283667  1
  Co  Co7  1  0.282616  0.662047  0.087730  1
  P  P8  1  0.808655  0.802499  0.952342  1
  P  P9  1  0.683133  0.677522  0.576610  1
  P  P10  1  0.316867  0.322478  0.423390  1
  P  P11  1  0.191345  0.197501  0.047658  1
  O  O12  1  0.615127  0.664159  0.933295  1
  O  O13  1  0.079618  0.712360  0.888085  1
  O  O14  1  0.160537  0.225703  0.878422  1
  O  O15  1  0.711439  0.044787  0.870011  1
  O  O16  1  0.877174  0.818071  0.594394  1
  O  O17  1  0.408321  0.772368  0.630387  1
  O  O18  1  0.777804  0.436484  0.673665  1
  O  O19  1  0.319868  0.320735  0.590235  1
  O  O20  1  0.680132  0.679265  0.409765  1
  O  O21  1  0.222196  0.563516  0.326335  1
  O  O22  1  0.591679  0.227632  0.369613  1
  O  O23  1  0.122826  0.181929  0.405606  1
  O  O24  1  0.288561  0.955213  0.129989  1
  O  O25  1  0.839463  0.774297  0.121578  1
  O  O26  1  0.920382  0.287640  0.111915  1
  O  O27  1  0.384873  0.335841  0.066705  1
