# generated using pymatgen
data_Li4V2Fe3O10
_symmetry_space_group_name_H-M   'P 1'
_cell_length_a   6.63311327
_cell_length_b   7.87177512
_cell_length_c   7.96968219
_cell_angle_alpha   96.56893879
_cell_angle_beta   114.50879266
_cell_angle_gamma   89.67215632
_symmetry_Int_Tables_number   1
_chemical_formula_structural   Li4V2Fe3O10
_chemical_formula_sum   'Li8 V4 Fe6 O20'
_cell_volume   375.75058557
_cell_formula_units_Z   2
loop_
 _symmetry_equiv_pos_site_id
 _symmetry_equiv_pos_as_xyz
  1  'x, y, z'
loop_
 _atom_site_type_symbol
 _atom_site_label
 _atom_site_symmetry_multiplicity
 _atom_site_fract_x
 _atom_site_fract_y
 _atom_site_fract_z
 _atom_site_occupancy
  Li  Li0  1  0.904243  0.403100  0.593465  1
  Li  Li1  1  0.811439  0.298126  0.216030  1
  Li  Li2  1  0.253653  0.246892  0.508592  1
  Li  Li3  1  0.746347  0.753108  0.491408  1
  Li  Li4  1  0.188561  0.701874  0.783970  1
  Li  Li5  1  0.095757  0.596900  0.406535  1
  Li  Li6  1  0.409478  0.905710  0.597277  1
  Li  Li7  1  0.590522  0.094290  0.402723  1
  V  V8  1  0.549628  0.535664  0.696642  1
  V  V9  1  0.450372  0.464336  0.303358  1
  V  V10  1  0.025001  0.050355  0.686942  1
  V  V11  1  0.974999  0.949645  0.313058  1
  Fe  Fe12  1  0.358269  0.341789  0.890777  1
  Fe  Fe13  1  0.641731  0.658211  0.109223  1
  Fe  Fe14  1  0.000000  0.500000  0.000000  1
  Fe  Fe15  1  0.500000  0.000000  0.000000  1
  Fe  Fe16  1  0.861714  0.856898  0.903170  1
  Fe  Fe17  1  0.138286  0.143102  0.096830  1
  O  O18  1  0.331687  0.561134  0.057567  1
  O  O19  1  0.748712  0.527638  0.333396  1
  O  O20  1  0.251288  0.472362  0.666604  1
  O  O21  1  0.128656  0.385611  0.233517  1
  O  O22  1  0.668313  0.438866  0.942433  1
  O  O23  1  0.564611  0.350473  0.538730  1
  O  O24  1  0.661346  0.881950  0.249172  1
  O  O25  1  0.044480  0.277463  0.856574  1
  O  O26  1  0.068255  0.842361  0.539701  1
  O  O27  1  0.955520  0.722537  0.143426  1
  O  O28  1  0.535068  0.756500  0.844238  1
  O  O29  1  0.435389  0.649527  0.461270  1
  O  O30  1  0.464932  0.243500  0.155762  1
  O  O31  1  0.871344  0.614389  0.766483  1
  O  O32  1  0.931745  0.157639  0.460299  1
  O  O33  1  0.834249  0.064610  0.073553  1
  O  O34  1  0.338654  0.118050  0.750828  1
  O  O35  1  0.246891  0.027909  0.340082  1
  O  O36  1  0.753109  0.972091  0.659918  1
  O  O37  1  0.165751  0.935390  0.926447  1
