# generated using pymatgen
data_Zr2(PO4)3
_symmetry_space_group_name_H-M   'P 1'
_cell_length_a   9.13053760
_cell_length_b   9.13053760
_cell_length_c   9.13053760
_cell_angle_alpha   59.77398188
_cell_angle_beta   59.77398188
_cell_angle_gamma   59.77398188
_symmetry_Int_Tables_number   1
_chemical_formula_structural   Zr2(PO4)3
_chemical_formula_sum   'Zr4 P6 O24'
_cell_volume   535.47558243
_cell_formula_units_Z   2
loop_
 _symmetry_equiv_pos_site_id
 _symmetry_equiv_pos_as_xyz
  1  'x, y, z'
loop_
 _atom_site_type_symbol
 _atom_site_label
 _atom_site_symmetry_multiplicity
 _atom_site_fract_x
 _atom_site_fract_y
 _atom_site_fract_z
 _atom_site_occupancy
  Zr  Zr0  1  0.861094  0.861094  0.861094  1
  Zr  Zr1  1  0.638906  0.638906  0.638906  1
  Zr  Zr2  1  0.138906  0.138906  0.138906  1
  Zr  Zr3  1  0.361094  0.361094  0.361094  1
  P  P4  1  0.250000  0.535277  0.964723  1
  P  P5  1  0.035277  0.750000  0.464723  1
  P  P6  1  0.464723  0.035277  0.750000  1
  P  P7  1  0.535277  0.964723  0.250000  1
  P  P8  1  0.964723  0.250000  0.535277  1
  P  P9  1  0.750000  0.464723  0.035277  1
  O  O10  1  0.088206  0.710661  0.939465  1
  O  O11  1  0.206661  0.375423  0.000413  1
  O  O12  1  0.289339  0.060535  0.911794  1
  O  O13  1  0.999587  0.793339  0.624577  1
  O  O14  1  0.124577  0.293339  0.499587  1
  O  O15  1  0.411794  0.560535  0.789339  1
  O  O16  1  0.210661  0.588206  0.439465  1
  O  O17  1  0.060535  0.911794  0.289339  1
  O  O18  1  0.500413  0.875423  0.706661  1
  O  O19  1  0.624577  0.999587  0.793339  1
  O  O20  1  0.706661  0.500413  0.875423  1
  O  O21  1  0.439465  0.210661  0.588206  1
  O  O22  1  0.560535  0.789339  0.411794  1
  O  O23  1  0.293339  0.499587  0.124577  1
  O  O24  1  0.375423  0.000413  0.206661  1
  O  O25  1  0.499587  0.124577  0.293339  1
  O  O26  1  0.939465  0.088206  0.710661  1
  O  O27  1  0.789339  0.411794  0.560535  1
  O  O28  1  0.588206  0.439465  0.210661  1
  O  O29  1  0.875423  0.706661  0.500413  1
  O  O30  1  0.000413  0.206661  0.375423  1
  O  O31  1  0.710661  0.939465  0.088206  1
  O  O32  1  0.793339  0.624577  0.999587  1
  O  O33  1  0.911794  0.289339  0.060535  1
