# generated using pymatgen
data_Li3CrO4
_symmetry_space_group_name_H-M   'P 1'
_cell_length_a   5.80035032
_cell_length_b   5.80035032
_cell_length_c   9.06365003
_cell_angle_alpha   72.27787989
_cell_angle_beta   107.72212011
_cell_angle_gamma   89.85996591
_symmetry_Int_Tables_number   1
_chemical_formula_structural   Li3CrO4
_chemical_formula_sum   'Li12 Cr4 O16'
_cell_volume   275.15843018
_cell_formula_units_Z   4
loop_
 _symmetry_equiv_pos_site_id
 _symmetry_equiv_pos_as_xyz
  1  'x, y, z'
loop_
 _atom_site_type_symbol
 _atom_site_label
 _atom_site_symmetry_multiplicity
 _atom_site_fract_x
 _atom_site_fract_y
 _atom_site_fract_z
 _atom_site_occupancy
  Li  Li0  1  0.940531  0.305023  0.133084  1
  Li  Li1  1  0.694977  0.059469  0.633084  1
  Li  Li2  1  0.818623  0.437969  0.380675  1
  Li  Li3  1  0.439182  0.330483  0.124223  1
  Li  Li4  1  0.330483  0.439182  0.375777  1
  Li  Li5  1  0.437969  0.818623  0.119325  1
  Li  Li6  1  0.562031  0.181377  0.880675  1
  Li  Li7  1  0.669517  0.560818  0.624223  1
  Li  Li8  1  0.560818  0.669517  0.875777  1
  Li  Li9  1  0.181377  0.562031  0.619325  1
  Li  Li10  1  0.305023  0.940531  0.366916  1
  Li  Li11  1  0.059469  0.694977  0.866916  1
  Cr  Cr12  1  0.938877  0.784475  0.123504  1
  Cr  Cr13  1  0.215525  0.061123  0.623504  1
  Cr  Cr14  1  0.784475  0.938877  0.376496  1
  Cr  Cr15  1  0.061123  0.215525  0.876496  1
  O  O16  1  0.720346  0.040107  0.144736  1
  O  O17  1  0.959893  0.279654  0.644736  1
  O  O18  1  0.578936  0.171040  0.367187  1
  O  O19  1  0.704604  0.584850  0.117659  1
  O  O20  1  0.167829  0.055973  0.104860  1
  O  O21  1  0.828960  0.421064  0.867187  1
  O  O22  1  0.415150  0.295396  0.617659  1
  O  O23  1  0.944027  0.832171  0.604860  1
  O  O24  1  0.055973  0.167829  0.395140  1
  O  O25  1  0.584850  0.704604  0.382341  1
  O  O26  1  0.171040  0.578936  0.132813  1
  O  O27  1  0.832171  0.944027  0.895140  1
  O  O28  1  0.295396  0.415150  0.882341  1
  O  O29  1  0.421064  0.828960  0.632813  1
  O  O30  1  0.040107  0.720346  0.355264  1
  O  O31  1  0.279654  0.959893  0.855264  1
