# generated using pymatgen
data_Li4Cr3GaO8
_symmetry_space_group_name_H-M   'P 1'
_cell_length_a   5.13967169
_cell_length_b   7.84165371
_cell_length_c   7.84369262
_cell_angle_alpha   81.78944303
_cell_angle_beta   83.76198191
_cell_angle_gamma   70.92541223
_symmetry_Int_Tables_number   1
_chemical_formula_structural   Li4Cr3GaO8
_chemical_formula_sum   'Li8 Cr6 Ga2 O16'
_cell_volume   295.05864895
_cell_formula_units_Z   2
loop_
 _symmetry_equiv_pos_site_id
 _symmetry_equiv_pos_as_xyz
  1  'x, y, z'
loop_
 _atom_site_type_symbol
 _atom_site_label
 _atom_site_symmetry_multiplicity
 _atom_site_fract_x
 _atom_site_fract_y
 _atom_site_fract_z
 _atom_site_occupancy
  Li  Li0  1  0.999534  0.875087  0.875034  1
  Li  Li1  1  0.999974  0.625054  0.624679  1
  Li  Li2  1  0.999549  0.750070  0.250054  1
  Li  Li3  1  0.000451  0.249930  0.749946  1
  Li  Li4  1  0.000026  0.374946  0.375321  1
  Li  Li5  1  0.000000  0.500000  0.000000  1
  Li  Li6  1  0.000000  0.000000  0.500000  1
  Li  Li7  1  0.000466  0.124913  0.124966  1
  Cr  Cr8  1  0.500021  0.687268  0.437542  1
  Cr  Cr9  1  0.500289  0.812090  0.062415  1
  Cr  Cr10  1  0.499979  0.312732  0.562458  1
  Cr  Cr11  1  0.500091  0.937294  0.687554  1
  Cr  Cr12  1  0.499909  0.062706  0.312446  1
  Cr  Cr13  1  0.499711  0.187910  0.937585  1
  Ga  Ga14  1  0.499951  0.562449  0.812642  1
  Ga  Ga15  1  0.500049  0.437551  0.187358  1
  O  O16  1  0.725799  0.723630  0.844721  1
  O  O17  1  0.274171  0.776119  0.655188  1
  O  O18  1  0.724306  0.849019  0.469821  1
  O  O19  1  0.274384  0.401249  0.780126  1
  O  O20  1  0.725655  0.473891  0.595034  1
  O  O21  1  0.725616  0.598751  0.219874  1
  O  O22  1  0.274345  0.526109  0.404966  1
  O  O23  1  0.724246  0.099322  0.719990  1
  O  O24  1  0.725829  0.223881  0.344812  1
  O  O25  1  0.273444  0.650760  0.030055  1
  O  O26  1  0.275694  0.150981  0.530179  1
  O  O27  1  0.726556  0.349240  0.969945  1
  O  O28  1  0.274201  0.276370  0.155279  1
  O  O29  1  0.724121  0.974219  0.094738  1
  O  O30  1  0.275754  0.900678  0.280010  1
  O  O31  1  0.275879  0.025781  0.905262  1
