# generated using pymatgen
data_BiRu2O7
_symmetry_space_group_name_H-M   'P 1'
_cell_length_a   7.22373082
_cell_length_b   7.22373082
_cell_length_c   7.22373082
_cell_angle_alpha   120.01742496
_cell_angle_beta   119.56923692
_cell_angle_gamma   90.35877110
_symmetry_Int_Tables_number   1
_chemical_formula_structural   BiRu2O7
_chemical_formula_sum   'Bi2 Ru4 O14'
_cell_volume   267.36634539
_cell_formula_units_Z   2
loop_
 _symmetry_equiv_pos_site_id
 _symmetry_equiv_pos_as_xyz
  1  'x, y, z'
loop_
 _atom_site_type_symbol
 _atom_site_label
 _atom_site_symmetry_multiplicity
 _atom_site_fract_x
 _atom_site_fract_y
 _atom_site_fract_z
 _atom_site_occupancy
  Bi  Bi0  1  0.730631  0.750000  0.480631  1
  Bi  Bi1  1  0.769369  0.250000  0.019369  1
  Ru  Ru2  1  0.750000  0.744861  0.994861  1
  Ru  Ru3  1  0.250000  0.755139  0.505139  1
  Ru  Ru4  1  0.248472  0.750000  0.998472  1
  Ru  Ru5  1  0.251528  0.250000  0.501528  1
  O  O6  1  0.575817  0.825817  0.750000  1
  O  O7  1  0.300471  0.050471  0.250000  1
  O  O8  1  0.162642  0.428059  0.350042  1
  O  O9  1  0.578017  0.812600  0.149958  1
  O  O10  1  0.573195  0.433294  0.765466  1
  O  O11  1  0.167828  0.807729  0.734534  1
  O  O12  1  0.862962  0.112962  0.750000  1
  O  O13  1  0.332172  0.066706  0.639901  1
  O  O14  1  0.337358  0.687400  0.265417  1
  O  O15  1  0.926805  0.692271  0.860099  1
  O  O16  1  0.637038  0.387038  0.250000  1
  O  O17  1  0.921983  0.071941  0.234583  1
  O  O18  1  0.199529  0.449529  0.750000  1
  O  O19  1  0.924183  0.674183  0.250000  1
