# generated using pymatgen
data_TiFe3(PO4)6
_symmetry_space_group_name_H-M   'P 1'
_cell_length_a   8.93820983
_cell_length_b   8.93820983
_cell_length_c   8.93820983
_cell_angle_alpha   58.54705006
_cell_angle_beta   58.54705006
_cell_angle_gamma   58.54705006
_symmetry_Int_Tables_number   1
_chemical_formula_structural   TiFe3(PO4)6
_chemical_formula_sum   'Ti1 Fe3 P6 O24'
_cell_volume   488.15798202
_cell_formula_units_Z   1
loop_
 _symmetry_equiv_pos_site_id
 _symmetry_equiv_pos_as_xyz
  1  'x, y, z'
loop_
 _atom_site_type_symbol
 _atom_site_label
 _atom_site_symmetry_multiplicity
 _atom_site_fract_x
 _atom_site_fract_y
 _atom_site_fract_z
 _atom_site_occupancy
  Ti  Ti0  1  0.140130  0.140130  0.140130  1
  Fe  Fe1  1  0.856976  0.856976  0.856976  1
  Fe  Fe2  1  0.641902  0.641902  0.641902  1
  Fe  Fe3  1  0.357430  0.357430  0.357430  1
  P  P4  1  0.249222  0.534201  0.966434  1
  P  P5  1  0.966434  0.249222  0.534201  1
  P  P6  1  0.534201  0.966434  0.249222  1
  P  P7  1  0.467655  0.034477  0.747496  1
  P  P8  1  0.034477  0.747496  0.467655  1
  P  P9  1  0.747496  0.467655  0.034477  1
  O  O10  1  0.727839  0.489026  0.863055  1
  O  O11  1  0.489026  0.863055  0.727839  1
  O  O12  1  0.079067  0.711300  0.937469  1
  O  O13  1  0.863055  0.727839  0.489026  1
  O  O14  1  0.422654  0.552872  0.790656  1
  O  O15  1  0.213037  0.363174  0.006330  1
  O  O16  1  0.937469  0.079067  0.711300  1
  O  O17  1  0.790656  0.422654  0.552872  1
  O  O18  1  0.552872  0.790656  0.422654  1
  O  O19  1  0.638962  0.007419  0.771625  1
  O  O20  1  0.292049  0.069389  0.920959  1
  O  O21  1  0.007419  0.771625  0.638962  1
  O  O22  1  0.006330  0.213037  0.363174  1
  O  O23  1  0.711300  0.937469  0.079067  1
  O  O24  1  0.363174  0.006330  0.213037  1
  O  O25  1  0.442438  0.209092  0.575542  1
  O  O26  1  0.209092  0.575542  0.442438  1
  O  O27  1  0.069389  0.920959  0.292049  1
  O  O28  1  0.771625  0.638962  0.007419  1
  O  O29  1  0.575542  0.442438  0.209092  1
  O  O30  1  0.136700  0.274667  0.508757  1
  O  O31  1  0.920959  0.292049  0.069389  1
  O  O32  1  0.508757  0.136700  0.274667  1
  O  O33  1  0.274667  0.508757  0.136700  1
