# generated using pymatgen
data_Li4CuF7
_symmetry_space_group_name_H-M   'P 1'
_cell_length_a   7.58730198
_cell_length_b   7.58730198
_cell_length_c   5.33190536
_cell_angle_alpha   80.99453482
_cell_angle_beta   99.00546518
_cell_angle_gamma   107.80069894
_symmetry_Int_Tables_number   1
_chemical_formula_structural   Li4CuF7
_chemical_formula_sum   'Li8 Cu2 F14'
_cell_volume   286.71153708
_cell_formula_units_Z   2
loop_
 _symmetry_equiv_pos_site_id
 _symmetry_equiv_pos_as_xyz
  1  'x, y, z'
loop_
 _atom_site_type_symbol
 _atom_site_label
 _atom_site_symmetry_multiplicity
 _atom_site_fract_x
 _atom_site_fract_y
 _atom_site_fract_z
 _atom_site_occupancy
  Li  Li0  1  0.943037  0.238842  0.692410  1
  Li  Li1  1  0.761158  0.056963  0.192410  1
  Li  Li2  1  0.697030  0.427752  0.241632  1
  Li  Li3  1  0.572248  0.302970  0.741632  1
  Li  Li4  1  0.427752  0.697030  0.258368  1
  Li  Li5  1  0.302970  0.572248  0.758368  1
  Li  Li6  1  0.238842  0.943037  0.807590  1
  Li  Li7  1  0.056963  0.761158  0.307590  1
  Cu  Cu8  1  0.762025  0.762025  0.750000  1
  Cu  Cu9  1  0.237975  0.237975  0.250000  1
  F  F10  1  0.999371  0.813957  0.632973  1
  F  F11  1  0.845759  0.659386  0.080667  1
  F  F12  1  0.781729  0.373671  0.575712  1
  F  F13  1  0.626329  0.218271  0.075712  1
  F  F14  1  0.813957  0.999371  0.867027  1
  F  F15  1  0.659386  0.845759  0.419333  1
  F  F16  1  0.552725  0.552725  0.750000  1
  F  F17  1  0.447275  0.447275  0.250000  1
  F  F18  1  0.340614  0.154241  0.580667  1
  F  F19  1  0.186043  0.000629  0.132973  1
  F  F20  1  0.373671  0.781729  0.924288  1
  F  F21  1  0.218271  0.626329  0.424288  1
  F  F22  1  0.154241  0.340614  0.919333  1
  F  F23  1  0.000629  0.186043  0.367027  1
