# generated using pymatgen
data_Ta2MnO6
_symmetry_space_group_name_H-M   'P 1'
_cell_length_a   18.16465849
_cell_length_b   18.16465849
_cell_length_c   5.19009356
_cell_angle_alpha   89.75077058
_cell_angle_beta   90.24922942
_cell_angle_gamma   30.74632037
_symmetry_Int_Tables_number   1
_chemical_formula_structural   Ta2MnO6
_chemical_formula_sum   'Ta16 Mn8 O48'
_cell_volume   875.37517807
_cell_formula_units_Z   8
loop_
 _symmetry_equiv_pos_site_id
 _symmetry_equiv_pos_as_xyz
  1  'x, y, z'
loop_
 _atom_site_type_symbol
 _atom_site_label
 _atom_site_symmetry_multiplicity
 _atom_site_fract_x
 _atom_site_fract_y
 _atom_site_fract_z
 _atom_site_occupancy
  Ta  Ta0  1  0.882650  0.392695  0.755852  1
  Ta  Ta1  1  0.057389  0.057389  0.750000  1
  Ta  Ta2  1  0.224747  0.717797  0.755558  1
  Ta  Ta3  1  0.392695  0.882650  0.744148  1
  Ta  Ta4  1  0.560466  0.052337  0.742243  1
  Ta  Ta5  1  0.717797  0.224747  0.744442  1
  Ta  Ta6  1  0.723139  0.723139  0.750000  1
  Ta  Ta7  1  0.052337  0.560466  0.757757  1
  Ta  Ta8  1  0.282203  0.775253  0.255558  1
  Ta  Ta9  1  0.607305  0.117350  0.255852  1
  Ta  Ta10  1  0.775253  0.282203  0.244442  1
  Ta  Ta11  1  0.942611  0.942611  0.250000  1
  Ta  Ta12  1  0.947663  0.439534  0.242243  1
  Ta  Ta13  1  0.117350  0.607305  0.244148  1
  Ta  Ta14  1  0.276861  0.276861  0.250000  1
  Ta  Ta15  1  0.439534  0.947663  0.257757  1
  Mn  Mn16  1  0.556373  0.556373  0.750000  1
  Mn  Mn17  1  0.389248  0.389248  0.750000  1
  Mn  Mn18  1  0.885396  0.885396  0.750000  1
  Mn  Mn19  1  0.220673  0.220673  0.750000  1
  Mn  Mn20  1  0.114604  0.114604  0.250000  1
  Mn  Mn21  1  0.443627  0.443627  0.250000  1
  Mn  Mn22  1  0.610752  0.610752  0.250000  1
  Mn  Mn23  1  0.779327  0.779327  0.250000  1
  O  O24  1  0.364416  0.669318  0.936237  1
  O  O25  1  0.699866  0.997502  0.938201  1
  O  O26  1  0.482567  0.726014  0.901394  1
  O  O27  1  0.044115  0.326011  0.938936  1
  O  O28  1  0.893232  0.150876  0.918374  1
  O  O29  1  0.986602  0.218273  0.890763  1
  O  O30  1  0.827322  0.051703  0.924368  1
  O  O31  1  0.207606  0.494592  0.929151  1
  O  O32  1  0.311842  0.562593  0.900713  1
  O  O33  1  0.161063  0.384504  0.923251  1
  O  O34  1  0.555436  0.820663  0.915870  1
  O  O35  1  0.647843  0.887723  0.883165  1
  O  O36  1  0.218273  0.986602  0.609237  1
  O  O37  1  0.562593  0.311842  0.599287  1
  O  O38  1  0.887723  0.647843  0.616835  1
  O  O39  1  0.150876  0.893232  0.581626  1
  O  O40  1  0.726014  0.482567  0.598606  1
  O  O41  1  0.494592  0.207606  0.570849  1
  O  O42  1  0.051703  0.827322  0.575632  1
  O  O43  1  0.820663  0.555436  0.584130  1
  O  O44  1  0.669318  0.364416  0.563763  1
  O  O45  1  0.384504  0.161063  0.576749  1
  O  O46  1  0.997502  0.699866  0.561799  1
  O  O47  1  0.326011  0.044115  0.561064  1
  O  O48  1  0.002498  0.300134  0.438201  1
  O  O49  1  0.330682  0.635584  0.436237  1
  O  O50  1  0.948297  0.172678  0.424368  1
  O  O51  1  0.673989  0.955885  0.438936  1
  O  O52  1  0.505408  0.792394  0.429151  1
  O  O53  1  0.273986  0.517433  0.401394  1
  O  O54  1  0.849124  0.106768  0.418374  1
  O  O55  1  0.615496  0.838937  0.423251  1
  O  O56  1  0.179337  0.444564  0.415870  1
  O  O57  1  0.437407  0.688158  0.400713  1
  O  O58  1  0.781727  0.013398  0.390763  1
  O  O59  1  0.112277  0.352157  0.383165  1
  O  O60  1  0.688158  0.437407  0.099287  1
  O  O61  1  0.792394  0.505408  0.070849  1
  O  O62  1  0.172678  0.948297  0.075632  1
  O  O63  1  0.013398  0.781727  0.109237  1
  O  O64  1  0.106768  0.849124  0.081626  1
  O  O65  1  0.517433  0.273986  0.098606  1
  O  O66  1  0.352157  0.112277  0.116835  1
  O  O67  1  0.444564  0.179337  0.084130  1
  O  O68  1  0.300134  0.002498  0.061799  1
  O  O69  1  0.838937  0.615496  0.076749  1
  O  O70  1  0.635584  0.330682  0.063763  1
  O  O71  1  0.955885  0.673989  0.061064  1
