# generated using pymatgen
data_LiCoGeO4
_symmetry_space_group_name_H-M   'P 1'
_cell_length_a   5.11817604
_cell_length_b   5.71607888
_cell_length_c   8.05469794
_cell_angle_alpha   90.00000000
_cell_angle_beta   129.37535221
_cell_angle_gamma   90.00000000
_symmetry_Int_Tables_number   1
_chemical_formula_structural   LiCoGeO4
_chemical_formula_sum   'Li2 Co2 Ge2 O8'
_cell_volume   182.15700068
_cell_formula_units_Z   2
loop_
 _symmetry_equiv_pos_site_id
 _symmetry_equiv_pos_as_xyz
  1  'x, y, z'
loop_
 _atom_site_type_symbol
 _atom_site_label
 _atom_site_symmetry_multiplicity
 _atom_site_fract_x
 _atom_site_fract_y
 _atom_site_fract_z
 _atom_site_occupancy
  Li  Li0  1  0.746797  0.660705  0.751008  1
  Li  Li1  1  0.746797  0.339295  0.251008  1
  Co  Co2  1  0.992282  0.172214  0.996943  1
  Co  Co3  1  0.992282  0.827786  0.496943  1
  Ge  Ge4  1  0.500203  0.848391  0.000633  1
  Ge  Ge5  1  0.500203  0.151609  0.500633  1
  O  O6  1  0.824035  0.872996  0.979007  1
  O  O7  1  0.381840  0.131758  0.023997  1
  O  O8  1  0.142742  0.711857  0.762958  1
  O  O9  1  0.667053  0.322041  0.735156  1
  O  O10  1  0.381840  0.868242  0.523997  1
  O  O11  1  0.824035  0.127004  0.479007  1
  O  O12  1  0.142742  0.288143  0.262958  1
  O  O13  1  0.667053  0.677959  0.235156  1
