# generated using pymatgen
data_Li2CrCo3O8
_symmetry_space_group_name_H-M   'P 1'
_cell_length_a   5.80209702
_cell_length_b   5.80209702
_cell_length_c   5.95024814
_cell_angle_alpha   60.36950363
_cell_angle_beta   119.63049637
_cell_angle_gamma   119.73394814
_symmetry_Int_Tables_number   1
_chemical_formula_structural   Li2CrCo3O8
_chemical_formula_sum   'Li2 Cr1 Co3 O8'
_cell_volume   142.71461558
_cell_formula_units_Z   1
loop_
 _symmetry_equiv_pos_site_id
 _symmetry_equiv_pos_as_xyz
  1  'x, y, z'
loop_
 _atom_site_type_symbol
 _atom_site_label
 _atom_site_symmetry_multiplicity
 _atom_site_fract_x
 _atom_site_fract_y
 _atom_site_fract_z
 _atom_site_occupancy
  Li  Li0  1  0.000000  0.000000  0.500000  1
  Li  Li1  1  0.500000  0.500000  0.500000  1
  Cr  Cr2  1  0.000000  0.000000  0.000000  1
  Co  Co3  1  0.500000  0.500000  0.000000  1
  Co  Co4  1  0.500000  0.000000  0.000000  1
  Co  Co5  1  0.000000  0.500000  0.000000  1
  O  O6  1  0.260566  0.739434  0.801364  1
  O  O7  1  0.756496  0.243504  0.799278  1
  O  O8  1  0.730810  0.774314  0.214072  1
  O  O9  1  0.225686  0.269190  0.214072  1
  O  O10  1  0.774314  0.730810  0.785928  1
  O  O11  1  0.269190  0.225686  0.785928  1
  O  O12  1  0.243504  0.756496  0.200722  1
  O  O13  1  0.739434  0.260566  0.198636  1
