# generated using pymatgen
data_LiCu(PO3)2
_symmetry_space_group_name_H-M   'P 1'
_cell_length_a   14.18580613
_cell_length_b   5.18954970
_cell_length_c   14.28046551
_cell_angle_alpha   90.00000000
_cell_angle_beta   105.35073275
_cell_angle_gamma   90.00000000
_symmetry_Int_Tables_number   1
_chemical_formula_structural   LiCu(PO3)2
_chemical_formula_sum   'Li8 Cu8 P16 O48'
_cell_volume   1013.79177286
_cell_formula_units_Z   8
loop_
 _symmetry_equiv_pos_site_id
 _symmetry_equiv_pos_as_xyz
  1  'x, y, z'
loop_
 _atom_site_type_symbol
 _atom_site_label
 _atom_site_symmetry_multiplicity
 _atom_site_fract_x
 _atom_site_fract_y
 _atom_site_fract_z
 _atom_site_occupancy
  Li  Li0  1  0.434781  0.295929  0.866814  1
  Li  Li1  1  0.936631  0.688645  0.882384  1
  Li  Li2  1  0.063369  0.188645  0.617616  1
  Li  Li3  1  0.565219  0.795929  0.633186  1
  Li  Li4  1  0.434781  0.204071  0.366814  1
  Li  Li5  1  0.936631  0.811355  0.382384  1
  Li  Li6  1  0.063369  0.311355  0.117616  1
  Li  Li7  1  0.565219  0.704071  0.133186  1
  Cu  Cu8  1  0.094063  0.257494  0.861879  1
  Cu  Cu9  1  0.612621  0.854800  0.852976  1
  Cu  Cu10  1  0.387379  0.354800  0.647024  1
  Cu  Cu11  1  0.905937  0.757494  0.638121  1
  Cu  Cu12  1  0.094063  0.242506  0.361879  1
  Cu  Cu13  1  0.612621  0.645200  0.352976  1
  Cu  Cu14  1  0.387379  0.145200  0.147024  1
  Cu  Cu15  1  0.905937  0.742506  0.138121  1
  P  P16  1  0.363014  0.700637  0.991484  1
  P  P17  1  0.848657  0.289498  0.996450  1
  P  P18  1  0.349732  0.831675  0.790478  1
  P  P19  1  0.142408  0.669149  0.703488  1
  P  P20  1  0.857592  0.169149  0.796512  1
  P  P21  1  0.650268  0.331675  0.709522  1
  P  P22  1  0.151343  0.789498  0.503550  1
  P  P23  1  0.363014  0.799363  0.491484  1
  P  P24  1  0.636986  0.200637  0.508516  1
  P  P25  1  0.848657  0.210502  0.496450  1
  P  P26  1  0.349732  0.668325  0.290478  1
  P  P27  1  0.142408  0.830851  0.203488  1
  P  P28  1  0.857592  0.330851  0.296512  1
  P  P29  1  0.650268  0.168325  0.209522  1
  P  P30  1  0.151343  0.710502  0.003550  1
  P  P31  1  0.636986  0.299363  0.008516  1
  O  O32  1  0.070306  0.854927  0.933712  1
  O  O33  1  0.249178  0.768936  0.972672  1
  O  O34  1  0.377705  0.421587  0.973721  1
  O  O35  1  0.384961  0.882599  0.906483  1
  O  O36  1  0.579000  0.178520  0.914759  1
  O  O37  1  0.861959  0.574113  0.981501  1
  O  O38  1  0.232563  0.813154  0.776114  1
  O  O39  1  0.129456  0.401283  0.738971  1
  O  O40  1  0.372617  0.074137  0.744058  1
  O  O41  1  0.391910  0.579155  0.772408  1
  O  O42  1  0.818881  0.136675  0.892673  1
  O  O43  1  0.056952  0.851892  0.681529  1
  O  O44  1  0.943048  0.351892  0.818471  1
  O  O45  1  0.181119  0.636675  0.607327  1
  O  O46  1  0.608090  0.079155  0.727592  1
  O  O47  1  0.627383  0.574137  0.755942  1
  O  O48  1  0.870544  0.901283  0.761029  1
  O  O49  1  0.767437  0.313154  0.723886  1
  O  O50  1  0.138041  0.074113  0.518499  1
  O  O51  1  0.421000  0.678520  0.585241  1
  O  O52  1  0.070306  0.645073  0.433712  1
  O  O53  1  0.615039  0.382599  0.593517  1
  O  O54  1  0.249178  0.731064  0.472672  1
  O  O55  1  0.622295  0.921587  0.526279  1
  O  O56  1  0.377705  0.078413  0.473721  1
  O  O57  1  0.750822  0.268936  0.527328  1
  O  O58  1  0.384961  0.617401  0.406483  1
  O  O59  1  0.929694  0.354927  0.566288  1
  O  O60  1  0.579000  0.321480  0.414759  1
  O  O61  1  0.861959  0.925887  0.481501  1
  O  O62  1  0.232563  0.686846  0.276114  1
  O  O63  1  0.129456  0.098717  0.238971  1
  O  O64  1  0.372617  0.425863  0.244058  1
  O  O65  1  0.391910  0.920845  0.272408  1
  O  O66  1  0.818881  0.363325  0.392673  1
  O  O67  1  0.056952  0.648108  0.181529  1
  O  O68  1  0.943048  0.148108  0.318471  1
  O  O69  1  0.181119  0.863325  0.107327  1
  O  O70  1  0.608090  0.420845  0.227592  1
  O  O71  1  0.627383  0.925863  0.255942  1
  O  O72  1  0.870544  0.598717  0.261029  1
  O  O73  1  0.767437  0.186846  0.223886  1
  O  O74  1  0.138041  0.425887  0.018499  1
  O  O75  1  0.421000  0.821480  0.085241  1
  O  O76  1  0.615039  0.117401  0.093517  1
  O  O77  1  0.622295  0.578413  0.026279  1
  O  O78  1  0.750822  0.231064  0.027328  1
  O  O79  1  0.929694  0.145073  0.066288  1
