# generated using pymatgen
data_La2Nb2N2O5
_symmetry_space_group_name_H-M   'P 1'
_cell_length_a   5.70178377
_cell_length_b   8.06580035
_cell_length_c   13.76007504
_cell_angle_alpha   81.56828845
_cell_angle_beta   89.51168413
_cell_angle_gamma   89.85301311
_symmetry_Int_Tables_number   1
_chemical_formula_structural   La2Nb2N2O5
_chemical_formula_sum   'La8 Nb8 N8 O20'
_cell_volume   625.95506405
_cell_formula_units_Z   4
loop_
 _symmetry_equiv_pos_site_id
 _symmetry_equiv_pos_as_xyz
  1  'x, y, z'
loop_
 _atom_site_type_symbol
 _atom_site_label
 _atom_site_symmetry_multiplicity
 _atom_site_fract_x
 _atom_site_fract_y
 _atom_site_fract_z
 _atom_site_occupancy
  La  La0  1  0.658955  0.864926  0.570934  1
  La  La1  1  0.251243  0.775210  0.903359  1
  La  La2  1  0.743248  0.721887  0.120370  1
  La  La3  1  0.238408  0.655732  0.386212  1
  La  La4  1  0.721859  0.335512  0.614933  1
  La  La5  1  0.249483  0.278160  0.874752  1
  La  La6  1  0.730545  0.223662  0.093121  1
  La  La7  1  0.173766  0.140240  0.432541  1
  Nb  Nb8  1  0.746008  0.935490  0.315342  1
  Nb  Nb9  1  0.250887  0.984732  0.101180  1
  Nb  Nb10  1  0.214763  0.599974  0.673511  1
  Nb  Nb11  1  0.741601  0.511712  0.882853  1
  Nb  Nb12  1  0.231162  0.465400  0.118130  1
  Nb  Nb13  1  0.719545  0.411543  0.324497  1
  Nb  Nb14  1  0.753788  0.033043  0.879279  1
  Nb  Nb15  1  0.209139  0.074016  0.673109  1
  N  N16  1  0.308826  0.819804  0.697856  1
  N  N17  1  0.817383  0.275609  0.913125  1
  N  N18  1  0.452810  0.037475  0.988679  1
  N  N19  1  0.439890  0.128788  0.570429  1
  N  N20  1  0.178179  0.227407  0.112338  1
  N  N21  1  0.801197  0.174111  0.304627  1
  N  N22  1  0.059127  0.024008  0.823958  1
  N  N23  1  0.949068  0.087279  0.586664  1
  O  O24  1  0.460238  0.908930  0.406045  1
  O  O25  1  0.545178  0.970770  0.187425  1
  O  O26  1  0.680275  0.774927  0.897572  1
  O  O27  1  0.948124  0.865244  0.428356  1
  O  O28  1  0.954369  0.953868  0.025133  1
  O  O29  1  0.016792  0.876722  0.227937  1
  O  O30  1  0.920713  0.622901  0.612692  1
  O  O31  1  0.057545  0.566392  0.822201  1
  O  O32  1  0.321258  0.723705  0.090203  1
  O  O33  1  0.641876  0.666480  0.302716  1
  O  O34  1  0.415774  0.590862  0.558149  1
  O  O35  1  0.465661  0.469837  0.981898  1
  O  O36  1  0.541071  0.498460  0.773128  1
  O  O37  1  0.033680  0.502433  0.228594  1
  O  O38  1  0.968041  0.537350  0.022449  1
  O  O39  1  0.922100  0.414076  0.435333  1
  O  O40  1  0.150421  0.328935  0.699475  1
  O  O41  1  0.557811  0.436236  0.178140  1
  O  O42  1  0.422265  0.382303  0.385602  1
  O  O43  1  0.550948  0.123850  0.775151  1
