# generated using pymatgen
data_Li3CuF6
_symmetry_space_group_name_H-M   'P 1'
_cell_length_a   5.01788960
_cell_length_b   8.43376281
_cell_length_c   9.75658175
_cell_angle_alpha   90.00000000
_cell_angle_beta   90.00000000
_cell_angle_gamma   90.00000000
_symmetry_Int_Tables_number   1
_chemical_formula_structural   Li3CuF6
_chemical_formula_sum   'Li12 Cu4 F24'
_cell_volume   412.89552188
_cell_formula_units_Z   4
loop_
 _symmetry_equiv_pos_site_id
 _symmetry_equiv_pos_as_xyz
  1  'x, y, z'
loop_
 _atom_site_type_symbol
 _atom_site_label
 _atom_site_symmetry_multiplicity
 _atom_site_fract_x
 _atom_site_fract_y
 _atom_site_fract_z
 _atom_site_occupancy
  Li  Li0  1  0.505128  0.546884  0.105803  1
  Li  Li1  1  0.991945  0.146260  0.125379  1
  Li  Li2  1  0.497380  0.950640  0.146371  1
  Li  Li3  1  0.997380  0.450640  0.353629  1
  Li  Li4  1  0.491945  0.646260  0.374621  1
  Li  Li5  1  0.005128  0.046884  0.394197  1
  Li  Li6  1  0.505128  0.953116  0.605803  1
  Li  Li7  1  0.991945  0.353740  0.625379  1
  Li  Li8  1  0.497380  0.549360  0.646371  1
  Li  Li9  1  0.997380  0.049360  0.853629  1
  Li  Li10  1  0.491945  0.853740  0.874621  1
  Li  Li11  1  0.005128  0.453116  0.894197  1
  Cu  Cu12  1  0.000036  0.760284  0.128021  1
  Cu  Cu13  1  0.500036  0.260284  0.371979  1
  Cu  Cu14  1  0.000036  0.739716  0.628021  1
  Cu  Cu15  1  0.500036  0.239716  0.871979  1
  F  F16  1  0.177623  0.915329  0.010443  1
  F  F17  1  0.677411  0.753278  0.022545  1
  F  F18  1  0.158061  0.592347  0.026029  1
  F  F19  1  0.853514  0.940356  0.226155  1
  F  F20  1  0.314970  0.769379  0.238397  1
  F  F21  1  0.816719  0.612171  0.246765  1
  F  F22  1  0.316719  0.112171  0.253235  1
  F  F23  1  0.814970  0.269379  0.261603  1
  F  F24  1  0.353514  0.440356  0.273845  1
  F  F25  1  0.658061  0.092347  0.473971  1
  F  F26  1  0.177411  0.253278  0.477455  1
  F  F27  1  0.677623  0.415329  0.489557  1
  F  F28  1  0.177623  0.584671  0.510443  1
  F  F29  1  0.677411  0.746722  0.522545  1
  F  F30  1  0.158061  0.907653  0.526029  1
  F  F31  1  0.853514  0.559644  0.726155  1
  F  F32  1  0.314970  0.730621  0.738397  1
  F  F33  1  0.816719  0.887829  0.746765  1
  F  F34  1  0.316719  0.387829  0.753235  1
  F  F35  1  0.814970  0.230621  0.761603  1
  F  F36  1  0.353514  0.059644  0.773845  1
  F  F37  1  0.658061  0.407653  0.973971  1
  F  F38  1  0.177411  0.246722  0.977455  1
  F  F39  1  0.677623  0.084671  0.989557  1
