# generated using pymatgen
data_Ce(WO4)2
_symmetry_space_group_name_H-M   'P 1'
_cell_length_a   9.76076040
_cell_length_b   10.35073491
_cell_length_c   14.55356908
_cell_angle_alpha   90.00000000
_cell_angle_beta   90.00000000
_cell_angle_gamma   90.00000000
_symmetry_Int_Tables_number   1
_chemical_formula_structural   Ce(WO4)2
_chemical_formula_sum   'Ce8 W16 O64'
_cell_volume   1470.36226964
_cell_formula_units_Z   8
loop_
 _symmetry_equiv_pos_site_id
 _symmetry_equiv_pos_as_xyz
  1  'x, y, z'
loop_
 _atom_site_type_symbol
 _atom_site_label
 _atom_site_symmetry_multiplicity
 _atom_site_fract_x
 _atom_site_fract_y
 _atom_site_fract_z
 _atom_site_occupancy
  Ce  Ce0  1  0.726769  0.965320  0.112038  1
  Ce  Ce1  1  0.773231  0.965320  0.612038  1
  Ce  Ce2  1  0.226769  0.534680  0.112038  1
  Ce  Ce3  1  0.273231  0.534680  0.612038  1
  Ce  Ce4  1  0.773231  0.465320  0.887962  1
  Ce  Ce5  1  0.726769  0.465320  0.387962  1
  Ce  Ce6  1  0.273231  0.034680  0.887962  1
  Ce  Ce7  1  0.226769  0.034680  0.387962  1
  W  W8  1  0.315128  0.896311  0.148288  1
  W  W9  1  0.184872  0.896311  0.648288  1
  W  W10  1  0.493432  0.773872  0.441288  1
  W  W11  1  0.006568  0.773872  0.941288  1
  W  W12  1  0.993432  0.726128  0.441288  1
  W  W13  1  0.506568  0.726128  0.941288  1
  W  W14  1  0.815128  0.603689  0.148288  1
  W  W15  1  0.684872  0.603689  0.648288  1
  W  W16  1  0.315128  0.396311  0.351712  1
  W  W17  1  0.184872  0.396311  0.851712  1
  W  W18  1  0.493432  0.273872  0.058712  1
  W  W19  1  0.006568  0.273872  0.558712  1
  W  W20  1  0.993432  0.226128  0.058712  1
  W  W21  1  0.506568  0.226128  0.558712  1
  W  W22  1  0.684872  0.103689  0.851712  1
  W  W23  1  0.815128  0.103689  0.351712  1
  O  O24  1  0.736505  0.991469  0.271919  1
  O  O25  1  0.763495  0.991469  0.771919  1
  O  O26  1  0.250663  0.926462  0.033481  1
  O  O27  1  0.249337  0.926462  0.533481  1
  O  O28  1  0.499890  0.916267  0.149382  1
  O  O29  1  0.000110  0.916267  0.649382  1
  O  O30  1  0.407548  0.893116  0.366897  1
  O  O31  1  0.092452  0.893116  0.866897  1
  O  O32  1  0.584911  0.853816  0.533105  1
  O  O33  1  0.915089  0.853816  0.033105  1
  O  O34  1  0.871701  0.837037  0.491587  1
  O  O35  1  0.628299  0.837037  0.991587  1
  O  O36  1  0.389686  0.826698  0.876376  1
  O  O37  1  0.110314  0.826698  0.376376  1
  O  O38  1  0.763556  0.765937  0.179702  1
  O  O39  1  0.736444  0.765937  0.679702  1
  O  O40  1  0.263556  0.734063  0.179702  1
  O  O41  1  0.236444  0.734063  0.679702  1
  O  O42  1  0.610314  0.673302  0.376376  1
  O  O43  1  0.889686  0.673302  0.876376  1
  O  O44  1  0.128299  0.662963  0.991587  1
  O  O45  1  0.371701  0.662963  0.491587  1
  O  O46  1  0.415089  0.646184  0.033105  1
  O  O47  1  0.084911  0.646184  0.533105  1
  O  O48  1  0.907548  0.606884  0.366897  1
  O  O49  1  0.592452  0.606884  0.866897  1
  O  O50  1  0.999890  0.583733  0.149382  1
  O  O51  1  0.500110  0.583733  0.649382  1
  O  O52  1  0.750663  0.573538  0.033481  1
  O  O53  1  0.749337  0.573538  0.533481  1
  O  O54  1  0.236505  0.508531  0.271919  1
  O  O55  1  0.263495  0.508531  0.771919  1
  O  O56  1  0.763495  0.491469  0.728081  1
  O  O57  1  0.736505  0.491469  0.228081  1
  O  O58  1  0.250663  0.426462  0.466519  1
  O  O59  1  0.249337  0.426462  0.966519  1
  O  O60  1  0.000110  0.416267  0.850618  1
  O  O61  1  0.499890  0.416267  0.350618  1
  O  O62  1  0.407548  0.393116  0.133103  1
  O  O63  1  0.092452  0.393116  0.633103  1
  O  O64  1  0.915089  0.353816  0.466895  1
  O  O65  1  0.584911  0.353816  0.966895  1
  O  O66  1  0.871701  0.337037  0.008413  1
  O  O67  1  0.628299  0.337037  0.508413  1
  O  O68  1  0.110314  0.326698  0.123624  1
  O  O69  1  0.389686  0.326698  0.623624  1
  O  O70  1  0.763556  0.265937  0.320298  1
  O  O71  1  0.736444  0.265937  0.820298  1
  O  O72  1  0.263556  0.234063  0.320298  1
  O  O73  1  0.236444  0.234063  0.820298  1
  O  O74  1  0.889686  0.173302  0.623624  1
  O  O75  1  0.610314  0.173302  0.123624  1
  O  O76  1  0.371701  0.162963  0.008413  1
  O  O77  1  0.128299  0.162963  0.508413  1
  O  O78  1  0.084911  0.146184  0.966895  1
  O  O79  1  0.415089  0.146184  0.466895  1
  O  O80  1  0.907548  0.106884  0.133103  1
  O  O81  1  0.592452  0.106884  0.633103  1
  O  O82  1  0.500110  0.083733  0.850618  1
  O  O83  1  0.999890  0.083733  0.350618  1
  O  O84  1  0.749337  0.073538  0.966519  1
  O  O85  1  0.750663  0.073538  0.466519  1
  O  O86  1  0.263495  0.008531  0.728081  1
  O  O87  1  0.236505  0.008531  0.228081  1
