# generated using pymatgen
data_Cs4Zr3Se14
_symmetry_space_group_name_H-M   'P 1'
_cell_length_a   12.47192675
_cell_length_b   12.47192675
_cell_length_c   14.99201073
_cell_angle_alpha   69.17193277
_cell_angle_beta   110.82806723
_cell_angle_gamma   137.10016957
_symmetry_Int_Tables_number   1
_chemical_formula_structural   Cs4Zr3Se14
_chemical_formula_sum   'Cs8 Zr6 Se28'
_cell_volume   1467.02700096
_cell_formula_units_Z   2
loop_
 _symmetry_equiv_pos_site_id
 _symmetry_equiv_pos_as_xyz
  1  'x, y, z'
loop_
 _atom_site_type_symbol
 _atom_site_label
 _atom_site_symmetry_multiplicity
 _atom_site_fract_x
 _atom_site_fract_y
 _atom_site_fract_z
 _atom_site_occupancy
  Cs  Cs0  1  0.974803  0.378789  0.889845  1
  Cs  Cs1  1  0.621211  0.025197  0.389845  1
  Cs  Cs2  1  0.810024  0.683529  0.651151  1
  Cs  Cs3  1  0.316471  0.189976  0.151151  1
  Cs  Cs4  1  0.683529  0.810024  0.848849  1
  Cs  Cs5  1  0.189976  0.316471  0.348849  1
  Cs  Cs6  1  0.378789  0.974803  0.610155  1
  Cs  Cs7  1  0.025197  0.621211  0.110155  1
  Zr  Zr8  1  0.411336  0.076312  0.915687  1
  Zr  Zr9  1  0.923688  0.588664  0.415687  1
  Zr  Zr10  1  0.239691  0.239691  0.750000  1
  Zr  Zr11  1  0.760308  0.760308  0.250000  1
  Zr  Zr12  1  0.076312  0.411336  0.584313  1
  Zr  Zr13  1  0.588664  0.923688  0.084313  1
  Se  Se14  1  0.939250  0.101492  0.631884  1
  Se  Se15  1  0.811783  0.160152  0.663597  1
  Se  Se16  1  0.898508  0.060750  0.131884  1
  Se  Se17  1  0.562490  0.002560  0.898908  1
  Se  Se18  1  0.839848  0.188217  0.163597  1
  Se  Se19  1  0.997440  0.437510  0.398908  1
  Se  Se20  1  0.684683  0.394533  0.890507  1
  Se  Se21  1  0.451358  0.251873  0.721214  1
  Se  Se22  1  0.203181  0.129198  0.604015  1
  Se  Se23  1  0.463647  0.335145  0.918351  1
  Se  Se24  1  0.605467  0.315317  0.390507  1
  Se  Se25  1  0.748127  0.548642  0.221215  1
  Se  Se26  1  0.335145  0.463647  0.581649  1
  Se  Se27  1  0.870802  0.796819  0.104015  1
  Se  Se28  1  0.129198  0.203181  0.895985  1
  Se  Se29  1  0.664855  0.536353  0.418351  1
  Se  Se30  1  0.251873  0.451358  0.778785  1
  Se  Se31  1  0.394533  0.684683  0.609493  1
  Se  Se32  1  0.536353  0.664855  0.081649  1
  Se  Se33  1  0.796819  0.870802  0.395985  1
  Se  Se34  1  0.548642  0.748127  0.278785  1
  Se  Se35  1  0.315317  0.605467  0.109493  1
  Se  Se36  1  0.002560  0.562490  0.601092  1
  Se  Se37  1  0.160152  0.811783  0.836403  1
  Se  Se38  1  0.437510  0.997440  0.101092  1
  Se  Se39  1  0.101492  0.939250  0.868115  1
  Se  Se40  1  0.188217  0.839848  0.336403  1
  Se  Se41  1  0.060750  0.898508  0.368116  1
