# generated using pymatgen
data_MoO3
_symmetry_space_group_name_H-M   'P 1'
_cell_length_a   3.93003219
_cell_length_b   3.76422422
_cell_length_c   7.49184212
_cell_angle_alpha   90.00000000
_cell_angle_beta   103.42525099
_cell_angle_gamma   90.00000000
_symmetry_Int_Tables_number   1
_chemical_formula_structural   MoO3
_chemical_formula_sum   'Mo2 O6'
_cell_volume   107.80213426
_cell_formula_units_Z   2
loop_
 _symmetry_equiv_pos_site_id
 _symmetry_equiv_pos_as_xyz
  1  'x, y, z'
loop_
 _atom_site_type_symbol
 _atom_site_label
 _atom_site_symmetry_multiplicity
 _atom_site_fract_x
 _atom_site_fract_y
 _atom_site_fract_z
 _atom_site_occupancy
  Mo  Mo0  1  0.657240  0.250000  0.704314  1
  Mo  Mo1  1  0.342760  0.750000  0.295686  1
  O  O2  1  0.098751  0.250000  0.676797  1
  O  O3  1  0.901249  0.750000  0.323203  1
  O  O4  1  0.564270  0.750000  0.630608  1
  O  O5  1  0.435730  0.250000  0.369392  1
  O  O6  1  0.722865  0.250000  0.937008  1
  O  O7  1  0.277135  0.750000  0.062992  1
