# generated using pymatgen
data_P4H3(WO8)2
_symmetry_space_group_name_H-M   'P 1'
_cell_length_a   5.01380070
_cell_length_b   7.49035286
_cell_length_c   8.31863480
_cell_angle_alpha   90.79962845
_cell_angle_beta   90.56782948
_cell_angle_gamma   104.34694978
_symmetry_Int_Tables_number   1
_chemical_formula_structural   P4H3(WO8)2
_chemical_formula_sum   'P4 H3 W2 O16'
_cell_volume   302.60612185
_cell_formula_units_Z   1
loop_
 _symmetry_equiv_pos_site_id
 _symmetry_equiv_pos_as_xyz
  1  'x, y, z'
loop_
 _atom_site_type_symbol
 _atom_site_label
 _atom_site_symmetry_multiplicity
 _atom_site_fract_x
 _atom_site_fract_y
 _atom_site_fract_z
 _atom_site_occupancy
  P  P0  1  0.117930  0.259649  0.661143  1
  P  P1  1  0.377145  0.227099  0.149299  1
  P  P2  1  0.612455  0.765786  0.849704  1
  P  P3  1  0.882554  0.743064  0.338783  1
  H  H4  1  0.451802  0.499506  0.603807  1
  H  H5  1  0.559436  0.493835  0.374301  1
  H  H6  1  0.959251  0.985331  0.993152  1
  W  W7  1  0.997393  0.496895  0.001713  1
  W  W8  1  0.499922  0.001151  0.499766  1
  O  O9  1  0.139912  0.819085  0.440716  1
  O  O10  1  0.051999  0.313168  0.832788  1
  O  O11  1  0.232259  0.392093  0.156209  1
  O  O12  1  0.261695  0.440575  0.570998  1
  O  O13  1  0.326082  0.673580  0.928381  1
  O  O14  1  0.559514  0.812665  0.677043  1
  O  O15  1  0.227913  0.063402  0.052260  1
  O  O16  1  0.306996  0.126101  0.669921  1
  O  O17  1  0.696563  0.878533  0.329646  1
  O  O18  1  0.750453  0.934740  0.952313  1
  O  O19  1  0.442872  0.191307  0.324701  1
  O  O20  1  0.669543  0.324216  0.071052  1
  O  O21  1  0.729613  0.562374  0.428276  1
  O  O22  1  0.771020  0.610839  0.845454  1
  O  O23  1  0.945493  0.685711  0.167791  1
  O  O24  1  0.859064  0.181193  0.560879  1
