# generated using pymatgen
data_Co5NiO12
_symmetry_space_group_name_H-M   'P 1'
_cell_length_a   4.90154536
_cell_length_b   4.90154536
_cell_length_c   9.61798930
_cell_angle_alpha   89.97518177
_cell_angle_beta   90.02481823
_cell_angle_gamma   59.93331860
_symmetry_Int_Tables_number   1
_chemical_formula_structural   Co5NiO12
_chemical_formula_sum   'Co5 Ni1 O12'
_cell_volume   199.98093917
_cell_formula_units_Z   1
loop_
 _symmetry_equiv_pos_site_id
 _symmetry_equiv_pos_as_xyz
  1  'x, y, z'
loop_
 _atom_site_type_symbol
 _atom_site_label
 _atom_site_symmetry_multiplicity
 _atom_site_fract_x
 _atom_site_fract_y
 _atom_site_fract_z
 _atom_site_occupancy
  Co  Co0  1  0.833339  0.833339  0.500000  1
  Co  Co1  1  0.333338  0.333338  0.000000  1
  Co  Co2  1  0.666662  0.666662  0.000000  1
  Co  Co3  1  0.166661  0.166661  0.500000  1
  Co  Co4  1  0.500000  0.500000  0.500000  1
  Ni  Ni5  1  0.000000  0.000000  0.000000  1
  O  O6  1  0.000176  0.667514  0.098176  1
  O  O7  1  0.667514  0.000176  0.901824  1
  O  O8  1  0.832712  0.500218  0.401851  1
  O  O9  1  0.499782  0.167288  0.401851  1
  O  O10  1  0.500218  0.832712  0.598149  1
  O  O11  1  0.833166  0.166834  0.598152  1
  O  O12  1  0.167288  0.499782  0.598149  1
  O  O13  1  0.332486  0.999824  0.098176  1
  O  O14  1  0.667662  0.332338  0.098225  1
  O  O15  1  0.999824  0.332486  0.901824  1
  O  O16  1  0.332338  0.667662  0.901775  1
  O  O17  1  0.166834  0.833166  0.401848  1
