# generated using pymatgen
data_V4(OF3)3
_symmetry_space_group_name_H-M   'P 1'
_cell_length_a   5.22781588
_cell_length_b   5.41142112
_cell_length_c   17.48344028
_cell_angle_alpha   89.35344744
_cell_angle_beta   98.39521892
_cell_angle_gamma   118.76476025
_symmetry_Int_Tables_number   1
_chemical_formula_structural   V4(OF3)3
_chemical_formula_sum   'V8 O6 F18'
_cell_volume   427.93328002
_cell_formula_units_Z   2
loop_
 _symmetry_equiv_pos_site_id
 _symmetry_equiv_pos_as_xyz
  1  'x, y, z'
loop_
 _atom_site_type_symbol
 _atom_site_label
 _atom_site_symmetry_multiplicity
 _atom_site_fract_x
 _atom_site_fract_y
 _atom_site_fract_z
 _atom_site_occupancy
  V  V0  1  0.248438  0.622314  0.874863  1
  V  V1  1  0.250760  0.143188  0.374249  1
  V  V2  1  0.543412  0.262392  0.750604  1
  V  V3  1  0.493937  0.721565  0.253712  1
  V  V4  1  0.752518  0.895669  0.627374  1
  V  V5  1  0.719280  0.379734  0.127712  1
  V  V6  1  0.955313  0.980551  0.998384  1
  V  V7  1  0.009691  0.497124  0.493090  1
  O  O8  1  0.078121  0.345196  0.420950  1
  O  O9  1  0.598337  0.798208  0.959208  1
  O  O10  1  0.455415  0.457210  0.311644  1
  O  O11  1  0.610084  0.075704  0.666724  1
  O  O12  1  0.580017  0.564866  0.165856  1
  O  O13  1  0.899263  0.449374  0.791519  1
  F  F14  1  0.087618  0.848390  0.914555  1
  F  F15  1  0.034613  0.321413  0.941828  1
  F  F16  1  0.026194  0.816697  0.435859  1
  F  F17  1  0.467903  0.927750  0.810514  1
  F  F18  1  0.102615  0.033895  0.708353  1
  F  F19  1  0.072045  0.536801  0.209647  1
  F  F20  1  0.406818  0.397384  0.834316  1
  F  F21  1  0.429952  0.928636  0.335032  1
  F  F22  1  0.432306  0.728616  0.537912  1
  F  F23  1  0.535496  0.554283  0.683873  1
  F  F24  1  0.576084  0.292585  0.462551  1
  F  F25  1  0.403320  0.193742  0.039520  1
  F  F26  1  0.921422  0.673038  0.581284  1
  F  F27  1  0.923199  0.963411  0.287119  1
  F  F28  1  0.527842  0.044492  0.187554  1
  F  F29  1  0.958403  0.676965  0.061755  1
  F  F30  1  0.986975  0.202778  0.564627  1
  F  F31  1  0.912607  0.166032  0.087811  1
