# generated using pymatgen
data_Li2CuPO4
_symmetry_space_group_name_H-M   'P 1'
_cell_length_a   5.38854737
_cell_length_b   6.24568551
_cell_length_c   10.08389908
_cell_angle_alpha   90.10927721
_cell_angle_beta   90.17722777
_cell_angle_gamma   90.39453362
_symmetry_Int_Tables_number   1
_chemical_formula_structural   Li2CuPO4
_chemical_formula_sum   'Li8 Cu4 P4 O16'
_cell_volume   339.36505938
_cell_formula_units_Z   4
loop_
 _symmetry_equiv_pos_site_id
 _symmetry_equiv_pos_as_xyz
  1  'x, y, z'
loop_
 _atom_site_type_symbol
 _atom_site_label
 _atom_site_symmetry_multiplicity
 _atom_site_fract_x
 _atom_site_fract_y
 _atom_site_fract_z
 _atom_site_occupancy
  Li  Li0  1  0.154737  0.001265  0.745400  1
  Li  Li1  1  0.155209  0.000422  0.246383  1
  Li  Li2  1  0.328430  0.754199  0.495892  1
  Li  Li3  1  0.327752  0.751172  0.997205  1
  Li  Li4  1  0.672542  0.746097  0.245649  1
  Li  Li5  1  0.672618  0.746566  0.745512  1
  Li  Li6  1  0.845722  0.498895  0.495167  1
  Li  Li7  1  0.673970  0.252274  0.244800  1
  Cu  Cu8  1  0.826575  0.501870  0.997903  1
  Cu  Cu9  1  0.667445  0.260114  0.745095  1
  Cu  Cu10  1  0.337459  0.242644  0.496564  1
  Cu  Cu11  1  0.327280  0.247942  0.000001  1
  P  P12  1  0.827512  0.993015  0.002467  1
  P  P13  1  0.826394  0.992898  0.496814  1
  P  P14  1  0.174209  0.504716  0.252090  1
  P  P15  1  0.176249  0.509027  0.746697  1
  O  O16  1  0.827832  0.991558  0.651677  1
  O  O17  1  0.098989  0.986069  0.444104  1
  O  O18  1  0.823436  0.995187  0.156510  1
  O  O19  1  0.097900  0.986198  0.947566  1
  O  O20  1  0.682326  0.792101  0.444747  1
  O  O21  1  0.678337  0.797359  0.946345  1
  O  O22  1  0.310877  0.706472  0.195964  1
  O  O23  1  0.319024  0.708085  0.693064  1
  O  O24  1  0.182672  0.514394  0.901099  1
  O  O25  1  0.903906  0.514168  0.693188  1
  O  O26  1  0.176344  0.512007  0.406226  1
  O  O27  1  0.896189  0.500554  0.206196  1
  O  O28  1  0.296900  0.292906  0.701210  1
  O  O29  1  0.310078  0.295678  0.206256  1
  O  O30  1  0.703755  0.203207  0.443349  1
  O  O31  1  0.697331  0.200941  0.951452  1
