# generated using pymatgen
data_Li13(FeO6)2
_symmetry_space_group_name_H-M   'P 1'
_cell_length_a   5.56119692
_cell_length_b   5.62580681
_cell_length_c   7.94824470
_cell_angle_alpha   90.16138722
_cell_angle_beta   91.74468528
_cell_angle_gamma   90.29137259
_symmetry_Int_Tables_number   1
_chemical_formula_structural   Li13(FeO6)2
_chemical_formula_sum   'Li13 Fe2 O12'
_cell_volume   248.55093700
_cell_formula_units_Z   1
loop_
 _symmetry_equiv_pos_site_id
 _symmetry_equiv_pos_as_xyz
  1  'x, y, z'
loop_
 _atom_site_type_symbol
 _atom_site_label
 _atom_site_symmetry_multiplicity
 _atom_site_fract_x
 _atom_site_fract_y
 _atom_site_fract_z
 _atom_site_occupancy
  Li  Li0  1  0.700983  0.116201  0.635814  1
  Li  Li1  1  0.371697  0.187194  0.891898  1
  Li  Li2  1  0.042468  0.222761  0.288064  1
  Li  Li3  1  0.815478  0.391393  0.895973  1
  Li  Li4  1  0.482309  0.317117  0.198365  1
  Li  Li5  1  0.129668  0.309380  0.605660  1
  Li  Li6  1  0.925789  0.636638  0.409020  1
  Li  Li7  1  0.490581  0.712331  0.771483  1
  Li  Li8  1  0.164898  0.622615  0.108448  1
  Li  Li9  1  0.000283  0.786851  0.717425  1
  Li  Li10  1  0.582985  0.811102  0.081271  1
  Li  Li11  1  0.282230  0.880988  0.390128  1
  Li  Li12  1  0.698749  0.986636  0.353208  1
  Fe  Fe13  1  0.510894  0.496596  0.495046  1
  Fe  Fe14  1  0.988685  0.003525  0.003617  1
  O  O15  1  0.986175  0.129924  0.782436  1
  O  O16  1  0.690402  0.145763  0.053589  1
  O  O17  1  0.346126  0.216232  0.416826  1
  O  O18  1  0.520487  0.374127  0.719288  1
  O  O19  1  0.156354  0.286141  0.071180  1
  O  O20  1  0.799453  0.321045  0.441271  1
  O  O21  1  0.217803  0.644393  0.558040  1
  O  O22  1  0.828051  0.727284  0.927275  1
  O  O23  1  0.483367  0.644523  0.277852  1
  O  O24  1  0.691292  0.778017  0.562144  1
  O  O25  1  0.283737  0.852403  0.948107  1
  O  O26  1  0.997177  0.881132  0.233168  1
