# generated using pymatgen
data_KSiHO3
_symmetry_space_group_name_H-M   'P 1'
_cell_length_a   7.62017968
_cell_length_b   7.62017968
_cell_length_c   11.44171544
_cell_angle_alpha   90.00000000
_cell_angle_beta   90.00000000
_cell_angle_gamma   100.73147705
_symmetry_Int_Tables_number   1
_chemical_formula_structural   KSiHO3
_chemical_formula_sum   'K8 Si8 H8 O24'
_cell_volume   652.76796334
_cell_formula_units_Z   8
loop_
 _symmetry_equiv_pos_site_id
 _symmetry_equiv_pos_as_xyz
  1  'x, y, z'
loop_
 _atom_site_type_symbol
 _atom_site_label
 _atom_site_symmetry_multiplicity
 _atom_site_fract_x
 _atom_site_fract_y
 _atom_site_fract_z
 _atom_site_occupancy
  K  K0  1  0.322463  0.322463  0.543051  1
  K  K1  1  0.677537  0.677537  0.456949  1
  K  K2  1  0.177537  0.177537  0.043051  1
  K  K3  1  0.822463  0.822463  0.956949  1
  K  K4  1  0.510527  0.010527  0.250000  1
  K  K5  1  0.989473  0.489473  0.750000  1
  K  K6  1  0.489473  0.989473  0.750000  1
  K  K7  1  0.010527  0.510527  0.250000  1
  Si  Si8  1  0.483716  0.483716  0.816242  1
  Si  Si9  1  0.516284  0.516284  0.183758  1
  Si  Si10  1  0.016284  0.016284  0.316242  1
  Si  Si11  1  0.983716  0.983716  0.683758  1
  Si  Si12  1  0.696517  0.303483  0.000000  1
  Si  Si13  1  0.196517  0.803483  0.500000  1
  Si  Si14  1  0.303483  0.696517  0.000000  1
  Si  Si15  1  0.803483  0.196517  0.500000  1
  H  H16  1  0.168460  0.168460  0.806539  1
  H  H17  1  0.831540  0.831540  0.193461  1
  H  H18  1  0.331540  0.331540  0.306539  1
  H  H19  1  0.668460  0.668460  0.693461  1
  H  H20  1  0.500000  0.000000  0.000000  1
  H  H21  1  0.000000  0.500000  0.000000  1
  H  H22  1  0.500000  0.000000  0.500000  1
  H  H23  1  0.000000  0.500000  0.500000  1
  O  O24  1  0.158212  0.933107  0.611506  1
  O  O25  1  0.066893  0.841788  0.388494  1
  O  O26  1  0.566893  0.341788  0.111506  1
  O  O27  1  0.658212  0.433107  0.888494  1
  O  O28  1  0.841788  0.066893  0.388494  1
  O  O29  1  0.933107  0.158212  0.611506  1
  O  O30  1  0.433107  0.658212  0.888494  1
  O  O31  1  0.341788  0.566893  0.111506  1
  O  O32  1  0.637042  0.093979  0.966860  1
  O  O33  1  0.906021  0.362958  0.033140  1
  O  O34  1  0.406021  0.862958  0.466860  1
  O  O35  1  0.137042  0.593979  0.533140  1
  O  O36  1  0.362958  0.906021  0.033140  1
  O  O37  1  0.093979  0.637042  0.966860  1
  O  O38  1  0.593979  0.137042  0.533140  1
  O  O39  1  0.862958  0.406021  0.466860  1
  O  O40  1  0.062426  0.062426  0.811824  1
  O  O41  1  0.937574  0.937574  0.188176  1
  O  O42  1  0.437574  0.437574  0.311824  1
  O  O43  1  0.562426  0.562426  0.688176  1
  O  O44  1  0.321400  0.321400  0.799037  1
  O  O45  1  0.678600  0.678600  0.200963  1
  O  O46  1  0.178600  0.178600  0.299037  1
  O  O47  1  0.821400  0.821400  0.700963  1
