# generated using pymatgen
data_Li3MnF6
_symmetry_space_group_name_H-M   'P 1'
_cell_length_a   5.90677180
_cell_length_b   6.11287539
_cell_length_c   6.17208926
_cell_angle_alpha   90.90869053
_cell_angle_beta   90.15761729
_cell_angle_gamma   91.80484615
_symmetry_Int_Tables_number   1
_chemical_formula_structural   Li3MnF6
_chemical_formula_sum   'Li6 Mn2 F12'
_cell_volume   222.71809774
_cell_formula_units_Z   2
loop_
 _symmetry_equiv_pos_site_id
 _symmetry_equiv_pos_as_xyz
  1  'x, y, z'
loop_
 _atom_site_type_symbol
 _atom_site_label
 _atom_site_symmetry_multiplicity
 _atom_site_fract_x
 _atom_site_fract_y
 _atom_site_fract_z
 _atom_site_occupancy
  Li  Li0  1  0.247677  0.049218  0.542191  1
  Li  Li1  1  0.937695  0.443310  0.767571  1
  Li  Li2  1  0.444212  0.739525  0.934238  1
  Li  Li3  1  0.555788  0.260475  0.065762  1
  Li  Li4  1  0.062305  0.556690  0.232429  1
  Li  Li5  1  0.752323  0.950782  0.457809  1
  Mn  Mn6  1  0.500000  0.500000  0.500000  1
  Mn  Mn7  1  0.000000  0.000000  0.000000  1
  F  F8  1  0.298810  0.079580  0.936780  1
  F  F9  1  0.928322  0.084607  0.695508  1
  F  F10  1  0.595013  0.451241  0.805615  1
  F  F11  1  0.083108  0.694219  0.920603  1
  F  F12  1  0.547351  0.191026  0.393574  1
  F  F13  1  0.199593  0.407159  0.551908  1
  F  F14  1  0.800407  0.592841  0.448092  1
  F  F15  1  0.452649  0.808974  0.606426  1
  F  F16  1  0.916892  0.305781  0.079397  1
  F  F17  1  0.404987  0.548759  0.194385  1
  F  F18  1  0.071678  0.915393  0.304492  1
  F  F19  1  0.701190  0.920420  0.063220  1
