# generated using pymatgen
data_Li7Cr3Fe(PO4)6
_symmetry_space_group_name_H-M   'P 1'
_cell_length_a   8.71904143
_cell_length_b   8.71904143
_cell_length_c   8.71904143
_cell_angle_alpha   61.03660953
_cell_angle_beta   61.03660953
_cell_angle_gamma   61.03660953
_symmetry_Int_Tables_number   1
_chemical_formula_structural   Li7Cr3Fe(PO4)6
_chemical_formula_sum   'Li7 Cr3 Fe1 P6 O24'
_cell_volume   479.63707895
_cell_formula_units_Z   1
loop_
 _symmetry_equiv_pos_site_id
 _symmetry_equiv_pos_as_xyz
  1  'x, y, z'
loop_
 _atom_site_type_symbol
 _atom_site_label
 _atom_site_symmetry_multiplicity
 _atom_site_fract_x
 _atom_site_fract_y
 _atom_site_fract_z
 _atom_site_occupancy
  Li  Li0  1  0.271605  0.787616  0.607728  1
  Li  Li1  1  0.787616  0.607728  0.271605  1
  Li  Li2  1  0.357569  0.761964  0.186438  1
  Li  Li3  1  0.018364  0.018364  0.018364  1
  Li  Li4  1  0.607728  0.271605  0.787616  1
  Li  Li5  1  0.186438  0.357569  0.761964  1
  Li  Li6  1  0.761964  0.186438  0.357569  1
  Cr  Cr7  1  0.857956  0.857956  0.857956  1
  Cr  Cr8  1  0.355454  0.355454  0.355454  1
  Cr  Cr9  1  0.645375  0.645375  0.645375  1
  Fe  Fe10  1  0.151559  0.151559  0.151559  1
  P  P11  1  0.546807  0.953979  0.251618  1
  P  P12  1  0.251618  0.546807  0.953979  1
  P  P13  1  0.953979  0.251618  0.546807  1
  P  P14  1  0.040677  0.748524  0.458311  1
  P  P15  1  0.748524  0.458311  0.040677  1
  P  P16  1  0.458311  0.040677  0.748524  1
  O  O17  1  0.289793  0.510051  0.124117  1
  O  O18  1  0.124117  0.289793  0.510051  1
  O  O19  1  0.510051  0.124117  0.289793  1
  O  O20  1  0.737441  0.921423  0.094573  1
  O  O21  1  0.563829  0.770340  0.421242  1
  O  O22  1  0.388611  0.965328  0.209597  1
  O  O23  1  0.094573  0.737441  0.921423  1
  O  O24  1  0.421242  0.563829  0.770340  1
  O  O25  1  0.770340  0.421242  0.563829  1
  O  O26  1  0.025864  0.790570  0.621407  1
  O  O27  1  0.059966  0.912776  0.274354  1
  O  O28  1  0.790570  0.621407  0.025864  1
  O  O29  1  0.209597  0.388611  0.965328  1
  O  O30  1  0.921423  0.094573  0.737441  1
  O  O31  1  0.965328  0.209597  0.388611  1
  O  O32  1  0.229933  0.586977  0.431107  1
  O  O33  1  0.586977  0.431107  0.229933  1
  O  O34  1  0.912776  0.274354  0.059966  1
  O  O35  1  0.621407  0.025864  0.790570  1
  O  O36  1  0.431107  0.229933  0.586977  1
  O  O37  1  0.274354  0.059966  0.912776  1
  O  O38  1  0.498309  0.877269  0.699665  1
  O  O39  1  0.877269  0.699665  0.498309  1
  O  O40  1  0.699665  0.498309  0.877269  1
