# generated using pymatgen
data_Li5VF8
_symmetry_space_group_name_H-M   'P 1'
_cell_length_a   5.98928845
_cell_length_b   5.98928845
_cell_length_c   5.98928845
_cell_angle_alpha   122.23191486
_cell_angle_beta   120.70234053
_cell_angle_gamma   87.48243952
_symmetry_Int_Tables_number   1
_chemical_formula_structural   Li5VF8
_chemical_formula_sum   'Li5 V1 F8'
_cell_volume   148.35902237
_cell_formula_units_Z   1
loop_
 _symmetry_equiv_pos_site_id
 _symmetry_equiv_pos_as_xyz
  1  'x, y, z'
loop_
 _atom_site_type_symbol
 _atom_site_label
 _atom_site_symmetry_multiplicity
 _atom_site_fract_x
 _atom_site_fract_y
 _atom_site_fract_z
 _atom_site_occupancy
  Li  Li0  1  0.500000  0.000000  0.000000  1
  Li  Li1  1  0.000000  0.500000  0.000000  1
  Li  Li2  1  0.000000  0.000000  0.500000  1
  Li  Li3  1  0.500000  0.000000  0.500000  1
  Li  Li4  1  0.500000  0.500000  0.500000  1
  V  V5  1  0.000000  0.000000  0.000000  1
  F  F6  1  0.233877  0.233877  0.000000  1
  F  F7  1  0.761606  0.229233  0.990838  1
  F  F8  1  0.238394  0.770767  0.009162  1
  F  F9  1  0.766123  0.766123  0.000000  1
  F  F10  1  0.238394  0.229233  0.467627  1
  F  F11  1  0.729054  0.229054  0.500000  1
  F  F12  1  0.270946  0.770946  0.500000  1
  F  F13  1  0.761606  0.770767  0.532373  1
