# generated using pymatgen
data_Cu3OF5
_symmetry_space_group_name_H-M   'P 1'
_cell_length_a   5.53355353
_cell_length_b   5.87940608
_cell_length_c   6.97849714
_cell_angle_alpha   76.31030069
_cell_angle_beta   73.18834236
_cell_angle_gamma   72.54600900
_symmetry_Int_Tables_number   1
_chemical_formula_structural   Cu3OF5
_chemical_formula_sum   'Cu6 O2 F10'
_cell_volume   204.51566318
_cell_formula_units_Z   2
loop_
 _symmetry_equiv_pos_site_id
 _symmetry_equiv_pos_as_xyz
  1  'x, y, z'
loop_
 _atom_site_type_symbol
 _atom_site_label
 _atom_site_symmetry_multiplicity
 _atom_site_fract_x
 _atom_site_fract_y
 _atom_site_fract_z
 _atom_site_occupancy
  Cu  Cu0  1  0.995721  0.999760  0.996731  1
  Cu  Cu1  1  0.982270  0.980412  0.499327  1
  Cu  Cu2  1  0.675691  0.672865  0.341283  1
  Cu  Cu3  1  0.653970  0.652601  0.821018  1
  Cu  Cu4  1  0.336398  0.337442  0.154878  1
  Cu  Cu5  1  0.339451  0.336870  0.676680  1
  O  O6  1  0.763842  0.757413  0.539561  1
  O  O7  1  0.431534  0.434072  0.873638  1
  F  F8  1  0.895274  0.893976  0.799326  1
  F  F9  1  0.584829  0.585978  0.127848  1
  F  F10  1  0.352752  0.949928  0.845135  1
  F  F11  1  0.316422  0.725518  0.484329  1
  F  F12  1  0.983205  0.380057  0.822561  1
  F  F13  1  0.030873  0.616005  0.180916  1
  F  F14  1  0.690651  0.280088  0.519226  1
  F  F15  1  0.636450  0.059000  0.151161  1
  F  F16  1  0.242823  0.247523  0.458304  1
  F  F17  1  0.087844  0.090490  0.208076  1
