# generated using pymatgen
data_Ca5W3O14
_symmetry_space_group_name_H-M   'P 1'
_cell_length_a   10.52300309
_cell_length_b   10.53165447
_cell_length_c   10.65665530
_cell_angle_alpha   90.00000000
_cell_angle_beta   90.00000000
_cell_angle_gamma   90.00000000
_symmetry_Int_Tables_number   1
_chemical_formula_structural   Ca5W3O14
_chemical_formula_sum   'Ca20 W12 O56'
_cell_volume   1181.01990763
_cell_formula_units_Z   4
loop_
 _symmetry_equiv_pos_site_id
 _symmetry_equiv_pos_as_xyz
  1  'x, y, z'
loop_
 _atom_site_type_symbol
 _atom_site_label
 _atom_site_symmetry_multiplicity
 _atom_site_fract_x
 _atom_site_fract_y
 _atom_site_fract_z
 _atom_site_occupancy
  Ca  Ca0  1  0.500000  0.000000  0.000000  1
  Ca  Ca1  1  0.000000  0.500000  0.000000  1
  Ca  Ca2  1  0.777331  0.744179  0.004207  1
  Ca  Ca3  1  0.277331  0.755821  0.004207  1
  Ca  Ca4  1  0.742466  0.480811  0.237214  1
  Ca  Ca5  1  0.242466  0.019189  0.237214  1
  Ca  Ca6  1  0.242466  0.519189  0.262786  1
  Ca  Ca7  1  0.742466  0.980811  0.262786  1
  Ca  Ca8  1  0.777331  0.244179  0.495793  1
  Ca  Ca9  1  0.277331  0.255821  0.495793  1
  Ca  Ca10  1  0.500000  0.500000  0.500000  1
  Ca  Ca11  1  0.000000  0.000000  0.500000  1
  Ca  Ca12  1  0.722669  0.744179  0.504207  1
  Ca  Ca13  1  0.222669  0.755821  0.504207  1
  Ca  Ca14  1  0.257534  0.019189  0.737214  1
  Ca  Ca15  1  0.757534  0.480811  0.737214  1
  Ca  Ca16  1  0.757534  0.980811  0.762786  1
  Ca  Ca17  1  0.257534  0.519189  0.762786  1
  Ca  Ca18  1  0.222669  0.255821  0.995793  1
  Ca  Ca19  1  0.722669  0.244179  0.995793  1
  W  W20  1  0.000000  0.000000  0.000000  1
  W  W21  1  0.500000  0.500000  0.000000  1
  W  W22  1  0.997639  0.255705  0.246730  1
  W  W23  1  0.497639  0.244295  0.246730  1
  W  W24  1  0.997639  0.755705  0.253270  1
  W  W25  1  0.497639  0.744295  0.253270  1
  W  W26  1  0.500000  0.000000  0.500000  1
  W  W27  1  0.000000  0.500000  0.500000  1
  W  W28  1  0.002361  0.244295  0.746730  1
  W  W29  1  0.502361  0.255705  0.746730  1
  W  W30  1  0.002361  0.744295  0.753270  1
  W  W31  1  0.502361  0.755705  0.753270  1
  O  O32  1  0.668593  0.557538  0.014999  1
  O  O33  1  0.168593  0.942462  0.014999  1
  O  O34  1  0.551540  0.371079  0.121166  1
  O  O35  1  0.051540  0.128921  0.121166  1
  O  O36  1  0.936665  0.885646  0.132318  1
  O  O37  1  0.436665  0.614354  0.132318  1
  O  O38  1  0.866465  0.323261  0.136899  1
  O  O39  1  0.366465  0.176739  0.136899  1
  O  O40  1  0.631704  0.811730  0.150953  1
  O  O41  1  0.131704  0.688270  0.150953  1
  O  O42  1  0.610497  0.124220  0.160761  1
  O  O43  1  0.110497  0.375780  0.160761  1
  O  O44  1  0.888174  0.633795  0.169362  1
  O  O45  1  0.388174  0.866205  0.169362  1
  O  O46  1  0.388174  0.366205  0.330638  1
  O  O47  1  0.888174  0.133795  0.330638  1
  O  O48  1  0.110497  0.875780  0.339239  1
  O  O49  1  0.610497  0.624220  0.339239  1
  O  O50  1  0.131704  0.188270  0.349047  1
  O  O51  1  0.631704  0.311730  0.349047  1
  O  O52  1  0.366465  0.676739  0.363101  1
  O  O53  1  0.866465  0.823261  0.363101  1
  O  O54  1  0.936665  0.385646  0.367682  1
  O  O55  1  0.436665  0.114354  0.367682  1
  O  O56  1  0.551540  0.871079  0.378834  1
  O  O57  1  0.051540  0.628921  0.378834  1
  O  O58  1  0.168593  0.442462  0.485001  1
  O  O59  1  0.668593  0.057538  0.485001  1
  O  O60  1  0.831407  0.557538  0.514999  1
  O  O61  1  0.331407  0.942462  0.514999  1
  O  O62  1  0.948460  0.371079  0.621166  1
  O  O63  1  0.448460  0.128921  0.621166  1
  O  O64  1  0.563335  0.885646  0.632318  1
  O  O65  1  0.063335  0.614354  0.632318  1
  O  O66  1  0.633535  0.323261  0.636899  1
  O  O67  1  0.133535  0.176739  0.636899  1
  O  O68  1  0.868296  0.811730  0.650953  1
  O  O69  1  0.368296  0.688270  0.650953  1
  O  O70  1  0.389503  0.375780  0.660761  1
  O  O71  1  0.889503  0.124220  0.660761  1
  O  O72  1  0.611826  0.633795  0.669362  1
  O  O73  1  0.111826  0.866205  0.669362  1
  O  O74  1  0.111826  0.366205  0.830638  1
  O  O75  1  0.611826  0.133795  0.830638  1
  O  O76  1  0.389503  0.875780  0.839239  1
  O  O77  1  0.889503  0.624220  0.839239  1
  O  O78  1  0.868296  0.311730  0.849047  1
  O  O79  1  0.368296  0.188270  0.849047  1
  O  O80  1  0.633535  0.823261  0.863101  1
  O  O81  1  0.133535  0.676739  0.863101  1
  O  O82  1  0.563335  0.385646  0.867682  1
  O  O83  1  0.063335  0.114354  0.867682  1
  O  O84  1  0.948460  0.871079  0.878834  1
  O  O85  1  0.448460  0.628921  0.878834  1
  O  O86  1  0.831407  0.057538  0.985001  1
  O  O87  1  0.331407  0.442462  0.985001  1
