# generated using pymatgen
data_Fe3O5F
_symmetry_space_group_name_H-M   'P 1'
_cell_length_a   5.54976076
_cell_length_b   5.54976076
_cell_length_c   7.30370119
_cell_angle_alpha   70.88118968
_cell_angle_beta   109.11881032
_cell_angle_gamma   109.29853186
_symmetry_Int_Tables_number   1
_chemical_formula_structural   Fe3O5F
_chemical_formula_sum   'Fe6 O10 F2'
_cell_volume   194.44222450
_cell_formula_units_Z   2
loop_
 _symmetry_equiv_pos_site_id
 _symmetry_equiv_pos_as_xyz
  1  'x, y, z'
loop_
 _atom_site_type_symbol
 _atom_site_label
 _atom_site_symmetry_multiplicity
 _atom_site_fract_x
 _atom_site_fract_y
 _atom_site_fract_z
 _atom_site_occupancy
  Fe  Fe0  1  0.330393  0.669607  0.835858  1
  Fe  Fe1  1  0.651622  0.348378  0.670912  1
  Fe  Fe2  1  0.348378  0.651622  0.329088  1
  Fe  Fe3  1  0.669607  0.330393  0.164142  1
  Fe  Fe4  1  1.000000  0.000000  0.500000  1
  Fe  Fe5  1  0.000000  0.000000  0.000000  1
  O  O6  1  0.969702  0.645961  0.669389  1
  O  O7  1  0.645961  0.969702  0.330611  1
  O  O8  1  0.771647  0.228353  0.958409  1
  O  O9  1  0.424940  0.575060  0.620995  1
  O  O10  1  0.228353  0.771647  0.041591  1
  O  O11  1  0.575060  0.424940  0.379005  1
  O  O12  1  0.030298  0.354039  0.330611  1
  O  O13  1  0.354039  0.030298  0.669389  1
  O  O14  1  0.695199  0.695199  0.000000  1
  O  O15  1  0.304801  0.304801  0.000000  1
  F  F16  1  0.106037  0.893963  0.302210  1
  F  F17  1  0.893963  0.106037  0.697790  1
