# generated using pymatgen
data_LiVF4
_symmetry_space_group_name_H-M   'P 1'
_cell_length_a   4.69570618
_cell_length_b   5.71591349
_cell_length_c   10.31242011
_cell_angle_alpha   90.00000000
_cell_angle_beta   90.00000000
_cell_angle_gamma   90.00000000
_symmetry_Int_Tables_number   1
_chemical_formula_structural   LiVF4
_chemical_formula_sum   'Li4 V4 F16'
_cell_volume   276.78793694
_cell_formula_units_Z   4
loop_
 _symmetry_equiv_pos_site_id
 _symmetry_equiv_pos_as_xyz
  1  'x, y, z'
loop_
 _atom_site_type_symbol
 _atom_site_label
 _atom_site_symmetry_multiplicity
 _atom_site_fract_x
 _atom_site_fract_y
 _atom_site_fract_z
 _atom_site_occupancy
  Li  Li0  1  0.000000  0.814818  0.250000  1
  Li  Li1  1  0.000000  0.185182  0.750000  1
  Li  Li2  1  0.500000  0.314818  0.250000  1
  Li  Li3  1  0.500000  0.685182  0.750000  1
  V  V4  1  0.000000  0.500000  0.000000  1
  V  V5  1  0.000000  0.500000  0.500000  1
  V  V6  1  0.500000  0.000000  0.000000  1
  V  V7  1  0.500000  0.000000  0.500000  1
  F  F8  1  0.213273  0.518643  0.342090  1
  F  F9  1  0.213273  0.481357  0.842090  1
  F  F10  1  0.227937  0.772901  0.076450  1
  F  F11  1  0.227937  0.227099  0.576450  1
  F  F12  1  0.272063  0.272901  0.076450  1
  F  F13  1  0.272063  0.727099  0.576450  1
  F  F14  1  0.286727  0.018643  0.342090  1
  F  F15  1  0.286727  0.981357  0.842090  1
  F  F16  1  0.713273  0.018643  0.157910  1
  F  F17  1  0.713273  0.981357  0.657910  1
  F  F18  1  0.727937  0.272901  0.423550  1
  F  F19  1  0.727937  0.727099  0.923550  1
  F  F20  1  0.772063  0.227099  0.923550  1
  F  F21  1  0.772063  0.772901  0.423550  1
  F  F22  1  0.786727  0.518643  0.157910  1
  F  F23  1  0.786727  0.481357  0.657910  1
