# generated using pymatgen
data_LiCr4(PO4)3
_symmetry_space_group_name_H-M   'P 1'
_cell_length_a   10.72749376
_cell_length_b   10.72749376
_cell_length_c   10.72749376
_cell_angle_alpha   142.67533253
_cell_angle_beta   142.67533253
_cell_angle_gamma   53.81282502
_symmetry_Int_Tables_number   1
_chemical_formula_structural   LiCr4(PO4)3
_chemical_formula_sum   'Li2 Cr8 P6 O24'
_cell_volume   450.88919517
_cell_formula_units_Z   2
loop_
 _symmetry_equiv_pos_site_id
 _symmetry_equiv_pos_as_xyz
  1  'x, y, z'
loop_
 _atom_site_type_symbol
 _atom_site_label
 _atom_site_symmetry_multiplicity
 _atom_site_fract_x
 _atom_site_fract_y
 _atom_site_fract_z
 _atom_site_occupancy
  Li  Li0  1  0.500000  0.500000  0.000000  1
  Li  Li1  1  0.250000  0.750000  0.500000  1
  Cr  Cr2  1  0.875000  0.877583  0.502583  1
  Cr  Cr3  1  0.974702  0.474702  0.500000  1
  Cr  Cr4  1  0.627583  0.125000  0.002583  1
  Cr  Cr5  1  0.375000  0.372417  0.497417  1
  Cr  Cr6  1  0.525298  0.025298  0.500000  1
  Cr  Cr7  1  0.224702  0.224702  0.000000  1
  Cr  Cr8  1  0.775298  0.775298  0.000000  1
  Cr  Cr9  1  0.122417  0.625000  0.997417  1
  P  P10  1  0.750000  0.250000  0.500000  1
  P  P11  1  0.375000  0.769133  0.894133  1
  P  P12  1  0.875000  0.480867  0.105867  1
  P  P13  1  0.230867  0.125000  0.605867  1
  P  P14  1  0.000000  0.000000  0.000000  1
  P  P15  1  0.519133  0.625000  0.394133  1
  O  O16  1  0.897600  0.157101  0.638365  1
  O  O17  1  0.214920  0.908120  0.832972  1
  O  O18  1  0.535080  0.868052  0.193200  1
  O  O19  1  0.658120  0.464920  0.332972  1
  O  O20  1  0.905866  0.690145  0.218892  1
  O  O21  1  0.844134  0.563026  0.284279  1
  O  O22  1  0.278748  0.559855  0.715721  1
  O  O23  1  0.471252  0.686974  0.781108  1
  O  O24  1  0.131948  0.325148  0.667028  1
  O  O25  1  0.740766  0.102400  0.259501  1
  O  O26  1  0.313026  0.094134  0.784279  1
  O  O27  1  0.674852  0.341880  0.806800  1
  O  O28  1  0.075148  0.381948  0.167028  1
  O  O29  1  0.440145  0.155866  0.718892  1
  O  O30  1  0.907101  0.147600  0.138365  1
  O  O31  1  0.231264  0.092899  0.240499  1
  O  O32  1  0.518736  0.259234  0.361635  1
  O  O33  1  0.091880  0.924852  0.306800  1
  O  O34  1  0.618052  0.785080  0.693200  1
  O  O35  1  0.852400  0.990766  0.759501  1
  O  O36  1  0.009234  0.768736  0.861635  1
  O  O37  1  0.436974  0.721252  0.281108  1
  O  O38  1  0.309855  0.528748  0.215721  1
  O  O39  1  0.842899  0.481264  0.740499  1
