# generated using pymatgen
data_LiMn(PO3)3
_symmetry_space_group_name_H-M   'P 1'
_cell_length_a   6.36062847
_cell_length_b   6.36062847
_cell_length_c   6.36062847
_cell_angle_alpha   108.32093812
_cell_angle_beta   108.32093812
_cell_angle_gamma   108.32093812
_symmetry_Int_Tables_number   1
_chemical_formula_structural   LiMn(PO3)3
_chemical_formula_sum   'Li1 Mn1 P3 O9'
_cell_volume   206.10213545
_cell_formula_units_Z   1
loop_
 _symmetry_equiv_pos_site_id
 _symmetry_equiv_pos_as_xyz
  1  'x, y, z'
loop_
 _atom_site_type_symbol
 _atom_site_label
 _atom_site_symmetry_multiplicity
 _atom_site_fract_x
 _atom_site_fract_y
 _atom_site_fract_z
 _atom_site_occupancy
  Li  Li0  1  0.454753  0.454753  0.454753  1
  Mn  Mn1  1  0.004945  0.004945  0.004945  1
  P  P2  1  0.482768  0.906021  0.027138  1
  P  P3  1  0.027138  0.482768  0.906021  1
  P  P4  1  0.906021  0.027138  0.482768  1
  O  O5  1  0.632789  0.856567  0.250519  1
  O  O6  1  0.131530  0.401917  0.097180  1
  O  O7  1  0.937992  0.879572  0.622298  1
  O  O8  1  0.622298  0.937992  0.879572  1
  O  O9  1  0.401917  0.097180  0.131530  1
  O  O10  1  0.250519  0.632789  0.856567  1
  O  O11  1  0.097180  0.131530  0.401917  1
  O  O12  1  0.879572  0.622298  0.937992  1
  O  O13  1  0.856567  0.250519  0.632789  1
