# generated using pymatgen
data_Li2Sn(PO3)5
_symmetry_space_group_name_H-M   'P 1'
_cell_length_a   5.41733213
_cell_length_b   13.76055813
_cell_length_c   8.98490530
_cell_angle_alpha   90.00000000
_cell_angle_beta   102.44829049
_cell_angle_gamma   90.00000000
_symmetry_Int_Tables_number   1
_chemical_formula_structural   Li2Sn(PO3)5
_chemical_formula_sum   'Li4 Sn2 P10 O30'
_cell_volume   654.03838448
_cell_formula_units_Z   2
loop_
 _symmetry_equiv_pos_site_id
 _symmetry_equiv_pos_as_xyz
  1  'x, y, z'
loop_
 _atom_site_type_symbol
 _atom_site_label
 _atom_site_symmetry_multiplicity
 _atom_site_fract_x
 _atom_site_fract_y
 _atom_site_fract_z
 _atom_site_occupancy
  Li  Li0  1  0.057547  0.871871  0.078736  1
  Li  Li1  1  0.057547  0.628129  0.078736  1
  Li  Li2  1  0.942453  0.371871  0.921264  1
  Li  Li3  1  0.942453  0.128129  0.921264  1
  Sn  Sn4  1  0.500000  0.000000  0.500000  1
  Sn  Sn5  1  0.500000  0.500000  0.500000  1
  P  P6  1  0.992977  0.355845  0.483990  1
  P  P7  1  0.992977  0.144155  0.483990  1
  P  P8  1  0.334092  0.921089  0.821058  1
  P  P9  1  0.334092  0.578911  0.821058  1
  P  P10  1  0.458697  0.250000  0.985816  1
  P  P11  1  0.541303  0.750000  0.014184  1
  P  P12  1  0.665908  0.421089  0.178942  1
  P  P13  1  0.665908  0.078911  0.178942  1
  P  P14  1  0.007023  0.644155  0.516010  1
  P  P15  1  0.007023  0.855845  0.516010  1
  O  O16  1  0.074661  0.750000  0.462511  1
  O  O17  1  0.180090  0.956592  0.929137  1
  O  O18  1  0.180090  0.543408  0.929137  1
  O  O19  1  0.197433  0.250000  0.886912  1
  O  O20  1  0.154950  0.855915  0.689972  1
  O  O21  1  0.154950  0.644085  0.689972  1
  O  O22  1  0.123426  0.925384  0.419432  1
  O  O23  1  0.123426  0.574616  0.419432  1
  O  O24  1  0.272448  0.362494  0.490341  1
  O  O25  1  0.272448  0.137506  0.490341  1
  O  O26  1  0.539776  0.841415  0.897768  1
  O  O27  1  0.539776  0.658585  0.897768  1
  O  O28  1  0.475556  0.994240  0.744879  1
  O  O29  1  0.475556  0.505760  0.744879  1
  O  O30  1  0.303362  0.750000  0.074758  1
  O  O31  1  0.696638  0.250000  0.925242  1
  O  O32  1  0.524444  0.005760  0.255121  1
  O  O33  1  0.524444  0.494240  0.255121  1
  O  O34  1  0.460224  0.341415  0.102232  1
  O  O35  1  0.460224  0.158585  0.102232  1
  O  O36  1  0.727552  0.862494  0.509659  1
  O  O37  1  0.727552  0.637506  0.509659  1
  O  O38  1  0.876574  0.425384  0.580568  1
  O  O39  1  0.876574  0.074616  0.580568  1
  O  O40  1  0.845050  0.355915  0.310028  1
  O  O41  1  0.845050  0.144085  0.310028  1
  O  O42  1  0.802567  0.750000  0.113088  1
  O  O43  1  0.819910  0.456592  0.070863  1
  O  O44  1  0.819910  0.043408  0.070863  1
  O  O45  1  0.925339  0.250000  0.537489  1
