# generated using pymatgen
data_Li5Mn6O12
_symmetry_space_group_name_H-M   'P 1'
_cell_length_a   6.14229661
_cell_length_b   6.55207164
_cell_length_c   6.55719348
_cell_angle_alpha   97.80142187
_cell_angle_beta   103.26066769
_cell_angle_gamma   112.38362955
_symmetry_Int_Tables_number   1
_chemical_formula_structural   Li5Mn6O12
_chemical_formula_sum   'Li5 Mn6 O12'
_cell_volume   230.09138541
_cell_formula_units_Z   1
loop_
 _symmetry_equiv_pos_site_id
 _symmetry_equiv_pos_as_xyz
  1  'x, y, z'
loop_
 _atom_site_type_symbol
 _atom_site_label
 _atom_site_symmetry_multiplicity
 _atom_site_fract_x
 _atom_site_fract_y
 _atom_site_fract_z
 _atom_site_occupancy
  Li  Li0  1  0.997042  0.330070  0.831464  1
  Li  Li1  1  0.002958  0.669930  0.168536  1
  Li  Li2  1  0.501254  0.325521  0.826097  1
  Li  Li3  1  0.498746  0.674479  0.173903  1
  Li  Li4  1  0.000000  0.000000  0.500000  1
  Mn  Mn5  1  0.747326  0.833048  0.833569  1
  Mn  Mn6  1  0.251122  0.838171  0.827537  1
  Mn  Mn7  1  0.747574  0.492802  0.503151  1
  Mn  Mn8  1  0.252426  0.507198  0.496849  1
  Mn  Mn9  1  0.748878  0.161829  0.172463  1
  Mn  Mn10  1  0.252674  0.166952  0.166431  1
  O  O11  1  0.849356  0.581895  0.817231  1
  O  O12  1  0.354702  0.589429  0.811564  1
  O  O13  1  0.102574  0.726441  0.511908  1
  O  O14  1  0.897426  0.273559  0.488092  1
  O  O15  1  0.624042  0.726527  0.515526  1
  O  O16  1  0.375958  0.273473  0.484474  1
  O  O17  1  0.150644  0.418105  0.182769  1
  O  O18  1  0.645298  0.410571  0.188436  1
  O  O19  1  0.858565  0.917578  0.153925  1
  O  O20  1  0.352038  0.918601  0.139601  1
  O  O21  1  0.141435  0.082422  0.846075  1
  O  O22  1  0.647962  0.081399  0.860399  1
