# generated using pymatgen
data_LiCu2F5
_symmetry_space_group_name_H-M   'P 1'
_cell_length_a   6.39745212
_cell_length_b   6.39745212
_cell_length_c   6.19663334
_cell_angle_alpha   71.86166520
_cell_angle_beta   108.13833480
_cell_angle_gamma   72.93485388
_symmetry_Int_Tables_number   1
_chemical_formula_structural   LiCu2F5
_chemical_formula_sum   'Li2 Cu4 F10'
_cell_volume   206.52958522
_cell_formula_units_Z   2
loop_
 _symmetry_equiv_pos_site_id
 _symmetry_equiv_pos_as_xyz
  1  'x, y, z'
loop_
 _atom_site_type_symbol
 _atom_site_label
 _atom_site_symmetry_multiplicity
 _atom_site_fract_x
 _atom_site_fract_y
 _atom_site_fract_z
 _atom_site_occupancy
  Li  Li0  1  0.634633  0.634633  0.250000  1
  Li  Li1  1  0.365367  0.365367  0.750000  1
  Cu  Cu2  1  0.000000  0.000000  0.500000  1
  Cu  Cu3  1  0.000000  0.500000  0.000000  1
  Cu  Cu4  1  0.000000  0.000000  0.000000  1
  Cu  Cu5  1  0.500000  0.000000  0.500000  1
  F  F6  1  0.945617  0.721204  0.146687  1
  F  F7  1  0.827842  0.334132  0.271093  1
  F  F8  1  0.721204  0.945617  0.353313  1
  F  F9  1  0.665868  0.172158  0.771093  1
  F  F10  1  0.331894  0.331894  0.250000  1
  F  F11  1  0.668106  0.668106  0.750000  1
  F  F12  1  0.334132  0.827842  0.228907  1
  F  F13  1  0.278796  0.054383  0.646687  1
  F  F14  1  0.172158  0.665868  0.728907  1
  F  F15  1  0.054383  0.278796  0.853313  1
