# generated using pymatgen
data_LiV2(OF)3
_symmetry_space_group_name_H-M   'P 1'
_cell_length_a   5.08641494
_cell_length_b   5.13220704
_cell_length_c   13.58422446
_cell_angle_alpha   88.05147934
_cell_angle_beta   88.69976130
_cell_angle_gamma   61.47979168
_symmetry_Int_Tables_number   1
_chemical_formula_structural   LiV2(OF)3
_chemical_formula_sum   'Li3 V6 O9 F9'
_cell_volume   311.38893389
_cell_formula_units_Z   3
loop_
 _symmetry_equiv_pos_site_id
 _symmetry_equiv_pos_as_xyz
  1  'x, y, z'
loop_
 _atom_site_type_symbol
 _atom_site_label
 _atom_site_symmetry_multiplicity
 _atom_site_fract_x
 _atom_site_fract_y
 _atom_site_fract_z
 _atom_site_occupancy
  Li  Li0  1  0.654222  0.671957  0.462973  1
  Li  Li1  1  0.376814  0.325668  0.125995  1
  Li  Li2  1  0.019000  0.978205  0.795418  1
  V  V3  1  0.947666  0.996785  0.501080  1
  V  V4  1  0.708365  0.681461  0.166485  1
  V  V5  1  0.643076  0.697888  0.679109  1
  V  V6  1  0.351467  0.312901  0.832640  1
  V  V7  1  0.053766  0.963528  0.010930  1
  V  V8  1  0.307924  0.325263  0.344247  1
  O  O9  1  0.911321  0.736896  0.576211  1
  O  O10  1  0.998892  0.583778  0.246195  1
  O  O11  1  0.729563  0.963039  0.083413  1
  O  O12  1  0.627007  0.979931  0.748545  1
  O  O13  1  0.382665  0.597131  0.751566  1
  O  O14  1  0.666538  0.056101  0.409321  1
  O  O15  1  0.352187  0.718163  0.078819  1
  O  O16  1  0.247286  0.091984  0.908082  1
  O  O17  1  0.053334  0.283458  0.418979  1
  F  F18  1  0.988136  0.333258  0.080516  1
  F  F19  1  0.702303  0.352053  0.577222  1
  F  F20  1  0.690725  0.248441  0.912161  1
  F  F21  1  0.327957  0.924077  0.580510  1
  F  F22  1  0.573628  0.408784  0.242395  1
  F  F23  1  0.283810  0.670024  0.415575  1
  F  F24  1  0.065912  0.679135  0.912638  1
  F  F25  1  0.396001  0.011058  0.245036  1
  F  F26  1  0.993116  0.363877  0.743750  1
