# generated using pymatgen
data_HfP2O7
_symmetry_space_group_name_H-M   'P 1'
_cell_length_a   5.22660469
_cell_length_b   13.06091726
_cell_length_c   9.77233404
_cell_angle_alpha   90.00000000
_cell_angle_beta   121.31048021
_cell_angle_gamma   90.00000000
_symmetry_Int_Tables_number   1
_chemical_formula_structural   HfP2O7
_chemical_formula_sum   'Hf4 P8 O28'
_cell_volume   569.94699629
_cell_formula_units_Z   4
loop_
 _symmetry_equiv_pos_site_id
 _symmetry_equiv_pos_as_xyz
  1  'x, y, z'
loop_
 _atom_site_type_symbol
 _atom_site_label
 _atom_site_symmetry_multiplicity
 _atom_site_fract_x
 _atom_site_fract_y
 _atom_site_fract_z
 _atom_site_occupancy
  Hf  Hf0  1  0.374890  0.650239  0.158436  1
  Hf  Hf1  1  0.625110  0.150239  0.341564  1
  Hf  Hf2  1  0.374890  0.849761  0.658436  1
  Hf  Hf3  1  0.625110  0.349761  0.841564  1
  P  P4  1  0.897586  0.022349  0.699874  1
  P  P5  1  0.784530  0.688679  0.568002  1
  P  P6  1  0.215470  0.188679  0.931998  1
  P  P7  1  0.102414  0.522349  0.800126  1
  P  P8  1  0.897586  0.477651  0.199874  1
  P  P9  1  0.784530  0.811321  0.068002  1
  P  P10  1  0.215470  0.311321  0.431998  1
  P  P11  1  0.102414  0.977651  0.300126  1
  O  O12  1  0.072155  0.770512  0.083164  1
  O  O13  1  0.690529  0.750563  0.667264  1
  O  O14  1  0.941538  0.444740  0.845773  1
  O  O15  1  0.321227  0.028679  0.263054  1
  O  O16  1  0.528478  0.678773  0.395108  1
  O  O17  1  0.753505  0.107490  0.574585  1
  O  O18  1  0.846313  0.573048  0.634560  1
  O  O19  1  0.153687  0.073048  0.865440  1
  O  O20  1  0.246495  0.607490  0.925415  1
  O  O21  1  0.471522  0.178773  0.104892  1
  O  O22  1  0.058462  0.944740  0.654227  1
  O  O23  1  0.678773  0.528679  0.236946  1
  O  O24  1  0.309471  0.250563  0.832736  1
  O  O25  1  0.927845  0.270512  0.416836  1
  O  O26  1  0.072155  0.729488  0.583164  1
  O  O27  1  0.690529  0.749437  0.167264  1
  O  O28  1  0.321227  0.471321  0.763054  1
  O  O29  1  0.941538  0.055260  0.345773  1
  O  O30  1  0.528478  0.821227  0.895108  1
  O  O31  1  0.753505  0.392510  0.074585  1
  O  O32  1  0.846313  0.926952  0.134560  1
  O  O33  1  0.153687  0.426952  0.365440  1
  O  O34  1  0.246495  0.892510  0.425415  1
  O  O35  1  0.471522  0.321227  0.604892  1
  O  O36  1  0.678773  0.971321  0.736946  1
  O  O37  1  0.058462  0.555260  0.154227  1
  O  O38  1  0.309471  0.249437  0.332736  1
  O  O39  1  0.927845  0.229488  0.916836  1
