# generated using pymatgen
data_V3O5F
_symmetry_space_group_name_H-M   'P 1'
_cell_length_a   10.52637054
_cell_length_b   10.52637054
_cell_length_c   2.99171084
_cell_angle_alpha   90.00000000
_cell_angle_beta   90.00000000
_cell_angle_gamma   144.46987921
_symmetry_Int_Tables_number   1
_chemical_formula_structural   V3O5F
_chemical_formula_sum   'V6 O10 F2'
_cell_volume   192.64194855
_cell_formula_units_Z   2
loop_
 _symmetry_equiv_pos_site_id
 _symmetry_equiv_pos_as_xyz
  1  'x, y, z'
loop_
 _atom_site_type_symbol
 _atom_site_label
 _atom_site_symmetry_multiplicity
 _atom_site_fract_x
 _atom_site_fract_y
 _atom_site_fract_z
 _atom_site_occupancy
  V  V0  1  0.677940  0.322060  0.000000  1
  V  V1  1  0.838972  0.161028  0.500000  1
  V  V2  1  0.161028  0.838972  0.500000  1
  V  V3  1  0.322060  0.677940  0.000000  1
  V  V4  1  0.000000  0.000000  0.000000  1
  V  V5  1  0.500000  0.500000  0.500000  1
  O  O6  1  0.736769  0.263231  0.500000  1
  O  O7  1  0.374886  0.043830  0.000000  1
  O  O8  1  0.956170  0.625114  0.000000  1
  O  O9  1  0.625114  0.956170  0.000000  1
  O  O10  1  0.303271  0.303271  0.000000  1
  O  O11  1  0.263231  0.736769  0.500000  1
  O  O12  1  0.935410  0.064590  0.500000  1
  O  O13  1  0.064590  0.935410  0.500000  1
  O  O14  1  0.043830  0.374886  0.000000  1
  O  O15  1  0.696729  0.696729  0.000000  1
  F  F16  1  0.396061  0.603939  0.500000  1
  F  F17  1  0.603939  0.396061  0.500000  1
