# generated using pymatgen
data_Co2O3F
_symmetry_space_group_name_H-M   'P 1'
_cell_length_a   5.27656299
_cell_length_b   5.27656299
_cell_length_c   9.63096347
_cell_angle_alpha   69.98416770
_cell_angle_beta   110.01583230
_cell_angle_gamma   112.60961891
_symmetry_Int_Tables_number   1
_chemical_formula_structural   Co2O3F
_chemical_formula_sum   'Co8 O12 F4'
_cell_volume   225.62061994
_cell_formula_units_Z   4
loop_
 _symmetry_equiv_pos_site_id
 _symmetry_equiv_pos_as_xyz
  1  'x, y, z'
loop_
 _atom_site_type_symbol
 _atom_site_label
 _atom_site_symmetry_multiplicity
 _atom_site_fract_x
 _atom_site_fract_y
 _atom_site_fract_z
 _atom_site_occupancy
  Co  Co0  1  0.000000  0.000000  0.000000  1
  Co  Co1  1  0.727138  0.272862  0.485233  1
  Co  Co2  1  0.121283  0.371434  0.250370  1
  Co  Co3  1  0.878717  0.628566  0.749630  1
  Co  Co4  1  0.371434  0.121283  0.749630  1
  Co  Co5  1  0.500000  0.500000  0.000000  1
  Co  Co6  1  0.272862  0.727138  0.514767  1
  Co  Co7  1  0.628566  0.878717  0.250370  1
  O  O8  1  0.701003  0.798920  0.097196  1
  O  O9  1  0.298997  0.201080  0.902804  1
  O  O10  1  0.046024  0.450159  0.402904  1
  O  O11  1  0.798920  0.701003  0.902804  1
  O  O12  1  0.732038  0.267962  0.155664  1
  O  O13  1  0.514489  0.485511  0.345182  1
  O  O14  1  0.267962  0.732038  0.844336  1
  O  O15  1  0.450159  0.046024  0.597096  1
  O  O16  1  0.953976  0.549841  0.597096  1
  O  O17  1  0.201080  0.298997  0.097196  1
  O  O18  1  0.549841  0.953976  0.402904  1
  O  O19  1  0.485511  0.514489  0.654818  1
  F  F20  1  0.784618  0.215382  0.856797  1
  F  F21  1  0.956597  0.043403  0.639172  1
  F  F22  1  0.215382  0.784618  0.143203  1
  F  F23  1  0.043403  0.956597  0.360828  1
