# generated using pymatgen
data_Li2La3Ti2Nb2O13
_symmetry_space_group_name_H-M   'P 1'
_cell_length_a   17.09731217
_cell_length_b   17.09731217
_cell_length_c   4.01302804
_cell_angle_alpha   83.40125186
_cell_angle_beta   96.59874814
_cell_angle_gamma   166.52618551
_symmetry_Int_Tables_number   1
_chemical_formula_structural   Li2La3Ti2Nb2O13
_chemical_formula_sum   'Li2 La3 Ti2 Nb2 O13'
_cell_volume   271.49282168
_cell_formula_units_Z   1
loop_
 _symmetry_equiv_pos_site_id
 _symmetry_equiv_pos_as_xyz
  1  'x, y, z'
loop_
 _atom_site_type_symbol
 _atom_site_label
 _atom_site_symmetry_multiplicity
 _atom_site_fract_x
 _atom_site_fract_y
 _atom_site_fract_z
 _atom_site_occupancy
  Li  Li0  1  0.754626  0.245374  0.256462  1
  Li  Li1  1  0.254367  0.745633  0.751855  1
  La  La2  1  0.503949  0.496051  0.511584  1
  La  La3  1  0.384748  0.615252  0.369464  1
  La  La4  1  0.623894  0.376106  0.623589  1
  Ti  Ti5  1  0.946015  0.053985  0.942685  1
  Ti  Ti6  1  0.062338  0.937662  0.061111  1
  Nb  Nb7  1  0.825136  0.174864  0.819426  1
  Nb  Nb8  1  0.183779  0.816221  0.183282  1
  O  O9  1  0.004182  0.995818  0.996256  1
  O  O10  1  0.946842  0.053158  0.443041  1
  O  O11  1  0.445976  0.554024  0.942586  1
  O  O12  1  0.887857  0.112143  0.887684  1
  O  O13  1  0.833481  0.166519  0.328831  1
  O  O14  1  0.334147  0.665853  0.826476  1
  O  O15  1  0.768540  0.231460  0.769087  1
  O  O16  1  0.240323  0.759677  0.242402  1
  O  O17  1  0.674935  0.325065  0.172912  1
  O  O18  1  0.174919  0.825081  0.675053  1
  O  O19  1  0.120695  0.879305  0.124082  1
  O  O20  1  0.562191  0.437809  0.059732  1
  O  O21  1  0.061588  0.938412  0.560271  1
