# generated using pymatgen
data_Li4Mn3O5F3
_symmetry_space_group_name_H-M   'P 1'
_cell_length_a   6.73074392
_cell_length_b   6.73074392
_cell_length_c   10.25341820
_cell_angle_alpha   51.31300934
_cell_angle_beta   128.68699066
_cell_angle_gamma   154.86859071
_symmetry_Int_Tables_number   1
_chemical_formula_structural   Li4Mn3O5F3
_chemical_formula_sum   'Li4 Mn3 O5 F3'
_cell_volume   151.51483085
_cell_formula_units_Z   1
loop_
 _symmetry_equiv_pos_site_id
 _symmetry_equiv_pos_as_xyz
  1  'x, y, z'
loop_
 _atom_site_type_symbol
 _atom_site_label
 _atom_site_symmetry_multiplicity
 _atom_site_fract_x
 _atom_site_fract_y
 _atom_site_fract_z
 _atom_site_occupancy
  Li  Li0  1  0.496401  0.503599  0.755975  1
  Li  Li1  1  0.028481  0.971519  0.519998  1
  Li  Li2  1  0.487004  0.512996  0.239454  1
  Li  Li3  1  0.004610  0.995390  0.001871  1
  Mn  Mn4  1  0.246291  0.753709  0.387251  1
  Mn  Mn5  1  0.244990  0.755010  0.857155  1
  Mn  Mn6  1  0.744346  0.255654  0.122439  1
  O  O7  1  0.633180  0.366820  0.704601  1
  O  O8  1  0.845647  0.154353  0.034728  1
  O  O9  1  0.640985  0.359015  0.194147  1
  O  O10  1  0.139137  0.860863  0.964887  1
  O  O11  1  0.353651  0.646349  0.279550  1
  F  F12  1  0.092063  0.907937  0.396733  1
  F  F13  1  0.401321  0.598679  0.843096  1
  F  F14  1  0.891887  0.108113  0.573117  1
