# generated using pymatgen
data_Ba2Fe3P6HO22
_symmetry_space_group_name_H-M   'P 1'
_cell_length_a   4.91970080
_cell_length_b   8.00249307
_cell_length_c   11.42330260
_cell_angle_alpha   89.27073239
_cell_angle_beta   89.28493493
_cell_angle_gamma   87.13515212
_symmetry_Int_Tables_number   1
_chemical_formula_structural   Ba2Fe3P6HO22
_chemical_formula_sum   'Ba2 Fe3 P6 H1 O22'
_cell_volume   449.10391280
_cell_formula_units_Z   1
loop_
 _symmetry_equiv_pos_site_id
 _symmetry_equiv_pos_as_xyz
  1  'x, y, z'
loop_
 _atom_site_type_symbol
 _atom_site_label
 _atom_site_symmetry_multiplicity
 _atom_site_fract_x
 _atom_site_fract_y
 _atom_site_fract_z
 _atom_site_occupancy
  Ba  Ba0  1  0.732525  0.004771  0.175399  1
  Ba  Ba1  1  0.267475  0.995229  0.824601  1
  Fe  Fe2  1  0.000000  0.000000  0.500000  1
  Fe  Fe3  1  0.724645  0.493540  0.205080  1
  Fe  Fe4  1  0.275355  0.506460  0.794920  1
  P  P5  1  0.184471  0.704083  0.051241  1
  P  P6  1  0.815529  0.295917  0.948759  1
  P  P7  1  0.237141  0.300837  0.343444  1
  P  P8  1  0.762859  0.699163  0.656556  1
  P  P9  1  0.525458  0.757152  0.424509  1
  P  P10  1  0.474542  0.242848  0.575491  1
  H  H11  1  0.500000  0.500000  0.000000  1
  O  O12  1  0.921355  0.681132  0.123638  1
  O  O13  1  0.078645  0.318868  0.876362  1
  O  O14  1  0.408511  0.565142  0.087020  1
  O  O15  1  0.591489  0.434858  0.912980  1
  O  O16  1  0.271426  0.884433  0.070427  1
  O  O17  1  0.728574  0.115567  0.929573  1
  O  O18  1  0.141021  0.678844  0.917885  1
  O  O19  1  0.858979  0.321156  0.082115  1
  O  O20  1  0.131530  0.122049  0.348819  1
  O  O21  1  0.868470  0.877951  0.651181  1
  O  O22  1  0.020772  0.434380  0.310105  1
  O  O23  1  0.979228  0.565620  0.689895  1
  O  O24  1  0.673257  0.646758  0.526861  1
  O  O25  1  0.326743  0.353242  0.473139  1
  O  O26  1  0.491567  0.300466  0.263496  1
  O  O27  1  0.508433  0.699534  0.736504  1
  O  O28  1  0.691292  0.915106  0.407203  1
  O  O29  1  0.308708  0.084894  0.592797  1
  O  O30  1  0.231045  0.796729  0.460332  1
  O  O31  1  0.768955  0.203271  0.539668  1
  O  O32  1  0.544349  0.655522  0.312661  1
  O  O33  1  0.455651  0.344478  0.687339  1
