# generated using pymatgen
data_P4WO12
_symmetry_space_group_name_H-M   'P 1'
_cell_length_a   5.34084718
_cell_length_b   13.87436287
_cell_length_c   7.27955432
_cell_angle_alpha   90.00000000
_cell_angle_beta   97.89960208
_cell_angle_gamma   90.00000000
_symmetry_Int_Tables_number   1
_chemical_formula_structural   P4WO12
_chemical_formula_sum   'P8 W2 O24'
_cell_volume   534.30229473
_cell_formula_units_Z   2
loop_
 _symmetry_equiv_pos_site_id
 _symmetry_equiv_pos_as_xyz
  1  'x, y, z'
loop_
 _atom_site_type_symbol
 _atom_site_label
 _atom_site_symmetry_multiplicity
 _atom_site_fract_x
 _atom_site_fract_y
 _atom_site_fract_z
 _atom_site_occupancy
  P  P0  1  0.508108  0.876066  0.556843  1
  P  P1  1  0.530577  0.095936  0.560754  1
  P  P2  1  0.634762  0.671016  0.091490  1
  P  P3  1  0.716441  0.323501  0.106029  1
  P  P4  1  0.283559  0.823501  0.893971  1
  P  P5  1  0.365238  0.171016  0.908510  1
  P  P6  1  0.469423  0.595936  0.439246  1
  P  P7  1  0.491892  0.376066  0.443157  1
  W  W8  1  0.989104  0.734799  0.496018  1
  W  W9  1  0.010896  0.234799  0.503982  1
  O  O10  1  0.508547  0.861167  0.771810  1
  O  O11  1  0.549167  0.263351  0.947717  1
  O  O12  1  0.535128  0.107156  0.777334  1
  O  O13  1  0.548175  0.487199  0.483499  1
  O  O14  1  0.686061  0.615260  0.931173  1
  O  O15  1  0.668819  0.657681  0.547531  1
  O  O16  1  0.701308  0.320987  0.557880  1
  O  O17  1  0.772777  0.857598  0.508858  1
  O  O18  1  0.796328  0.110615  0.512347  1
  O  O19  1  0.857508  0.714022  0.224278  1
  O  O20  1  0.850133  0.403380  0.031000  1
  O  O21  1  0.873420  0.249833  0.232904  1
  O  O22  1  0.126580  0.749833  0.767096  1
  O  O23  1  0.149867  0.903380  0.969000  1
  O  O24  1  0.142492  0.214022  0.775722  1
  O  O25  1  0.203672  0.610615  0.487653  1
  O  O26  1  0.227223  0.357598  0.491142  1
  O  O27  1  0.298692  0.820987  0.442120  1
  O  O28  1  0.331181  0.157681  0.452469  1
  O  O29  1  0.313939  0.115260  0.068827  1
  O  O30  1  0.451825  0.987199  0.516501  1
  O  O31  1  0.464872  0.607156  0.222666  1
  O  O32  1  0.450833  0.763351  0.052283  1
  O  O33  1  0.491453  0.361167  0.228190  1
