# generated using pymatgen
data_AgRuO4
_symmetry_space_group_name_H-M   'P 1'
_cell_length_a   7.03978114
_cell_length_b   7.03978114
_cell_length_c   7.03978114
_cell_angle_alpha   135.93970200
_cell_angle_beta   135.93970200
_cell_angle_gamma   64.07357065
_symmetry_Int_Tables_number   1
_chemical_formula_structural   AgRuO4
_chemical_formula_sum   'Ag2 Ru2 O8'
_cell_volume   166.44272257
_cell_formula_units_Z   2
loop_
 _symmetry_equiv_pos_site_id
 _symmetry_equiv_pos_as_xyz
  1  'x, y, z'
loop_
 _atom_site_type_symbol
 _atom_site_label
 _atom_site_symmetry_multiplicity
 _atom_site_fract_x
 _atom_site_fract_y
 _atom_site_fract_z
 _atom_site_occupancy
  Ag  Ag0  1  0.750000  0.250000  0.500000  1
  Ag  Ag1  1  0.000000  0.000000  0.000000  1
  Ru  Ru2  1  0.250000  0.750000  0.500000  1
  Ru  Ru3  1  0.500000  0.500000  0.000000  1
  O  O4  1  0.318119  0.907973  0.887457  1
  O  O5  1  0.729484  0.819338  0.387457  1
  O  O6  1  0.180662  0.568119  0.910146  1
  O  O7  1  0.092027  0.979484  0.410146  1
  O  O8  1  0.569338  0.681881  0.589854  1
  O  O9  1  0.657973  0.270516  0.089854  1
  O  O10  1  0.431881  0.342027  0.612543  1
  O  O11  1  0.020516  0.430662  0.112543  1
