# generated using pymatgen
data_V2Co(H4O5)2
_symmetry_space_group_name_H-M   'P 1'
_cell_length_a   8.38556804
_cell_length_b   8.38556804
_cell_length_c   7.12525126
_cell_angle_alpha   74.13624208
_cell_angle_beta   105.86375792
_cell_angle_gamma   106.33451301
_symmetry_Int_Tables_number   1
_chemical_formula_structural   V2Co(H4O5)2
_chemical_formula_sum   'V4 Co2 H16 O20'
_cell_volume   451.89877630
_cell_formula_units_Z   2
loop_
 _symmetry_equiv_pos_site_id
 _symmetry_equiv_pos_as_xyz
  1  'x, y, z'
loop_
 _atom_site_type_symbol
 _atom_site_label
 _atom_site_symmetry_multiplicity
 _atom_site_fract_x
 _atom_site_fract_y
 _atom_site_fract_z
 _atom_site_occupancy
  V  V0  1  0.083890  0.875399  0.690960  1
  V  V1  1  0.124601  0.916110  0.190960  1
  V  V2  1  0.875399  0.083890  0.809040  1
  V  V3  1  0.916110  0.124601  0.309040  1
  Co  Co4  1  0.500000  0.000000  0.000000  1
  Co  Co5  1  0.000000  0.500000  0.500000  1
  H  H6  1  0.193904  0.580957  0.003962  1
  H  H7  1  0.221073  0.396437  0.088293  1
  H  H8  1  0.493119  0.259565  0.708544  1
  H  H9  1  0.419043  0.806096  0.503962  1
  H  H10  1  0.331259  0.532280  0.596272  1
  H  H11  1  0.603563  0.778927  0.588293  1
  H  H12  1  0.740435  0.506881  0.208544  1
  H  H13  1  0.467720  0.668741  0.096272  1
  H  H14  1  0.532280  0.331259  0.903728  1
  H  H15  1  0.259565  0.493119  0.791456  1
  H  H16  1  0.396437  0.221073  0.411707  1
  H  H17  1  0.668741  0.467720  0.403728  1
  H  H18  1  0.580957  0.193904  0.496038  1
  H  H19  1  0.506881  0.740435  0.291456  1
  H  H20  1  0.778927  0.603563  0.911707  1
  H  H21  1  0.806096  0.419043  0.996038  1
  O  O22  1  0.014140  0.898091  0.919527  1
  O  O23  1  0.101909  0.985860  0.419527  1
  O  O24  1  0.293317  0.897214  0.800749  1
  O  O25  1  0.102786  0.706683  0.300749  1
  O  O26  1  0.668076  0.004535  0.814252  1
  O  O27  1  0.234508  0.465712  0.656955  1
  O  O28  1  0.511064  0.275796  0.474331  1
  O  O29  1  0.995465  0.331924  0.314252  1
  O  O30  1  0.534288  0.765492  0.156955  1
  O  O31  1  0.724204  0.488936  0.974331  1
  O  O32  1  0.275796  0.511064  0.025669  1
  O  O33  1  0.465712  0.234508  0.843045  1
  O  O34  1  0.004535  0.668076  0.685748  1
  O  O35  1  0.488936  0.724204  0.525669  1
  O  O36  1  0.765492  0.534288  0.343045  1
  O  O37  1  0.331924  0.995465  0.185748  1
  O  O38  1  0.897214  0.293317  0.699251  1
  O  O39  1  0.706683  0.102786  0.199251  1
  O  O40  1  0.898091  0.014140  0.580473  1
  O  O41  1  0.985860  0.101909  0.080473  1
