# generated using pymatgen
data_Y6N2O5
_symmetry_space_group_name_H-M   'P 1'
_cell_length_a   5.93767458
_cell_length_b   5.93767458
_cell_length_c   7.61445708
_cell_angle_alpha   82.31551414
_cell_angle_beta   97.68448586
_cell_angle_gamma   132.47025342
_symmetry_Int_Tables_number   1
_chemical_formula_structural   Y6N2O5
_chemical_formula_sum   'Y6 N2 O5'
_cell_volume   195.89504115
_cell_formula_units_Z   1
loop_
 _symmetry_equiv_pos_site_id
 _symmetry_equiv_pos_as_xyz
  1  'x, y, z'
loop_
 _atom_site_type_symbol
 _atom_site_label
 _atom_site_symmetry_multiplicity
 _atom_site_fract_x
 _atom_site_fract_y
 _atom_site_fract_z
 _atom_site_occupancy
  Y  Y0  1  0.291144  0.708856  0.861059  1
  Y  Y1  1  0.565789  0.434211  0.716618  1
  Y  Y2  1  0.145613  0.854387  0.423367  1
  Y  Y3  1  0.854387  0.145613  0.576633  1
  Y  Y4  1  0.708856  0.291144  0.138941  1
  Y  Y5  1  0.434211  0.565789  0.283382  1
  N  N6  1  0.357510  0.642490  0.575187  1
  N  N7  1  0.642490  0.357510  0.424813  1
  O  O8  1  0.079102  0.920898  0.701803  1
  O  O9  1  0.500000  0.500000  0.000000  1
  O  O10  1  0.771410  0.228590  0.854271  1
  O  O11  1  0.920898  0.079102  0.298197  1
  O  O12  1  0.228590  0.771410  0.145729  1
