# generated using pymatgen
data_Li4Mn3TeO12
_symmetry_space_group_name_H-M   'P 1'
_cell_length_a   4.91467534
_cell_length_b   8.24619007
_cell_length_c   7.04630968
_cell_angle_alpha   90.00000000
_cell_angle_beta   134.40835753
_cell_angle_gamma   90.00000000
_symmetry_Int_Tables_number   1
_chemical_formula_structural   Li4Mn3TeO12
_chemical_formula_sum   'Li4 Mn3 Te1 O12'
_cell_volume   204.00155740
_cell_formula_units_Z   1
loop_
 _symmetry_equiv_pos_site_id
 _symmetry_equiv_pos_as_xyz
  1  'x, y, z'
loop_
 _atom_site_type_symbol
 _atom_site_label
 _atom_site_symmetry_multiplicity
 _atom_site_fract_x
 _atom_site_fract_y
 _atom_site_fract_z
 _atom_site_occupancy
  Li  Li0  1  0.000000  0.705708  0.000000  1
  Li  Li1  1  0.500000  0.808229  0.000000  1
  Li  Li2  1  0.500000  0.317777  0.500000  1
  Li  Li3  1  0.000000  0.199932  0.500000  1
  Mn  Mn4  1  0.500000  0.419906  0.000000  1
  Mn  Mn5  1  0.500000  0.902117  0.500000  1
  Mn  Mn6  1  0.000000  0.604527  0.500000  1
  Te  Te7  1  0.000000  0.101588  0.000000  1
  O  O8  1  0.086914  0.260390  0.841927  1
  O  O9  1  0.135914  0.591801  0.830195  1
  O  O10  1  0.028580  0.924529  0.824182  1
  O  O11  1  0.362086  0.428575  0.670004  1
  O  O12  1  0.466938  0.082326  0.672100  1
  O  O13  1  0.410284  0.753030  0.655957  1
  O  O14  1  0.589716  0.753030  0.344043  1
  O  O15  1  0.533062  0.082326  0.327900  1
  O  O16  1  0.637914  0.428575  0.329996  1
  O  O17  1  0.971420  0.924529  0.175818  1
  O  O18  1  0.864086  0.591801  0.169805  1
  O  O19  1  0.913086  0.260390  0.158073  1
