# generated using pymatgen
data_Fe3O5F
_symmetry_space_group_name_H-M   'P 1'
_cell_length_a   5.52309289
_cell_length_b   5.52309289
_cell_length_c   7.36576888
_cell_angle_alpha   70.81755699
_cell_angle_beta   109.18244301
_cell_angle_gamma   109.01366838
_symmetry_Int_Tables_number   1
_chemical_formula_structural   Fe3O5F
_chemical_formula_sum   'Fe6 O10 F2'
_cell_volume   194.36353464
_cell_formula_units_Z   2
loop_
 _symmetry_equiv_pos_site_id
 _symmetry_equiv_pos_as_xyz
  1  'x, y, z'
loop_
 _atom_site_type_symbol
 _atom_site_label
 _atom_site_symmetry_multiplicity
 _atom_site_fract_x
 _atom_site_fract_y
 _atom_site_fract_z
 _atom_site_occupancy
  Fe  Fe0  1  0.500000  0.500000  0.000000  1
  Fe  Fe1  1  0.832245  0.167755  0.843957  1
  Fe  Fe2  1  0.500000  0.500000  0.500000  1
  Fe  Fe3  1  0.842434  0.157566  0.319184  1
  Fe  Fe4  1  0.157566  0.842434  0.680816  1
  Fe  Fe5  1  0.167755  0.832245  0.156043  1
  O  O6  1  0.138043  0.476104  0.833086  1
  O  O7  1  0.804643  0.804643  0.500000  1
  O  O8  1  0.944366  0.055634  0.133216  1
  O  O9  1  0.603089  0.396911  0.788446  1
  O  O10  1  0.396911  0.603089  0.211554  1
  O  O11  1  0.055634  0.944366  0.866784  1
  O  O12  1  0.195357  0.195357  0.500000  1
  O  O13  1  0.523896  0.861957  0.833086  1
  O  O14  1  0.861957  0.523896  0.166914  1
  O  O15  1  0.476104  0.138043  0.166914  1
  F  F16  1  0.262888  0.737112  0.466747  1
  F  F17  1  0.737112  0.262888  0.533253  1
