# generated using pymatgen
data_Na2V6O13
_symmetry_space_group_name_H-M   'P 1'
_cell_length_a   6.34785248
_cell_length_b   6.34785248
_cell_length_c   10.95345643
_cell_angle_alpha   80.87423604
_cell_angle_beta   99.12576396
_cell_angle_gamma   145.30791650
_symmetry_Int_Tables_number   1
_chemical_formula_structural   Na2V6O13
_chemical_formula_sum   'Na2 V6 O13'
_cell_volume   247.72181639
_cell_formula_units_Z   1
loop_
 _symmetry_equiv_pos_site_id
 _symmetry_equiv_pos_as_xyz
  1  'x, y, z'
loop_
 _atom_site_type_symbol
 _atom_site_label
 _atom_site_symmetry_multiplicity
 _atom_site_fract_x
 _atom_site_fract_y
 _atom_site_fract_z
 _atom_site_occupancy
  Na  Na0  1  0.052621  0.947379  0.662522  1
  Na  Na1  1  0.947379  0.052621  0.337478  1
  V  V2  1  0.649066  0.350934  0.457195  1
  V  V3  1  0.591323  0.408677  0.106627  1
  V  V4  1  0.713168  0.286832  0.867539  1
  V  V5  1  0.286832  0.713168  0.132461  1
  V  V6  1  0.408677  0.591323  0.893373  1
  V  V7  1  0.350934  0.649066  0.542805  1
  O  O8  1  0.607618  0.392382  0.299909  1
  O  O9  1  0.568743  0.431257  0.925651  1
  O  O10  1  0.117195  0.882805  0.120511  1
  O  O11  1  0.666800  0.333200  0.715298  1
  O  O12  1  0.818230  0.181770  0.499749  1
  O  O13  1  0.756102  0.243898  0.091961  1
  O  O14  1  0.243898  0.756102  0.908039  1
  O  O15  1  0.181770  0.818230  0.500251  1
  O  O16  1  0.333200  0.666800  0.284702  1
  O  O17  1  0.882805  0.117195  0.879489  1
  O  O18  1  0.431257  0.568743  0.074349  1
  O  O19  1  0.392382  0.607618  0.700091  1
  O  O20  1  0.500000  0.500000  0.500000  1
