# generated using pymatgen
data_La2P4O13
_symmetry_space_group_name_H-M   'P 1'
_cell_length_a   9.84419384
_cell_length_b   9.84419384
_cell_length_c   8.91831731
_cell_angle_alpha   90.00000000
_cell_angle_beta   90.00000000
_cell_angle_gamma   136.17175671
_symmetry_Int_Tables_number   1
_chemical_formula_structural   La2P4O13
_chemical_formula_sum   'La4 P8 O26'
_cell_volume   598.49745040
_cell_formula_units_Z   2
loop_
 _symmetry_equiv_pos_site_id
 _symmetry_equiv_pos_as_xyz
  1  'x, y, z'
loop_
 _atom_site_type_symbol
 _atom_site_label
 _atom_site_symmetry_multiplicity
 _atom_site_fract_x
 _atom_site_fract_y
 _atom_site_fract_z
 _atom_site_occupancy
  La  La0  1  0.602045  0.895707  0.142497  1
  La  La1  1  0.104293  0.397955  0.357503  1
  La  La2  1  0.397955  0.104293  0.642497  1
  La  La3  1  0.895707  0.602045  0.857503  1
  P  P4  1  0.726353  0.843499  0.768169  1
  P  P5  1  0.156501  0.273647  0.731831  1
  P  P6  1  0.097046  0.413673  0.994675  1
  P  P7  1  0.586327  0.902954  0.505325  1
  P  P8  1  0.413673  0.097046  0.005325  1
  P  P9  1  0.902954  0.586327  0.494675  1
  P  P10  1  0.843499  0.726353  0.231831  1
  P  P11  1  0.273647  0.156501  0.268169  1
  O  O12  1  0.708542  0.747406  0.212068  1
  O  O13  1  0.252594  0.291458  0.287932  1
  O  O14  1  0.937830  0.062170  0.750000  1
  O  O15  1  0.203617  0.375838  0.890948  1
  O  O16  1  0.624162  0.796383  0.609052  1
  O  O17  1  0.621072  0.845477  0.889203  1
  O  O18  1  0.154523  0.378928  0.610797  1
  O  O19  1  0.939960  0.227900  0.091144  1
  O  O20  1  0.772100  0.060040  0.408856  1
  O  O21  1  0.422815  0.742952  0.395380  1
  O  O22  1  0.257048  0.577185  0.104620  1
  O  O23  1  0.019330  0.468123  0.892880  1
  O  O24  1  0.531877  0.980670  0.607120  1
  O  O25  1  0.468123  0.019330  0.107120  1
  O  O26  1  0.980670  0.531877  0.392880  1
  O  O27  1  0.577185  0.257048  0.895380  1
  O  O28  1  0.742952  0.422815  0.604620  1
  O  O29  1  0.060040  0.772100  0.591144  1
  O  O30  1  0.227900  0.939960  0.908856  1
  O  O31  1  0.845477  0.621072  0.110797  1
  O  O32  1  0.378928  0.154523  0.389203  1
  O  O33  1  0.375838  0.203617  0.109052  1
  O  O34  1  0.796383  0.624162  0.390948  1
  O  O35  1  0.062170  0.937830  0.250000  1
  O  O36  1  0.291458  0.252594  0.712068  1
  O  O37  1  0.747406  0.708542  0.787932  1
