# generated using pymatgen
data_Li4AlCr3O8
_symmetry_space_group_name_H-M   'P 1'
_cell_length_a   5.08153574
_cell_length_b   5.11264433
_cell_length_c   5.86782786
_cell_angle_alpha   106.67510708
_cell_angle_beta   90.00876936
_cell_angle_gamma   99.52747723
_symmetry_Int_Tables_number   1
_chemical_formula_structural   Li4AlCr3O8
_chemical_formula_sum   'Li4 Al1 Cr3 O8'
_cell_volume   143.83820074
_cell_formula_units_Z   1
loop_
 _symmetry_equiv_pos_site_id
 _symmetry_equiv_pos_as_xyz
  1  'x, y, z'
loop_
 _atom_site_type_symbol
 _atom_site_label
 _atom_site_symmetry_multiplicity
 _atom_site_fract_x
 _atom_site_fract_y
 _atom_site_fract_z
 _atom_site_occupancy
  Li  Li0  1  0.749348  0.500115  0.875604  1
  Li  Li1  1  0.250995  0.499931  0.625556  1
  Li  Li2  1  0.749005  0.500069  0.374444  1
  Li  Li3  1  0.250652  0.499885  0.124396  1
  Al  Al4  1  0.500000  0.000000  0.000000  1
  Cr  Cr5  1  0.999970  0.999761  0.752076  1
  Cr  Cr6  1  0.500000  0.000000  0.500000  1
  Cr  Cr7  1  0.000030  0.000239  0.247924  1
  O  O8  1  0.623928  0.778671  0.703670  1
  O  O9  1  0.375628  0.220010  0.814080  1
  O  O10  1  0.127922  0.773189  0.443106  1
  O  O11  1  0.872078  0.226811  0.556894  1
  O  O12  1  0.624372  0.779990  0.185920  1
  O  O13  1  0.376072  0.221329  0.296330  1
  O  O14  1  0.142388  0.778463  0.944735  1
  O  O15  1  0.857612  0.221537  0.055265  1
