# generated using pymatgen
data_CrP6(WO8)3
_symmetry_space_group_name_H-M   'P 1'
_cell_length_a   8.90255406
_cell_length_b   8.90255406
_cell_length_c   8.90255406
_cell_angle_alpha   58.91162855
_cell_angle_beta   58.91162855
_cell_angle_gamma   58.91162855
_symmetry_Int_Tables_number   1
_chemical_formula_structural   CrP6(WO8)3
_chemical_formula_sum   'Cr1 P6 W3 O24'
_cell_volume   486.52500978
_cell_formula_units_Z   1
loop_
 _symmetry_equiv_pos_site_id
 _symmetry_equiv_pos_as_xyz
  1  'x, y, z'
loop_
 _atom_site_type_symbol
 _atom_site_label
 _atom_site_symmetry_multiplicity
 _atom_site_fract_x
 _atom_site_fract_y
 _atom_site_fract_z
 _atom_site_occupancy
  Cr  Cr0  1  0.142727  0.142727  0.142727  1
  P  P1  1  0.248999  0.530503  0.965774  1
  P  P2  1  0.965774  0.248999  0.530503  1
  P  P3  1  0.530503  0.965774  0.248999  1
  P  P4  1  0.457554  0.037082  0.756714  1
  P  P5  1  0.037082  0.756714  0.457554  1
  P  P6  1  0.756714  0.457554  0.037082  1
  W  W7  1  0.857691  0.857691  0.857691  1
  W  W8  1  0.642839  0.642839  0.642839  1
  W  W9  1  0.358109  0.358109  0.358109  1
  O  O10  1  0.716351  0.494834  0.868175  1
  O  O11  1  0.494834  0.868175  0.716351  1
  O  O12  1  0.079742  0.713354  0.937769  1
  O  O13  1  0.868175  0.716351  0.494834  1
  O  O14  1  0.419519  0.565800  0.787647  1
  O  O15  1  0.224058  0.364381  0.989929  1
  O  O16  1  0.937769  0.079742  0.713354  1
  O  O17  1  0.787647  0.419519  0.565800  1
  O  O18  1  0.565800  0.787647  0.419519  1
  O  O19  1  0.634202  0.008081  0.778867  1
  O  O20  1  0.284653  0.059140  0.922607  1
  O  O21  1  0.008081  0.778867  0.634202  1
  O  O22  1  0.989929  0.224058  0.364381  1
  O  O23  1  0.713354  0.937769  0.079742  1
  O  O24  1  0.364381  0.989929  0.224058  1
  O  O25  1  0.439881  0.211669  0.578456  1
  O  O26  1  0.211669  0.578456  0.439881  1
  O  O27  1  0.059140  0.922607  0.284653  1
  O  O28  1  0.778867  0.634202  0.008081  1
  O  O29  1  0.578456  0.439881  0.211669  1
  O  O30  1  0.133606  0.279833  0.509451  1
  O  O31  1  0.922607  0.284653  0.059140  1
  O  O32  1  0.509451  0.133606  0.279833  1
  O  O33  1  0.279833  0.509451  0.133606  1
