# generated using pymatgen
data_Li4Fe3Cu3(SbO8)2
_symmetry_space_group_name_H-M   'P 1'
_cell_length_a   5.98006436
_cell_length_b   5.98006436
_cell_length_c   9.73722511
_cell_angle_alpha   89.60360837
_cell_angle_beta   90.39639163
_cell_angle_gamma   120.21336004
_symmetry_Int_Tables_number   1
_chemical_formula_structural   Li4Fe3Cu3(SbO8)2
_chemical_formula_sum   'Li4 Fe3 Cu3 Sb2 O16'
_cell_volume   300.90263733
_cell_formula_units_Z   1
loop_
 _symmetry_equiv_pos_site_id
 _symmetry_equiv_pos_as_xyz
  1  'x, y, z'
loop_
 _atom_site_type_symbol
 _atom_site_label
 _atom_site_symmetry_multiplicity
 _atom_site_fract_x
 _atom_site_fract_y
 _atom_site_fract_z
 _atom_site_occupancy
  Li  Li0  1  0.660669  0.339331  0.094009  1
  Li  Li1  1  0.999720  0.000280  0.009514  1
  Li  Li2  1  0.004813  0.995187  0.512539  1
  Li  Li3  1  0.336089  0.663911  0.596160  1
  Fe  Fe4  1  0.830351  0.169649  0.786693  1
  Fe  Fe5  1  0.660538  0.830257  0.286172  1
  Fe  Fe6  1  0.169743  0.339462  0.286172  1
  Cu  Cu7  1  0.832747  0.659005  0.786681  1
  Cu  Cu8  1  0.340995  0.167253  0.786681  1
  Cu  Cu9  1  0.171060  0.828940  0.287831  1
  Sb  Sb10  1  0.669388  0.330612  0.513491  1
  Sb  Sb11  1  0.330350  0.669650  0.013060  1
  O  O12  1  0.829434  0.667014  0.407123  1
  O  O13  1  0.521170  0.478830  0.655350  1
  O  O14  1  0.663396  0.336604  0.886727  1
  O  O15  1  0.004277  0.995723  0.702344  1
  O  O16  1  0.003846  0.996154  0.198609  1
  O  O17  1  0.332986  0.170566  0.407123  1
  O  O18  1  0.970539  0.474986  0.650411  1
  O  O19  1  0.525014  0.029461  0.650411  1
  O  O20  1  0.161393  0.838607  0.906910  1
  O  O21  1  0.834217  0.165783  0.403513  1
  O  O22  1  0.484398  0.968636  0.153301  1
  O  O23  1  0.031364  0.515602  0.153301  1
  O  O24  1  0.332887  0.667113  0.391458  1
  O  O25  1  0.663389  0.842473  0.906886  1
  O  O26  1  0.480201  0.519799  0.152727  1
  O  O27  1  0.157527  0.336611  0.906886  1
