# generated using pymatgen
data_MoPH3O7
_symmetry_space_group_name_H-M   'P 1'
_cell_length_a   6.82976730
_cell_length_b   6.42866703
_cell_length_c   7.04534005
_cell_angle_alpha   90.00000000
_cell_angle_beta   109.84963012
_cell_angle_gamma   90.00000000
_symmetry_Int_Tables_number   1
_chemical_formula_structural   MoPH3O7
_chemical_formula_sum   'Mo2 P2 H6 O14'
_cell_volume   290.95630341
_cell_formula_units_Z   2
loop_
 _symmetry_equiv_pos_site_id
 _symmetry_equiv_pos_as_xyz
  1  'x, y, z'
loop_
 _atom_site_type_symbol
 _atom_site_label
 _atom_site_symmetry_multiplicity
 _atom_site_fract_x
 _atom_site_fract_y
 _atom_site_fract_z
 _atom_site_occupancy
  Mo  Mo0  1  0.277088  0.750000  0.670320  1
  Mo  Mo1  1  0.722912  0.250000  0.329680  1
  P  P2  1  0.662238  0.750000  0.164018  1
  P  P3  1  0.337762  0.250000  0.835982  1
  H  H4  1  0.991208  0.750000  0.186149  1
  H  H5  1  0.008792  0.250000  0.813851  1
  H  H6  1  0.733840  0.750000  0.782864  1
  H  H7  1  0.266160  0.250000  0.217136  1
  H  H8  1  0.650028  0.750000  0.543717  1
  H  H9  1  0.349972  0.250000  0.456283  1
  O  O10  1  0.679483  0.938317  0.305691  1
  O  O11  1  0.320517  0.438317  0.694309  1
  O  O12  1  0.320517  0.061683  0.694309  1
  O  O13  1  0.679483  0.561683  0.305691  1
  O  O14  1  0.463481  0.750000  0.984479  1
  O  O15  1  0.536519  0.250000  0.015521  1
  O  O16  1  0.849353  0.750000  0.079253  1
  O  O17  1  0.150647  0.250000  0.920747  1
  O  O18  1  0.196431  0.750000  0.407741  1
  O  O19  1  0.803569  0.250000  0.592259  1
  O  O20  1  0.607771  0.750000  0.663541  1
  O  O21  1  0.392229  0.250000  0.336459  1
  O  O22  1  0.048843  0.750000  0.722289  1
  O  O23  1  0.951157  0.250000  0.277711  1
