# generated using pymatgen
data_LiCuTeO4
_symmetry_space_group_name_H-M   'P 1'
_cell_length_a   6.18464871
_cell_length_b   6.18464871
_cell_length_c   8.63654143
_cell_angle_alpha   90.00000000
_cell_angle_beta   90.00000000
_cell_angle_gamma   90.00000000
_symmetry_Int_Tables_number   1
_chemical_formula_structural   LiCuTeO4
_chemical_formula_sum   'Li4 Cu4 Te4 O16'
_cell_volume   330.34667043
_cell_formula_units_Z   4
loop_
 _symmetry_equiv_pos_site_id
 _symmetry_equiv_pos_as_xyz
  1  'x, y, z'
loop_
 _atom_site_type_symbol
 _atom_site_label
 _atom_site_symmetry_multiplicity
 _atom_site_fract_x
 _atom_site_fract_y
 _atom_site_fract_z
 _atom_site_occupancy
  Li  Li0  1  0.000000  0.209815  0.000000  1
  Li  Li1  1  0.000000  0.790185  0.500000  1
  Li  Li2  1  0.209815  0.000000  0.250000  1
  Li  Li3  1  0.790185  0.000000  0.750000  1
  Cu  Cu4  1  0.246145  0.246145  0.625000  1
  Cu  Cu5  1  0.246145  0.753855  0.875000  1
  Cu  Cu6  1  0.753855  0.246145  0.375000  1
  Cu  Cu7  1  0.753855  0.753855  0.125000  1
  Te  Te8  1  0.226674  0.500000  0.250000  1
  Te  Te9  1  0.500000  0.226674  0.000000  1
  Te  Te10  1  0.500000  0.773326  0.500000  1
  Te  Te11  1  0.773326  0.500000  0.750000  1
  O  O12  1  0.024875  0.265680  0.250660  1
  O  O13  1  0.024875  0.734320  0.249340  1
  O  O14  1  0.265680  0.024875  0.999340  1
  O  O15  1  0.265680  0.975125  0.500660  1
  O  O16  1  0.268513  0.483648  0.016309  1
  O  O17  1  0.268513  0.516352  0.483691  1
  O  O18  1  0.483648  0.268513  0.233691  1
  O  O19  1  0.483648  0.731487  0.266309  1
  O  O20  1  0.516352  0.268513  0.766309  1
  O  O21  1  0.516352  0.731487  0.733691  1
  O  O22  1  0.731487  0.516352  0.516309  1
  O  O23  1  0.731487  0.483648  0.983691  1
  O  O24  1  0.734320  0.024875  0.000660  1
  O  O25  1  0.734320  0.975125  0.499340  1
  O  O26  1  0.975125  0.265680  0.749340  1
  O  O27  1  0.975125  0.734320  0.750660  1
