# generated using pymatgen
data_Ba6Ti7Nb9O42
_symmetry_space_group_name_H-M   'P 1'
_cell_length_a   9.20248454
_cell_length_b   9.20248454
_cell_length_c   11.94856436
_cell_angle_alpha   89.99117875
_cell_angle_beta   90.00882125
_cell_angle_gamma   60.10910440
_symmetry_Int_Tables_number   1
_chemical_formula_structural   Ba6Ti7Nb9O42
_chemical_formula_sum   'Ba6 Ti7 Nb9 O42'
_cell_volume   877.26933673
_cell_formula_units_Z   1
loop_
 _symmetry_equiv_pos_site_id
 _symmetry_equiv_pos_as_xyz
  1  'x, y, z'
loop_
 _atom_site_type_symbol
 _atom_site_label
 _atom_site_symmetry_multiplicity
 _atom_site_fract_x
 _atom_site_fract_y
 _atom_site_fract_z
 _atom_site_occupancy
  Ba  Ba0  1  0.596143  0.403857  0.755238  1
  Ba  Ba1  1  0.411249  0.588751  0.249055  1
  Ba  Ba2  1  0.999633  0.593753  0.754984  1
  Ba  Ba3  1  0.996320  0.404467  0.249921  1
  Ba  Ba4  1  0.595533  0.003680  0.249921  1
  Ba  Ba5  1  0.406247  0.000367  0.754984  1
  Ti  Ti6  1  0.749547  0.250453  0.090940  1
  Ti  Ti7  1  0.761585  0.238415  0.399823  1
  Ti  Ti8  1  0.242086  0.757914  0.906937  1
  Ti  Ti9  1  0.000166  0.758455  0.406413  1
  Ti  Ti10  1  0.755579  0.003834  0.910059  1
  Ti  Ti11  1  0.996166  0.244421  0.910059  1
  Ti  Ti12  1  0.241545  0.999834  0.406413  1
  Nb  Nb13  1  0.248462  0.751538  0.593664  1
  Nb  Nb14  1  0.335487  0.334639  0.994429  1
  Nb  Nb15  1  0.333349  0.333201  0.490853  1
  Nb  Nb16  1  0.997419  0.755890  0.092989  1
  Nb  Nb17  1  0.752517  0.001767  0.595074  1
  Nb  Nb18  1  0.998233  0.247483  0.595074  1
  Nb  Nb19  1  0.665361  0.664513  0.994429  1
  Nb  Nb20  1  0.666799  0.666651  0.490853  1
  Nb  Nb21  1  0.244110  0.002581  0.092989  1
  O  O22  1  0.798565  0.201435  0.927385  1
  O  O23  1  0.796015  0.203985  0.574734  1
  O  O24  1  0.787718  0.212282  0.248367  1
  O  O25  1  0.520696  0.311839  0.400174  1
  O  O26  1  0.519655  0.312991  0.098289  1
  O  O27  1  0.206349  0.793651  0.751498  1
  O  O28  1  0.201404  0.798596  0.424481  1
  O  O29  1  0.206179  0.793821  0.074477  1
  O  O30  1  0.520551  0.167236  0.898484  1
  O  O31  1  0.515234  0.168906  0.601195  1
  O  O32  1  0.311951  0.520849  0.899677  1
  O  O33  1  0.315677  0.515228  0.601214  1
  O  O34  1  0.169183  0.516275  0.100668  1
  O  O35  1  0.166563  0.521058  0.400347  1
  O  O36  1  0.312205  0.166483  0.399931  1
  O  O37  1  0.316477  0.168215  0.102650  1
  O  O38  1  0.001431  0.798597  0.924476  1
  O  O39  1  0.999770  0.794925  0.574027  1
  O  O40  1  0.999911  0.794323  0.251534  1
  O  O41  1  0.167114  0.310717  0.903270  1
  O  O42  1  0.168648  0.315415  0.600549  1
  O  O43  1  0.800176  0.000372  0.423994  1
  O  O44  1  0.796026  0.000117  0.074139  1
  O  O45  1  0.793212  0.000805  0.752376  1
  O  O46  1  0.831785  0.683523  0.102650  1
  O  O47  1  0.833517  0.687795  0.399931  1
  O  O48  1  0.999195  0.206788  0.752376  1
  O  O49  1  0.999628  0.199824  0.423994  1
  O  O50  1  0.999883  0.203974  0.074139  1
  O  O51  1  0.689283  0.832886  0.903270  1
  O  O52  1  0.684585  0.831352  0.600549  1
  O  O53  1  0.831094  0.484766  0.601195  1
  O  O54  1  0.832764  0.479449  0.898484  1
  O  O55  1  0.688161  0.479304  0.400174  1
  O  O56  1  0.687009  0.480345  0.098289  1
  O  O57  1  0.478942  0.833437  0.400347  1
  O  O58  1  0.483725  0.830817  0.100668  1
  O  O59  1  0.484772  0.684323  0.601214  1
  O  O60  1  0.479151  0.688049  0.899677  1
  O  O61  1  0.205677  0.000089  0.251534  1
  O  O62  1  0.205075  0.000230  0.574027  1
  O  O63  1  0.201403  0.998569  0.924476  1
