# generated using pymatgen
data_LiCoSiO4
_symmetry_space_group_name_H-M   'P 1'
_cell_length_a   5.20816005
_cell_length_b   5.96744374
_cell_length_c   11.25381984
_cell_angle_alpha   90.00000000
_cell_angle_beta   90.00000000
_cell_angle_gamma   90.00000000
_symmetry_Int_Tables_number   1
_chemical_formula_structural   LiCoSiO4
_chemical_formula_sum   'Li4 Co4 Si4 O16'
_cell_volume   349.76199216
_cell_formula_units_Z   4
loop_
 _symmetry_equiv_pos_site_id
 _symmetry_equiv_pos_as_xyz
  1  'x, y, z'
loop_
 _atom_site_type_symbol
 _atom_site_label
 _atom_site_symmetry_multiplicity
 _atom_site_fract_x
 _atom_site_fract_y
 _atom_site_fract_z
 _atom_site_occupancy
  Li  Li0  1  0.697292  0.483970  0.172568  1
  Li  Li1  1  0.802708  0.483970  0.672568  1
  Li  Li2  1  0.197292  0.983970  0.327432  1
  Li  Li3  1  0.302708  0.983970  0.827432  1
  Co  Co4  1  0.822932  0.257470  0.422116  1
  Co  Co5  1  0.677068  0.257470  0.922116  1
  Co  Co6  1  0.322932  0.757470  0.077884  1
  Co  Co7  1  0.177068  0.757470  0.577884  1
  Si  Si8  1  0.183926  0.250482  0.077529  1
  Si  Si9  1  0.316074  0.250482  0.577529  1
  Si  Si10  1  0.683926  0.750482  0.422471  1
  Si  Si11  1  0.816074  0.750482  0.922471  1
  O  O12  1  0.250748  0.025101  0.157310  1
  O  O13  1  0.249252  0.025101  0.657310  1
  O  O14  1  0.870654  0.271961  0.062428  1
  O  O15  1  0.178013  0.232884  0.446294  1
  O  O16  1  0.321987  0.232884  0.946294  1
  O  O17  1  0.629346  0.271961  0.562428  1
  O  O18  1  0.289175  0.474580  0.147623  1
  O  O19  1  0.210825  0.474580  0.647623  1
  O  O20  1  0.749252  0.525101  0.842690  1
  O  O21  1  0.750748  0.525101  0.342690  1
  O  O22  1  0.678013  0.732884  0.053706  1
  O  O23  1  0.370654  0.771961  0.437572  1
  O  O24  1  0.821987  0.732884  0.553706  1
  O  O25  1  0.129346  0.771961  0.937572  1
  O  O26  1  0.789175  0.974580  0.352377  1
  O  O27  1  0.710825  0.974580  0.852377  1
