# generated using pymatgen
data_Li4Cr3Fe3(TeO8)2
_symmetry_space_group_name_H-M   'P 1'
_cell_length_a   6.01696770
_cell_length_b   6.01696770
_cell_length_c   9.82577382
_cell_angle_alpha   89.47628175
_cell_angle_beta   90.52371825
_cell_angle_gamma   120.07554203
_symmetry_Int_Tables_number   1
_chemical_formula_structural   Li4Cr3Fe3(TeO8)2
_chemical_formula_sum   'Li4 Cr3 Fe3 Te2 O16'
_cell_volume   307.82046382
_cell_formula_units_Z   1
loop_
 _symmetry_equiv_pos_site_id
 _symmetry_equiv_pos_as_xyz
  1  'x, y, z'
loop_
 _atom_site_type_symbol
 _atom_site_label
 _atom_site_symmetry_multiplicity
 _atom_site_fract_x
 _atom_site_fract_y
 _atom_site_fract_z
 _atom_site_occupancy
  Li  Li0  1  0.333982  0.666018  0.091779  1
  Li  Li1  1  0.999522  0.000478  0.010490  1
  Li  Li2  1  0.998862  0.001138  0.509558  1
  Li  Li3  1  0.667186  0.332814  0.594758  1
  Cr  Cr4  1  0.169033  0.339788  0.786582  1
  Cr  Cr5  1  0.660212  0.830967  0.786582  1
  Cr  Cr6  1  0.828794  0.171206  0.286292  1
  Fe  Fe7  1  0.167968  0.832032  0.785898  1
  Fe  Fe8  1  0.337226  0.170570  0.285749  1
  Fe  Fe9  1  0.829430  0.662774  0.285749  1
  Te  Te10  1  0.332441  0.667559  0.514506  1
  Te  Te11  1  0.666181  0.333819  0.012846  1
  O  O12  1  0.162658  0.324427  0.402556  1
  O  O13  1  0.483488  0.516512  0.664823  1
  O  O14  1  0.331732  0.668268  0.889849  1
  O  O15  1  0.000323  0.999677  0.693493  1
  O  O16  1  0.999197  0.000803  0.194714  1
  O  O17  1  0.675573  0.837342  0.402556  1
  O  O18  1  0.035329  0.514309  0.658079  1
  O  O19  1  0.485691  0.964671  0.658079  1
  O  O20  1  0.841354  0.158646  0.901909  1
  O  O21  1  0.163066  0.836934  0.406129  1
  O  O22  1  0.519513  0.034674  0.158692  1
  O  O23  1  0.965326  0.480487  0.158692  1
  O  O24  1  0.664843  0.335157  0.390610  1
  O  O25  1  0.322210  0.159931  0.904478  1
  O  O26  1  0.518713  0.481287  0.152267  1
  O  O27  1  0.840069  0.677790  0.904478  1
