# generated using pymatgen
data_Mn3(OF2)2
_symmetry_space_group_name_H-M   'P 1'
_cell_length_a   4.83564814
_cell_length_b   4.83564814
_cell_length_c   9.45642175
_cell_angle_alpha   89.93832182
_cell_angle_beta   90.06167818
_cell_angle_gamma   84.39314021
_symmetry_Int_Tables_number   1
_chemical_formula_structural   Mn3(OF2)2
_chemical_formula_sum   'Mn6 O4 F8'
_cell_volume   220.06596638
_cell_formula_units_Z   2
loop_
 _symmetry_equiv_pos_site_id
 _symmetry_equiv_pos_as_xyz
  1  'x, y, z'
loop_
 _atom_site_type_symbol
 _atom_site_label
 _atom_site_symmetry_multiplicity
 _atom_site_fract_x
 _atom_site_fract_y
 _atom_site_fract_z
 _atom_site_occupancy
  Mn  Mn0  1  0.000000  0.000000  0.000000  1
  Mn  Mn1  1  0.027195  0.972805  0.668593  1
  Mn  Mn2  1  0.972805  0.027195  0.331407  1
  Mn  Mn3  1  0.503247  0.496753  0.158057  1
  Mn  Mn4  1  0.496753  0.503247  0.841943  1
  Mn  Mn5  1  0.500000  0.500000  0.500000  1
  O  O6  1  0.697467  0.302533  0.998448  1
  O  O7  1  0.677611  0.322389  0.328713  1
  O  O8  1  0.302533  0.697467  0.001552  1
  O  O9  1  0.322389  0.677611  0.671287  1
  F  F10  1  0.196386  0.187200  0.833320  1
  F  F11  1  0.194899  0.194899  0.500000  1
  F  F12  1  0.187200  0.196386  0.166680  1
  F  F13  1  0.711101  0.288899  0.674696  1
  F  F14  1  0.288899  0.711101  0.325304  1
  F  F15  1  0.812800  0.803614  0.833320  1
  F  F16  1  0.805101  0.805101  0.500000  1
  F  F17  1  0.803614  0.812800  0.166680  1
