# generated using pymatgen
data_U4BiO10
_symmetry_space_group_name_H-M   'P 1'
_cell_length_a   6.66679015
_cell_length_b   6.66679015
_cell_length_c   6.66679015
_cell_angle_alpha   99.59008441
_cell_angle_beta   99.59008441
_cell_angle_gamma   131.82085603
_symmetry_Int_Tables_number   1
_chemical_formula_structural   U4BiO10
_chemical_formula_sum   'U4 Bi1 O10'
_cell_volume   201.59040892
_cell_formula_units_Z   1
loop_
 _symmetry_equiv_pos_site_id
 _symmetry_equiv_pos_as_xyz
  1  'x, y, z'
loop_
 _atom_site_type_symbol
 _atom_site_label
 _atom_site_symmetry_multiplicity
 _atom_site_fract_x
 _atom_site_fract_y
 _atom_site_fract_z
 _atom_site_occupancy
  U  U0  1  0.600614  0.199108  0.799722  1
  U  U1  1  0.399386  0.800892  0.200278  1
  U  U2  1  0.800892  0.600614  0.401507  1
  U  U3  1  0.199108  0.399386  0.598493  1
  Bi  Bi4  1  0.000000  0.000000  0.000000  1
  O  O5  1  0.950692  0.641658  0.106045  1
  O  O6  1  0.464386  0.155353  0.106045  1
  O  O7  1  0.535614  0.844647  0.893955  1
  O  O8  1  0.750000  0.250000  0.500000  1
  O  O9  1  0.250000  0.750000  0.500000  1
  O  O10  1  0.155353  0.049308  0.690966  1
  O  O11  1  0.641658  0.535614  0.690966  1
  O  O12  1  0.049308  0.358342  0.893955  1
  O  O13  1  0.358342  0.464386  0.309034  1
  O  O14  1  0.844647  0.950692  0.309034  1
