# generated using pymatgen
data_B5H12NO12
_symmetry_space_group_name_H-M   'P 1'
_cell_length_a   7.25637791
_cell_length_b   7.25637791
_cell_length_c   11.46068584
_cell_angle_alpha   90.00000000
_cell_angle_beta   90.00000000
_cell_angle_gamma   99.95821743
_symmetry_Int_Tables_number   1
_chemical_formula_structural   B5H12NO12
_chemical_formula_sum   'B10 H24 N2 O24'
_cell_volume   594.37095301
_cell_formula_units_Z   2
loop_
 _symmetry_equiv_pos_site_id
 _symmetry_equiv_pos_as_xyz
  1  'x, y, z'
loop_
 _atom_site_type_symbol
 _atom_site_label
 _atom_site_symmetry_multiplicity
 _atom_site_fract_x
 _atom_site_fract_y
 _atom_site_fract_z
 _atom_site_occupancy
  B  B0  1  0.104286  0.104286  0.500000  1
  B  B1  1  0.604286  0.604286  0.000000  1
  B  B2  1  0.101838  0.296784  0.319033  1
  B  B3  1  0.296784  0.101838  0.680967  1
  B  B4  1  0.601838  0.796784  0.180967  1
  B  B5  1  0.796784  0.601838  0.819033  1
  B  B6  1  0.071521  0.963524  0.300220  1
  B  B7  1  0.963524  0.071521  0.699780  1
  B  B8  1  0.571521  0.463524  0.199780  1
  B  B9  1  0.463524  0.571521  0.800220  1
  H  H10  1  0.104602  0.455003  0.178351  1
  H  H11  1  0.455003  0.104602  0.821649  1
  H  H12  1  0.604602  0.955003  0.321649  1
  H  H13  1  0.955003  0.604602  0.678351  1
  H  H14  1  0.053651  0.692682  0.258707  1
  H  H15  1  0.692682  0.053651  0.741293  1
  H  H16  1  0.553651  0.192682  0.241293  1
  H  H17  1  0.192682  0.553651  0.758707  1
  H  H18  1  0.480630  0.996343  0.500531  1
  H  H19  1  0.996343  0.480630  0.499469  1
  H  H20  1  0.980630  0.496343  0.999469  1
  H  H21  1  0.496343  0.980630  0.000531  1
  H  H22  1  0.699861  0.994981  0.509282  1
  H  H23  1  0.994981  0.699861  0.490718  1
  H  H24  1  0.199861  0.494981  0.990718  1
  H  H25  1  0.494981  0.199861  0.009282  1
  H  H26  1  0.025023  0.146237  0.041046  1
  H  H27  1  0.146237  0.025023  0.958954  1
  H  H28  1  0.525023  0.646237  0.458954  1
  H  H29  1  0.646237  0.525023  0.541046  1
  H  H30  1  0.913232  0.000716  0.938292  1
  H  H31  1  0.000716  0.913232  0.061708  1
  H  H32  1  0.413232  0.500716  0.561708  1
  H  H33  1  0.500716  0.413232  0.438292  1
  N  N34  1  0.018625  0.018625  0.000000  1
  N  N35  1  0.518625  0.518625  0.500000  1
  O  O36  1  0.110454  0.285147  0.437578  1
  O  O37  1  0.285147  0.110454  0.562422  1
  O  O38  1  0.610454  0.785147  0.062422  1
  O  O39  1  0.785147  0.610454  0.937578  1
  O  O40  1  0.080428  0.942874  0.418396  1
  O  O41  1  0.942874  0.080428  0.581604  1
  O  O42  1  0.580428  0.442874  0.081604  1
  O  O43  1  0.442874  0.580428  0.918396  1
  O  O44  1  0.083323  0.138747  0.248647  1
  O  O45  1  0.138747  0.083323  0.751353  1
  O  O46  1  0.583323  0.638747  0.251353  1
  O  O47  1  0.638747  0.583323  0.748647  1
  O  O48  1  0.109624  0.467498  0.265672  1
  O  O49  1  0.467498  0.109624  0.734328  1
  O  O50  1  0.609624  0.967498  0.234328  1
  O  O51  1  0.967498  0.609624  0.765672  1
  O  O52  1  0.048669  0.816530  0.223501  1
  O  O53  1  0.816530  0.048669  0.776499  1
  O  O54  1  0.548669  0.316530  0.276499  1
  O  O55  1  0.316530  0.548669  0.723501  1
  O  O56  1  0.583075  0.936194  0.469769  1
  O  O57  1  0.936194  0.583075  0.530231  1
  O  O58  1  0.083075  0.436194  0.030231  1
  O  O59  1  0.436194  0.083075  0.969769  1
