# generated using pymatgen
data_Li9Al(NiO4)2
_symmetry_space_group_name_H-M   'P 1'
_cell_length_a   6.37031201
_cell_length_b   7.51001506
_cell_length_c   15.82697923
_cell_angle_alpha   90.00000000
_cell_angle_beta   90.00000000
_cell_angle_gamma   90.00000000
_symmetry_Int_Tables_number   1
_chemical_formula_structural   Li9Al(NiO4)2
_chemical_formula_sum   'Li36 Al4 Ni8 O32'
_cell_volume   757.18071572
_cell_formula_units_Z   4
loop_
 _symmetry_equiv_pos_site_id
 _symmetry_equiv_pos_as_xyz
  1  'x, y, z'
loop_
 _atom_site_type_symbol
 _atom_site_label
 _atom_site_symmetry_multiplicity
 _atom_site_fract_x
 _atom_site_fract_y
 _atom_site_fract_z
 _atom_site_occupancy
  Li  Li0  1  0.519277  0.536547  0.569534  1
  Li  Li1  1  0.980723  0.536547  0.569534  1
  Li  Li2  1  0.250000  0.339374  0.638789  1
  Li  Li3  1  0.507028  0.101476  0.619357  1
  Li  Li4  1  0.992972  0.101476  0.619357  1
  Li  Li5  1  0.750000  0.329322  0.661035  1
  Li  Li6  1  0.250000  0.804662  0.693715  1
  Li  Li7  1  0.007929  0.550708  0.711919  1
  Li  Li8  1  0.492071  0.550708  0.711919  1
  Li  Li9  1  0.507929  0.050708  0.788081  1
  Li  Li10  1  0.992071  0.050708  0.788081  1
  Li  Li11  1  0.750000  0.304662  0.806285  1
  Li  Li12  1  0.250000  0.829322  0.838965  1
  Li  Li13  1  0.492972  0.601476  0.880643  1
  Li  Li14  1  0.007028  0.601476  0.880643  1
  Li  Li15  1  0.750000  0.839374  0.861211  1
  Li  Li16  1  0.019277  0.036547  0.930466  1
  Li  Li17  1  0.480723  0.036547  0.930466  1
  Li  Li18  1  0.519277  0.963453  0.069534  1
  Li  Li19  1  0.980723  0.963453  0.069534  1
  Li  Li20  1  0.250000  0.160626  0.138789  1
  Li  Li21  1  0.992972  0.398524  0.119357  1
  Li  Li22  1  0.507028  0.398524  0.119357  1
  Li  Li23  1  0.750000  0.170678  0.161035  1
  Li  Li24  1  0.250000  0.695338  0.193715  1
  Li  Li25  1  0.007929  0.949292  0.211919  1
  Li  Li26  1  0.492071  0.949292  0.211919  1
  Li  Li27  1  0.507929  0.449292  0.288081  1
  Li  Li28  1  0.992071  0.449292  0.288081  1
  Li  Li29  1  0.750000  0.195338  0.306285  1
  Li  Li30  1  0.250000  0.670678  0.338965  1
  Li  Li31  1  0.492972  0.898524  0.380643  1
  Li  Li32  1  0.007028  0.898524  0.380643  1
  Li  Li33  1  0.750000  0.660626  0.361211  1
  Li  Li34  1  0.019277  0.463453  0.430466  1
  Li  Li35  1  0.480723  0.463453  0.430466  1
  Al  Al36  1  0.750000  0.841206  0.505538  1
  Al  Al37  1  0.250000  0.341206  0.994462  1
  Al  Al38  1  0.750000  0.658794  0.005538  1
  Al  Al39  1  0.250000  0.158794  0.494462  1
  Ni  Ni40  1  0.250000  0.766721  0.531388  1
  Ni  Ni41  1  0.750000  0.797965  0.699989  1
  Ni  Ni42  1  0.250000  0.297965  0.800011  1
  Ni  Ni43  1  0.750000  0.266721  0.968612  1
  Ni  Ni44  1  0.250000  0.733279  0.031388  1
  Ni  Ni45  1  0.750000  0.702035  0.199989  1
  Ni  Ni46  1  0.250000  0.202035  0.300011  1
  Ni  Ni47  1  0.750000  0.233279  0.468612  1
  O  O48  1  0.474272  0.289242  0.522338  1
  O  O49  1  0.025728  0.289242  0.522338  1
  O  O50  1  0.250000  0.003175  0.582733  1
  O  O51  1  0.250000  0.592486  0.629027  1
  O  O52  1  0.750000  0.569436  0.642694  1
  O  O53  1  0.750000  0.960953  0.601804  1
  O  O54  1  0.005949  0.275993  0.721005  1
  O  O55  1  0.494051  0.275993  0.721005  1
  O  O56  1  0.505949  0.775993  0.778995  1
  O  O57  1  0.994051  0.775993  0.778995  1
  O  O58  1  0.250000  0.460953  0.898196  1
  O  O59  1  0.250000  0.069436  0.857306  1
  O  O60  1  0.750000  0.092486  0.870973  1
  O  O61  1  0.750000  0.503175  0.917267  1
  O  O62  1  0.974272  0.789242  0.977662  1
  O  O63  1  0.525728  0.789242  0.977662  1
  O  O64  1  0.474272  0.210758  0.022338  1
  O  O65  1  0.025728  0.210758  0.022338  1
  O  O66  1  0.250000  0.496825  0.082733  1
  O  O67  1  0.250000  0.907514  0.129027  1
  O  O68  1  0.750000  0.930564  0.142694  1
  O  O69  1  0.750000  0.539047  0.101804  1
  O  O70  1  0.005949  0.224007  0.221005  1
  O  O71  1  0.494051  0.224007  0.221005  1
  O  O72  1  0.505949  0.724007  0.278995  1
  O  O73  1  0.994051  0.724007  0.278995  1
  O  O74  1  0.250000  0.039047  0.398196  1
  O  O75  1  0.250000  0.430564  0.357306  1
  O  O76  1  0.750000  0.407514  0.370973  1
  O  O77  1  0.750000  0.996825  0.417267  1
  O  O78  1  0.974272  0.710758  0.477662  1
  O  O79  1  0.525728  0.710758  0.477662  1
