# generated using pymatgen
data_Sr2Fe2H2OF10
_symmetry_space_group_name_H-M   'P 1'
_cell_length_a   10.78734456
_cell_length_b   10.78734456
_cell_length_c   10.94571737
_cell_angle_alpha   90.00000000
_cell_angle_beta   90.00000000
_cell_angle_gamma   136.72932871
_symmetry_Int_Tables_number   1
_chemical_formula_structural   Sr2Fe2H2OF10
_chemical_formula_sum   'Sr8 Fe8 H8 O4 F40'
_cell_volume   873.06465458
_cell_formula_units_Z   4
loop_
 _symmetry_equiv_pos_site_id
 _symmetry_equiv_pos_as_xyz
  1  'x, y, z'
loop_
 _atom_site_type_symbol
 _atom_site_label
 _atom_site_symmetry_multiplicity
 _atom_site_fract_x
 _atom_site_fract_y
 _atom_site_fract_z
 _atom_site_occupancy
  Sr  Sr0  1  0.969733  0.530267  0.250000  1
  Sr  Sr1  1  0.530267  0.969733  0.750000  1
  Sr  Sr2  1  0.030267  0.469733  0.750000  1
  Sr  Sr3  1  0.469733  0.030267  0.250000  1
  Sr  Sr4  1  0.380192  0.619808  0.046886  1
  Sr  Sr5  1  0.619808  0.380192  0.953114  1
  Sr  Sr6  1  0.119808  0.880192  0.546886  1
  Sr  Sr7  1  0.880192  0.119808  0.453114  1
  Fe  Fe8  1  0.784363  0.715637  0.250000  1
  Fe  Fe9  1  0.715637  0.784363  0.750000  1
  Fe  Fe10  1  0.215637  0.284363  0.750000  1
  Fe  Fe11  1  0.284363  0.215637  0.250000  1
  Fe  Fe12  1  0.319168  0.680832  0.435528  1
  Fe  Fe13  1  0.680832  0.319168  0.564472  1
  Fe  Fe14  1  0.180832  0.819168  0.935528  1
  Fe  Fe15  1  0.819168  0.180832  0.064472  1
  H  H16  1  0.340023  0.454206  0.420128  1
  H  H17  1  0.454206  0.340023  0.579872  1
  H  H18  1  0.954206  0.840023  0.920128  1
  H  H19  1  0.840023  0.954206  0.079872  1
  H  H20  1  0.659977  0.545794  0.579872  1
  H  H21  1  0.545794  0.659977  0.420128  1
  H  H22  1  0.045794  0.159977  0.079872  1
  H  H23  1  0.159977  0.045794  0.920128  1
  O  O24  1  0.419067  0.580933  0.448541  1
  O  O25  1  0.580933  0.419067  0.551459  1
  O  O26  1  0.080933  0.919067  0.948541  1
  O  O27  1  0.919067  0.080933  0.051459  1
  F  F28  1  0.906129  0.695932  0.364665  1
  F  F29  1  0.695932  0.906129  0.635335  1
  F  F30  1  0.195932  0.406129  0.864665  1
  F  F31  1  0.406129  0.195932  0.135335  1
  F  F32  1  0.093871  0.304068  0.635335  1
  F  F33  1  0.304068  0.093871  0.364665  1
  F  F34  1  0.804068  0.593871  0.135335  1
  F  F35  1  0.593871  0.804068  0.864665  1
  F  F36  1  0.071628  0.447620  0.421464  1
  F  F37  1  0.447620  0.071628  0.578536  1
  F  F38  1  0.947620  0.571628  0.921464  1
  F  F39  1  0.571628  0.947620  0.078536  1
  F  F40  1  0.928372  0.552380  0.578536  1
  F  F41  1  0.552380  0.928372  0.421464  1
  F  F42  1  0.052380  0.428372  0.078536  1
  F  F43  1  0.428372  0.052380  0.921464  1
  F  F44  1  0.176024  0.243952  0.374330  1
  F  F45  1  0.243952  0.176024  0.625670  1
  F  F46  1  0.743952  0.676024  0.874330  1
  F  F47  1  0.676024  0.743952  0.125670  1
  F  F48  1  0.823976  0.756048  0.625670  1
  F  F49  1  0.756048  0.823976  0.374330  1
  F  F50  1  0.256048  0.323976  0.125670  1
  F  F51  1  0.323976  0.256048  0.874330  1
  F  F52  1  0.198373  0.801627  0.111491  1
  F  F53  1  0.801627  0.198373  0.888509  1
  F  F54  1  0.301627  0.698373  0.611491  1
  F  F55  1  0.698373  0.301627  0.388509  1
  F  F56  1  0.320153  0.679847  0.252901  1
  F  F57  1  0.679847  0.320153  0.747099  1
  F  F58  1  0.179847  0.820153  0.752901  1
  F  F59  1  0.820153  0.179847  0.247099  1
  F  F60  1  0.029676  0.970324  0.210289  1
  F  F61  1  0.970324  0.029676  0.789711  1
  F  F62  1  0.470324  0.529676  0.710289  1
  F  F63  1  0.529676  0.470324  0.289711  1
  F  F64  1  0.219448  0.780552  0.397788  1
  F  F65  1  0.780552  0.219448  0.602212  1
  F  F66  1  0.280552  0.719448  0.897788  1
  F  F67  1  0.719448  0.280552  0.102212  1
