# generated using pymatgen
data_V3(PO4)2
_symmetry_space_group_name_H-M   'P 1'
_cell_length_a   6.39548771
_cell_length_b   11.61878682
_cell_length_c   8.75898290
_cell_angle_alpha   90.00000000
_cell_angle_beta   99.40032558
_cell_angle_gamma   90.00000000
_symmetry_Int_Tables_number   1
_chemical_formula_structural   V3(PO4)2
_chemical_formula_sum   'V12 P8 O32'
_cell_volume   642.12056457
_cell_formula_units_Z   4
loop_
 _symmetry_equiv_pos_site_id
 _symmetry_equiv_pos_as_xyz
  1  'x, y, z'
loop_
 _atom_site_type_symbol
 _atom_site_label
 _atom_site_symmetry_multiplicity
 _atom_site_fract_x
 _atom_site_fract_y
 _atom_site_fract_z
 _atom_site_occupancy
  V  V0  1  0.363157  0.384980  0.930364  1
  V  V1  1  0.863157  0.115020  0.930364  1
  V  V2  1  0.331296  0.086173  0.723386  1
  V  V3  1  0.831296  0.413827  0.723386  1
  V  V4  1  0.383411  0.689543  0.639417  1
  V  V5  1  0.883411  0.810457  0.639417  1
  V  V6  1  0.116589  0.189543  0.360583  1
  V  V7  1  0.616589  0.310457  0.360583  1
  V  V8  1  0.168704  0.586173  0.276614  1
  V  V9  1  0.668704  0.913827  0.276614  1
  V  V10  1  0.136843  0.884980  0.069636  1
  V  V11  1  0.636843  0.615020  0.069636  1
  P  P12  1  0.112520  0.632977  0.910115  1
  P  P13  1  0.612520  0.867023  0.910115  1
  P  P14  1  0.305168  0.412199  0.602544  1
  P  P15  1  0.805168  0.087801  0.602544  1
  P  P16  1  0.194832  0.912199  0.397456  1
  P  P17  1  0.694832  0.587801  0.397456  1
  P  P18  1  0.387480  0.132977  0.089885  1
  P  P19  1  0.887480  0.367023  0.089885  1
  O  O20  1  0.395517  0.198526  0.935497  1
  O  O21  1  0.328234  0.566604  0.925758  1
  O  O22  1  0.895517  0.301474  0.935497  1
  O  O23  1  0.828234  0.933396  0.925758  1
  O  O24  1  0.408722  0.938729  0.868374  1
  O  O25  1  0.908722  0.561271  0.868374  1
  O  O26  1  0.128406  0.719959  0.776117  1
  O  O27  1  0.007887  0.079151  0.727665  1
  O  O28  1  0.628406  0.780041  0.776117  1
  O  O29  1  0.139065  0.372028  0.701571  1
  O  O30  1  0.507887  0.420849  0.727665  1
  O  O31  1  0.639065  0.127972  0.701571  1
  O  O32  1  0.252125  0.530717  0.521557  1
  O  O33  1  0.166101  0.818693  0.519300  1
  O  O34  1  0.752125  0.969283  0.521557  1
  O  O35  1  0.333899  0.318693  0.480700  1
  O  O36  1  0.666101  0.681307  0.519300  1
  O  O37  1  0.247875  0.030717  0.478443  1
  O  O38  1  0.833899  0.181307  0.480700  1
  O  O39  1  0.747875  0.469283  0.478443  1
  O  O40  1  0.360935  0.872028  0.298429  1
  O  O41  1  0.492113  0.579151  0.272335  1
  O  O42  1  0.860935  0.627972  0.298429  1
  O  O43  1  0.371594  0.219959  0.223883  1
  O  O44  1  0.992113  0.920849  0.272335  1
  O  O45  1  0.871594  0.280041  0.223883  1
  O  O46  1  0.091278  0.438729  0.131626  1
  O  O47  1  0.591278  0.061271  0.131626  1
  O  O48  1  0.171766  0.066604  0.074242  1
  O  O49  1  0.104483  0.698526  0.064503  1
  O  O50  1  0.671766  0.433396  0.074242  1
  O  O51  1  0.604483  0.801474  0.064503  1
