# generated using pymatgen
data_FeH4(SO5)2
_symmetry_space_group_name_H-M   'P 1'
_cell_length_a   6.54559772
_cell_length_b   7.47145652
_cell_length_c   10.47912207
_cell_angle_alpha   94.96724652
_cell_angle_beta   107.94356351
_cell_angle_gamma   113.15279054
_symmetry_Int_Tables_number   1
_chemical_formula_structural   FeH4(SO5)2
_chemical_formula_sum   'Fe2 H8 S4 O20'
_cell_volume   435.46545829
_cell_formula_units_Z   2
loop_
 _symmetry_equiv_pos_site_id
 _symmetry_equiv_pos_as_xyz
  1  'x, y, z'
loop_
 _atom_site_type_symbol
 _atom_site_label
 _atom_site_symmetry_multiplicity
 _atom_site_fract_x
 _atom_site_fract_y
 _atom_site_fract_z
 _atom_site_occupancy
  Fe  Fe0  1  0.502363  0.480264  0.750999  1
  Fe  Fe1  1  0.497637  0.519736  0.249001  1
  H  H2  1  0.660541  0.198772  0.791194  1
  H  H3  1  0.371731  0.082863  0.711868  1
  H  H4  1  0.439493  0.178465  0.299500  1
  H  H5  1  0.403800  0.159429  0.136598  1
  H  H6  1  0.596200  0.840571  0.863402  1
  H  H7  1  0.560507  0.821535  0.700500  1
  H  H8  1  0.628269  0.917137  0.288132  1
  H  H9  1  0.339459  0.801228  0.208806  1
  S  S10  1  0.174131  0.275722  0.926294  1
  S  S11  1  0.187620  0.269697  0.418482  1
  S  S12  1  0.812380  0.730303  0.581518  1
  S  S13  1  0.825869  0.724278  0.073706  1
  O  O14  1  0.295346  0.147933  0.954752  1
  O  O15  1  0.515888  0.210616  0.734869  1
  O  O16  1  0.330892  0.158508  0.428603  1
  O  O17  1  0.912810  0.165369  0.876184  1
  O  O18  1  0.929801  0.140696  0.366155  1
  O  O19  1  0.744097  0.566368  0.944313  1
  O  O20  1  0.232364  0.383852  0.817803  1
  O  O21  1  0.254533  0.395763  0.558826  1
  O  O22  1  0.235350  0.410412  0.324199  1
  O  O23  1  0.503174  0.244278  0.231837  1
  O  O24  1  0.496826  0.755722  0.768163  1
  O  O25  1  0.764650  0.589588  0.675801  1
  O  O26  1  0.745467  0.604237  0.441174  1
  O  O27  1  0.767636  0.616148  0.182197  1
  O  O28  1  0.255903  0.433632  0.055687  1
  O  O29  1  0.070199  0.859304  0.633845  1
  O  O30  1  0.087190  0.834631  0.123816  1
  O  O31  1  0.669108  0.841492  0.571397  1
  O  O32  1  0.484112  0.789384  0.265131  1
  O  O33  1  0.704654  0.852067  0.045248  1
