# generated using pymatgen
data_LiV4OF11
_symmetry_space_group_name_H-M   'P 1'
_cell_length_a   5.21433405
_cell_length_b   5.50148331
_cell_length_c   7.63254306
_cell_angle_alpha   94.41532878
_cell_angle_beta   90.34260705
_cell_angle_gamma   90.79564972
_symmetry_Int_Tables_number   1
_chemical_formula_structural   LiV4OF11
_chemical_formula_sum   'Li1 V4 O1 F11'
_cell_volume   218.27518388
_cell_formula_units_Z   1
loop_
 _symmetry_equiv_pos_site_id
 _symmetry_equiv_pos_as_xyz
  1  'x, y, z'
loop_
 _atom_site_type_symbol
 _atom_site_label
 _atom_site_symmetry_multiplicity
 _atom_site_fract_x
 _atom_site_fract_y
 _atom_site_fract_z
 _atom_site_occupancy
  Li  Li0  1  0.005509  0.577908  0.189680  1
  V  V1  1  0.002360  0.002019  0.503767  1
  V  V2  1  0.504202  0.498671  0.499816  1
  V  V3  1  0.483708  0.485242  0.996719  1
  V  V4  1  0.008311  0.022031  0.000833  1
  O  O5  1  0.195874  0.307554  0.054823  1
  F  F6  1  0.893038  0.993236  0.257917  1
  F  F7  1  0.814322  0.311857  0.554503  1
  F  F8  1  0.804427  0.694252  0.970202  1
  F  F9  1  0.695026  0.187133  0.936972  1
  F  F10  1  0.691987  0.807997  0.550769  1
  F  F11  1  0.632423  0.497700  0.252877  1
  F  F12  1  0.395029  0.507080  0.743239  1
  F  F13  1  0.309294  0.193806  0.445445  1
  F  F14  1  0.278715  0.789965  0.067879  1
  F  F15  1  0.187085  0.683074  0.428710  1
  F  F16  1  0.113661  0.987070  0.743246  1
