# generated using pymatgen
data_Li5Fe2P2(CO7)2
_symmetry_space_group_name_H-M   'P 1'
_cell_length_a   8.42523161
_cell_length_b   6.47108705
_cell_length_c   10.15892745
_cell_angle_alpha   90.00000000
_cell_angle_beta   95.53413098
_cell_angle_gamma   90.00000000
_symmetry_Int_Tables_number   1
_chemical_formula_structural   Li5Fe2P2(CO7)2
_chemical_formula_sum   'Li10 Fe4 P4 C4 O28'
_cell_volume   551.28723747
_cell_formula_units_Z   2
loop_
 _symmetry_equiv_pos_site_id
 _symmetry_equiv_pos_as_xyz
  1  'x, y, z'
loop_
 _atom_site_type_symbol
 _atom_site_label
 _atom_site_symmetry_multiplicity
 _atom_site_fract_x
 _atom_site_fract_y
 _atom_site_fract_z
 _atom_site_occupancy
  Li  Li0  1  0.897061  0.006939  0.390425  1
  Li  Li1  1  0.897061  0.993061  0.890425  1
  Li  Li2  1  0.711796  0.187223  0.118284  1
  Li  Li3  1  0.711796  0.812777  0.618284  1
  Li  Li4  1  0.260878  0.753503  0.371324  1
  Li  Li5  1  0.265753  0.250408  0.368434  1
  Li  Li6  1  0.265753  0.749592  0.868434  1
  Li  Li7  1  0.260878  0.246497  0.871324  1
  Li  Li8  1  0.098866  0.498610  0.118430  1
  Li  Li9  1  0.098866  0.501390  0.618430  1
  Fe  Fe10  1  0.671745  0.500362  0.397794  1
  Fe  Fe11  1  0.671745  0.499638  0.897794  1
  Fe  Fe12  1  0.332080  0.993242  0.105715  1
  Fe  Fe13  1  0.332080  0.006758  0.605715  1
  P  P14  1  0.585171  0.005654  0.358409  1
  P  P15  1  0.585171  0.994346  0.858409  1
  P  P16  1  0.418425  0.490322  0.132143  1
  P  P17  1  0.418425  0.509678  0.632143  1
  C  C18  1  0.963595  0.500354  0.351903  1
  C  C19  1  0.963595  0.499646  0.851903  1
  C  C20  1  0.038629  0.008192  0.158367  1
  C  C21  1  0.038629  0.991808  0.658367  1
  O  O22  1  0.929636  0.509327  0.474130  1
  O  O23  1  0.901046  0.042630  0.194236  1
  O  O24  1  0.929636  0.490673  0.974130  1
  O  O25  1  0.842802  0.493300  0.262879  1
  O  O26  1  0.901046  0.957370  0.694236  1
  O  O27  1  0.842802  0.506700  0.762879  1
  O  O28  1  0.687814  0.195800  0.408241  1
  O  O29  1  0.693371  0.817789  0.407383  1
  O  O30  1  0.693371  0.182211  0.907383  1
  O  O31  1  0.687814  0.804200  0.908241  1
  O  O32  1  0.576847  0.462702  0.069852  1
  O  O33  1  0.558848  0.015211  0.206614  1
  O  O34  1  0.576847  0.537298  0.569852  1
  O  O35  1  0.558848  0.984789  0.706614  1
  O  O36  1  0.456078  0.501363  0.286508  1
  O  O37  1  0.423276  0.996377  0.417366  1
  O  O38  1  0.456078  0.498637  0.786508  1
  O  O39  1  0.423276  0.003623  0.917366  1
  O  O40  1  0.319000  0.680209  0.080255  1
  O  O41  1  0.299420  0.310709  0.094584  1
  O  O42  1  0.299420  0.689291  0.594584  1
  O  O43  1  0.319000  0.319791  0.580255  1
  O  O44  1  0.161383  0.987386  0.249573  1
  O  O45  1  0.109101  0.499311  0.319543  1
  O  O46  1  0.161383  0.012614  0.749573  1
  O  O47  1  0.068496  0.995457  0.034996  1
  O  O48  1  0.109101  0.500689  0.819543  1
  O  O49  1  0.068496  0.004543  0.534996  1
