# generated using pymatgen
data_Na5LiCo2P2(CO7)2
_symmetry_space_group_name_H-M   'P 1'
_cell_length_a   5.19319178
_cell_length_b   6.72578705
_cell_length_c   8.80502275
_cell_angle_alpha   90.00000000
_cell_angle_beta   92.77756463
_cell_angle_gamma   90.00000000
_symmetry_Int_Tables_number   1
_chemical_formula_structural   Na5LiCo2P2(CO7)2
_chemical_formula_sum   'Na5 Li1 Co2 P2 C2 O14'
_cell_volume   307.18318694
_cell_formula_units_Z   1
loop_
 _symmetry_equiv_pos_site_id
 _symmetry_equiv_pos_as_xyz
  1  'x, y, z'
loop_
 _atom_site_type_symbol
 _atom_site_label
 _atom_site_symmetry_multiplicity
 _atom_site_fract_x
 _atom_site_fract_y
 _atom_site_fract_z
 _atom_site_occupancy
  Na  Na0  1  0.257840  0.258544  0.731127  1
  Na  Na1  1  0.257840  0.741456  0.731127  1
  Na  Na2  1  0.740163  0.243912  0.271337  1
  Na  Na3  1  0.740163  0.756088  0.271337  1
  Na  Na4  1  0.223932  0.000000  0.082759  1
  Li  Li5  1  0.768408  0.500000  0.899031  1
  Co  Co6  1  0.774819  0.000000  0.656429  1
  Co  Co7  1  0.216253  0.500000  0.345603  1
  P  P8  1  0.719237  0.500000  0.590693  1
  P  P9  1  0.280171  0.000000  0.416123  1
  C  C10  1  0.706348  0.000000  0.942394  1
  C  C11  1  0.295615  0.500000  0.051052  1
  O  O12  1  0.377241  0.500000  0.915001  1
  O  O13  1  0.931003  0.000000  0.882916  1
  O  O14  1  0.503265  0.000000  0.850448  1
  O  O15  1  0.794508  0.316983  0.693022  1
  O  O16  1  0.794508  0.683017  0.693022  1
  O  O17  1  0.146006  0.000000  0.567815  1
  O  O18  1  0.422973  0.500000  0.555406  1
  O  O19  1  0.580117  0.000000  0.448591  1
  O  O20  1  0.859154  0.500000  0.439281  1
  O  O21  1  0.204132  0.814481  0.316542  1
  O  O22  1  0.204132  0.185519  0.316542  1
  O  O23  1  0.464351  0.500000  0.166854  1
  O  O24  1  0.051373  0.500000  0.077547  1
  O  O25  1  0.686449  0.000000  0.088001  1
