# generated using pymatgen
data_NaCo3O4
_symmetry_space_group_name_H-M   'P 1'
_cell_length_a   6.06528566
_cell_length_b   6.06528566
_cell_length_c   8.64866361
_cell_angle_alpha   90.00000000
_cell_angle_beta   90.00000000
_cell_angle_gamma   90.00000000
_symmetry_Int_Tables_number   1
_chemical_formula_structural   NaCo3O4
_chemical_formula_sum   'Na4 Co12 O16'
_cell_volume   318.16435724
_cell_formula_units_Z   4
loop_
 _symmetry_equiv_pos_site_id
 _symmetry_equiv_pos_as_xyz
  1  'x, y, z'
loop_
 _atom_site_type_symbol
 _atom_site_label
 _atom_site_symmetry_multiplicity
 _atom_site_fract_x
 _atom_site_fract_y
 _atom_site_fract_z
 _atom_site_occupancy
  Na  Na0  1  0.755726  0.000000  0.750000  1
  Na  Na1  1  0.000000  0.755726  0.000000  1
  Na  Na2  1  0.000000  0.244274  0.500000  1
  Na  Na3  1  0.244274  0.000000  0.250000  1
  Co  Co4  1  0.500000  0.751472  0.000000  1
  Co  Co5  1  0.500000  0.250939  0.000000  1
  Co  Co6  1  0.500000  0.749061  0.500000  1
  Co  Co7  1  0.500000  0.248528  0.500000  1
  Co  Co8  1  0.739097  0.000000  0.250000  1
  Co  Co9  1  0.751472  0.500000  0.750000  1
  Co  Co10  1  0.749061  0.500000  0.250000  1
  Co  Co11  1  0.000000  0.739097  0.500000  1
  Co  Co12  1  0.000000  0.260903  0.000000  1
  Co  Co13  1  0.250939  0.500000  0.750000  1
  Co  Co14  1  0.248528  0.500000  0.250000  1
  Co  Co15  1  0.260903  0.000000  0.750000  1
  O  O16  1  0.477295  0.729049  0.756958  1
  O  O17  1  0.477295  0.270951  0.743042  1
  O  O18  1  0.724658  0.021991  0.020120  1
  O  O19  1  0.724658  0.978009  0.479880  1
  O  O20  1  0.729049  0.477295  0.993042  1
  O  O21  1  0.729049  0.522705  0.506958  1
  O  O22  1  0.021991  0.724658  0.729880  1
  O  O23  1  0.021991  0.275342  0.770120  1
  O  O24  1  0.978009  0.724658  0.270120  1
  O  O25  1  0.978009  0.275342  0.229880  1
  O  O26  1  0.270951  0.522705  0.493042  1
  O  O27  1  0.270951  0.477295  0.006958  1
  O  O28  1  0.275342  0.021991  0.979880  1
  O  O29  1  0.275342  0.978009  0.520120  1
  O  O30  1  0.522705  0.729049  0.243042  1
  O  O31  1  0.522705  0.270951  0.256958  1
