# generated using pymatgen
data_Li4Mn2(PO4)3
_symmetry_space_group_name_H-M   'P 1'
_cell_length_a   8.58316509
_cell_length_b   8.70315286
_cell_length_c   8.87286231
_cell_angle_alpha   89.69156659
_cell_angle_beta   118.31968297
_cell_angle_gamma   118.85029299
_symmetry_Int_Tables_number   1
_chemical_formula_structural   Li4Mn2(PO4)3
_chemical_formula_sum   'Li8 Mn4 P6 O24'
_cell_volume   489.11504412
_cell_formula_units_Z   2
loop_
 _symmetry_equiv_pos_site_id
 _symmetry_equiv_pos_as_xyz
  1  'x, y, z'
loop_
 _atom_site_type_symbol
 _atom_site_label
 _atom_site_symmetry_multiplicity
 _atom_site_fract_x
 _atom_site_fract_y
 _atom_site_fract_z
 _atom_site_occupancy
  Li  Li0  1  0.931611  0.105000  0.643870  1
  Li  Li1  1  0.559141  0.270938  0.171561  1
  Li  Li2  1  0.435573  0.777789  0.443745  1
  Li  Li3  1  0.353269  0.580050  0.133251  1
  Li  Li4  1  0.646731  0.419950  0.866749  1
  Li  Li5  1  0.564427  0.222211  0.556255  1
  Li  Li6  1  0.440859  0.729062  0.828439  1
  Li  Li7  1  0.068389  0.895000  0.356130  1
  Mn  Mn8  1  0.795739  0.643757  0.456768  1
  Mn  Mn9  1  0.204261  0.356243  0.543232  1
  Mn  Mn10  1  0.779500  0.137492  0.934879  1
  Mn  Mn11  1  0.220500  0.862508  0.065121  1
  P  P12  1  0.292042  0.247471  0.255628  1
  P  P13  1  0.302227  0.067933  0.751125  1
  P  P14  1  0.002112  0.459766  0.743159  1
  P  P15  1  0.997888  0.540234  0.256841  1
  P  P16  1  0.697773  0.932067  0.248875  1
  P  P17  1  0.707958  0.752529  0.744372  1
  O  O18  1  0.376086  0.119886  0.268876  1
  O  O19  1  0.879358  0.258499  0.743240  1
  O  O20  1  0.358384  0.062167  0.942667  1
  O  O21  1  0.450370  0.429206  0.243576  1
  O  O22  1  0.867116  0.119115  0.392420  1
  O  O23  1  0.819887  0.486822  0.613793  1
  O  O24  1  0.226647  0.205972  0.713062  1
  O  O25  1  0.505728  0.155283  0.744831  1
  O  O26  1  0.931356  0.827424  0.895776  1
  O  O27  1  0.146095  0.599879  0.928803  1
  O  O28  1  0.688338  0.734038  0.557824  1
  O  O29  1  0.152295  0.488405  0.679134  1
  O  O30  1  0.847705  0.511595  0.320866  1
  O  O31  1  0.311662  0.265962  0.442176  1
  O  O32  1  0.853905  0.400121  0.071197  1
  O  O33  1  0.068644  0.172576  0.104224  1
  O  O34  1  0.494272  0.844717  0.255169  1
  O  O35  1  0.773353  0.794028  0.286938  1
  O  O36  1  0.180113  0.513178  0.386207  1
  O  O37  1  0.132884  0.880885  0.607580  1
  O  O38  1  0.549630  0.570794  0.756424  1
  O  O39  1  0.641616  0.937833  0.057333  1
  O  O40  1  0.120642  0.741501  0.256760  1
  O  O41  1  0.623914  0.880114  0.731124  1
