# generated using pymatgen
data_LiCoPO4
_symmetry_space_group_name_H-M   'P 1'
_cell_length_a   5.05277650
_cell_length_b   10.08316420
_cell_length_c   13.66016131
_cell_angle_alpha   90.00000000
_cell_angle_beta   90.00000000
_cell_angle_gamma   90.00000000
_symmetry_Int_Tables_number   1
_chemical_formula_structural   LiCoPO4
_chemical_formula_sum   'Li8 Co8 P8 O32'
_cell_volume   695.95755849
_cell_formula_units_Z   8
loop_
 _symmetry_equiv_pos_site_id
 _symmetry_equiv_pos_as_xyz
  1  'x, y, z'
loop_
 _atom_site_type_symbol
 _atom_site_label
 _atom_site_symmetry_multiplicity
 _atom_site_fract_x
 _atom_site_fract_y
 _atom_site_fract_z
 _atom_site_occupancy
  Li  Li0  1  0.058621  0.032062  0.248609  1
  Li  Li1  1  0.550385  0.217584  0.997303  1
  Li  Li2  1  0.550385  0.282416  0.497303  1
  Li  Li3  1  0.058621  0.467938  0.748609  1
  Li  Li4  1  0.941379  0.532062  0.248609  1
  Li  Li5  1  0.449615  0.717584  0.997303  1
  Li  Li6  1  0.449615  0.782416  0.497303  1
  Li  Li7  1  0.941379  0.967938  0.748609  1
  Co  Co8  1  0.931327  0.030302  0.499209  1
  Co  Co9  1  0.552485  0.219247  0.248088  1
  Co  Co10  1  0.552485  0.280753  0.748088  1
  Co  Co11  1  0.931327  0.469698  0.999209  1
  Co  Co12  1  0.068673  0.530302  0.499209  1
  Co  Co13  1  0.447515  0.719247  0.248088  1
  Co  Co14  1  0.447515  0.780753  0.748088  1
  Co  Co15  1  0.068673  0.969698  0.999209  1
  P  P16  1  0.437787  0.030464  0.623902  1
  P  P17  1  0.054602  0.217131  0.872490  1
  P  P18  1  0.054602  0.282869  0.372490  1
  P  P19  1  0.437787  0.469536  0.123902  1
  P  P20  1  0.562213  0.530464  0.623902  1
  P  P21  1  0.945398  0.717131  0.872490  1
  P  P22  1  0.945398  0.782869  0.372490  1
  P  P23  1  0.562213  0.969536  0.123902  1
  O  O24  1  0.865035  0.999481  0.121653  1
  O  O25  1  0.562972  0.969816  0.530133  1
  O  O26  1  0.443293  0.032956  0.217718  1
  O  O27  1  0.996398  0.065596  0.873999  1
  O  O28  1  0.494560  0.181763  0.624951  1
  O  O29  1  0.926425  0.222292  0.465880  1
  O  O30  1  0.936337  0.280336  0.778446  1
  O  O31  1  0.357156  0.244974  0.872018  1
  O  O32  1  0.357156  0.255026  0.372018  1
  O  O33  1  0.936337  0.219664  0.278446  1
  O  O34  1  0.926425  0.277708  0.965880  1
  O  O35  1  0.494560  0.318237  0.124951  1
  O  O36  1  0.996398  0.434404  0.373999  1
  O  O37  1  0.443293  0.467044  0.717718  1
  O  O38  1  0.562972  0.530184  0.030133  1
  O  O39  1  0.865035  0.500519  0.621653  1
  O  O40  1  0.134965  0.499481  0.121653  1
  O  O41  1  0.437028  0.469816  0.530133  1
  O  O42  1  0.556707  0.532956  0.217718  1
  O  O43  1  0.003602  0.565596  0.873999  1
  O  O44  1  0.505440  0.681763  0.624951  1
  O  O45  1  0.073575  0.722292  0.465880  1
  O  O46  1  0.063663  0.780336  0.778446  1
  O  O47  1  0.642844  0.744974  0.872018  1
  O  O48  1  0.642844  0.755026  0.372018  1
  O  O49  1  0.063663  0.719664  0.278446  1
  O  O50  1  0.073575  0.777708  0.965880  1
  O  O51  1  0.505440  0.818237  0.124951  1
  O  O52  1  0.003602  0.934404  0.373999  1
  O  O53  1  0.556707  0.967044  0.717718  1
  O  O54  1  0.437028  0.030184  0.030133  1
  O  O55  1  0.134965  0.000519  0.621653  1
