# generated using pymatgen
data_Li2VSiCO7
_symmetry_space_group_name_H-M   'P 1'
_cell_length_a   5.07844036
_cell_length_b   6.32257716
_cell_length_c   8.58050290
_cell_angle_alpha   90.00000000
_cell_angle_beta   92.86876079
_cell_angle_gamma   90.00000000
_symmetry_Int_Tables_number   1
_chemical_formula_structural   Li2VSiCO7
_chemical_formula_sum   'Li4 V2 Si2 C2 O14'
_cell_volume   275.16464688
_cell_formula_units_Z   2
loop_
 _symmetry_equiv_pos_site_id
 _symmetry_equiv_pos_as_xyz
  1  'x, y, z'
loop_
 _atom_site_type_symbol
 _atom_site_label
 _atom_site_symmetry_multiplicity
 _atom_site_fract_x
 _atom_site_fract_y
 _atom_site_fract_z
 _atom_site_occupancy
  Li  Li0  1  0.766604  0.491770  0.221594  1
  Li  Li1  1  0.766604  0.008230  0.221594  1
  Li  Li2  1  0.233396  0.508230  0.778406  1
  Li  Li3  1  0.233396  0.991770  0.778406  1
  V  V4  1  0.193870  0.250000  0.343573  1
  V  V5  1  0.806130  0.750000  0.656427  1
  Si  Si6  1  0.300949  0.750000  0.426544  1
  Si  Si7  1  0.699051  0.250000  0.573456  1
  C  C8  1  0.269808  0.250000  0.056598  1
  C  C9  1  0.730192  0.750000  0.943402  1
  O  O10  1  0.701435  0.750000  0.088981  1
  O  O11  1  0.035825  0.250000  0.117339  1
  O  O12  1  0.468096  0.250000  0.161698  1
  O  O13  1  0.198523  0.957446  0.326450  1
  O  O14  1  0.198523  0.542554  0.326450  1
  O  O15  1  0.829576  0.250000  0.402156  1
  O  O16  1  0.623656  0.750000  0.449816  1
  O  O17  1  0.376344  0.250000  0.550184  1
  O  O18  1  0.170424  0.750000  0.597844  1
  O  O19  1  0.801477  0.457446  0.673550  1
  O  O20  1  0.801477  0.042554  0.673550  1
  O  O21  1  0.531904  0.750000  0.838302  1
  O  O22  1  0.964175  0.750000  0.882661  1
  O  O23  1  0.298565  0.250000  0.911019  1
