# generated using pymatgen
data_Cr3(CuO6)2
_symmetry_space_group_name_H-M   'P 1'
_cell_length_a   8.62978104
_cell_length_b   9.01237753
_cell_length_c   14.84664683
_cell_angle_alpha   90.00000000
_cell_angle_beta   124.81321833
_cell_angle_gamma   90.00000000
_symmetry_Int_Tables_number   1
_chemical_formula_structural   Cr3(CuO6)2
_chemical_formula_sum   'Cr12 Cu8 O48'
_cell_volume   948.02536296
_cell_formula_units_Z   4
loop_
 _symmetry_equiv_pos_site_id
 _symmetry_equiv_pos_as_xyz
  1  'x, y, z'
loop_
 _atom_site_type_symbol
 _atom_site_label
 _atom_site_symmetry_multiplicity
 _atom_site_fract_x
 _atom_site_fract_y
 _atom_site_fract_z
 _atom_site_occupancy
  Cr  Cr0  1  0.546749  0.751894  0.508228  1
  Cr  Cr1  1  0.257949  0.620920  0.149471  1
  Cr  Cr2  1  0.970867  0.886879  0.856698  1
  Cr  Cr3  1  0.742051  0.120920  0.350529  1
  Cr  Cr4  1  0.029133  0.386879  0.643302  1
  Cr  Cr5  1  0.453251  0.251894  0.991772  1
  Cr  Cr6  1  0.546749  0.748106  0.008228  1
  Cr  Cr7  1  0.970867  0.613121  0.356698  1
  Cr  Cr8  1  0.257949  0.879080  0.649471  1
  Cr  Cr9  1  0.029133  0.113121  0.143302  1
  Cr  Cr10  1  0.742051  0.379080  0.850529  1
  Cr  Cr11  1  0.453251  0.248106  0.491772  1
  Cu  Cu12  1  0.365692  0.971407  0.113384  1
  Cu  Cu13  1  0.634308  0.471407  0.386616  1
  Cu  Cu14  1  0.870947  0.030200  0.617845  1
  Cu  Cu15  1  0.129053  0.530200  0.882155  1
  Cu  Cu16  1  0.870947  0.469800  0.117845  1
  Cu  Cu17  1  0.129053  0.969800  0.382155  1
  Cu  Cu18  1  0.365692  0.528593  0.613384  1
  Cu  Cu19  1  0.634308  0.028593  0.886616  1
  O  O20  1  0.619857  0.119839  0.554198  1
  O  O21  1  0.165241  0.113949  0.097036  1
  O  O22  1  0.457750  0.330790  0.391655  1
  O  O23  1  0.882215  0.427266  0.811157  1
  O  O24  1  0.509652  0.632924  0.411832  1
  O  O25  1  0.284330  0.805850  0.163186  1
  O  O26  1  0.154197  0.577679  0.018377  1
  O  O27  1  0.879021  0.004648  0.751775  1
  O  O28  1  0.981928  0.717322  0.815878  1
  O  O29  1  0.759896  0.828704  0.567066  1
  O  O30  1  0.463995  0.532212  0.226584  1
  O  O31  1  0.536005  0.032212  0.273416  1
  O  O32  1  0.191990  0.940794  0.954311  1
  O  O33  1  0.808010  0.440794  0.545689  1
  O  O34  1  0.240104  0.328704  0.932934  1
  O  O35  1  0.018072  0.217322  0.684122  1
  O  O36  1  0.845803  0.077679  0.481623  1
  O  O37  1  0.120979  0.504648  0.748225  1
  O  O38  1  0.715670  0.305850  0.336814  1
  O  O39  1  0.490348  0.132924  0.088168  1
  O  O40  1  0.542250  0.830790  0.108345  1
  O  O41  1  0.834759  0.613949  0.402964  1
  O  O42  1  0.117785  0.927266  0.688843  1
  O  O43  1  0.380143  0.619839  0.945802  1
  O  O44  1  0.619857  0.380161  0.054198  1
  O  O45  1  0.882215  0.072734  0.311157  1
  O  O46  1  0.165241  0.386051  0.597036  1
  O  O47  1  0.457750  0.169210  0.891655  1
  O  O48  1  0.509652  0.867076  0.911832  1
  O  O49  1  0.284330  0.694150  0.663186  1
  O  O50  1  0.879021  0.495352  0.251775  1
  O  O51  1  0.154197  0.922321  0.518377  1
  O  O52  1  0.981928  0.782678  0.315878  1
  O  O53  1  0.759896  0.671296  0.067066  1
  O  O54  1  0.191990  0.559206  0.454311  1
  O  O55  1  0.808010  0.059206  0.045689  1
  O  O56  1  0.463995  0.967788  0.726584  1
  O  O57  1  0.536005  0.467788  0.773416  1
  O  O58  1  0.240104  0.171296  0.432934  1
  O  O59  1  0.018072  0.282678  0.184122  1
  O  O60  1  0.120979  0.995352  0.248225  1
  O  O61  1  0.845803  0.422321  0.981623  1
  O  O62  1  0.715670  0.194150  0.836814  1
  O  O63  1  0.490348  0.367076  0.588168  1
  O  O64  1  0.117785  0.572734  0.188843  1
  O  O65  1  0.542250  0.669210  0.608345  1
  O  O66  1  0.834759  0.886051  0.902964  1
  O  O67  1  0.380143  0.880161  0.445802  1
