# generated using pymatgen
data_Li6Mn5Fe(BO3)6
_symmetry_space_group_name_H-M   'P 1'
_cell_length_a   8.26575899
_cell_length_b   6.36525982
_cell_length_c   8.27779093
_cell_angle_alpha   90.00000000
_cell_angle_beta   119.91695179
_cell_angle_gamma   90.00000000
_symmetry_Int_Tables_number   1
_chemical_formula_structural   Li6Mn5Fe(BO3)6
_chemical_formula_sum   'Li6 Mn5 Fe1 B6 O18'
_cell_volume   377.49116299
_cell_formula_units_Z   1
loop_
 _symmetry_equiv_pos_site_id
 _symmetry_equiv_pos_as_xyz
  1  'x, y, z'
loop_
 _atom_site_type_symbol
 _atom_site_label
 _atom_site_symmetry_multiplicity
 _atom_site_fract_x
 _atom_site_fract_y
 _atom_site_fract_z
 _atom_site_occupancy
  Li  Li0  1  0.982234  0.749827  0.698319  1
  Li  Li1  1  0.982234  0.250173  0.698319  1
  Li  Li2  1  0.301210  0.750401  0.283869  1
  Li  Li3  1  0.301210  0.249599  0.283869  1
  Li  Li4  1  0.715359  0.249644  0.016498  1
  Li  Li5  1  0.715359  0.750356  0.016498  1
  Mn  Mn6  1  0.359495  0.500000  0.987950  1
  Mn  Mn7  1  0.360628  0.000000  0.988057  1
  Mn  Mn8  1  0.011914  0.500000  0.371234  1
  Mn  Mn9  1  0.012103  0.000000  0.372432  1
  Mn  Mn10  1  0.628575  0.500000  0.640836  1
  Fe  Fe11  1  0.633508  0.000000  0.640374  1
  B  B12  1  0.000302  0.500000  0.000191  1
  B  B13  1  0.997533  0.000000  0.999937  1
  B  B14  1  0.666580  0.751830  0.334134  1
  B  B15  1  0.666580  0.248170  0.334134  1
  B  B16  1  0.334518  0.751342  0.666440  1
  B  B17  1  0.334518  0.248658  0.666440  1
  O  O18  1  0.915966  0.000000  0.805366  1
  O  O19  1  0.922569  0.500000  0.806880  1
  O  O20  1  0.580543  0.754132  0.441844  1
  O  O21  1  0.580543  0.245868  0.441844  1
  O  O22  1  0.193857  0.500000  0.115759  1
  O  O23  1  0.191104  0.000000  0.111752  1
  O  O24  1  0.860004  0.749879  0.419947  1
  O  O25  1  0.860004  0.250121  0.419947  1
  O  O26  1  0.559303  0.750085  0.140845  1
  O  O27  1  0.559303  0.249915  0.140845  1
  O  O28  1  0.251842  0.750275  0.777872  1
  O  O29  1  0.251842  0.249725  0.777872  1
  O  O30  1  0.884525  0.500000  0.078047  1
  O  O31  1  0.884143  0.000000  0.079989  1
  O  O32  1  0.527927  0.752491  0.747796  1
  O  O33  1  0.527927  0.247509  0.747796  1
  O  O34  1  0.222373  0.249502  0.473037  1
  O  O35  1  0.222373  0.750498  0.473037  1
