# generated using pymatgen
data_Ti2Cu3Te3O16
_symmetry_space_group_name_H-M   'P 1'
_cell_length_a   6.28558311
_cell_length_b   6.28558311
_cell_length_c   9.27843991
_cell_angle_alpha   86.85677478
_cell_angle_beta   93.14322522
_cell_angle_gamma   123.37182583
_symmetry_Int_Tables_number   1
_chemical_formula_structural   Ti2Cu3Te3O16
_chemical_formula_sum   'Ti2 Cu3 Te3 O16'
_cell_volume   305.54147888
_cell_formula_units_Z   1
loop_
 _symmetry_equiv_pos_site_id
 _symmetry_equiv_pos_as_xyz
  1  'x, y, z'
loop_
 _atom_site_type_symbol
 _atom_site_label
 _atom_site_symmetry_multiplicity
 _atom_site_fract_x
 _atom_site_fract_y
 _atom_site_fract_z
 _atom_site_occupancy
  Ti  Ti0  1  0.644729  0.355271  0.535842  1
  Ti  Ti1  1  0.312395  0.687605  0.990174  1
  Cu  Cu2  1  0.828764  0.669319  0.801766  1
  Cu  Cu3  1  0.330681  0.171236  0.801766  1
  Cu  Cu4  1  0.177159  0.822841  0.287107  1
  Te  Te5  1  0.827286  0.172714  0.781556  1
  Te  Te6  1  0.674441  0.822938  0.286167  1
  Te  Te7  1  0.177062  0.325559  0.286167  1
  O  O8  1  0.836356  0.668026  0.387874  1
  O  O9  1  0.529536  0.470464  0.662508  1
  O  O10  1  0.677464  0.322536  0.887966  1
  O  O11  1  0.987366  0.012634  0.706391  1
  O  O12  1  0.983662  0.016338  0.166900  1
  O  O13  1  0.331974  0.163644  0.387874  1
  O  O14  1  0.960942  0.454735  0.637347  1
  O  O15  1  0.545265  0.039058  0.637347  1
  O  O16  1  0.162557  0.837443  0.910907  1
  O  O17  1  0.858819  0.141181  0.397877  1
  O  O18  1  0.489530  0.942821  0.174112  1
  O  O19  1  0.057179  0.510470  0.174112  1
  O  O20  1  0.374923  0.625077  0.411721  1
  O  O21  1  0.633671  0.858903  0.905334  1
  O  O22  1  0.482015  0.517985  0.158842  1
  O  O23  1  0.141097  0.366329  0.905334  1
