# generated using pymatgen
data_Mn3(O2F)2
_symmetry_space_group_name_H-M   'P 1'
_cell_length_a   5.51845569
_cell_length_b   5.57439249
_cell_length_c   7.21038161
_cell_angle_alpha   72.80694793
_cell_angle_beta   72.53218602
_cell_angle_gamma   72.09665172
_symmetry_Int_Tables_number   1
_chemical_formula_structural   Mn3(O2F)2
_chemical_formula_sum   'Mn6 O8 F4'
_cell_volume   196.21662102
_cell_formula_units_Z   2
loop_
 _symmetry_equiv_pos_site_id
 _symmetry_equiv_pos_as_xyz
  1  'x, y, z'
loop_
 _atom_site_type_symbol
 _atom_site_label
 _atom_site_symmetry_multiplicity
 _atom_site_fract_x
 _atom_site_fract_y
 _atom_site_fract_z
 _atom_site_occupancy
  Mn  Mn0  1  0.000000  0.000000  0.000000  1
  Mn  Mn1  1  0.355926  0.301777  0.157653  1
  Mn  Mn2  1  0.000000  0.000000  0.500000  1
  Mn  Mn3  1  0.355397  0.346921  0.671953  1
  Mn  Mn4  1  0.644603  0.653079  0.328047  1
  Mn  Mn5  1  0.644074  0.698223  0.842347  1
  O  O6  1  0.693875  0.307792  0.498736  1
  O  O7  1  0.107045  0.096976  0.204690  1
  O  O8  1  0.442031  0.444157  0.870697  1
  O  O9  1  0.557969  0.555843  0.129303  1
  O  O10  1  0.892955  0.903024  0.795310  1
  O  O11  1  0.306125  0.692208  0.501264  1
  O  O12  1  0.645173  0.006451  0.173828  1
  O  O13  1  0.354827  0.993549  0.826172  1
  F  F14  1  0.026979  0.605677  0.182319  1
  F  F15  1  0.756225  0.757955  0.533691  1
  F  F16  1  0.243775  0.242045  0.466309  1
  F  F17  1  0.973021  0.394323  0.817681  1
