# generated using pymatgen
data_Sr5(ReO3)12
_symmetry_space_group_name_H-M   'P 1'
_cell_length_a   8.04366999
_cell_length_b   8.11171420
_cell_length_c   13.14526028
_cell_angle_alpha   90.03783117
_cell_angle_beta   90.05129900
_cell_angle_gamma   109.56799717
_symmetry_Int_Tables_number   1
_chemical_formula_structural   Sr5(ReO3)12
_chemical_formula_sum   'Sr5 Re12 O36'
_cell_volume   808.16374997
_cell_formula_units_Z   1
loop_
 _symmetry_equiv_pos_site_id
 _symmetry_equiv_pos_as_xyz
  1  'x, y, z'
loop_
 _atom_site_type_symbol
 _atom_site_label
 _atom_site_symmetry_multiplicity
 _atom_site_fract_x
 _atom_site_fract_y
 _atom_site_fract_z
 _atom_site_occupancy
  Sr  Sr0  1  0.183621  0.187752  0.184533  1
  Sr  Sr1  1  0.001335  0.636866  0.000164  1
  Sr  Sr2  1  0.498757  0.860780  0.499779  1
  Sr  Sr3  1  0.854430  0.498162  0.500283  1
  Sr  Sr4  1  0.187128  0.187596  0.815528  1
  Re  Re5  1  0.179869  0.816446  0.316359  1
  Re  Re6  1  0.329922  0.688703  0.181359  1
  Re  Re7  1  0.567274  0.425238  0.068809  1
  Re  Re8  1  0.067621  0.934516  0.569152  1
  Re  Re9  1  0.390588  0.886050  0.755030  1
  Re  Re10  1  0.114059  0.616356  0.746556  1
  Re  Re11  1  0.616948  0.112811  0.251877  1
  Re  Re12  1  0.887632  0.388699  0.250525  1
  Re  Re13  1  0.434651  0.569053  0.931156  1
  Re  Re14  1  0.937039  0.066293  0.431533  1
  Re  Re15  1  0.817242  0.181806  0.681622  1
  Re  Re16  1  0.684076  0.321184  0.816888  1
  O  O17  1  0.166477  0.834755  0.164031  1
  O  O18  1  0.034299  0.968132  0.323171  1
  O  O19  1  0.325365  0.671541  0.032611  1
  O  O20  1  0.525616  0.888870  0.181929  1
  O  O21  1  0.114268  0.477162  0.176710  1
  O  O22  1  0.666689  0.657674  0.999472  1
  O  O23  1  0.328653  0.328388  0.998673  1
  O  O24  1  0.460135  0.525936  0.170445  1
  O  O25  1  0.170668  0.818861  0.467618  1
  O  O26  1  0.337311  0.675972  0.333718  1
  O  O27  1  0.710795  0.004718  0.355081  1
  O  O28  1  0.996620  0.287677  0.352163  1
  O  O29  1  0.788261  0.491392  0.146198  1
  O  O30  1  0.503693  0.212212  0.148526  1
  O  O31  1  0.972247  0.613107  0.322254  1
  O  O32  1  0.829451  0.829772  0.499768  1
  O  O33  1  0.164363  0.161877  0.499992  1
  O  O34  1  0.612259  0.974902  0.678642  1
  O  O35  1  0.838946  0.168702  0.170953  1
  O  O36  1  0.384307  0.026348  0.319902  1
  O  O37  1  0.673107  0.332219  0.336138  1
  O  O38  1  0.333258  0.674173  0.665488  1
  O  O39  1  0.028478  0.386175  0.678834  1
  O  O40  1  0.163636  0.832898  0.835882  1
  O  O41  1  0.207651  0.504542  0.856215  1
  O  O42  1  0.489667  0.782860  0.853422  1
  O  O43  1  0.003424  0.709254  0.644592  1
  O  O44  1  0.285578  0.991717  0.649840  1
  O  O45  1  0.675691  0.339168  0.665228  1
  O  O46  1  0.524668  0.459223  0.827390  1
  O  O47  1  0.817912  0.170224  0.530586  1
  O  O48  1  0.888891  0.528573  0.821623  1
  O  O49  1  0.472695  0.116413  0.820536  1
  O  O50  1  0.677200  0.334645  0.966004  1
  O  O51  1  0.968257  0.034877  0.674493  1
  O  O52  1  0.840118  0.173159  0.830722  1
