# generated using pymatgen
data_Ba2YCl7
_symmetry_space_group_name_H-M   'P 1'
_cell_length_a   9.27614609
_cell_length_b   9.27614609
_cell_length_c   10.39104967
_cell_angle_alpha   56.34417172
_cell_angle_beta   123.65582828
_cell_angle_gamma   127.63751475
_symmetry_Int_Tables_number   1
_chemical_formula_structural   Ba2YCl7
_chemical_formula_sum   'Ba4 Y2 Cl14'
_cell_volume   556.89067425
_cell_formula_units_Z   2
loop_
 _symmetry_equiv_pos_site_id
 _symmetry_equiv_pos_as_xyz
  1  'x, y, z'
loop_
 _atom_site_type_symbol
 _atom_site_label
 _atom_site_symmetry_multiplicity
 _atom_site_fract_x
 _atom_site_fract_y
 _atom_site_fract_z
 _atom_site_occupancy
  Ba  Ba0  1  0.697043  0.319775  0.281468  1
  Ba  Ba1  1  0.680225  0.302957  0.781468  1
  Ba  Ba2  1  0.319775  0.697043  0.218532  1
  Ba  Ba3  1  0.302957  0.680225  0.718532  1
  Y  Y4  1  0.033838  0.033838  0.250000  1
  Y  Y5  1  0.966162  0.966162  0.750000  1
  Cl  Cl6  1  0.931481  0.310599  0.151328  1
  Cl  Cl7  1  0.689401  0.068519  0.651328  1
  Cl  Cl8  1  0.934507  0.759149  0.063018  1
  Cl  Cl9  1  0.891640  0.642785  0.447537  1
  Cl  Cl10  1  0.388418  0.388418  0.250000  1
  Cl  Cl11  1  0.240851  0.065493  0.563018  1
  Cl  Cl12  1  0.642785  0.891640  0.052463  1
  Cl  Cl13  1  0.357215  0.108360  0.947537  1
  Cl  Cl14  1  0.759149  0.934507  0.436982  1
  Cl  Cl15  1  0.611582  0.611582  0.750000  1
  Cl  Cl16  1  0.108360  0.357215  0.552463  1
  Cl  Cl17  1  0.065493  0.240851  0.936982  1
  Cl  Cl18  1  0.310599  0.931481  0.348672  1
  Cl  Cl19  1  0.068519  0.689401  0.848672  1
