# generated using pymatgen
data_Li3V2(PO4)3
_symmetry_space_group_name_H-M   'P 1'
_cell_length_a   8.65025640
_cell_length_b   8.65025640
_cell_length_c   8.69052827
_cell_angle_alpha   61.51634127
_cell_angle_beta   118.48365873
_cell_angle_gamma   119.01817245
_symmetry_Int_Tables_number   1
_chemical_formula_structural   Li3V2(PO4)3
_chemical_formula_sum   'Li6 V4 P6 O24'
_cell_volume   473.62296675
_cell_formula_units_Z   2
loop_
 _symmetry_equiv_pos_site_id
 _symmetry_equiv_pos_as_xyz
  1  'x, y, z'
loop_
 _atom_site_type_symbol
 _atom_site_label
 _atom_site_symmetry_multiplicity
 _atom_site_fract_x
 _atom_site_fract_y
 _atom_site_fract_z
 _atom_site_occupancy
  Li  Li0  1  0.762123  0.378607  0.697582  1
  Li  Li1  1  0.193760  0.106189  0.265203  1
  Li  Li2  1  0.621393  0.237877  0.197582  1
  Li  Li3  1  0.893811  0.806240  0.765203  1
  Li  Li4  1  0.512664  0.939696  0.587137  1
  Li  Li5  1  0.060304  0.487336  0.087137  1
  V  V6  1  0.357716  0.144003  0.641242  1
  V  V7  1  0.855997  0.642284  0.141242  1
  V  V8  1  0.144209  0.358599  0.859214  1
  V  V9  1  0.641401  0.855791  0.359214  1
  P  P10  1  0.039920  0.749810  0.543645  1
  P  P11  1  0.250190  0.960080  0.043645  1
  P  P12  1  0.458109  0.451895  0.249940  1
  P  P13  1  0.548105  0.541891  0.749940  1
  P  P14  1  0.748967  0.039988  0.959521  1
  P  P15  1  0.960012  0.251033  0.459521  1
  O  O16  1  0.048309  0.580401  0.723916  1
  O  O17  1  0.988015  0.705679  0.371464  1
  O  O18  1  0.231734  0.911913  0.554673  1
  O  O19  1  0.088087  0.768266  0.054673  1
  O  O20  1  0.419599  0.951691  0.223916  1
  O  O21  1  0.436651  0.260324  0.409179  1
  O  O22  1  0.190178  0.111125  0.028687  1
  O  O23  1  0.294321  0.011985  0.871464  1
  O  O24  1  0.608299  0.471797  0.186316  1
  O  O25  1  0.888875  0.809822  0.528687  1
  O  O26  1  0.506440  0.614979  0.305936  1
  O  O27  1  0.261985  0.425665  0.098031  1
  O  O28  1  0.739676  0.563349  0.909179  1
  O  O29  1  0.528203  0.391701  0.686316  1
  O  O30  1  0.385021  0.493560  0.805936  1
  O  O31  1  0.118046  0.198815  0.482953  1
  O  O32  1  0.697987  0.005562  0.121791  1
  O  O33  1  0.801185  0.881954  0.982953  1
  O  O34  1  0.574335  0.738015  0.598031  1
  O  O35  1  0.908619  0.234167  0.937777  1
  O  O36  1  0.590831  0.067750  0.768405  1
  O  O37  1  0.765833  0.091381  0.437777  1
  O  O38  1  0.994438  0.302013  0.621791  1
  O  O39  1  0.932250  0.409169  0.268405  1
