# generated using pymatgen
data_Ni(PO3)3
_symmetry_space_group_name_H-M   'P 1'
_cell_length_a   8.31940196
_cell_length_b   8.59955228
_cell_length_c   8.87954940
_cell_angle_alpha   90.00000000
_cell_angle_beta   90.00000000
_cell_angle_gamma   90.00000000
_symmetry_Int_Tables_number   1
_chemical_formula_structural   Ni(PO3)3
_chemical_formula_sum   'Ni4 P12 O36'
_cell_volume   635.27077597
_cell_formula_units_Z   4
loop_
 _symmetry_equiv_pos_site_id
 _symmetry_equiv_pos_as_xyz
  1  'x, y, z'
loop_
 _atom_site_type_symbol
 _atom_site_label
 _atom_site_symmetry_multiplicity
 _atom_site_fract_x
 _atom_site_fract_y
 _atom_site_fract_z
 _atom_site_occupancy
  Ni  Ni0  1  0.651875  0.629910  0.613941  1
  Ni  Ni1  1  0.848125  0.370090  0.113941  1
  Ni  Ni2  1  0.348125  0.129910  0.886059  1
  Ni  Ni3  1  0.151875  0.870090  0.386059  1
  P  P4  1  0.800236  0.689876  0.923577  1
  P  P5  1  0.025429  0.687574  0.670734  1
  P  P6  1  0.183814  0.527642  0.192981  1
  P  P7  1  0.316186  0.472358  0.692981  1
  P  P8  1  0.474571  0.312426  0.170734  1
  P  P9  1  0.699764  0.310124  0.423577  1
  P  P10  1  0.199764  0.189876  0.576423  1
  P  P11  1  0.974571  0.187574  0.829266  1
  P  P12  1  0.816186  0.027642  0.307019  1
  P  P13  1  0.683814  0.972358  0.807019  1
  P  P14  1  0.525429  0.812426  0.329266  1
  P  P15  1  0.300236  0.810124  0.076423  1
  O  O16  1  0.963934  0.738483  0.835643  1
  O  O17  1  0.618934  0.680477  0.398226  1
  O  O18  1  0.222038  0.641203  0.049426  1
  O  O19  1  0.885771  0.626192  0.580478  1
  O  O20  1  0.836216  0.615902  0.071567  1
  O  O21  1  0.144123  0.626372  0.326530  1
  O  O22  1  0.421605  0.604026  0.642031  1
  O  O23  1  0.692445  0.590164  0.823651  1
  O  O24  1  0.141969  0.549139  0.719301  1
  O  O25  1  0.358031  0.450861  0.219301  1
  O  O26  1  0.807555  0.409836  0.323651  1
  O  O27  1  0.078395  0.395974  0.142031  1
  O  O28  1  0.355877  0.373628  0.826530  1
  O  O29  1  0.663784  0.384098  0.571567  1
  O  O30  1  0.614229  0.373808  0.080478  1
  O  O31  1  0.277962  0.358797  0.549426  1
  O  O32  1  0.881066  0.319523  0.898226  1
  O  O33  1  0.536066  0.261517  0.335643  1
  O  O34  1  0.036066  0.238483  0.664357  1
  O  O35  1  0.381066  0.180477  0.101774  1
  O  O36  1  0.777962  0.141203  0.450574  1
  O  O37  1  0.114229  0.126192  0.919522  1
  O  O38  1  0.163784  0.115902  0.428433  1
  O  O39  1  0.855877  0.126372  0.173470  1
  O  O40  1  0.578395  0.104026  0.857969  1
  O  O41  1  0.307555  0.090164  0.676349  1
  O  O42  1  0.858031  0.049139  0.780699  1
  O  O43  1  0.641969  0.950861  0.280699  1
  O  O44  1  0.192445  0.909836  0.176349  1
  O  O45  1  0.921605  0.895974  0.357969  1
  O  O46  1  0.644123  0.873628  0.673470  1
  O  O47  1  0.336216  0.884098  0.928433  1
  O  O48  1  0.385771  0.873808  0.419522  1
  O  O49  1  0.722038  0.858797  0.950574  1
  O  O50  1  0.118934  0.819523  0.601774  1
  O  O51  1  0.463934  0.761517  0.164357  1
