# generated using pymatgen
data_Mn3TeO6
_symmetry_space_group_name_H-M   'P 1'
_cell_length_a   5.70294159
_cell_length_b   5.70294159
_cell_length_c   5.70294159
_cell_angle_alpha   56.95979989
_cell_angle_beta   56.95979989
_cell_angle_gamma   56.95979989
_symmetry_Int_Tables_number   1
_chemical_formula_structural   Mn3TeO6
_chemical_formula_sum   'Mn3 Te1 O6'
_cell_volume   121.95833968
_cell_formula_units_Z   1
loop_
 _symmetry_equiv_pos_site_id
 _symmetry_equiv_pos_as_xyz
  1  'x, y, z'
loop_
 _atom_site_type_symbol
 _atom_site_label
 _atom_site_symmetry_multiplicity
 _atom_site_fract_x
 _atom_site_fract_y
 _atom_site_fract_z
 _atom_site_occupancy
  Mn  Mn0  1  0.358160  0.358160  0.358160  1
  Mn  Mn1  1  0.631629  0.631629  0.631629  1
  Mn  Mn2  1  0.140678  0.140678  0.140678  1
  Te  Te3  1  0.845412  0.845412  0.845412  1
  O  O4  1  0.203905  0.590216  0.955154  1
  O  O5  1  0.048151  0.744901  0.481795  1
  O  O6  1  0.481795  0.048151  0.744901  1
  O  O7  1  0.590216  0.955154  0.203905  1
  O  O8  1  0.955154  0.203905  0.590216  1
  O  O9  1  0.744901  0.481795  0.048151  1
