# generated using pymatgen
data_Co2OF3
_symmetry_space_group_name_H-M   'P 1'
_cell_length_a   4.69482170
_cell_length_b   4.69482170
_cell_length_c   9.52522815
_cell_angle_alpha   90.00000000
_cell_angle_beta   90.00000000
_cell_angle_gamma   92.74564829
_symmetry_Int_Tables_number   1
_chemical_formula_structural   Co2OF3
_chemical_formula_sum   'Co6 O3 F9'
_cell_volume   209.70787995
_cell_formula_units_Z   3
loop_
 _symmetry_equiv_pos_site_id
 _symmetry_equiv_pos_as_xyz
  1  'x, y, z'
loop_
 _atom_site_type_symbol
 _atom_site_label
 _atom_site_symmetry_multiplicity
 _atom_site_fract_x
 _atom_site_fract_y
 _atom_site_fract_z
 _atom_site_occupancy
  Co  Co0  1  0.964332  0.964332  0.000000  1
  Co  Co1  1  0.026963  0.026963  0.331395  1
  Co  Co2  1  0.026963  0.026963  0.668605  1
  Co  Co3  1  0.497633  0.497633  0.165212  1
  Co  Co4  1  0.497633  0.497633  0.834788  1
  Co  Co5  1  0.485981  0.485981  0.500000  1
  O  O6  1  0.303897  0.303897  0.331312  1
  O  O7  1  0.303897  0.303897  0.668688  1
  O  O8  1  0.688935  0.688935  0.000000  1
  F  F9  1  0.802197  0.189561  0.165995  1
  F  F10  1  0.802197  0.189561  0.834005  1
  F  F11  1  0.810817  0.201959  0.500000  1
  F  F12  1  0.276035  0.276035  0.000000  1
  F  F13  1  0.715718  0.715718  0.664431  1
  F  F14  1  0.715718  0.715718  0.335569  1
  F  F15  1  0.189561  0.802197  0.165995  1
  F  F16  1  0.189561  0.802197  0.834005  1
  F  F17  1  0.201959  0.810817  0.500000  1
