# generated using pymatgen
data_Li7Fe3(WO8)2
_symmetry_space_group_name_H-M   'P 1'
_cell_length_a   5.92363992
_cell_length_b   5.92363992
_cell_length_c   9.71436656
_cell_angle_alpha   89.38719185
_cell_angle_beta   90.61280815
_cell_angle_gamma   120.67183942
_symmetry_Int_Tables_number   1
_chemical_formula_structural   Li7Fe3(WO8)2
_chemical_formula_sum   'Li7 Fe3 W2 O16'
_cell_volume   293.16316496
_cell_formula_units_Z   1
loop_
 _symmetry_equiv_pos_site_id
 _symmetry_equiv_pos_as_xyz
  1  'x, y, z'
loop_
 _atom_site_type_symbol
 _atom_site_label
 _atom_site_symmetry_multiplicity
 _atom_site_fract_x
 _atom_site_fract_y
 _atom_site_fract_z
 _atom_site_occupancy
  Li  Li0  1  0.823617  0.663308  0.789713  1
  Li  Li1  1  0.673070  0.326930  0.092188  1
  Li  Li2  1  0.997797  0.002203  0.003852  1
  Li  Li3  1  0.000666  0.999334  0.515077  1
  Li  Li4  1  0.336692  0.176383  0.789713  1
  Li  Li5  1  0.170198  0.829802  0.288419  1
  Li  Li6  1  0.333248  0.666752  0.596905  1
  Fe  Fe7  1  0.828365  0.171635  0.782344  1
  Fe  Fe8  1  0.662361  0.835376  0.285387  1
  Fe  Fe9  1  0.164624  0.337639  0.285387  1
  W  W10  1  0.650341  0.349659  0.520368  1
  W  W11  1  0.327948  0.672052  0.008899  1
  O  O12  1  0.827699  0.659102  0.409866  1
  O  O13  1  0.515047  0.484953  0.641613  1
  O  O14  1  0.683906  0.316094  0.884302  1
  O  O15  1  0.983756  0.016244  0.702881  1
  O  O16  1  0.992052  0.007948  0.197254  1
  O  O17  1  0.340898  0.172301  0.409866  1
  O  O18  1  0.963576  0.468343  0.643321  1
  O  O19  1  0.531657  0.036424  0.643321  1
  O  O20  1  0.168565  0.831435  0.925131  1
  O  O21  1  0.834410  0.165590  0.401681  1
  O  O22  1  0.497006  0.956515  0.153327  1
  O  O23  1  0.043485  0.502994  0.153327  1
  O  O24  1  0.347061  0.652939  0.386358  1
  O  O25  1  0.650701  0.833374  0.911774  1
  O  O26  1  0.485247  0.514753  0.158300  1
  O  O27  1  0.166626  0.349299  0.911774  1
