# generated using pymatgen
data_Ba8In8O19
_symmetry_space_group_name_H-M   'P 1'
_cell_length_a   9.47813138
_cell_length_b   9.47813138
_cell_length_c   8.62677358
_cell_angle_alpha   89.08841155
_cell_angle_beta   90.91158845
_cell_angle_gamma   54.92617755
_symmetry_Int_Tables_number   1
_chemical_formula_structural   Ba8In8O19
_chemical_formula_sum   'Ba8 In8 O19'
_cell_volume   633.88057100
_cell_formula_units_Z   1
loop_
 _symmetry_equiv_pos_site_id
 _symmetry_equiv_pos_as_xyz
  1  'x, y, z'
loop_
 _atom_site_type_symbol
 _atom_site_label
 _atom_site_symmetry_multiplicity
 _atom_site_fract_x
 _atom_site_fract_y
 _atom_site_fract_z
 _atom_site_occupancy
  Ba  Ba0  1  0.869476  0.839158  0.243475  1
  Ba  Ba1  1  0.851155  0.871828  0.760662  1
  Ba  Ba2  1  0.632902  0.647197  0.262986  1
  Ba  Ba3  1  0.352803  0.367098  0.262986  1
  Ba  Ba4  1  0.654879  0.624666  0.744436  1
  Ba  Ba5  1  0.160842  0.130524  0.243475  1
  Ba  Ba6  1  0.375334  0.345121  0.744436  1
  Ba  Ba7  1  0.128172  0.148845  0.760662  1
  In  In8  1  0.500988  0.000296  0.000106  1
  In  In9  1  0.742541  0.257459  0.085998  1
  In  In10  1  0.801271  0.198729  0.450087  1
  In  In11  1  0.501749  0.000155  0.501803  1
  In  In12  1  0.999704  0.499012  0.000106  1
  In  In13  1  0.999845  0.498251  0.501803  1
  In  In14  1  0.233695  0.766305  0.546858  1
  In  In15  1  0.299499  0.700501  0.983818  1
  O  O16  1  0.509707  0.005156  0.250337  1
  O  O17  1  0.758417  0.757954  0.504606  1
  O  O18  1  0.994844  0.490293  0.250337  1
  O  O19  1  0.739519  0.739768  0.005811  1
  O  O20  1  0.260232  0.260481  0.005811  1
  O  O21  1  0.501388  0.498612  0.124586  1
  O  O22  1  0.316946  0.906097  0.016977  1
  O  O23  1  0.093903  0.683054  0.016977  1
  O  O24  1  0.603266  0.172293  0.516892  1
  O  O25  1  0.827707  0.396734  0.516892  1
  O  O26  1  0.884093  0.336877  0.974680  1
  O  O27  1  0.663123  0.115907  0.974680  1
  O  O28  1  0.154047  0.620526  0.458396  1
  O  O29  1  0.379474  0.845953  0.458396  1
  O  O30  1  0.372624  0.627376  0.752972  1
  O  O31  1  0.495832  0.987111  0.751253  1
  O  O32  1  0.012889  0.504168  0.751253  1
  O  O33  1  0.242046  0.241583  0.504606  1
  O  O34  1  0.001066  0.998934  0.604109  1
