# generated using pymatgen
data_Li2FePCO7
_symmetry_space_group_name_H-M   'P 1'
_cell_length_a   5.07988140
_cell_length_b   10.03253657
_cell_length_c   11.16778748
_cell_angle_alpha   106.09222135
_cell_angle_beta   88.42501580
_cell_angle_gamma   96.35065346
_symmetry_Int_Tables_number   1
_chemical_formula_structural   Li2FePCO7
_chemical_formula_sum   'Li8 Fe4 P4 C4 O28'
_cell_volume   543.49607972
_cell_formula_units_Z   4
loop_
 _symmetry_equiv_pos_site_id
 _symmetry_equiv_pos_as_xyz
  1  'x, y, z'
loop_
 _atom_site_type_symbol
 _atom_site_label
 _atom_site_symmetry_multiplicity
 _atom_site_fract_x
 _atom_site_fract_y
 _atom_site_fract_z
 _atom_site_occupancy
  Li  Li0  1  0.715689  0.120141  0.846195  1
  Li  Li1  1  0.693058  0.612234  0.343528  1
  Li  Li2  1  0.602149  0.332882  0.087136  1
  Li  Li3  1  0.357569  0.102955  0.303683  1
  Li  Li4  1  0.329064  0.614628  0.852329  1
  Li  Li5  1  0.233698  0.312960  0.538391  1
  Li  Li6  1  0.186035  0.680398  0.571360  1
  Li  Li7  1  0.198304  0.887616  0.046576  1
  Fe  Fe8  1  0.780618  0.420870  0.736357  1
  Fe  Fe9  1  0.785126  0.918855  0.241288  1
  Fe  Fe10  1  0.166371  0.003104  0.639997  1
  Fe  Fe11  1  0.160558  0.507341  0.138391  1
  P  P12  1  0.699616  0.123269  0.525186  1
  P  P13  1  0.698711  0.624637  0.022360  1
  P  P14  1  0.249010  0.302663  0.856408  1
  P  P15  1  0.250476  0.802155  0.352155  1
  C  C16  1  0.729427  0.065943  0.094132  1
  C  C17  1  0.651827  0.551426  0.584946  1
  C  C18  1  0.234573  0.367441  0.287146  1
  C  C19  1  0.284581  0.877394  0.793868  1
  O  O20  1  0.960948  0.042772  0.126717  1
  O  O21  1  0.819952  0.013168  0.572220  1
  O  O22  1  0.857266  0.268888  0.581571  1
  O  O23  1  0.899779  0.550341  0.612846  1
  O  O24  1  0.707412  0.086480  0.380479  1
  O  O25  1  0.806699  0.507338  0.067968  1
  O  O26  1  0.717053  0.591979  0.878396  1
  O  O27  1  0.858850  0.765968  0.084198  1
  O  O28  1  0.544577  0.294442  0.813621  1
  O  O29  1  0.691839  0.143416  0.026015  1
  O  O30  1  0.570681  0.615993  0.513442  1
  O  O31  1  0.401221  0.132465  0.562619  1
  O  O32  1  0.482106  0.478328  0.641712  1
  O  O33  1  0.431817  0.442423  0.244359  1
  O  O34  1  0.544242  0.787386  0.310497  1
  O  O35  1  0.279839  0.295383  0.359787  1
  O  O36  1  0.452707  0.972544  0.767472  1
  O  O37  1  0.321787  0.815017  0.876308  1
  O  O38  1  0.398373  0.629290  0.055365  1
  O  O39  1  0.527941  0.000566  0.142170  1
  O  O40  1  0.083026  0.162236  0.797034  1
  O  O41  1  0.249018  0.337416  0.000436  1
  O  O42  1  0.131471  0.420801  0.814759  1
  O  O43  1  0.229795  0.833989  0.494652  1
  O  O44  1  0.003354  0.375778  0.245374  1
  O  O45  1  0.079083  0.661816  0.294094  1
  O  O46  1  0.147957  0.920700  0.306459  1
  O  O47  1  0.067542  0.847644  0.725412  1
