# generated using pymatgen
data_Li3V4O7F5
_symmetry_space_group_name_H-M   'P 1'
_cell_length_a   5.13096907
_cell_length_b   5.35381541
_cell_length_c   8.89140923
_cell_angle_alpha   106.65234298
_cell_angle_beta   88.77666346
_cell_angle_gamma   116.93787688
_symmetry_Int_Tables_number   1
_chemical_formula_structural   Li3V4O7F5
_chemical_formula_sum   'Li3 V4 O7 F5'
_cell_volume   206.92658405
_cell_formula_units_Z   1
loop_
 _symmetry_equiv_pos_site_id
 _symmetry_equiv_pos_as_xyz
  1  'x, y, z'
loop_
 _atom_site_type_symbol
 _atom_site_label
 _atom_site_symmetry_multiplicity
 _atom_site_fract_x
 _atom_site_fract_y
 _atom_site_fract_z
 _atom_site_occupancy
  Li  Li0  1  0.464305  0.761402  0.154073  1
  Li  Li1  1  0.934944  0.216822  0.655637  1
  Li  Li2  1  0.705890  0.494329  0.898451  1
  V  V3  1  0.492491  0.512025  0.503585  1
  V  V4  1  0.069975  0.045464  0.000893  1
  V  V5  1  0.795132  0.325638  0.263737  1
  V  V6  1  0.238255  0.733895  0.760311  1
  O  O7  1  0.066113  0.923299  0.817776  1
  O  O8  1  0.572452  0.444982  0.313024  1
  O  O9  1  0.437316  0.183141  0.066816  1
  O  O10  1  0.995560  0.363275  0.869162  1
  O  O11  1  0.991909  0.623510  0.125227  1
  O  O12  1  0.051147  0.325669  0.429700  1
  O  O13  1  0.415306  0.578633  0.682387  1
  F  F14  1  0.519347  0.890855  0.359368  1
  F  F15  1  0.933533  0.681494  0.570977  1
  F  F16  1  0.559369  0.793416  0.944206  1
  F  F17  1  0.903152  0.063603  0.174371  1
  F  F18  1  0.511179  0.134173  0.629425  1
