# generated using pymatgen
data_Tm3TaO7
_symmetry_space_group_name_H-M   'P 1'
_cell_length_a   6.40425928
_cell_length_b   6.40425928
_cell_length_c   7.41193175
_cell_angle_alpha   90.00000000
_cell_angle_beta   90.00000000
_cell_angle_gamma   109.13385686
_symmetry_Int_Tables_number   1
_chemical_formula_structural   Tm3TaO7
_chemical_formula_sum   'Tm6 Ta2 O14'
_cell_volume   287.20275587
_cell_formula_units_Z   2
loop_
 _symmetry_equiv_pos_site_id
 _symmetry_equiv_pos_as_xyz
  1  'x, y, z'
loop_
 _atom_site_type_symbol
 _atom_site_label
 _atom_site_symmetry_multiplicity
 _atom_site_fract_x
 _atom_site_fract_y
 _atom_site_fract_z
 _atom_site_occupancy
  Tm  Tm0  1  0.465880  0.998875  0.254417  1
  Tm  Tm1  1  0.001125  0.534120  0.245583  1
  Tm  Tm2  1  0.472696  0.472696  0.000000  1
  Tm  Tm3  1  0.527304  0.527304  0.500000  1
  Tm  Tm4  1  0.534120  0.001125  0.754417  1
  Tm  Tm5  1  0.998875  0.465880  0.745583  1
  Ta  Ta6  1  0.003092  0.003092  0.500000  1
  Ta  Ta7  1  0.996908  0.996908  0.000000  1
  O  O8  1  0.928220  0.071780  0.750000  1
  O  O9  1  0.639346  0.360654  0.750000  1
  O  O10  1  0.317625  0.060497  0.539140  1
  O  O11  1  0.939503  0.682375  0.960860  1
  O  O12  1  0.629336  0.370664  0.250000  1
  O  O13  1  0.917133  0.670627  0.529110  1
  O  O14  1  0.329373  0.082867  0.970890  1
  O  O15  1  0.082867  0.329373  0.029110  1
  O  O16  1  0.670627  0.917133  0.470890  1
  O  O17  1  0.370664  0.629336  0.750000  1
  O  O18  1  0.682375  0.939503  0.039140  1
  O  O19  1  0.060497  0.317625  0.460860  1
  O  O20  1  0.360654  0.639346  0.250000  1
  O  O21  1  0.071780  0.928220  0.250000  1
