# generated using pymatgen
data_Na2CoO3
_symmetry_space_group_name_H-M   'P 1'
_cell_length_a   7.95955095
_cell_length_b   7.95955095
_cell_length_c   10.56049128
_cell_angle_alpha   79.28922598
_cell_angle_beta   100.71077402
_cell_angle_gamma   138.50222576
_symmetry_Int_Tables_number   1
_chemical_formula_structural   Na2CoO3
_chemical_formula_sum   'Na8 Co4 O12'
_cell_volume   434.46607336
_cell_formula_units_Z   4
loop_
 _symmetry_equiv_pos_site_id
 _symmetry_equiv_pos_as_xyz
  1  'x, y, z'
loop_
 _atom_site_type_symbol
 _atom_site_label
 _atom_site_symmetry_multiplicity
 _atom_site_fract_x
 _atom_site_fract_y
 _atom_site_fract_z
 _atom_site_occupancy
  Na  Na0  1  0.609901  0.752655  0.338358  1
  Na  Na1  1  0.487110  0.837000  0.622882  1
  Na  Na2  1  0.163000  0.512890  0.122882  1
  Na  Na3  1  0.247345  0.390099  0.838358  1
  Na  Na4  1  0.752655  0.609901  0.161642  1
  Na  Na5  1  0.837000  0.487110  0.877118  1
  Na  Na6  1  0.512890  0.163000  0.377118  1
  Na  Na7  1  0.390099  0.247345  0.661642  1
  Co  Co8  1  0.284123  0.036982  0.026260  1
  Co  Co9  1  0.963018  0.715877  0.526260  1
  Co  Co10  1  0.036982  0.284123  0.473740  1
  Co  Co11  1  0.715877  0.963018  0.973740  1
  O  O12  1  0.594081  0.771401  0.111720  1
  O  O13  1  0.604032  0.829007  0.834756  1
  O  O14  1  0.281726  0.945386  0.557292  1
  O  O15  1  0.054614  0.718274  0.057292  1
  O  O16  1  0.170993  0.395968  0.334756  1
  O  O17  1  0.771401  0.594081  0.388280  1
  O  O18  1  0.228599  0.405919  0.611720  1
  O  O19  1  0.829007  0.604032  0.665244  1
  O  O20  1  0.945386  0.281726  0.942708  1
  O  O21  1  0.718274  0.054614  0.442708  1
  O  O22  1  0.395968  0.170993  0.165244  1
  O  O23  1  0.405919  0.228599  0.888280  1
