# generated using pymatgen
data_V3BO6
_symmetry_space_group_name_H-M   'P 1'
_cell_length_a   4.49337447
_cell_length_b   8.71832895
_cell_length_c   10.31261006
_cell_angle_alpha   90.00000000
_cell_angle_beta   90.00000000
_cell_angle_gamma   90.00000000
_symmetry_Int_Tables_number   1
_chemical_formula_structural   V3BO6
_chemical_formula_sum   'V12 B4 O24'
_cell_volume   403.99357780
_cell_formula_units_Z   4
loop_
 _symmetry_equiv_pos_site_id
 _symmetry_equiv_pos_as_xyz
  1  'x, y, z'
loop_
 _atom_site_type_symbol
 _atom_site_label
 _atom_site_symmetry_multiplicity
 _atom_site_fract_x
 _atom_site_fract_y
 _atom_site_fract_z
 _atom_site_occupancy
  V  V0  1  0.532059  0.250000  0.093984  1
  V  V1  1  0.020764  0.929841  0.128892  1
  V  V2  1  0.020764  0.570159  0.128892  1
  V  V3  1  0.520764  0.429841  0.371108  1
  V  V4  1  0.520764  0.070159  0.371108  1
  V  V5  1  0.032059  0.750000  0.406016  1
  V  V6  1  0.967941  0.250000  0.593984  1
  V  V7  1  0.479236  0.929841  0.628892  1
  V  V8  1  0.479236  0.570159  0.628892  1
  V  V9  1  0.979236  0.429841  0.871108  1
  V  V10  1  0.979236  0.070159  0.871108  1
  V  V11  1  0.467941  0.750000  0.906016  1
  B  B12  1  0.591026  0.750000  0.219281  1
  B  B13  1  0.091026  0.250000  0.280719  1
  B  B14  1  0.908974  0.750000  0.719281  1
  B  B15  1  0.408974  0.250000  0.780719  1
  O  O16  1  0.765276  0.418023  0.031374  1
  O  O17  1  0.765276  0.081977  0.031374  1
  O  O18  1  0.727250  0.750000  0.085613  1
  O  O19  1  0.231830  0.111619  0.214560  1
  O  O20  1  0.231830  0.388381  0.214560  1
  O  O21  1  0.269347  0.750000  0.221791  1
  O  O22  1  0.769347  0.250000  0.278209  1
  O  O23  1  0.731830  0.888381  0.285440  1
  O  O24  1  0.731830  0.611619  0.285440  1
  O  O25  1  0.227250  0.250000  0.414387  1
  O  O26  1  0.265276  0.918023  0.468626  1
  O  O27  1  0.265276  0.581977  0.468626  1
  O  O28  1  0.734724  0.418023  0.531374  1
  O  O29  1  0.734724  0.081977  0.531374  1
  O  O30  1  0.772750  0.750000  0.585613  1
  O  O31  1  0.268170  0.388381  0.714560  1
  O  O32  1  0.268170  0.111619  0.714560  1
  O  O33  1  0.230653  0.750000  0.721791  1
  O  O34  1  0.730653  0.250000  0.778209  1
  O  O35  1  0.768170  0.888381  0.785440  1
  O  O36  1  0.768170  0.611619  0.785440  1
  O  O37  1  0.272750  0.250000  0.914387  1
  O  O38  1  0.234724  0.918023  0.968626  1
  O  O39  1  0.234724  0.581977  0.968626  1
