# generated using pymatgen
data_CoP4(H5O8)2
_symmetry_space_group_name_H-M   'P 1'
_cell_length_a   5.31718050
_cell_length_b   7.26767454
_cell_length_c   8.23521651
_cell_angle_alpha   99.88738729
_cell_angle_beta   97.99347596
_cell_angle_gamma   92.74188098
_symmetry_Int_Tables_number   1
_chemical_formula_structural   CoP4(H5O8)2
_chemical_formula_sum   'Co1 P4 H10 O16'
_cell_volume   309.62507540
_cell_formula_units_Z   1
loop_
 _symmetry_equiv_pos_site_id
 _symmetry_equiv_pos_as_xyz
  1  'x, y, z'
loop_
 _atom_site_type_symbol
 _atom_site_label
 _atom_site_symmetry_multiplicity
 _atom_site_fract_x
 _atom_site_fract_y
 _atom_site_fract_z
 _atom_site_occupancy
  Co  Co0  1  0.500000  0.500000  0.500000  1
  P  P1  1  0.928071  0.324013  0.273711  1
  P  P2  1  0.071929  0.675987  0.726289  1
  P  P3  1  0.547203  0.818800  0.253044  1
  P  P4  1  0.452797  0.181200  0.746956  1
  H  H5  1  0.130003  0.577057  0.229287  1
  H  H6  1  0.869997  0.422943  0.770713  1
  H  H7  1  0.089444  0.077914  0.148051  1
  H  H8  1  0.910556  0.922086  0.851949  1
  H  H9  1  0.721825  0.636636  0.077469  1
  H  H10  1  0.278175  0.363364  0.922531  1
  H  H11  1  0.507637  0.124190  0.268567  1
  H  H12  1  0.492363  0.875810  0.731433  1
  H  H13  1  0.846543  0.810970  0.462703  1
  H  H14  1  0.153457  0.189030  0.537297  1
  O  O15  1  0.957647  0.502693  0.188168  1
  O  O16  1  0.042353  0.497307  0.811832  1
  O  O17  1  0.936887  0.148794  0.131031  1
  O  O18  1  0.063113  0.851206  0.868969  1
  O  O19  1  0.660950  0.313230  0.322682  1
  O  O20  1  0.339050  0.686770  0.677318  1
  O  O21  1  0.148325  0.331900  0.415341  1
  O  O22  1  0.851675  0.668100  0.584659  1
  O  O23  1  0.602838  0.737049  0.071634  1
  O  O24  1  0.397162  0.262951  0.928366  1
  O  O25  1  0.399868  0.996289  0.233255  1
  O  O26  1  0.600132  0.003711  0.766745  1
  O  O27  1  0.804426  0.885688  0.368874  1
  O  O28  1  0.195574  0.114312  0.631126  1
  O  O29  1  0.391252  0.674181  0.319047  1
  O  O30  1  0.608748  0.325819  0.680953  1
