# generated using pymatgen
data_Li2Co3(P2O7)2
_symmetry_space_group_name_H-M   'P 1'
_cell_length_a   5.30303980
_cell_length_b   6.41071562
_cell_length_c   16.11776643
_cell_angle_alpha   81.16232412
_cell_angle_beta   81.76366932
_cell_angle_gamma   72.38125049
_symmetry_Int_Tables_number   1
_chemical_formula_structural   Li2Co3(P2O7)2
_chemical_formula_sum   'Li4 Co6 P8 O28'
_cell_volume   513.31017003
_cell_formula_units_Z   2
loop_
 _symmetry_equiv_pos_site_id
 _symmetry_equiv_pos_as_xyz
  1  'x, y, z'
loop_
 _atom_site_type_symbol
 _atom_site_label
 _atom_site_symmetry_multiplicity
 _atom_site_fract_x
 _atom_site_fract_y
 _atom_site_fract_z
 _atom_site_occupancy
  Li  Li0  1  0.928078  0.771586  0.007217  1
  Li  Li1  1  0.352795  0.689889  0.119131  1
  Li  Li2  1  0.071922  0.228414  0.992783  1
  Li  Li3  1  0.647205  0.310111  0.880869  1
  Co  Co4  1  0.802329  0.720792  0.409063  1
  Co  Co5  1  0.043457  0.628359  0.810781  1
  Co  Co6  1  0.956543  0.371641  0.189219  1
  Co  Co7  1  0.234550  0.966683  0.335896  1
  Co  Co8  1  0.765450  0.033317  0.664104  1
  Co  Co9  1  0.197671  0.279208  0.590937  1
  P  P10  1  0.175991  0.098065  0.789622  1
  P  P11  1  0.363768  0.430718  0.319643  1
  P  P12  1  0.636232  0.569282  0.680357  1
  P  P13  1  0.294112  0.781125  0.541316  1
  P  P14  1  0.438839  0.752843  0.925622  1
  P  P15  1  0.824009  0.901935  0.210378  1
  P  P16  1  0.561161  0.247157  0.074378  1
  P  P17  1  0.705888  0.218875  0.458684  1
  O  O18  1  0.257541  0.327533  0.073848  1
  O  O19  1  0.115199  0.986139  0.581835  1
  O  O20  1  0.282267  0.853714  0.005145  1
  O  O21  1  0.606668  0.452721  0.263178  1
  O  O22  1  0.440738  0.300869  0.410392  1
  O  O23  1  0.345543  0.142787  0.707395  1
  O  O24  1  0.975350  0.699903  0.163617  1
  O  O25  1  0.742459  0.672467  0.926152  1
  O  O26  1  0.838642  0.400024  0.451611  1
  O  O27  1  0.654457  0.857213  0.292605  1
  O  O28  1  0.399132  0.954858  0.850182  1
  O  O29  1  0.175756  0.657969  0.338943  1
  O  O30  1  0.322895  0.577124  0.904168  1
  O  O31  1  0.824244  0.342031  0.661057  1
  O  O32  1  0.586506  0.156533  0.548899  1
  O  O33  1  0.161358  0.599976  0.548389  1
  O  O34  1  0.024650  0.300097  0.836383  1
  O  O35  1  0.884801  0.013861  0.418165  1
  O  O36  1  0.015845  0.034953  0.217865  1
  O  O37  1  0.600868  0.045142  0.149818  1
  O  O38  1  0.393332  0.547279  0.736822  1
  O  O39  1  0.209891  0.292357  0.288848  1
  O  O40  1  0.984155  0.965047  0.782135  1
  O  O41  1  0.559262  0.699131  0.589608  1
  O  O42  1  0.413494  0.843467  0.451101  1
  O  O43  1  0.790109  0.707643  0.711152  1
  O  O44  1  0.717733  0.146286  0.994855  1
  O  O45  1  0.677105  0.422876  0.095832  1
