# generated using pymatgen
data_Na5VO5
_symmetry_space_group_name_H-M   'P 1'
_cell_length_a   5.92629958
_cell_length_b   5.92629958
_cell_length_c   9.97080525
_cell_angle_alpha   81.08417042
_cell_angle_beta   98.91582958
_cell_angle_gamma   63.44892763
_symmetry_Int_Tables_number   1
_chemical_formula_structural   Na5VO5
_chemical_formula_sum   'Na10 V2 O10'
_cell_volume   299.33784834
_cell_formula_units_Z   2
loop_
 _symmetry_equiv_pos_site_id
 _symmetry_equiv_pos_as_xyz
  1  'x, y, z'
loop_
 _atom_site_type_symbol
 _atom_site_label
 _atom_site_symmetry_multiplicity
 _atom_site_fract_x
 _atom_site_fract_y
 _atom_site_fract_z
 _atom_site_occupancy
  Na  Na0  1  0.673847  0.017342  0.419753  1
  Na  Na1  1  0.558626  0.215066  0.052352  1
  Na  Na2  1  0.665877  0.665877  0.250000  1
  Na  Na3  1  0.982658  0.326153  0.919753  1
  Na  Na4  1  0.784934  0.441374  0.552352  1
  Na  Na5  1  0.215066  0.558626  0.447648  1
  Na  Na6  1  0.017342  0.673847  0.080247  1
  Na  Na7  1  0.334123  0.334123  0.750000  1
  Na  Na8  1  0.441374  0.784934  0.947648  1
  Na  Na9  1  0.326153  0.982658  0.580247  1
  V  V10  1  0.093100  0.093100  0.250000  1
  V  V11  1  0.906900  0.906900  0.750000  1
  O  O12  1  0.294261  0.044739  0.124208  1
  O  O13  1  0.398173  0.814871  0.391456  1
  O  O14  1  0.955261  0.705739  0.624208  1
  O  O15  1  0.185129  0.601827  0.891456  1
  O  O16  1  0.915123  0.915123  0.250000  1
  O  O17  1  0.084877  0.084877  0.750000  1
  O  O18  1  0.814871  0.398173  0.108544  1
  O  O19  1  0.044739  0.294261  0.375792  1
  O  O20  1  0.601827  0.185129  0.608544  1
  O  O21  1  0.705739  0.955261  0.875792  1
