# generated using pymatgen
data_CoP3H16N4O11
_symmetry_space_group_name_H-M   'P 1'
_cell_length_a   7.39224678
_cell_length_b   14.28005594
_cell_length_c   14.13269380
_cell_angle_alpha   90.00000000
_cell_angle_beta   117.58293429
_cell_angle_gamma   90.00000000
_symmetry_Int_Tables_number   1
_chemical_formula_structural   CoP3H16N4O11
_chemical_formula_sum   'Co4 P12 H64 N16 O44'
_cell_volume   1322.30736161
_cell_formula_units_Z   4
loop_
 _symmetry_equiv_pos_site_id
 _symmetry_equiv_pos_as_xyz
  1  'x, y, z'
loop_
 _atom_site_type_symbol
 _atom_site_label
 _atom_site_symmetry_multiplicity
 _atom_site_fract_x
 _atom_site_fract_y
 _atom_site_fract_z
 _atom_site_occupancy
  Co  Co0  1  0.533027  0.103773  0.287834  1
  Co  Co1  1  0.533027  0.396227  0.787834  1
  Co  Co2  1  0.466973  0.896227  0.712166  1
  Co  Co3  1  0.466973  0.603773  0.212166  1
  P  P4  1  0.650044  0.175364  0.539853  1
  P  P5  1  0.650044  0.324636  0.039853  1
  P  P6  1  0.349956  0.824636  0.460147  1
  P  P7  1  0.349956  0.675364  0.960147  1
  P  P8  1  0.815611  0.341360  0.474192  1
  P  P9  1  0.815611  0.158640  0.974192  1
  P  P10  1  0.184389  0.658640  0.525808  1
  P  P11  1  0.184389  0.841360  0.025808  1
  P  P12  1  0.979062  0.209157  0.371892  1
  P  P13  1  0.979062  0.290843  0.871892  1
  P  P14  1  0.020938  0.790843  0.628108  1
  P  P15  1  0.020938  0.709157  0.128108  1
  H  H16  1  0.485511  0.137540  0.096085  1
  H  H17  1  0.485511  0.362460  0.596085  1
  H  H18  1  0.514489  0.862460  0.903915  1
  H  H19  1  0.514489  0.637540  0.403915  1
  H  H20  1  0.510243  0.023006  0.114510  1
  H  H21  1  0.510243  0.476994  0.614510  1
  H  H22  1  0.489757  0.976994  0.885490  1
  H  H23  1  0.489757  0.523006  0.385490  1
  H  H24  1  0.287350  0.073554  0.083382  1
  H  H25  1  0.287350  0.426446  0.583382  1
  H  H26  1  0.712650  0.926446  0.916618  1
  H  H27  1  0.712650  0.573554  0.416618  1
  H  H28  1  0.288346  0.228285  0.168140  1
  H  H29  1  0.288346  0.271715  0.668140  1
  H  H30  1  0.711654  0.771715  0.831860  1
  H  H31  1  0.711654  0.728285  0.331860  1
  H  H32  1  0.285107  0.233814  0.284175  1
  H  H33  1  0.285107  0.266186  0.784175  1
  H  H34  1  0.714893  0.766186  0.715825  1
  H  H35  1  0.714893  0.733814  0.215825  1
  H  H36  1  0.485776  0.275946  0.272931  1
  H  H37  1  0.485776  0.224054  0.772931  1
  H  H38  1  0.514224  0.724054  0.727069  1
  H  H39  1  0.514224  0.775946  0.227069  1
  H  H40  1  0.275408  0.024763  0.339388  1
  H  H41  1  0.275408  0.475237  0.839388  1
  H  H42  1  0.724592  0.975237  0.660612  1
  H  H43  1  0.724592  0.524763  0.160612  1
  H  H44  1  0.148895  0.061436  0.213352  1
  H  H45  1  0.148895  0.438564  0.713352  1
  H  H46  1  0.851105  0.938564  0.786648  1
  H  H47  1  0.851105  0.561436  0.286648  1
  H  H48  1  0.283710  0.964537  0.239288  1
  H  H49  1  0.283710  0.535463  0.739288  1
  H  H50  1  0.716290  0.035463  0.760712  1
  H  H51  1  0.716290  0.464537  0.260712  1
  H  H52  1  0.619876  0.933119  0.338520  1
  H  H53  1  0.619876  0.566881  0.838520  1
  H  H54  1  0.380124  0.066881  0.661480  1
  H  H55  1  0.380124  0.433119  0.161480  1
  H  H56  1  0.740731  0.970715  0.269434  1
  H  H57  1  0.740731  0.529285  0.769434  1
  H  H58  1  0.259269  0.029285  0.730566  1
  H  H59  1  0.259269  0.470715  0.230566  1
  H  H60  1  0.824377  0.000271  0.397630  1
  H  H61  1  0.824377  0.499729  0.897630  1
  H  H62  1  0.175623  0.999729  0.602370  1
  H  H63  1  0.175623  0.500271  0.102370  1
  H  H64  1  0.168068  0.000882  0.891073  1
  H  H65  1  0.168068  0.499118  0.391073  1
  H  H66  1  0.831932  0.999118  0.108927  1
  H  H67  1  0.831932  0.500882  0.608927  1
  H  H68  1  0.175685  0.107298  0.859061  1
  H  H69  1  0.175685  0.392702  0.359061  1
  H  H70  1  0.824315  0.892702  0.140939  1
  H  H71  1  0.824315  0.607298  0.640939  1
  H  H72  1  0.922898  0.182897  0.704992  1
  H  H73  1  0.922898  0.317103  0.204992  1
  H  H74  1  0.077102  0.817103  0.295008  1
  H  H75  1  0.077102  0.682897  0.795008  1
  H  H76  1  0.269587  0.142429  0.485049  1
  H  H77  1  0.269587  0.357571  0.985049  1
  H  H78  1  0.730413  0.857571  0.514951  1
  H  H79  1  0.730413  0.642429  0.014951  1
  N  N80  1  0.442154  0.081678  0.126143  1
  N  N81  1  0.442154  0.418322  0.626143  1
  N  N82  1  0.557846  0.918322  0.873857  1
  N  N83  1  0.557846  0.581678  0.373857  1
  N  N84  1  0.378488  0.222741  0.248894  1
  N  N85  1  0.378488  0.277259  0.748894  1
  N  N86  1  0.621512  0.777259  0.751106  1
  N  N87  1  0.621512  0.722741  0.251106  1
  N  N88  1  0.280906  0.030218  0.268762  1
  N  N89  1  0.280906  0.469782  0.768762  1
  N  N90  1  0.719094  0.969782  0.731238  1
  N  N91  1  0.719094  0.530218  0.231238  1
  N  N92  1  0.696677  0.988133  0.326935  1
  N  N93  1  0.696677  0.511867  0.826935  1
  N  N94  1  0.303323  0.011867  0.673065  1
  N  N95  1  0.303323  0.488133  0.173065  1
  O  O96  1  0.622859  0.114885  0.446029  1
  O  O97  1  0.622859  0.385115  0.946029  1
  O  O98  1  0.377141  0.885115  0.553971  1
  O  O99  1  0.377141  0.614885  0.053971  1
  O  O100  1  0.862820  0.147151  0.634827  1
  O  O101  1  0.862820  0.352849  0.134827  1
  O  O102  1  0.137180  0.852849  0.365173  1
  O  O103  1  0.137180  0.647151  0.865173  1
  O  O104  1  0.478040  0.171377  0.569853  1
  O  O105  1  0.478040  0.328623  0.069853  1
  O  O106  1  0.521960  0.828623  0.430147  1
  O  O107  1  0.521960  0.671377  0.930147  1
  O  O108  1  0.669580  0.284290  0.513190  1
  O  O109  1  0.669580  0.215710  0.013190  1
  O  O110  1  0.330420  0.715710  0.486810  1
  O  O111  1  0.330420  0.784290  0.986810  1
  O  O112  1  0.944309  0.407003  0.563330  1
  O  O113  1  0.944309  0.092997  0.063330  1
  O  O114  1  0.055691  0.592997  0.436670  1
  O  O115  1  0.055691  0.907003  0.936670  1
  O  O116  1  0.684041  0.375537  0.363096  1
  O  O117  1  0.684041  0.124463  0.863096  1
  O  O118  1  0.315959  0.624463  0.636904  1
  O  O119  1  0.315959  0.875537  0.136904  1
  O  O120  1  0.971332  0.260285  0.472964  1
  O  O121  1  0.971332  0.239715  0.972964  1
  O  O122  1  0.028668  0.739715  0.527036  1
  O  O123  1  0.028668  0.760285  0.027036  1
  O  O124  1  0.122291  0.123296  0.428821  1
  O  O125  1  0.122291  0.376704  0.928821  1
  O  O126  1  0.877709  0.876704  0.571179  1
  O  O127  1  0.877709  0.623296  0.071179  1
  O  O128  1  0.073270  0.275240  0.322516  1
  O  O129  1  0.073270  0.224760  0.822516  1
  O  O130  1  0.926730  0.724760  0.677484  1
  O  O131  1  0.926730  0.775240  0.177484  1
  O  O132  1  0.770120  0.173938  0.292997  1
  O  O133  1  0.770120  0.326062  0.792997  1
  O  O134  1  0.229880  0.826062  0.707003  1
  O  O135  1  0.229880  0.673938  0.207003  1
  O  O136  1  0.236227  0.044778  0.863662  1
  O  O137  1  0.236227  0.455222  0.363662  1
  O  O138  1  0.763773  0.955222  0.136338  1
  O  O139  1  0.763773  0.544778  0.636338  1
