# generated using pymatgen
data_Mn3Cr2Sb3O16
_symmetry_space_group_name_H-M   'P 1'
_cell_length_a   6.08693571
_cell_length_b   6.08693571
_cell_length_c   9.04669066
_cell_angle_alpha   89.80533478
_cell_angle_beta   90.19466522
_cell_angle_gamma   120.59621431
_symmetry_Int_Tables_number   1
_chemical_formula_structural   Mn3Cr2Sb3O16
_chemical_formula_sum   'Mn3 Cr2 Sb3 O16'
_cell_volume   288.51860557
_cell_formula_units_Z   1
loop_
 _symmetry_equiv_pos_site_id
 _symmetry_equiv_pos_as_xyz
  1  'x, y, z'
loop_
 _atom_site_type_symbol
 _atom_site_label
 _atom_site_symmetry_multiplicity
 _atom_site_fract_x
 _atom_site_fract_y
 _atom_site_fract_z
 _atom_site_occupancy
  Mn  Mn0  1  0.830793  0.169207  0.785294  1
  Mn  Mn1  1  0.662423  0.835298  0.289875  1
  Mn  Mn2  1  0.164702  0.337577  0.289875  1
  Cr  Cr3  1  0.670082  0.329918  0.507155  1
  Cr  Cr4  1  0.341070  0.658930  0.015929  1
  Sb  Sb5  1  0.830663  0.666529  0.790172  1
  Sb  Sb6  1  0.333471  0.169337  0.790172  1
  Sb  Sb7  1  0.164587  0.835413  0.290527  1
  O  O8  1  0.832141  0.669255  0.395823  1
  O  O9  1  0.521807  0.478193  0.652893  1
  O  O10  1  0.653122  0.346878  0.913839  1
  O  O11  1  0.011508  0.988492  0.673211  1
  O  O12  1  0.994436  0.005564  0.184261  1
  O  O13  1  0.330745  0.167859  0.395823  1
  O  O14  1  0.952280  0.477166  0.662609  1
  O  O15  1  0.522834  0.047720  0.662609  1
  O  O16  1  0.167290  0.832710  0.903339  1
  O  O17  1  0.837599  0.162401  0.396695  1
  O  O18  1  0.483085  0.951962  0.162346  1
  O  O19  1  0.048038  0.516915  0.162346  1
  O  O20  1  0.336061  0.663939  0.400063  1
  O  O21  1  0.670671  0.835216  0.894832  1
  O  O22  1  0.475657  0.524343  0.169768  1
  O  O23  1  0.164784  0.329329  0.894832  1
