# generated using pymatgen
data_Tb(BiO2)3
_symmetry_space_group_name_H-M   'P 1'
_cell_length_a   9.60853658
_cell_length_b   9.60853658
_cell_length_c   9.60853658
_cell_angle_alpha   109.47122063
_cell_angle_beta   109.47122063
_cell_angle_gamma   109.47122063
_symmetry_Int_Tables_number   1
_chemical_formula_structural   Tb(BiO2)3
_chemical_formula_sum   'Tb4 Bi12 O24'
_cell_volume   682.88858399
_cell_formula_units_Z   4
loop_
 _symmetry_equiv_pos_site_id
 _symmetry_equiv_pos_as_xyz
  1  'x, y, z'
loop_
 _atom_site_type_symbol
 _atom_site_label
 _atom_site_symmetry_multiplicity
 _atom_site_fract_x
 _atom_site_fract_y
 _atom_site_fract_z
 _atom_site_occupancy
  Tb  Tb0  1  0.003128  0.500000  0.000000  1
  Tb  Tb1  1  0.500000  0.000000  0.003128  1
  Tb  Tb2  1  0.496872  0.496872  0.496872  1
  Tb  Tb3  1  0.000000  0.003128  0.500000  1
  Bi  Bi4  1  0.966647  0.250000  0.216647  1
  Bi  Bi5  1  0.719292  0.469292  0.250000  1
  Bi  Bi6  1  0.780708  0.030708  0.750000  1
  Bi  Bi7  1  0.750000  0.283353  0.533353  1
  Bi  Bi8  1  0.750000  0.780708  0.030708  1
  Bi  Bi9  1  0.533353  0.750000  0.283353  1
  Bi  Bi10  1  0.469292  0.250000  0.719292  1
  Bi  Bi11  1  0.250000  0.719292  0.469292  1
  Bi  Bi12  1  0.250000  0.216647  0.966647  1
  Bi  Bi13  1  0.283353  0.533353  0.750000  1
  Bi  Bi14  1  0.216647  0.966647  0.250000  1
  Bi  Bi15  1  0.030708  0.750000  0.780708  1
  O  O16  1  0.010173  0.045502  0.276871  1
  O  O17  1  0.766698  0.035329  0.489827  1
  O  O18  1  0.733302  0.223129  0.268631  1
  O  O19  1  0.987425  0.954176  0.717430  1
  O  O20  1  0.512575  0.230005  0.966752  1
  O  O21  1  0.763254  0.545824  0.533248  1
  O  O22  1  0.736746  0.269995  0.782570  1
  O  O23  1  0.454498  0.464671  0.231369  1
  O  O24  1  0.464671  0.231369  0.454498  1
  O  O25  1  0.782570  0.736746  0.269995  1
  O  O26  1  0.717430  0.987425  0.954176  1
  O  O27  1  0.230005  0.966752  0.512575  1
  O  O28  1  0.489827  0.766698  0.035329  1
  O  O29  1  0.268631  0.733302  0.223129  1
  O  O30  1  0.231369  0.454498  0.464671  1
  O  O31  1  0.545824  0.533248  0.763254  1
  O  O32  1  0.966752  0.512575  0.230005  1
  O  O33  1  0.533248  0.763254  0.545824  1
  O  O34  1  0.276871  0.010173  0.045502  1
  O  O35  1  0.223129  0.268631  0.733302  1
  O  O36  1  0.045502  0.276871  0.010173  1
  O  O37  1  0.035329  0.489827  0.766698  1
  O  O38  1  0.269995  0.782570  0.736746  1
  O  O39  1  0.954176  0.717430  0.987425  1
