# generated using pymatgen
data_LiMnPO4
_symmetry_space_group_name_H-M   'P 1'
_cell_length_a   8.52424264
_cell_length_b   7.57982035
_cell_length_c   17.09840015
_cell_angle_alpha   90.00000000
_cell_angle_beta   119.22492411
_cell_angle_gamma   90.00000000
_symmetry_Int_Tables_number   1
_chemical_formula_structural   LiMnPO4
_chemical_formula_sum   'Li12 Mn12 P12 O48'
_cell_volume   964.13984438
_cell_formula_units_Z   12
loop_
 _symmetry_equiv_pos_site_id
 _symmetry_equiv_pos_as_xyz
  1  'x, y, z'
loop_
 _atom_site_type_symbol
 _atom_site_label
 _atom_site_symmetry_multiplicity
 _atom_site_fract_x
 _atom_site_fract_y
 _atom_site_fract_z
 _atom_site_occupancy
  Li  Li0  1  0.343279  0.331138  0.407486  1
  Li  Li1  1  0.320556  0.818614  0.241006  1
  Li  Li2  1  0.984881  0.172910  0.579940  1
  Li  Li3  1  0.015119  0.827090  0.420060  1
  Li  Li4  1  0.015119  0.672910  0.920060  1
  Li  Li5  1  0.679444  0.181386  0.758994  1
  Li  Li6  1  0.656721  0.668862  0.592514  1
  Li  Li7  1  0.343279  0.168862  0.907486  1
  Li  Li8  1  0.656721  0.831138  0.092514  1
  Li  Li9  1  0.984881  0.327090  0.079940  1
  Li  Li10  1  0.320556  0.681386  0.741006  1
  Li  Li11  1  0.679444  0.318614  0.258994  1
  Mn  Mn12  1  0.000574  0.457006  0.744050  1
  Mn  Mn13  1  0.999426  0.957006  0.755950  1
  Mn  Mn14  1  0.305732  0.968195  0.073137  1
  Mn  Mn15  1  0.694268  0.468195  0.426863  1
  Mn  Mn16  1  0.000574  0.042994  0.244050  1
  Mn  Mn17  1  0.305732  0.531805  0.573137  1
  Mn  Mn18  1  0.694268  0.031805  0.926863  1
  Mn  Mn19  1  0.650774  0.464612  0.912661  1
  Mn  Mn20  1  0.349226  0.964612  0.587339  1
  Mn  Mn21  1  0.650774  0.035388  0.412661  1
  Mn  Mn22  1  0.999426  0.542994  0.255950  1
  Mn  Mn23  1  0.349226  0.535388  0.087339  1
  P  P24  1  0.031828  0.270453  0.922739  1
  P  P25  1  0.353830  0.764095  0.910734  1
  P  P26  1  0.312314  0.230775  0.230821  1
  P  P27  1  0.968172  0.729547  0.077261  1
  P  P28  1  0.687686  0.769225  0.769179  1
  P  P29  1  0.968172  0.770453  0.577261  1
  P  P30  1  0.353830  0.735905  0.410734  1
  P  P31  1  0.646170  0.235905  0.089266  1
  P  P32  1  0.312314  0.269225  0.730821  1
  P  P33  1  0.687686  0.730775  0.269179  1
  P  P34  1  0.031828  0.229547  0.422739  1
  P  P35  1  0.646170  0.264095  0.589266  1
  O  O36  1  0.144824  0.777532  0.860874  1
  O  O37  1  0.516687  0.235575  0.300623  1
  O  O38  1  0.407776  0.890145  0.369431  1
  O  O39  1  0.171143  0.118657  0.952581  1
  O  O40  1  0.483313  0.735575  0.199377  1
  O  O41  1  0.582774  0.263872  0.987439  1
  O  O42  1  0.797532  0.751780  0.218082  1
  O  O43  1  0.592224  0.109855  0.630569  1
  O  O44  1  0.483313  0.764425  0.699377  1
  O  O45  1  0.202468  0.251780  0.281918  1
  O  O46  1  0.074531  0.719400  0.181798  1
  O  O47  1  0.565820  0.062887  0.103132  1
  O  O48  1  0.893557  0.237691  0.956592  1
  O  O49  1  0.202468  0.248220  0.781918  1
  O  O50  1  0.132840  0.445977  0.959849  1
  O  O51  1  0.253821  0.123663  0.659032  1
  O  O52  1  0.106443  0.762309  0.043408  1
  O  O53  1  0.407776  0.609855  0.869431  1
  O  O54  1  0.746179  0.876337  0.340968  1
  O  O55  1  0.592224  0.390145  0.130569  1
  O  O56  1  0.828857  0.881343  0.047419  1
  O  O57  1  0.925469  0.280600  0.818202  1
  O  O58  1  0.565820  0.437113  0.603132  1
  O  O59  1  0.106443  0.737691  0.543408  1
  O  O60  1  0.746179  0.623663  0.840968  1
  O  O61  1  0.867160  0.945977  0.540151  1
  O  O62  1  0.434180  0.562887  0.396868  1
  O  O63  1  0.855176  0.222468  0.139126  1
  O  O64  1  0.144824  0.722468  0.360874  1
  O  O65  1  0.516687  0.264425  0.800623  1
  O  O66  1  0.828857  0.618657  0.547419  1
  O  O67  1  0.893557  0.262309  0.456592  1
  O  O68  1  0.855176  0.277532  0.639126  1
  O  O69  1  0.741044  0.549857  0.318813  1
  O  O70  1  0.741044  0.950143  0.818813  1
  O  O71  1  0.582774  0.236128  0.487439  1
  O  O72  1  0.867160  0.554023  0.040151  1
  O  O73  1  0.434180  0.937113  0.896868  1
  O  O74  1  0.074531  0.780600  0.681798  1
  O  O75  1  0.258956  0.049857  0.181187  1
  O  O76  1  0.171143  0.381343  0.452581  1
  O  O77  1  0.925469  0.219400  0.318202  1
  O  O78  1  0.258956  0.450143  0.681187  1
  O  O79  1  0.417226  0.736128  0.012561  1
  O  O80  1  0.797532  0.748220  0.718082  1
  O  O81  1  0.253821  0.376337  0.159032  1
  O  O82  1  0.132840  0.054023  0.459849  1
  O  O83  1  0.417226  0.763872  0.512561  1
