# generated using pymatgen
data_NaLi2FePCO7
_symmetry_space_group_name_H-M   'P 1'
_cell_length_a   5.08335578
_cell_length_b   6.60406198
_cell_length_c   8.64251312
_cell_angle_alpha   92.05983069
_cell_angle_beta   94.05336930
_cell_angle_gamma   89.92880718
_symmetry_Int_Tables_number   1
_chemical_formula_structural   NaLi2FePCO7
_chemical_formula_sum   'Na2 Li4 Fe2 P2 C2 O14'
_cell_volume   289.22306469
_cell_formula_units_Z   2
loop_
 _symmetry_equiv_pos_site_id
 _symmetry_equiv_pos_as_xyz
  1  'x, y, z'
loop_
 _atom_site_type_symbol
 _atom_site_label
 _atom_site_symmetry_multiplicity
 _atom_site_fract_x
 _atom_site_fract_y
 _atom_site_fract_z
 _atom_site_occupancy
  Na  Na0  1  0.257216  0.499319  0.741163  1
  Na  Na1  1  0.742784  0.500681  0.258837  1
  Li  Li2  1  0.753239  0.213103  0.911022  1
  Li  Li3  1  0.242339  0.026493  0.717028  1
  Li  Li4  1  0.757661  0.973507  0.282972  1
  Li  Li5  1  0.246761  0.786897  0.088978  1
  Fe  Fe6  1  0.784500  0.758133  0.660328  1
  Fe  Fe7  1  0.215500  0.241867  0.339672  1
  P  P8  1  0.712486  0.243257  0.589092  1
  P  P9  1  0.287514  0.756743  0.410908  1
  C  C10  1  0.711367  0.764337  0.961002  1
  C  C11  1  0.288633  0.235663  0.038998  1
  O  O12  1  0.353491  0.225372  0.896100  1
  O  O13  1  0.955554  0.754133  0.926128  1
  O  O14  1  0.524904  0.765582  0.849413  1
  O  O15  1  0.825417  0.074359  0.698584  1
  O  O16  1  0.784713  0.445713  0.679416  1
  O  O17  1  0.406613  0.222516  0.566384  1
  O  O18  1  0.169462  0.770371  0.571055  1
  O  O19  1  0.830538  0.229629  0.428945  1
  O  O20  1  0.593387  0.777484  0.433616  1
  O  O21  1  0.215287  0.554287  0.320584  1
  O  O22  1  0.174583  0.925641  0.301416  1
  O  O23  1  0.475096  0.234418  0.150587  1
  O  O24  1  0.044446  0.245867  0.073872  1
  O  O25  1  0.646509  0.774628  0.103900  1
