# generated using pymatgen
data_Li8Mn7Fe(BO3)8
_symmetry_space_group_name_H-M   'P 1'
_cell_length_a   6.05659667
_cell_length_b   9.16355590
_cell_length_c   9.76193749
_cell_angle_alpha   81.97226562
_cell_angle_beta   78.32829285
_cell_angle_gamma   76.37660302
_symmetry_Int_Tables_number   1
_chemical_formula_structural   Li8Mn7Fe(BO3)8
_chemical_formula_sum   'Li8 Mn7 Fe1 B8 O24'
_cell_volume   513.24169334
_cell_formula_units_Z   1
loop_
 _symmetry_equiv_pos_site_id
 _symmetry_equiv_pos_as_xyz
  1  'x, y, z'
loop_
 _atom_site_type_symbol
 _atom_site_label
 _atom_site_symmetry_multiplicity
 _atom_site_fract_x
 _atom_site_fract_y
 _atom_site_fract_z
 _atom_site_occupancy
  Li  Li0  1  0.202822  0.684351  0.123365  1
  Li  Li1  1  0.296575  0.316401  0.375343  1
  Li  Li2  1  0.046780  0.814080  0.626811  1
  Li  Li3  1  0.452832  0.184463  0.874042  1
  Li  Li4  1  0.546626  0.815207  0.126200  1
  Li  Li5  1  0.953521  0.184664  0.373557  1
  Li  Li6  1  0.704276  0.683993  0.625215  1
  Li  Li7  1  0.795396  0.315518  0.876221  1
  Mn  Mn8  1  0.123723  0.375877  0.104843  1
  Mn  Mn9  1  0.122988  0.126006  0.642442  1
  Mn  Mn10  1  0.621802  0.126565  0.143668  1
  Mn  Mn11  1  0.373595  0.626306  0.392611  1
  Mn  Mn12  1  0.626343  0.373951  0.607259  1
  Mn  Mn13  1  0.376138  0.872743  0.856352  1
  Mn  Mn14  1  0.877054  0.873585  0.357080  1
  Fe  Fe15  1  0.870568  0.629572  0.893570  1
  B  B16  1  0.148428  0.037137  0.114116  1
  B  B17  1  0.101234  0.462631  0.637656  1
  B  B18  1  0.602414  0.464680  0.133933  1
  B  B19  1  0.351719  0.963208  0.385863  1
  B  B20  1  0.648535  0.036431  0.614449  1
  B  B21  1  0.397380  0.537452  0.863861  1
  B  B22  1  0.898780  0.536545  0.364266  1
  B  B23  1  0.853765  0.961279  0.886165  1
  O  O24  1  0.263403  0.152996  0.059329  1
  O  O25  1  0.014949  0.651938  0.309133  1
  O  O26  1  0.272203  0.106293  0.430082  1
  O  O27  1  0.021069  0.604156  0.685079  1
  O  O28  1  0.229688  0.894304  0.068926  1
  O  O29  1  0.294548  0.436303  0.530011  1
  O  O30  1  0.046792  0.935020  0.778843  1
  O  O31  1  0.488639  0.348634  0.190093  1
  O  O32  1  0.235452  0.847941  0.441505  1
  O  O33  1  0.454208  0.064051  0.720981  1
  O  O34  1  0.201700  0.566474  0.969061  1
  O  O35  1  0.521455  0.607094  0.180090  1
  O  O36  1  0.477983  0.393924  0.819999  1
  O  O37  1  0.795093  0.438784  0.026190  1
  O  O38  1  0.546077  0.934786  0.279535  1
  O  O39  1  0.763812  0.151976  0.558974  1
  O  O40  1  0.515268  0.651872  0.808655  1
  O  O41  1  0.953740  0.064474  0.220322  1
  O  O42  1  0.704407  0.564732  0.470731  1
  O  O43  1  0.769964  0.103916  0.931124  1
  O  O44  1  0.978613  0.394054  0.318803  1
  O  O45  1  0.728985  0.893348  0.569793  1
  O  O46  1  0.985699  0.346707  0.691461  1
  O  O47  1  0.742961  0.843579  0.942393  1
