# generated using pymatgen
data_Li9Cr2(H9O7)3
_symmetry_space_group_name_H-M   'P 1'
_cell_length_a   8.39934729
_cell_length_b   10.82613581
_cell_length_c   10.94635342
_cell_angle_alpha   106.24184947
_cell_angle_beta   87.80890810
_cell_angle_gamma   111.34578661
_symmetry_Int_Tables_number   1
_chemical_formula_structural   Li9Cr2(H9O7)3
_chemical_formula_sum   'Li18 Cr4 H54 O42'
_cell_volume   887.84360641
_cell_formula_units_Z   2
loop_
 _symmetry_equiv_pos_site_id
 _symmetry_equiv_pos_as_xyz
  1  'x, y, z'
loop_
 _atom_site_type_symbol
 _atom_site_label
 _atom_site_symmetry_multiplicity
 _atom_site_fract_x
 _atom_site_fract_y
 _atom_site_fract_z
 _atom_site_occupancy
  Li  Li0  1  0.982762  0.410334  0.372695  1
  Li  Li1  1  0.798171  0.331539  0.635926  1
  Li  Li2  1  0.800973  0.320591  0.140979  1
  Li  Li3  1  0.573010  0.026069  0.636932  1
  Li  Li4  1  0.587022  0.032426  0.136057  1
  Li  Li5  1  0.565372  0.510416  0.632673  1
  Li  Li6  1  0.579883  0.514147  0.120095  1
  Li  Li7  1  0.416034  0.223686  0.617428  1
  Li  Li8  1  0.435801  0.222956  0.117332  1
  Li  Li9  1  0.564199  0.777044  0.882668  1
  Li  Li10  1  0.583966  0.776314  0.382572  1
  Li  Li11  1  0.420117  0.485853  0.879905  1
  Li  Li12  1  0.434628  0.489584  0.367327  1
  Li  Li13  1  0.412978  0.967574  0.863943  1
  Li  Li14  1  0.426990  0.973931  0.363068  1
  Li  Li15  1  0.199027  0.679409  0.859021  1
  Li  Li16  1  0.201829  0.668461  0.364074  1
  Li  Li17  1  0.017238  0.589666  0.627305  1
  Cr  Cr18  1  0.588581  0.273242  0.873380  1
  Cr  Cr19  1  0.599183  0.277871  0.378235  1
  Cr  Cr20  1  0.400817  0.722129  0.621765  1
  Cr  Cr21  1  0.411419  0.726758  0.126620  1
  H  H22  1  0.980124  0.076560  0.800763  1
  H  H23  1  0.978388  0.049294  0.291553  1
  H  H24  1  0.878880  0.028055  0.961394  1
  H  H25  1  0.862054  0.058250  0.505956  1
  H  H26  1  0.961151  0.473095  0.815285  1
  H  H27  1  0.845066  0.208394  0.802484  1
  H  H28  1  0.811624  0.157494  0.292797  1
  H  H29  1  0.869243  0.404909  0.989849  1
  H  H30  1  0.888436  0.582888  0.971499  1
  H  H31  1  0.674946  0.110199  0.956943  1
  H  H32  1  0.705550  0.143342  0.482288  1
  H  H33  1  0.931691  0.725762  0.409763  1
  H  H34  1  0.961125  0.798058  0.560538  1
  H  H35  1  0.872572  0.677893  0.825289  1
  H  H36  1  0.879890  0.608632  0.253491  1
  H  H37  1  0.966097  0.751536  0.031359  1
  H  H38  1  0.797274  0.525607  0.477409  1
  H  H39  1  0.848782  0.760640  0.730731  1
  H  H40  1  0.849335  0.738457  0.217044  1
  H  H41  1  0.679215  0.478028  0.794555  1
  H  H42  1  0.694242  0.468673  0.275529  1
  H  H43  1  0.837442  0.942990  0.572969  1
  H  H44  1  0.846425  0.938139  0.057543  1
  H  H45  1  0.688146  0.712090  0.550606  1
  H  H46  1  0.693069  0.713165  0.040139  1
  H  H47  1  0.692063  0.901024  0.732181  1
  H  H48  1  0.710141  0.886397  0.217793  1
  H  H49  1  0.289859  0.113603  0.782207  1
  H  H50  1  0.307937  0.098976  0.267819  1
  H  H51  1  0.306931  0.286835  0.959861  1
  H  H52  1  0.311854  0.287910  0.449394  1
  H  H53  1  0.153575  0.061861  0.942457  1
  H  H54  1  0.162558  0.057010  0.427031  1
  H  H55  1  0.305758  0.531327  0.724471  1
  H  H56  1  0.320785  0.521972  0.205445  1
  H  H57  1  0.150665  0.261543  0.782956  1
  H  H58  1  0.151218  0.239360  0.269269  1
  H  H59  1  0.202726  0.474393  0.522591  1
  H  H60  1  0.033903  0.248464  0.968641  1
  H  H61  1  0.120110  0.391368  0.746509  1
  H  H62  1  0.127428  0.322107  0.174711  1
  H  H63  1  0.038875  0.201942  0.439462  1
  H  H64  1  0.068309  0.274238  0.590237  1
  H  H65  1  0.294450  0.856658  0.517712  1
  H  H66  1  0.325054  0.889801  0.043057  1
  H  H67  1  0.111564  0.417112  0.028501  1
  H  H68  1  0.130757  0.595091  0.010151  1
  H  H69  1  0.188376  0.842506  0.707203  1
  H  H70  1  0.154934  0.791606  0.197516  1
  H  H71  1  0.038849  0.526905  0.184715  1
  H  H72  1  0.137946  0.941750  0.494044  1
  H  H73  1  0.121120  0.971945  0.038606  1
  H  H74  1  0.021612  0.950706  0.708447  1
  H  H75  1  0.019876  0.923440  0.199237  1
  O  O76  1  0.973589  0.520826  0.259698  1
  O  O77  1  0.979300  0.672722  0.959391  1
  O  O78  1  0.747197  0.205598  0.755442  1
  O  O79  1  0.008798  0.744826  0.485217  1
  O  O80  1  0.778256  0.225096  0.268972  1
  O  O81  1  0.776908  0.439239  0.985549  1
  O  O82  1  0.792200  0.441144  0.495688  1
  O  O83  1  0.601540  0.160629  0.994640  1
  O  O84  1  0.925308  0.862299  0.135407  1
  O  O85  1  0.905049  0.889385  0.674722  1
  O  O86  1  0.600365  0.162284  0.495114  1
  O  O87  1  0.806858  0.666247  0.746402  1
  O  O88  1  0.799179  0.667349  0.263543  1
  O  O89  1  0.582658  0.391893  0.758569  1
  O  O90  1  0.586657  0.389036  0.259055  1
  O  O91  1  0.780496  0.966683  0.507464  1
  O  O92  1  0.401754  0.109356  0.758084  1
  O  O93  1  0.428272  0.113320  0.251682  1
  O  O94  1  0.785951  0.971789  0.002908  1
  O  O95  1  0.426288  0.340974  0.990725  1
  O  O96  1  0.572138  0.659929  0.511550  1
  O  O97  1  0.427862  0.340071  0.488450  1
  O  O98  1  0.573712  0.659026  0.009275  1
  O  O99  1  0.214049  0.028211  0.997092  1
  O  O100  1  0.571728  0.886680  0.748318  1
  O  O101  1  0.598246  0.890644  0.241916  1
  O  O102  1  0.219504  0.033317  0.492536  1
  O  O103  1  0.413343  0.610964  0.740945  1
  O  O104  1  0.417342  0.608107  0.241431  1
  O  O105  1  0.200821  0.332651  0.736457  1
  O  O106  1  0.193142  0.333753  0.253598  1
  O  O107  1  0.399635  0.837716  0.504886  1
  O  O108  1  0.094951  0.110615  0.325278  1
  O  O109  1  0.074692  0.137701  0.864593  1
  O  O110  1  0.398460  0.839371  0.005360  1
  O  O111  1  0.207800  0.558856  0.504312  1
  O  O112  1  0.223092  0.560761  0.014451  1
  O  O113  1  0.221744  0.774904  0.731028  1
  O  O114  1  0.991202  0.255174  0.514783  1
  O  O115  1  0.252803  0.794402  0.244558  1
  O  O116  1  0.020700  0.327278  0.040609  1
  O  O117  1  0.026411  0.479174  0.740302  1
