# generated using pymatgen
data_Li5AuO4
_symmetry_space_group_name_H-M   'P 1'
_cell_length_a   10.30318422
_cell_length_b   10.05455620
_cell_length_c   4.78016699
_cell_angle_alpha   79.33560295
_cell_angle_beta   73.53915251
_cell_angle_gamma   27.12524455
_symmetry_Int_Tables_number   1
_chemical_formula_structural   Li5AuO4
_chemical_formula_sum   'Li10 Au2 O8'
_cell_volume   213.95689124
_cell_formula_units_Z   2
loop_
 _symmetry_equiv_pos_site_id
 _symmetry_equiv_pos_as_xyz
  1  'x, y, z'
loop_
 _atom_site_type_symbol
 _atom_site_label
 _atom_site_symmetry_multiplicity
 _atom_site_fract_x
 _atom_site_fract_y
 _atom_site_fract_z
 _atom_site_occupancy
  Li  Li0  1  0.250000  0.250000  0.250000  1
  Li  Li1  1  0.354119  0.354119  0.645881  1
  Li  Li2  1  0.645881  0.645881  0.354119  1
  Li  Li3  1  0.109149  0.109149  0.390851  1
  Li  Li4  1  0.604119  0.604119  0.895881  1
  Li  Li5  1  0.390851  0.390851  0.109149  1
  Li  Li6  1  0.895881  0.895881  0.604119  1
  Li  Li7  1  0.000000  0.000000  0.000000  1
  Li  Li8  1  0.140851  0.140851  0.859149  1
  Li  Li9  1  0.859149  0.859149  0.140851  1
  Au  Au10  1  0.500000  0.500000  0.500000  1
  Au  Au11  1  0.750000  0.750000  0.750000  1
  O  O12  1  0.826972  0.320339  0.181645  1
  O  O13  1  0.181645  0.671043  0.826972  1
  O  O14  1  0.068355  0.578957  0.423028  1
  O  O15  1  0.423028  0.929661  0.068355  1
  O  O16  1  0.929661  0.423028  0.578957  1
  O  O17  1  0.578957  0.068355  0.929661  1
  O  O18  1  0.320339  0.826972  0.671043  1
  O  O19  1  0.671043  0.181645  0.320339  1
