# generated using pymatgen
data_LiCu(PO3)3
_symmetry_space_group_name_H-M   'P 1'
_cell_length_a   8.26238843
_cell_length_b   8.50211491
_cell_length_c   9.13392664
_cell_angle_alpha   90.00000000
_cell_angle_beta   90.00000000
_cell_angle_gamma   90.00000000
_symmetry_Int_Tables_number   1
_chemical_formula_structural   LiCu(PO3)3
_chemical_formula_sum   'Li4 Cu4 P12 O36'
_cell_volume   641.63803136
_cell_formula_units_Z   4
loop_
 _symmetry_equiv_pos_site_id
 _symmetry_equiv_pos_as_xyz
  1  'x, y, z'
loop_
 _atom_site_type_symbol
 _atom_site_label
 _atom_site_symmetry_multiplicity
 _atom_site_fract_x
 _atom_site_fract_y
 _atom_site_fract_z
 _atom_site_occupancy
  Li  Li0  1  0.156755  0.130557  0.382248  1
  Li  Li1  1  0.343245  0.869443  0.882248  1
  Li  Li2  1  0.656755  0.369443  0.617752  1
  Li  Li3  1  0.843245  0.630557  0.117752  1
  Cu  Cu4  1  0.132593  0.853105  0.160028  1
  Cu  Cu5  1  0.367407  0.146895  0.660028  1
  Cu  Cu6  1  0.632593  0.646895  0.839972  1
  Cu  Cu7  1  0.867407  0.353105  0.339972  1
  P  P8  1  0.031718  0.320698  0.688227  1
  P  P9  1  0.177766  0.478664  0.189282  1
  P  P10  1  0.202838  0.812099  0.564834  1
  P  P11  1  0.297162  0.187901  0.064834  1
  P  P12  1  0.322234  0.521336  0.689282  1
  P  P13  1  0.468282  0.679302  0.188227  1
  P  P14  1  0.531718  0.179302  0.311773  1
  P  P15  1  0.677766  0.021336  0.810718  1
  P  P16  1  0.702838  0.687901  0.435166  1
  P  P17  1  0.797162  0.312099  0.935166  1
  P  P18  1  0.822234  0.978664  0.310718  1
  P  P19  1  0.968282  0.820698  0.811773  1
  O  O20  1  0.037136  0.770542  0.654256  1
  O  O21  1  0.083873  0.617385  0.131724  1
  O  O22  1  0.103197  0.869703  0.909520  1
  O  O23  1  0.105135  0.385314  0.314332  1
  O  O24  1  0.140291  0.192809  0.626265  1
  O  O25  1  0.145360  0.466023  0.740181  1
  O  O26  1  0.159058  0.864344  0.414102  1
  O  O27  1  0.186730  0.088089  0.158465  1
  O  O28  1  0.218994  0.363070  0.054645  1
  O  O29  1  0.281006  0.636930  0.554645  1
  O  O30  1  0.313270  0.911911  0.658465  1
  O  O31  1  0.340942  0.135656  0.914102  1
  O  O32  1  0.354640  0.533977  0.240181  1
  O  O33  1  0.359709  0.807191  0.126265  1
  O  O34  1  0.394865  0.614686  0.814332  1
  O  O35  1  0.396803  0.130297  0.409520  1
  O  O36  1  0.416127  0.382615  0.631724  1
  O  O37  1  0.462864  0.229458  0.154256  1
  O  O38  1  0.537136  0.729458  0.345744  1
  O  O39  1  0.583873  0.882615  0.868276  1
  O  O40  1  0.603198  0.630297  0.090480  1
  O  O41  1  0.605135  0.114686  0.685668  1
  O  O42  1  0.640291  0.307191  0.373735  1
  O  O43  1  0.645360  0.033977  0.259819  1
  O  O44  1  0.659058  0.635656  0.585898  1
  O  O45  1  0.686730  0.411911  0.841535  1
  O  O46  1  0.718994  0.136930  0.945355  1
  O  O47  1  0.781006  0.863070  0.445355  1
  O  O48  1  0.813270  0.588089  0.341535  1
  O  O49  1  0.840942  0.364344  0.085898  1
  O  O50  1  0.854640  0.966023  0.759819  1
  O  O51  1  0.859709  0.692809  0.873735  1
  O  O52  1  0.894865  0.885314  0.185668  1
  O  O53  1  0.896802  0.369703  0.590480  1
  O  O54  1  0.916127  0.117385  0.368276  1
  O  O55  1  0.962864  0.270542  0.845744  1
