# generated using pymatgen
data_LiCu(PO3)2
_symmetry_space_group_name_H-M   'P 1'
_cell_length_a   5.34156411
_cell_length_b   5.34156411
_cell_length_c   5.64798584
_cell_angle_alpha   90.00000000
_cell_angle_beta   90.00000000
_cell_angle_gamma   123.29316195
_symmetry_Int_Tables_number   1
_chemical_formula_structural   LiCu(PO3)2
_chemical_formula_sum   'Li1 Cu1 P2 O6'
_cell_volume   134.70097043
_cell_formula_units_Z   1
loop_
 _symmetry_equiv_pos_site_id
 _symmetry_equiv_pos_as_xyz
  1  'x, y, z'
loop_
 _atom_site_type_symbol
 _atom_site_label
 _atom_site_symmetry_multiplicity
 _atom_site_fract_x
 _atom_site_fract_y
 _atom_site_fract_z
 _atom_site_occupancy
  Li  Li0  1  0.000000  0.000000  0.000000  1
  Cu  Cu1  1  0.500000  0.500000  0.000000  1
  P  P2  1  0.000000  0.500000  0.329759  1
  P  P3  1  0.500000  0.000000  0.670241  1
  O  O4  1  0.339770  0.115057  0.804590  1
  O  O5  1  0.884943  0.660230  0.195410  1
  O  O6  1  0.735900  0.264100  0.500000  1
  O  O7  1  0.264100  0.735900  0.500000  1
  O  O8  1  0.115057  0.339770  0.195410  1
  O  O9  1  0.660230  0.884943  0.804590  1
