# generated using pymatgen
data_Li2NiO2
_symmetry_space_group_name_H-M   'P 1'
_cell_length_a   6.63987091
_cell_length_b   6.63987091
_cell_length_c   6.63987091
_cell_angle_alpha   26.72530208
_cell_angle_beta   26.72530208
_cell_angle_gamma   26.72530208
_symmetry_Int_Tables_number   1
_chemical_formula_structural   Li2NiO2
_chemical_formula_sum   'Li2 Ni1 O2'
_cell_volume   52.20089290
_cell_formula_units_Z   1
loop_
 _symmetry_equiv_pos_site_id
 _symmetry_equiv_pos_as_xyz
  1  'x, y, z'
loop_
 _atom_site_type_symbol
 _atom_site_label
 _atom_site_symmetry_multiplicity
 _atom_site_fract_x
 _atom_site_fract_y
 _atom_site_fract_z
 _atom_site_occupancy
  Li  Li0  1  0.762765  0.762765  0.762765  1
  Li  Li1  1  0.237235  0.237235  0.237235  1
  Ni  Ni2  1  0.000000  0.000000  0.000000  1
  O  O3  1  0.603460  0.603460  0.603460  1
  O  O4  1  0.396540  0.396540  0.396540  1
