# generated using pymatgen
data_Li3Cr(CoO2)4
_symmetry_space_group_name_H-M   'P 1'
_cell_length_a   5.85378855
_cell_length_b   5.85378855
_cell_length_c   5.88139911
_cell_angle_alpha   60.40984856
_cell_angle_beta   119.59015144
_cell_angle_gamma   120.28270778
_symmetry_Int_Tables_number   1
_chemical_formula_structural   Li3Cr(CoO2)4
_chemical_formula_sum   'Li3 Cr1 Co4 O8'
_cell_volume   143.07204038
_cell_formula_units_Z   1
loop_
 _symmetry_equiv_pos_site_id
 _symmetry_equiv_pos_as_xyz
  1  'x, y, z'
loop_
 _atom_site_type_symbol
 _atom_site_label
 _atom_site_symmetry_multiplicity
 _atom_site_fract_x
 _atom_site_fract_y
 _atom_site_fract_z
 _atom_site_occupancy
  Li  Li0  1  0.000000  0.500000  0.500000  1
  Li  Li1  1  0.000000  0.000000  0.500000  1
  Li  Li2  1  0.500000  0.000000  0.500000  1
  Cr  Cr3  1  0.500000  0.500000  0.000000  1
  Co  Co4  1  0.500000  0.500000  0.500000  1
  Co  Co5  1  0.000000  0.000000  0.000000  1
  Co  Co6  1  0.000000  0.500000  0.000000  1
  Co  Co7  1  0.500000  0.000000  0.000000  1
  O  O8  1  0.743323  0.256677  0.221336  1
  O  O9  1  0.728909  0.756330  0.230247  1
  O  O10  1  0.243670  0.271091  0.230247  1
  O  O11  1  0.248924  0.751076  0.219415  1
  O  O12  1  0.751076  0.248924  0.780585  1
  O  O13  1  0.756330  0.728909  0.769753  1
  O  O14  1  0.271091  0.243670  0.769753  1
  O  O15  1  0.256677  0.743323  0.778664  1
