# generated using pymatgen
data_LiP3W2O13
_symmetry_space_group_name_H-M   'P 1'
_cell_length_a   8.93413073
_cell_length_b   8.93413073
_cell_length_c   8.90718930
_cell_angle_alpha   69.17553410
_cell_angle_beta   110.82446590
_cell_angle_gamma   74.71142444
_symmetry_Int_Tables_number   1
_chemical_formula_structural   LiP3W2O13
_chemical_formula_sum   'Li2 P6 W4 O26'
_cell_volume   555.75669489
_cell_formula_units_Z   2
loop_
 _symmetry_equiv_pos_site_id
 _symmetry_equiv_pos_as_xyz
  1  'x, y, z'
loop_
 _atom_site_type_symbol
 _atom_site_label
 _atom_site_symmetry_multiplicity
 _atom_site_fract_x
 _atom_site_fract_y
 _atom_site_fract_z
 _atom_site_occupancy
  Li  Li0  1  0.000000  0.500000  0.500000  1
  Li  Li1  1  0.500000  0.000000  0.000000  1
  P  P2  1  0.488282  0.488282  0.750000  1
  P  P3  1  0.848388  0.739945  0.939675  1
  P  P4  1  0.260055  0.151612  0.439675  1
  P  P5  1  0.739945  0.848388  0.560325  1
  P  P6  1  0.151612  0.260055  0.060325  1
  P  P7  1  0.511718  0.511718  0.250000  1
  W  W8  1  0.172060  0.661018  0.829079  1
  W  W9  1  0.661018  0.172060  0.670921  1
  W  W10  1  0.338982  0.827940  0.329079  1
  W  W11  1  0.827940  0.338982  0.170921  1
  O  O12  1  0.151579  0.400061  0.903110  1
  O  O13  1  0.603228  0.498624  0.917710  1
  O  O14  1  0.036976  0.700738  0.967098  1
  O  O15  1  0.555683  0.290454  0.793441  1
  O  O16  1  0.197727  0.856376  0.767761  1
  O  O17  1  0.745646  0.929607  0.905801  1
  O  O18  1  0.400061  0.151579  0.596890  1
  O  O19  1  0.856376  0.197727  0.732239  1
  O  O20  1  0.070393  0.254354  0.405801  1
  O  O21  1  0.290454  0.555683  0.706559  1
  O  O22  1  0.738894  0.738894  0.750000  1
  O  O23  1  0.501376  0.396772  0.417710  1
  O  O24  1  0.299262  0.963024  0.467098  1
  O  O25  1  0.700738  0.036976  0.532902  1
  O  O26  1  0.498624  0.603228  0.582290  1
  O  O27  1  0.261106  0.261106  0.250000  1
  O  O28  1  0.709546  0.444317  0.293441  1
  O  O29  1  0.929607  0.745646  0.594199  1
  O  O30  1  0.143624  0.802273  0.267761  1
  O  O31  1  0.599939  0.848421  0.403110  1
  O  O32  1  0.254354  0.070393  0.094199  1
  O  O33  1  0.802273  0.143624  0.232239  1
  O  O34  1  0.444317  0.709546  0.206559  1
  O  O35  1  0.963024  0.299262  0.032902  1
  O  O36  1  0.396772  0.501376  0.082290  1
  O  O37  1  0.848421  0.599939  0.096890  1
