# generated using pymatgen
data_MnH6SO6
_symmetry_space_group_name_H-M   'P 1'
_cell_length_a   6.72676646
_cell_length_b   8.99280212
_cell_length_c   10.52106593
_cell_angle_alpha   90.00000000
_cell_angle_beta   123.56729636
_cell_angle_gamma   90.00000000
_symmetry_Int_Tables_number   1
_chemical_formula_structural   MnH6SO6
_chemical_formula_sum   'Mn4 H24 S4 O24'
_cell_volume   530.30981135
_cell_formula_units_Z   4
loop_
 _symmetry_equiv_pos_site_id
 _symmetry_equiv_pos_as_xyz
  1  'x, y, z'
loop_
 _atom_site_type_symbol
 _atom_site_label
 _atom_site_symmetry_multiplicity
 _atom_site_fract_x
 _atom_site_fract_y
 _atom_site_fract_z
 _atom_site_occupancy
  Mn  Mn0  1  0.709629  0.256200  0.640413  1
  Mn  Mn1  1  0.290371  0.756200  0.859587  1
  Mn  Mn2  1  0.709629  0.243800  0.140413  1
  Mn  Mn3  1  0.290371  0.743800  0.359587  1
  H  H4  1  0.814027  0.695437  0.774632  1
  H  H5  1  0.012138  0.321930  0.970500  1
  H  H6  1  0.962920  0.545984  0.848704  1
  H  H7  1  0.015832  0.985751  0.869252  1
  H  H8  1  0.276680  0.013345  0.021487  1
  H  H9  1  0.723320  0.513345  0.478513  1
  H  H10  1  0.831174  0.824075  0.602013  1
  H  H11  1  0.168826  0.324075  0.897987  1
  H  H12  1  0.984168  0.485751  0.630748  1
  H  H13  1  0.037080  0.045984  0.651296  1
  H  H14  1  0.987862  0.821930  0.529500  1
  H  H15  1  0.185973  0.195437  0.725368  1
  H  H16  1  0.814027  0.804563  0.274632  1
  H  H17  1  0.012138  0.178070  0.470500  1
  H  H18  1  0.962920  0.954016  0.348704  1
  H  H19  1  0.015832  0.514249  0.369252  1
  H  H20  1  0.831174  0.675925  0.102013  1
  H  H21  1  0.168826  0.175925  0.397987  1
  H  H22  1  0.276680  0.486655  0.521487  1
  H  H23  1  0.723320  0.986655  0.978513  1
  H  H24  1  0.984168  0.014249  0.130748  1
  H  H25  1  0.037080  0.454016  0.151296  1
  H  H26  1  0.987862  0.678070  0.029500  1
  H  H27  1  0.185973  0.304563  0.225368  1
  S  S28  1  0.493496  0.069841  0.323908  1
  S  S29  1  0.506504  0.569841  0.176092  1
  S  S30  1  0.493496  0.430159  0.823908  1
  S  S31  1  0.506504  0.930159  0.676092  1
  O  O32  1  0.283420  0.960239  0.264906  1
  O  O33  1  0.432871  0.199906  0.397339  1
  O  O34  1  0.969376  0.655901  0.860336  1
  O  O35  1  0.004495  0.338612  0.874042  1
  O  O36  1  0.549079  0.638535  0.324236  1
  O  O37  1  0.450921  0.138535  0.175764  1
  O  O38  1  0.814274  0.454282  0.573669  1
  O  O39  1  0.185726  0.954282  0.926331  1
  O  O40  1  0.995505  0.838612  0.625958  1
  O  O41  1  0.567129  0.699906  0.102661  1
  O  O42  1  0.030624  0.155901  0.639664  1
  O  O43  1  0.716580  0.460239  0.235094  1
  O  O44  1  0.283420  0.539761  0.764906  1
  O  O45  1  0.969376  0.844099  0.360336  1
  O  O46  1  0.432871  0.300094  0.897339  1
  O  O47  1  0.004495  0.161388  0.374042  1
  O  O48  1  0.814274  0.045718  0.073669  1
  O  O49  1  0.185726  0.545718  0.426331  1
  O  O50  1  0.549079  0.861465  0.824236  1
  O  O51  1  0.450921  0.361465  0.675764  1
  O  O52  1  0.995505  0.661388  0.125958  1
  O  O53  1  0.030624  0.344099  0.139664  1
  O  O54  1  0.567129  0.800094  0.602661  1
  O  O55  1  0.716580  0.039761  0.735094  1
