# generated using pymatgen
data_Li5(CoO3)2
_symmetry_space_group_name_H-M   'P 1'
_cell_length_a   5.43945904
_cell_length_b   5.46913624
_cell_length_c   5.56644939
_cell_angle_alpha   118.30844274
_cell_angle_beta   89.94224166
_cell_angle_gamma   90.90779479
_symmetry_Int_Tables_number   1
_chemical_formula_structural   Li5(CoO3)2
_chemical_formula_sum   'Li5 Co2 O6'
_cell_volume   145.77064400
_cell_formula_units_Z   1
loop_
 _symmetry_equiv_pos_site_id
 _symmetry_equiv_pos_as_xyz
  1  'x, y, z'
loop_
 _atom_site_type_symbol
 _atom_site_label
 _atom_site_symmetry_multiplicity
 _atom_site_fract_x
 _atom_site_fract_y
 _atom_site_fract_z
 _atom_site_occupancy
  Li  Li0  1  0.885571  0.491047  0.192365  1
  Li  Li1  1  0.868435  0.986608  0.800978  1
  Li  Li2  1  0.438701  0.266799  0.961160  1
  Li  Li3  1  0.148941  0.998802  0.205178  1
  Li  Li4  1  0.099535  0.502825  0.810690  1
  Co  Co5  1  0.652111  0.329032  0.508709  1
  Co  Co6  1  0.339267  0.689748  0.503365  1
  O  O7  1  0.797233  0.117544  0.197229  1
  O  O8  1  0.768314  0.334918  0.811236  1
  O  O9  1  0.695269  0.675894  0.519663  1
  O  O10  1  0.312402  0.319358  0.499172  1
  O  O11  1  0.219287  0.619409  0.176165  1
  O  O12  1  0.219269  0.932992  0.822498  1
