# generated using pymatgen
data_Sr2Zr7O16
_symmetry_space_group_name_H-M   'P 1'
_cell_length_a   9.79381403
_cell_length_b   9.79381403
_cell_length_c   9.79381403
_cell_angle_alpha   38.73688079
_cell_angle_beta   38.73688079
_cell_angle_gamma   38.73688079
_symmetry_Int_Tables_number   1
_chemical_formula_structural   Sr2Zr7O16
_chemical_formula_sum   'Sr2 Zr7 O16'
_cell_volume   330.63443917
_cell_formula_units_Z   1
loop_
 _symmetry_equiv_pos_site_id
 _symmetry_equiv_pos_as_xyz
  1  'x, y, z'
loop_
 _atom_site_type_symbol
 _atom_site_label
 _atom_site_symmetry_multiplicity
 _atom_site_fract_x
 _atom_site_fract_y
 _atom_site_fract_z
 _atom_site_occupancy
  Sr  Sr0  1  0.333176  0.333176  0.333176  1
  Sr  Sr1  1  0.666824  0.666824  0.666824  1
  Zr  Zr2  1  0.114128  0.487650  0.743578  1
  Zr  Zr3  1  0.512350  0.256422  0.885872  1
  Zr  Zr4  1  0.256422  0.885872  0.512350  1
  Zr  Zr5  1  0.000000  0.000000  0.000000  1
  Zr  Zr6  1  0.743578  0.114128  0.487650  1
  Zr  Zr7  1  0.487650  0.743578  0.114128  1
  Zr  Zr8  1  0.885872  0.512350  0.256422  1
  O  O9  1  0.035029  0.323276  0.768700  1
  O  O10  1  0.155219  0.584667  0.849880  1
  O  O11  1  0.415333  0.150120  0.844781  1
  O  O12  1  0.676724  0.231300  0.964971  1
  O  O13  1  0.231300  0.964971  0.676724  1
  O  O14  1  0.150120  0.844781  0.415333  1
  O  O15  1  0.763411  0.763411  0.763411  1
  O  O16  1  0.572264  0.572264  0.572264  1
  O  O17  1  0.236589  0.236589  0.236589  1
  O  O18  1  0.427736  0.427736  0.427736  1
  O  O19  1  0.849880  0.155219  0.584667  1
  O  O20  1  0.768700  0.035029  0.323276  1
  O  O21  1  0.323276  0.768700  0.035029  1
  O  O22  1  0.584667  0.849880  0.155219  1
  O  O23  1  0.844781  0.415333  0.150120  1
  O  O24  1  0.964971  0.676724  0.231300  1
