# generated using pymatgen
data_Li2Mn3O6
_symmetry_space_group_name_H-M   'P 1'
_cell_length_a   5.18898979
_cell_length_b   5.18898979
_cell_length_c   10.25068968
_cell_angle_alpha   90.00000000
_cell_angle_beta   90.00000000
_cell_angle_gamma   120.09166701
_symmetry_Int_Tables_number   1
_chemical_formula_structural   Li2Mn3O6
_chemical_formula_sum   'Li4 Mn6 O12'
_cell_volume   238.80721915
_cell_formula_units_Z   2
loop_
 _symmetry_equiv_pos_site_id
 _symmetry_equiv_pos_as_xyz
  1  'x, y, z'
loop_
 _atom_site_type_symbol
 _atom_site_label
 _atom_site_symmetry_multiplicity
 _atom_site_fract_x
 _atom_site_fract_y
 _atom_site_fract_z
 _atom_site_occupancy
  Li  Li0  1  0.153297  0.653297  0.750000  1
  Li  Li1  1  0.346703  0.846703  0.250000  1
  Li  Li2  1  0.653297  0.153297  0.750000  1
  Li  Li3  1  0.846703  0.346703  0.250000  1
  Mn  Mn4  1  0.000000  0.000000  0.000000  1
  Mn  Mn5  1  0.500000  0.500000  0.500000  1
  Mn  Mn6  1  0.336425  0.663575  0.000000  1
  Mn  Mn7  1  0.836425  0.163575  0.500000  1
  Mn  Mn8  1  0.163575  0.836425  0.500000  1
  Mn  Mn9  1  0.663575  0.336425  0.000000  1
  O  O10  1  0.173422  0.173422  0.592038  1
  O  O11  1  0.326578  0.326578  0.092038  1
  O  O12  1  0.673422  0.673422  0.907962  1
  O  O13  1  0.977944  0.341909  0.892660  1
  O  O14  1  0.826578  0.826578  0.407962  1
  O  O15  1  0.158091  0.522056  0.392660  1
  O  O16  1  0.477944  0.841909  0.607340  1
  O  O17  1  0.658091  0.022056  0.107340  1
  O  O18  1  0.022056  0.658091  0.107340  1
  O  O19  1  0.341909  0.977944  0.892660  1
  O  O20  1  0.522056  0.158091  0.392660  1
  O  O21  1  0.841909  0.477944  0.607340  1
