# generated using pymatgen
data_DyP5O14
_symmetry_space_group_name_H-M   'P 1'
_cell_length_a   8.76979575
_cell_length_b   8.97147045
_cell_length_c   13.01941441
_cell_angle_alpha   90.00000000
_cell_angle_beta   90.59623369
_cell_angle_gamma   90.00000000
_symmetry_Int_Tables_number   1
_chemical_formula_structural   DyP5O14
_chemical_formula_sum   'Dy4 P20 O56'
_cell_volume   1024.28554866
_cell_formula_units_Z   4
loop_
 _symmetry_equiv_pos_site_id
 _symmetry_equiv_pos_as_xyz
  1  'x, y, z'
loop_
 _atom_site_type_symbol
 _atom_site_label
 _atom_site_symmetry_multiplicity
 _atom_site_fract_x
 _atom_site_fract_y
 _atom_site_fract_z
 _atom_site_occupancy
  Dy  Dy0  1  0.777992  0.813992  0.498419  1
  Dy  Dy1  1  0.777992  0.686008  0.998419  1
  Dy  Dy2  1  0.222008  0.313992  0.001581  1
  Dy  Dy3  1  0.222008  0.186008  0.501581  1
  P  P4  1  0.990701  0.007498  0.296858  1
  P  P5  1  0.990701  0.492502  0.796858  1
  P  P6  1  0.815461  0.256722  0.000234  1
  P  P7  1  0.815461  0.243278  0.500234  1
  P  P8  1  0.745988  0.455085  0.336854  1
  P  P9  1  0.745988  0.044915  0.836854  1
  P  P10  1  0.723740  0.049379  0.161775  1
  P  P11  1  0.723740  0.450621  0.661775  1
  P  P12  1  0.507540  0.502752  0.172693  1
  P  P13  1  0.507540  0.997248  0.672693  1
  P  P14  1  0.492460  0.002752  0.327307  1
  P  P15  1  0.492460  0.497248  0.827307  1
  P  P16  1  0.276260  0.549379  0.338225  1
  P  P17  1  0.276260  0.950621  0.838225  1
  P  P18  1  0.254012  0.955085  0.163146  1
  P  P19  1  0.254012  0.544915  0.663146  1
  P  P20  1  0.184539  0.756722  0.499766  1
  P  P21  1  0.184539  0.743278  0.999766  1
  P  P22  1  0.009299  0.507498  0.203142  1
  P  P23  1  0.009299  0.992502  0.703142  1
  O  O24  1  0.971354  0.189412  0.006824  1
  O  O25  1  0.971354  0.310588  0.506824  1
  O  O26  1  0.913822  0.619860  0.148282  1
  O  O27  1  0.910195  0.884916  0.351099  1
  O  O28  1  0.911842  0.431416  0.294473  1
  O  O29  1  0.913822  0.880140  0.648282  1
  O  O30  1  0.910195  0.615084  0.851099  1
  O  O31  1  0.911842  0.068584  0.794473  1
  O  O32  1  0.869332  0.099533  0.226179  1
  O  O33  1  0.869332  0.400467  0.726179  1
  O  O34  1  0.789121  0.420038  0.001581  1
  O  O35  1  0.789121  0.079962  0.501581  1
  O  O36  1  0.729785  0.900905  0.113137  1
  O  O37  1  0.729785  0.599095  0.613137  1
  O  O38  1  0.722966  0.306666  0.399836  1
  O  O39  1  0.719367  0.595103  0.393818  1
  O  O40  1  0.722966  0.193334  0.899836  1
  O  O41  1  0.719367  0.904897  0.893818  1
  O  O42  1  0.702800  0.185247  0.086350  1
  O  O43  1  0.702800  0.314753  0.586350  1
  O  O44  1  0.637128  0.419467  0.243208  1
  O  O45  1  0.637128  0.080533  0.743208  1
  O  O46  1  0.585825  0.083172  0.234745  1
  O  O47  1  0.587490  0.884723  0.376285  1
  O  O48  1  0.582039  0.622730  0.112112  1
  O  O49  1  0.585825  0.416828  0.734745  1
  O  O50  1  0.587490  0.615277  0.876285  1
  O  O51  1  0.582039  0.877270  0.612112  1
  O  O52  1  0.417961  0.122730  0.387888  1
  O  O53  1  0.412510  0.384723  0.123715  1
  O  O54  1  0.414175  0.583172  0.265255  1
  O  O55  1  0.417961  0.377270  0.887888  1
  O  O56  1  0.412510  0.115277  0.623715  1
  O  O57  1  0.414175  0.916828  0.765255  1
  O  O58  1  0.362872  0.919467  0.256792  1
  O  O59  1  0.362872  0.580533  0.756792  1
  O  O60  1  0.297200  0.685247  0.413650  1
  O  O61  1  0.297200  0.814753  0.913650  1
  O  O62  1  0.280633  0.095103  0.106182  1
  O  O63  1  0.277034  0.806666  0.100164  1
  O  O64  1  0.280633  0.404897  0.606182  1
  O  O65  1  0.277034  0.693334  0.600164  1
  O  O66  1  0.270215  0.400905  0.386863  1
  O  O67  1  0.270215  0.099095  0.886863  1
  O  O68  1  0.210879  0.920038  0.498419  1
  O  O69  1  0.210879  0.579962  0.998419  1
  O  O70  1  0.130668  0.599533  0.273821  1
  O  O71  1  0.130668  0.900467  0.773821  1
  O  O72  1  0.088158  0.931416  0.205527  1
  O  O73  1  0.089805  0.384916  0.148901  1
  O  O74  1  0.086178  0.119860  0.351718  1
  O  O75  1  0.088158  0.568584  0.705527  1
  O  O76  1  0.089805  0.115084  0.648901  1
  O  O77  1  0.086178  0.380140  0.851718  1
  O  O78  1  0.028646  0.689412  0.493176  1
  O  O79  1  0.028646  0.810588  0.993176  1
