# generated using pymatgen
data_Li4Cr3GaO8
_symmetry_space_group_name_H-M   'P 1'
_cell_length_a   5.13872603
_cell_length_b   5.92839410
_cell_length_c   10.26889366
_cell_angle_alpha   90.00376632
_cell_angle_beta   99.59057196
_cell_angle_gamma   106.77944469
_symmetry_Int_Tables_number   1
_chemical_formula_structural   Li4Cr3GaO8
_chemical_formula_sum   'Li8 Cr6 Ga2 O16'
_cell_volume   294.94525738
_cell_formula_units_Z   2
loop_
 _symmetry_equiv_pos_site_id
 _symmetry_equiv_pos_as_xyz
  1  'x, y, z'
loop_
 _atom_site_type_symbol
 _atom_site_label
 _atom_site_symmetry_multiplicity
 _atom_site_fract_x
 _atom_site_fract_y
 _atom_site_fract_z
 _atom_site_occupancy
  Li  Li0  1  0.000030  0.750152  0.749863  1
  Li  Li1  1  0.000470  0.750242  0.249965  1
  Li  Li2  1  0.000000  0.500000  0.500000  1
  Li  Li3  1  0.000000  0.500000  0.000000  1
  Li  Li4  1  0.999530  0.249758  0.750035  1
  Li  Li5  1  0.999970  0.249848  0.250137  1
  Li  Li6  1  0.000000  0.000000  0.500000  1
  Li  Li7  1  0.000000  0.000000  0.000000  1
  Cr  Cr8  1  0.499983  0.624818  0.374824  1
  Cr  Cr9  1  0.500017  0.375182  0.625176  1
  Cr  Cr10  1  0.500060  0.125143  0.374829  1
  Cr  Cr11  1  0.500199  0.125213  0.875224  1
  Cr  Cr12  1  0.499940  0.874857  0.625171  1
  Cr  Cr13  1  0.499801  0.874787  0.124776  1
  Ga  Ga14  1  0.499994  0.624821  0.875105  1
  Ga  Ga15  1  0.500006  0.375179  0.124895  1
  O  O16  1  0.273814  0.568417  0.689693  1
  O  O17  1  0.274208  0.568179  0.189343  1
  O  O18  1  0.724876  0.681479  0.560380  1
  O  O19  1  0.726330  0.680827  0.060332  1
  O  O20  1  0.275124  0.318521  0.439620  1
  O  O21  1  0.726186  0.431583  0.310307  1
  O  O22  1  0.273670  0.319173  0.939668  1
  O  O23  1  0.725792  0.431821  0.810657  1
  O  O24  1  0.275352  0.068798  0.689771  1
  O  O25  1  0.724694  0.181103  0.560298  1
  O  O26  1  0.274448  0.068901  0.189371  1
  O  O27  1  0.725592  0.181579  0.060661  1
  O  O28  1  0.275306  0.818897  0.439702  1
  O  O29  1  0.724648  0.931202  0.310229  1
  O  O30  1  0.274408  0.818421  0.939339  1
  O  O31  1  0.725552  0.931099  0.810629  1
