# generated using pymatgen
data_Li3Mn3O5F3
_symmetry_space_group_name_H-M   'P 1'
_cell_length_a   5.81840266
_cell_length_b   5.90587436
_cell_length_c   5.98802913
_cell_angle_alpha   60.61187581
_cell_angle_beta   60.92933079
_cell_angle_gamma   62.89384272
_symmetry_Int_Tables_number   1
_chemical_formula_structural   Li3Mn3O5F3
_chemical_formula_sum   'Li3 Mn3 O5 F3'
_cell_volume   150.19138112
_cell_formula_units_Z   1
loop_
 _symmetry_equiv_pos_site_id
 _symmetry_equiv_pos_as_xyz
  1  'x, y, z'
loop_
 _atom_site_type_symbol
 _atom_site_label
 _atom_site_symmetry_multiplicity
 _atom_site_fract_x
 _atom_site_fract_y
 _atom_site_fract_z
 _atom_site_occupancy
  Li  Li0  1  0.990673  0.022665  0.004462  1
  Li  Li1  1  0.758830  0.619657  0.129174  1
  Li  Li2  1  0.504005  0.230712  0.251947  1
  Mn  Mn3  1  0.250077  0.130077  0.618474  1
  Mn  Mn4  1  0.249970  0.613668  0.611890  1
  Mn  Mn5  1  0.750328  0.625413  0.624795  1
  O  O6  1  0.241914  0.386723  0.403134  1
  O  O7  1  0.697697  0.423910  0.835871  1
  O  O8  1  0.281004  0.872518  0.422639  1
  O  O9  1  0.219553  0.376663  0.822810  1
  O  O10  1  0.801908  0.828624  0.415350  1
  F  F11  1  0.741554  0.380784  0.359063  1
  F  F12  1  0.756066  0.867626  0.894044  1
  F  F13  1  0.256423  0.870960  0.856348  1
