# generated using pymatgen
data_LiLa4MnO8
_symmetry_space_group_name_H-M   'P 1'
_cell_length_a   13.44993952
_cell_length_b   13.44993952
_cell_length_c   13.44993952
_cell_angle_alpha   156.72530864
_cell_angle_beta   156.72530864
_cell_angle_gamma   33.14998013
_symmetry_Int_Tables_number   1
_chemical_formula_structural   LiLa4MnO8
_chemical_formula_sum   'Li2 La8 Mn2 O16'
_cell_volume   379.55215709
_cell_formula_units_Z   2
loop_
 _symmetry_equiv_pos_site_id
 _symmetry_equiv_pos_as_xyz
  1  'x, y, z'
loop_
 _atom_site_type_symbol
 _atom_site_label
 _atom_site_symmetry_multiplicity
 _atom_site_fract_x
 _atom_site_fract_y
 _atom_site_fract_z
 _atom_site_occupancy
  Li  Li0  1  0.500000  0.500000  0.000000  1
  Li  Li1  1  0.250000  0.750000  0.500000  1
  La  La2  1  0.680338  0.680338  0.000000  1
  La  La3  1  0.319662  0.319662  0.000000  1
  La  La4  1  0.430338  0.930338  0.500000  1
  La  La5  1  0.568201  0.068201  0.500000  1
  La  La6  1  0.069662  0.569662  0.500000  1
  La  La7  1  0.931799  0.431799  0.500000  1
  La  La8  1  0.818201  0.818201  0.000000  1
  La  La9  1  0.181799  0.181799  0.000000  1
  Mn  Mn10  1  0.750000  0.250000  0.500000  1
  Mn  Mn11  1  0.000000  0.000000  0.000000  1
  O  O12  1  0.247273  0.247273  0.494545  1
  O  O13  1  0.590976  0.590976  0.000000  1
  O  O14  1  0.997273  0.497273  0.994545  1
  O  O15  1  0.247273  0.752727  0.000000  1
  O  O16  1  0.752727  0.247273  1.000000  1
  O  O17  1  0.409024  0.409024  0.000000  1
  O  O18  1  0.159024  0.659024  0.500000  1
  O  O19  1  0.502727  0.497273  0.500000  1
  O  O20  1  0.340976  0.840976  0.500000  1
  O  O21  1  0.752727  0.752727  0.505455  1
  O  O22  1  0.840400  0.340400  0.500000  1
  O  O23  1  0.659600  0.159600  0.500000  1
  O  O24  1  0.997273  0.002727  0.500000  1
  O  O25  1  0.909600  0.909600  0.000000  1
  O  O26  1  0.502727  0.002727  0.005455  1
  O  O27  1  0.090400  0.090400  0.000000  1
