# generated using pymatgen
data_Li3Mn(OF)2
_symmetry_space_group_name_H-M   'P 1'
_cell_length_a   5.06222038
_cell_length_b   6.00858139
_cell_length_c   5.06958812
_cell_angle_alpha   90.00000000
_cell_angle_beta   106.77535791
_cell_angle_gamma   90.00000000
_symmetry_Int_Tables_number   1
_chemical_formula_structural   Li3Mn(OF)2
_chemical_formula_sum   'Li6 Mn2 O4 F4'
_cell_volume   147.63826283
_cell_formula_units_Z   2
loop_
 _symmetry_equiv_pos_site_id
 _symmetry_equiv_pos_as_xyz
  1  'x, y, z'
loop_
 _atom_site_type_symbol
 _atom_site_label
 _atom_site_symmetry_multiplicity
 _atom_site_fract_x
 _atom_site_fract_y
 _atom_site_fract_z
 _atom_site_occupancy
  Li  Li0  1  0.250000  0.111748  0.500000  1
  Li  Li1  1  0.250000  0.639782  0.500000  1
  Li  Li2  1  0.250000  0.369523  0.000000  1
  Li  Li3  1  0.750000  0.360218  0.500000  1
  Li  Li4  1  0.750000  0.888252  0.500000  1
  Li  Li5  1  0.750000  0.630477  0.000000  1
  Mn  Mn6  1  0.250000  0.889303  0.000000  1
  Mn  Mn7  1  0.750000  0.110697  0.000000  1
  O  O8  1  0.014918  0.880903  0.234148  1
  O  O9  1  0.485082  0.880903  0.765852  1
  O  O10  1  0.514918  0.119097  0.234148  1
  O  O11  1  0.985082  0.119097  0.765852  1
  F  F12  1  0.004977  0.618801  0.751488  1
  F  F13  1  0.504977  0.381199  0.751488  1
  F  F14  1  0.495023  0.618801  0.248512  1
  F  F15  1  0.995023  0.381199  0.248512  1
