# generated using pymatgen
data_YBr3
_symmetry_space_group_name_H-M   'P 1'
_cell_length_a   7.25579890
_cell_length_b   7.25579890
_cell_length_c   7.29921521
_cell_angle_alpha   80.11525226
_cell_angle_beta   99.88474774
_cell_angle_gamma   60.23895759
_symmetry_Int_Tables_number   1
_chemical_formula_structural   YBr3
_chemical_formula_sum   'Y2 Br6'
_cell_volume   313.46608325
_cell_formula_units_Z   2
loop_
 _symmetry_equiv_pos_site_id
 _symmetry_equiv_pos_as_xyz
  1  'x, y, z'
loop_
 _atom_site_type_symbol
 _atom_site_label
 _atom_site_symmetry_multiplicity
 _atom_site_fract_x
 _atom_site_fract_y
 _atom_site_fract_z
 _atom_site_occupancy
  Y  Y0  1  0.833218  0.833218  0.000000  1
  Y  Y1  1  0.166782  0.166782  0.000000  1
  Br  Br2  1  0.941390  0.420016  0.232359  1
  Br  Br3  1  0.579984  0.058610  0.232359  1
  Br  Br4  1  0.789281  0.210719  0.760755  1
  Br  Br5  1  0.210719  0.789281  0.239245  1
  Br  Br6  1  0.420016  0.941390  0.767641  1
  Br  Br7  1  0.058610  0.579984  0.767641  1
