# generated using pymatgen
data_Cr4OF11
_symmetry_space_group_name_H-M   'P 1'
_cell_length_a   5.07715250
_cell_length_b   5.33143005
_cell_length_c   7.41288039
_cell_angle_alpha   93.72159945
_cell_angle_beta   90.04513582
_cell_angle_gamma   90.83213681
_symmetry_Int_Tables_number   1
_chemical_formula_structural   Cr4OF11
_chemical_formula_sum   'Cr4 O1 F11'
_cell_volume   200.21087350
_cell_formula_units_Z   1
loop_
 _symmetry_equiv_pos_site_id
 _symmetry_equiv_pos_as_xyz
  1  'x, y, z'
loop_
 _atom_site_type_symbol
 _atom_site_label
 _atom_site_symmetry_multiplicity
 _atom_site_fract_x
 _atom_site_fract_y
 _atom_site_fract_z
 _atom_site_occupancy
  Cr  Cr0  1  0.500568  0.500048  0.499245  1
  Cr  Cr1  1  0.487883  0.488781  0.000742  1
  Cr  Cr2  1  0.000159  0.999998  0.499155  1
  Cr  Cr3  1  0.011228  0.011783  0.001144  1
  O  O4  1  0.191660  0.307780  0.059900  1
  F  F5  1  0.120700  0.999715  0.749340  1
  F  F6  1  0.190450  0.690449  0.441237  1
  F  F7  1  0.312012  0.188501  0.436395  1
  F  F8  1  0.308474  0.806612  0.057328  1
  F  F9  1  0.381554  0.498138  0.749363  1
  F  F10  1  0.617253  0.500790  0.249070  1
  F  F11  1  0.693305  0.190144  0.939771  1
  F  F12  1  0.688365  0.811828  0.561594  1
  F  F13  1  0.810003  0.309324  0.558326  1
  F  F14  1  0.802365  0.697304  0.948140  1
  F  F15  1  0.884022  0.998806  0.249252  1
