# generated using pymatgen
data_Li2MnFe(BO3)2
_symmetry_space_group_name_H-M   'P 1'
_cell_length_a   5.21556730
_cell_length_b   5.23788580
_cell_length_c   10.48582523
_cell_angle_alpha   90.87045933
_cell_angle_beta   90.99526976
_cell_angle_gamma   119.74948367
_symmetry_Int_Tables_number   1
_chemical_formula_structural   Li2MnFe(BO3)2
_chemical_formula_sum   'Li4 Mn2 Fe2 B4 O12'
_cell_volume   248.57225641
_cell_formula_units_Z   2
loop_
 _symmetry_equiv_pos_site_id
 _symmetry_equiv_pos_as_xyz
  1  'x, y, z'
loop_
 _atom_site_type_symbol
 _atom_site_label
 _atom_site_symmetry_multiplicity
 _atom_site_fract_x
 _atom_site_fract_y
 _atom_site_fract_z
 _atom_site_occupancy
  Li  Li0  1  0.677369  0.652059  0.666539  1
  Li  Li1  1  0.652432  0.675158  0.169436  1
  Li  Li2  1  0.352609  0.341810  0.416863  1
  Li  Li3  1  0.336003  0.345197  0.917285  1
  Mn  Mn4  1  0.668331  0.003884  0.885428  1
  Mn  Mn5  1  0.001678  0.326933  0.632196  1
  Fe  Fe6  1  0.315597  0.001752  0.132732  1
  Fe  Fe7  1  0.018326  0.674530  0.379460  1
  B  B8  1  0.995889  0.336624  0.128158  1
  B  B9  1  0.668731  0.005806  0.374000  1
  B  B10  1  0.340085  0.997911  0.624196  1
  B  B11  1  0.001724  0.665204  0.877663  1
  O  O12  1  0.929215  0.256661  0.414531  1
  O  O13  1  0.740666  0.067833  0.099482  1
  O  O14  1  0.976253  0.581758  0.165701  1
  O  O15  1  0.417108  0.030511  0.345021  1
  O  O16  1  0.726955  0.640754  0.861511  1
  O  O17  1  0.653512  0.736417  0.360742  1
  O  O18  1  0.369840  0.273402  0.609615  1
  O  O19  1  0.270785  0.358654  0.114625  1
  O  O20  1  0.578627  0.968151  0.667052  1
  O  O21  1  0.036440  0.422811  0.846931  1
  O  O22  1  0.243875  0.928927  0.921073  1
  O  O23  1  0.068549  0.747852  0.593562  1
