# generated using pymatgen
data_Li3Mn4FeO8
_symmetry_space_group_name_H-M   'P 1'
_cell_length_a   6.20024186
_cell_length_b   6.20024186
_cell_length_c   5.98844323
_cell_angle_alpha   61.15869415
_cell_angle_beta   118.84130585
_cell_angle_gamma   122.30327092
_symmetry_Int_Tables_number   1
_chemical_formula_structural   Li3Mn4FeO8
_chemical_formula_sum   'Li3 Mn4 Fe1 O8'
_cell_volume   162.41576280
_cell_formula_units_Z   1
loop_
 _symmetry_equiv_pos_site_id
 _symmetry_equiv_pos_as_xyz
  1  'x, y, z'
loop_
 _atom_site_type_symbol
 _atom_site_label
 _atom_site_symmetry_multiplicity
 _atom_site_fract_x
 _atom_site_fract_y
 _atom_site_fract_z
 _atom_site_occupancy
  Li  Li0  1  0.500000  0.000000  0.500000  1
  Li  Li1  1  0.000000  0.000000  0.500000  1
  Li  Li2  1  0.000000  0.500000  0.500000  1
  Mn  Mn3  1  0.500000  0.500000  0.500000  1
  Mn  Mn4  1  0.000000  0.000000  0.000000  1
  Mn  Mn5  1  0.500000  0.000000  0.000000  1
  Mn  Mn6  1  0.000000  0.500000  0.000000  1
  Fe  Fe7  1  0.500000  0.500000  0.000000  1
  O  O8  1  0.271324  0.728676  0.790814  1
  O  O9  1  0.738003  0.746060  0.752801  1
  O  O10  1  0.253940  0.261997  0.752801  1
  O  O11  1  0.752068  0.247932  0.770910  1
  O  O12  1  0.247932  0.752068  0.229090  1
  O  O13  1  0.746060  0.738003  0.247199  1
  O  O14  1  0.261997  0.253940  0.247199  1
  O  O15  1  0.728676  0.271324  0.209186  1
