# generated using pymatgen
data_Co5SbO12
_symmetry_space_group_name_H-M   'P 1'
_cell_length_a   5.00975005
_cell_length_b   5.00975005
_cell_length_c   9.61888697
_cell_angle_alpha   89.96660840
_cell_angle_beta   90.03339160
_cell_angle_gamma   59.99068343
_symmetry_Int_Tables_number   1
_chemical_formula_structural   Co5SbO12
_chemical_formula_sum   'Co5 Sb1 O12'
_cell_volume   209.04823040
_cell_formula_units_Z   1
loop_
 _symmetry_equiv_pos_site_id
 _symmetry_equiv_pos_as_xyz
  1  'x, y, z'
loop_
 _atom_site_type_symbol
 _atom_site_label
 _atom_site_symmetry_multiplicity
 _atom_site_fract_x
 _atom_site_fract_y
 _atom_site_fract_z
 _atom_site_occupancy
  Co  Co0  1  0.166650  0.166650  0.500000  1
  Co  Co1  1  0.666655  0.666655  0.000000  1
  Co  Co2  1  0.333345  0.333345  0.000000  1
  Co  Co3  1  0.833350  0.833350  0.500000  1
  Co  Co4  1  0.500000  0.500000  0.500000  1
  Sb  Sb5  1  0.000000  0.000000  0.000000  1
  O  O6  1  0.349667  0.000273  0.898260  1
  O  O7  1  0.000273  0.349667  0.101740  1
  O  O8  1  0.500522  0.166680  0.594587  1
  O  O9  1  0.833320  0.499478  0.594587  1
  O  O10  1  0.166680  0.500522  0.405413  1
  O  O11  1  0.833911  0.166089  0.404898  1
  O  O12  1  0.499478  0.833320  0.405413  1
  O  O13  1  0.999727  0.650333  0.898260  1
  O  O14  1  0.649736  0.350264  0.898155  1
  O  O15  1  0.650333  0.999727  0.101740  1
  O  O16  1  0.350264  0.649736  0.101845  1
  O  O17  1  0.166089  0.833911  0.595102  1
