# generated using pymatgen
data_KCd6H4C12ClO26
_symmetry_space_group_name_H-M   'P 1'
_cell_length_a   9.36086458
_cell_length_b   9.41424786
_cell_length_c   10.38050351
_cell_angle_alpha   63.41929979
_cell_angle_beta   63.75113426
_cell_angle_gamma   60.68003467
_symmetry_Int_Tables_number   1
_chemical_formula_structural   KCd6H4C12ClO26
_chemical_formula_sum   'K1 Cd6 H4 C12 Cl1 O26'
_cell_volume   683.46329701
_cell_formula_units_Z   1
loop_
 _symmetry_equiv_pos_site_id
 _symmetry_equiv_pos_as_xyz
  1  'x, y, z'
loop_
 _atom_site_type_symbol
 _atom_site_label
 _atom_site_symmetry_multiplicity
 _atom_site_fract_x
 _atom_site_fract_y
 _atom_site_fract_z
 _atom_site_occupancy
  K  K0  1  0.993939  0.001552  0.000300  1
  Cd  Cd1  1  0.276389  0.787144  0.271408  1
  Cd  Cd2  1  0.800680  0.631022  0.270093  1
  Cd  Cd3  1  0.642219  0.293475  0.275171  1
  Cd  Cd4  1  0.349292  0.716833  0.731363  1
  Cd  Cd5  1  0.213153  0.345916  0.720972  1
  Cd  Cd6  1  0.696908  0.208242  0.727934  1
  H  H7  1  0.858837  0.932902  0.302031  1
  H  H8  1  0.945441  0.864552  0.299247  1
  H  H9  1  0.142076  0.104934  0.701556  1
  H  H10  1  0.061577  0.109036  0.699153  1
  C  C11  1  0.572735  0.950405  0.045838  1
  C  C12  1  0.424737  0.572653  0.040509  1
  C  C13  1  0.559497  0.955749  0.435396  1
  C  C14  1  0.977227  0.423546  0.025736  1
  C  C15  1  0.036859  0.954749  0.570094  1
  C  C16  1  0.049696  0.555735  0.432493  1
  C  C17  1  0.942519  0.447886  0.563127  1
  C  C18  1  0.955667  0.053195  0.437165  1
  C  C19  1  0.045860  0.572962  0.953408  1
  C  C20  1  0.444959  0.044198  0.561866  1
  C  C21  1  0.564327  0.429634  0.964036  1
  C  C22  1  0.428308  0.022734  0.971192  1
  Cl  Cl23  1  0.455223  0.564036  0.498129  1
  O  O24  1  0.455789  0.402430  0.638141  1
  O  O25  1  0.304694  0.971461  0.038850  1
  O  O26  1  0.987118  0.678943  0.022755  1
  O  O27  1  0.052286  0.036629  0.309062  1
  O  O28  1  0.558940  0.834779  0.172793  1
  O  O29  1  0.430985  0.554749  0.168173  1
  O  O30  1  0.035581  0.610198  0.301854  1
  O  O31  1  0.195010  0.862169  0.539367  1
  O  O32  1  0.672708  0.309533  0.030288  1
  O  O33  1  0.865613  0.420431  0.153330  1
  O  O34  1  0.589309  0.798291  0.471493  1
  O  O35  1  0.390448  0.954237  0.692989  1
  O  O36  1  0.144240  0.587278  0.466898  1
  O  O37  1  0.845660  0.418116  0.530312  1
  O  O38  1  0.615989  0.046725  0.305531  1
  O  O39  1  0.409764  0.203431  0.525258  1
  O  O40  1  0.160944  0.573184  0.826358  1
  O  O41  1  0.317384  0.694379  0.974620  1
  O  O42  1  0.796846  0.143768  0.467600  1
  O  O43  1  0.959179  0.397908  0.691991  1
  O  O44  1  0.556566  0.445887  0.837739  1
  O  O45  1  0.445335  0.131951  0.842289  1
  O  O46  1  0.943885  0.974032  0.698418  1
  O  O47  1  0.034033  0.316634  0.957238  1
  O  O48  1  0.691532  0.007723  0.976973  1
  O  O49  1  0.603038  0.507043  0.361462  1
