# generated using pymatgen
data_Li3Mn3(PO4)4
_symmetry_space_group_name_H-M   'P 1'
_cell_length_a   5.01021804
_cell_length_b   6.70587588
_cell_length_c   9.90291531
_cell_angle_alpha   101.80779915
_cell_angle_beta   87.36789752
_cell_angle_gamma   105.84710367
_symmetry_Int_Tables_number   1
_chemical_formula_structural   Li3Mn3(PO4)4
_chemical_formula_sum   'Li3 Mn3 P4 O16'
_cell_volume   313.28147601
_cell_formula_units_Z   1
loop_
 _symmetry_equiv_pos_site_id
 _symmetry_equiv_pos_as_xyz
  1  'x, y, z'
loop_
 _atom_site_type_symbol
 _atom_site_label
 _atom_site_symmetry_multiplicity
 _atom_site_fract_x
 _atom_site_fract_y
 _atom_site_fract_z
 _atom_site_occupancy
  Li  Li0  1  0.000000  0.000000  0.000000  1
  Li  Li1  1  0.003749  0.208110  0.527869  1
  Li  Li2  1  0.996251  0.791890  0.472131  1
  Mn  Mn3  1  0.989197  0.434550  0.842583  1
  Mn  Mn4  1  0.500000  0.500000  0.000000  1
  Mn  Mn5  1  0.010803  0.565450  0.157417  1
  P  P6  1  0.456971  0.316014  0.274165  1
  P  P7  1  0.418257  0.098008  0.732832  1
  P  P8  1  0.581743  0.901992  0.267168  1
  P  P9  1  0.543029  0.683986  0.725835  1
  O  O10  1  0.714111  0.237405  0.709065  1
  O  O11  1  0.746892  0.477563  0.297636  1
  O  O12  1  0.782681  0.364200  0.006102  1
  O  O13  1  0.733100  0.796643  0.141416  1
  O  O14  1  0.701179  0.650934  0.851602  1
  O  O15  1  0.522275  0.092334  0.205102  1
  O  O16  1  0.716197  0.693900  0.601561  1
  O  O17  1  0.756547  0.977843  0.395740  1
  O  O18  1  0.243453  0.022157  0.604260  1
  O  O19  1  0.283803  0.306100  0.398439  1
  O  O20  1  0.477725  0.907666  0.794898  1
  O  O21  1  0.298821  0.349066  0.148398  1
  O  O22  1  0.266900  0.203357  0.858584  1
  O  O23  1  0.217319  0.635800  0.993898  1
  O  O24  1  0.253108  0.522437  0.702364  1
  O  O25  1  0.285889  0.762595  0.290935  1
