# generated using pymatgen
data_NbRhO4
_symmetry_space_group_name_H-M   'P 1'
_cell_length_a   5.69074603
_cell_length_b   5.69074603
_cell_length_c   5.69074603
_cell_angle_alpha   106.48286477
_cell_angle_beta   106.48286477
_cell_angle_gamma   115.62904354
_symmetry_Int_Tables_number   1
_chemical_formula_structural   NbRhO4
_chemical_formula_sum   'Nb2 Rh2 O8'
_cell_volume   140.62637198
_cell_formula_units_Z   2
loop_
 _symmetry_equiv_pos_site_id
 _symmetry_equiv_pos_as_xyz
  1  'x, y, z'
loop_
 _atom_site_type_symbol
 _atom_site_label
 _atom_site_symmetry_multiplicity
 _atom_site_fract_x
 _atom_site_fract_y
 _atom_site_fract_z
 _atom_site_occupancy
  Nb  Nb0  1  0.765453  0.265453  0.500000  1
  Nb  Nb1  1  0.515453  0.515453  0.000000  1
  Rh  Rh2  1  0.247528  0.747528  0.500000  1
  Rh  Rh3  1  0.997528  0.997528  0.000000  1
  O  O4  1  0.061201  0.255602  0.805599  1
  O  O5  1  0.532111  0.737907  0.794203  1
  O  O6  1  0.505602  0.200004  0.694401  1
  O  O7  1  0.987907  0.693704  0.705797  1
  O  O8  1  0.987907  0.282111  0.294203  1
  O  O9  1  0.505602  0.811201  0.305599  1
  O  O10  1  0.450004  0.255602  0.194401  1
  O  O11  1  0.943704  0.737907  0.205797  1
