# generated using pymatgen
data_Li3V3(BO5)2
_symmetry_space_group_name_H-M   'P 1'
_cell_length_a   3.06455631
_cell_length_b   9.11794735
_cell_length_c   12.39028247
_cell_angle_alpha   90.00000000
_cell_angle_beta   90.00000000
_cell_angle_gamma   90.00000000
_symmetry_Int_Tables_number   1
_chemical_formula_structural   Li3V3(BO5)2
_chemical_formula_sum   'Li6 V6 B4 O20'
_cell_volume   346.21501028
_cell_formula_units_Z   2
loop_
 _symmetry_equiv_pos_site_id
 _symmetry_equiv_pos_as_xyz
  1  'x, y, z'
loop_
 _atom_site_type_symbol
 _atom_site_label
 _atom_site_symmetry_multiplicity
 _atom_site_fract_x
 _atom_site_fract_y
 _atom_site_fract_z
 _atom_site_occupancy
  Li  Li0  1  0.500000  0.735022  0.000175  1
  Li  Li1  1  0.000000  0.743189  0.497665  1
  Li  Li2  1  0.500000  0.264978  0.500175  1
  Li  Li3  1  0.000000  0.256811  0.997665  1
  Li  Li4  1  0.000000  0.484382  0.394644  1
  Li  Li5  1  0.000000  0.515618  0.894644  1
  V  V6  1  0.500000  0.740221  0.291223  1
  V  V7  1  0.000000  0.986753  0.111297  1
  V  V8  1  0.000000  0.013247  0.611297  1
  V  V9  1  0.500000  0.259779  0.791223  1
  V  V10  1  0.500000  0.260201  0.219095  1
  V  V11  1  0.500000  0.739799  0.719095  1
  B  B12  1  0.000000  0.972806  0.861238  1
  B  B13  1  0.000000  0.027194  0.361238  1
  B  B14  1  0.000000  0.467026  0.635567  1
  B  B15  1  0.000000  0.532974  0.135567  1
  O  O16  1  0.500000  0.858290  0.157670  1
  O  O17  1  0.500000  0.867305  0.585366  1
  O  O18  1  0.000000  0.873982  0.348476  1
  O  O19  1  0.000000  0.891229  0.761875  1
  O  O20  1  0.000000  0.904987  0.956544  1
  O  O21  1  0.000000  0.095013  0.456544  1
  O  O22  1  0.000000  0.108771  0.261875  1
  O  O23  1  0.000000  0.126018  0.848476  1
  O  O24  1  0.500000  0.132695  0.085366  1
  O  O25  1  0.500000  0.141710  0.657670  1
  O  O26  1  0.500000  0.342691  0.341270  1
  O  O27  1  0.500000  0.352405  0.913666  1
  O  O28  1  0.000000  0.375230  0.149952  1
  O  O29  1  0.000000  0.385847  0.733977  1
  O  O30  1  0.000000  0.404519  0.540247  1
  O  O31  1  0.000000  0.595481  0.040247  1
  O  O32  1  0.000000  0.614153  0.233977  1
  O  O33  1  0.000000  0.624770  0.649952  1
  O  O34  1  0.500000  0.647595  0.413666  1
  O  O35  1  0.500000  0.657309  0.841270  1
