# generated using pymatgen
data_Li4Fe2Ni3Te3O16
_symmetry_space_group_name_H-M   'P 1'
_cell_length_a   6.11584817
_cell_length_b   6.15008974
_cell_length_c   9.72599147
_cell_angle_alpha   89.70959451
_cell_angle_beta   90.88658464
_cell_angle_gamma   119.01026100
_symmetry_Int_Tables_number   1
_chemical_formula_structural   Li4Fe2Ni3Te3O16
_chemical_formula_sum   'Li4 Fe2 Ni3 Te3 O16'
_cell_volume   319.88545258
_cell_formula_units_Z   1
loop_
 _symmetry_equiv_pos_site_id
 _symmetry_equiv_pos_as_xyz
  1  'x, y, z'
loop_
 _atom_site_type_symbol
 _atom_site_label
 _atom_site_symmetry_multiplicity
 _atom_site_fract_x
 _atom_site_fract_y
 _atom_site_fract_z
 _atom_site_occupancy
  Li  Li0  1  0.337329  0.666719  0.123916  1
  Li  Li1  1  0.020281  0.980892  0.012764  1
  Li  Li2  1  0.004942  0.981694  0.492692  1
  Li  Li3  1  0.686450  0.334543  0.595953  1
  Fe  Fe4  1  0.316844  0.681767  0.491437  1
  Fe  Fe5  1  0.626579  0.337731  0.028821  1
  Ni  Ni6  1  0.176117  0.836381  0.785672  1
  Ni  Ni7  1  0.825271  0.663440  0.284561  1
  Ni  Ni8  1  0.335632  0.174251  0.287409  1
  Te  Te9  1  0.664394  0.829227  0.784073  1
  Te  Te10  1  0.167765  0.340413  0.782657  1
  Te  Te11  1  0.826380  0.172928  0.285678  1
  O  O12  1  0.674668  0.864081  0.400806  1
  O  O13  1  0.512939  0.536587  0.659381  1
  O  O14  1  0.362741  0.687530  0.899294  1
  O  O15  1  0.975790  0.975016  0.679688  1
  O  O16  1  0.986162  0.011007  0.193243  1
  O  O17  1  0.139019  0.324206  0.403611  1
  O  O18  1  0.501158  0.963752  0.664559  1
  O  O19  1  0.048537  0.527526  0.653616  1
  O  O20  1  0.818644  0.130830  0.898436  1
  O  O21  1  0.167094  0.838860  0.398389  1
  O  O22  1  0.955835  0.459830  0.157853  1
  O  O23  1  0.529956  0.037201  0.163326  1
  O  O24  1  0.677058  0.329454  0.394410  1
  O  O25  1  0.822872  0.679218  0.897970  1
  O  O26  1  0.511020  0.483140  0.160829  1
  O  O27  1  0.328822  0.152074  0.911115  1
