# generated using pymatgen
data_LiCuCSO7
_symmetry_space_group_name_H-M   'P 1'
_cell_length_a   5.16277037
_cell_length_b   6.20733467
_cell_length_c   8.91677969
_cell_angle_alpha   90.00000000
_cell_angle_beta   93.40759436
_cell_angle_gamma   90.00000000
_symmetry_Int_Tables_number   1
_chemical_formula_structural   LiCuCSO7
_chemical_formula_sum   'Li2 Cu2 C2 S2 O14'
_cell_volume   285.25119752
_cell_formula_units_Z   2
loop_
 _symmetry_equiv_pos_site_id
 _symmetry_equiv_pos_as_xyz
  1  'x, y, z'
loop_
 _atom_site_type_symbol
 _atom_site_label
 _atom_site_symmetry_multiplicity
 _atom_site_fract_x
 _atom_site_fract_y
 _atom_site_fract_z
 _atom_site_occupancy
  Li  Li0  1  0.767751  0.501623  0.212044  1
  Li  Li1  1  0.232249  0.001623  0.787956  1
  Cu  Cu2  1  0.226318  0.245870  0.349861  1
  Cu  Cu3  1  0.773682  0.745870  0.650139  1
  C  C4  1  0.273725  0.256435  0.071367  1
  C  C5  1  0.726275  0.756435  0.928633  1
  S  S6  1  0.278464  0.748652  0.425952  1
  S  S7  1  0.721536  0.248652  0.574048  1
  O  O8  1  0.702203  0.728684  0.066307  1
  O  O9  1  0.050295  0.262123  0.132006  1
  O  O10  1  0.473271  0.275997  0.168363  1
  O  O11  1  0.208282  0.934078  0.326065  1
  O  O12  1  0.171930  0.559938  0.337179  1
  O  O13  1  0.835869  0.262432  0.426583  1
  O  O14  1  0.566996  0.726319  0.448261  1
  O  O15  1  0.433004  0.226319  0.551739  1
  O  O16  1  0.164131  0.762432  0.573417  1
  O  O17  1  0.828070  0.059938  0.662821  1
  O  O18  1  0.791718  0.434078  0.673935  1
  O  O19  1  0.526729  0.775997  0.831637  1
  O  O20  1  0.949705  0.762123  0.867994  1
  O  O21  1  0.297797  0.228684  0.933693  1
