# generated using pymatgen
data_La2MgI8
_symmetry_space_group_name_H-M   'P 1'
_cell_length_a   9.46298138
_cell_length_b   9.46298138
_cell_length_c   13.54212811
_cell_angle_alpha   69.02008432
_cell_angle_beta   110.97991568
_cell_angle_gamma   118.43047740
_symmetry_Int_Tables_number   1
_chemical_formula_structural   La2MgI8
_chemical_formula_sum   'La4 Mg2 I16'
_cell_volume   969.38864270
_cell_formula_units_Z   2
loop_
 _symmetry_equiv_pos_site_id
 _symmetry_equiv_pos_as_xyz
  1  'x, y, z'
loop_
 _atom_site_type_symbol
 _atom_site_label
 _atom_site_symmetry_multiplicity
 _atom_site_fract_x
 _atom_site_fract_y
 _atom_site_fract_z
 _atom_site_occupancy
  La  La0  1  0.017261  0.562632  0.689516  1
  La  La1  1  0.437368  0.982739  0.189516  1
  La  La2  1  0.562632  0.017261  0.810484  1
  La  La3  1  0.982739  0.437368  0.310484  1
  Mg  Mg4  1  0.009154  0.009154  0.750000  1
  Mg  Mg5  1  0.990846  0.990846  0.250000  1
  I  I6  1  0.365690  0.626092  0.862210  1
  I  I7  1  0.961496  0.198517  0.874833  1
  I  I8  1  0.665785  0.929067  0.648722  1
  I  I9  1  0.103923  0.343990  0.594304  1
  I  I10  1  0.373908  0.634310  0.362210  1
  I  I11  1  0.801483  0.038504  0.374833  1
  I  I12  1  0.070933  0.334215  0.148722  1
  I  I13  1  0.656010  0.896077  0.094304  1
  I  I14  1  0.343990  0.103923  0.905696  1
  I  I15  1  0.929067  0.665785  0.851278  1
  I  I16  1  0.198517  0.961496  0.625167  1
  I  I17  1  0.626092  0.365690  0.637790  1
  I  I18  1  0.896077  0.656010  0.405696  1
  I  I19  1  0.334215  0.070933  0.351278  1
  I  I20  1  0.038504  0.801483  0.125167  1
  I  I21  1  0.634310  0.373908  0.137790  1
