# generated using pymatgen
data_LiFeF4
_symmetry_space_group_name_H-M   'P 1'
_cell_length_a   7.51602551
_cell_length_b   7.51602551
_cell_length_c   7.51602551
_cell_angle_alpha   114.06515557
_cell_angle_beta   114.06515557
_cell_angle_gamma   114.06515557
_symmetry_Int_Tables_number   1
_chemical_formula_structural   LiFeF4
_chemical_formula_sum   'Li3 Fe3 F12'
_cell_volume   256.70646956
_cell_formula_units_Z   3
loop_
 _symmetry_equiv_pos_site_id
 _symmetry_equiv_pos_as_xyz
  1  'x, y, z'
loop_
 _atom_site_type_symbol
 _atom_site_label
 _atom_site_symmetry_multiplicity
 _atom_site_fract_x
 _atom_site_fract_y
 _atom_site_fract_z
 _atom_site_occupancy
  Li  Li0  1  0.018399  0.285131  0.285131  1
  Li  Li1  1  0.285131  0.018399  0.285131  1
  Li  Li2  1  0.285131  0.285131  0.018399  1
  Fe  Fe3  1  0.401172  0.926392  0.926392  1
  Fe  Fe4  1  0.926392  0.401172  0.926392  1
  Fe  Fe5  1  0.926392  0.926392  0.401172  1
  F  F6  1  0.169472  0.692755  0.969102  1
  F  F7  1  0.169472  0.969102  0.692755  1
  F  F8  1  0.692755  0.169472  0.969102  1
  F  F9  1  0.596515  0.596515  0.184955  1
  F  F10  1  0.176218  0.176218  0.425788  1
  F  F11  1  0.596515  0.184955  0.596515  1
  F  F12  1  0.176218  0.425788  0.176218  1
  F  F13  1  0.425788  0.176218  0.176218  1
  F  F14  1  0.184955  0.596515  0.596515  1
  F  F15  1  0.969102  0.169472  0.692755  1
  F  F16  1  0.692755  0.969102  0.169472  1
  F  F17  1  0.969102  0.692755  0.169472  1
