# generated using pymatgen
data_Li6ScFe5(SiO3)12
_symmetry_space_group_name_H-M   'P 1'
_cell_length_a   6.61893090
_cell_length_b   9.54581636
_cell_length_c   11.03196120
_cell_angle_alpha   77.35170918
_cell_angle_beta   79.06394543
_cell_angle_gamma   77.13233428
_symmetry_Int_Tables_number   1
_chemical_formula_structural   Li6ScFe5(SiO3)12
_chemical_formula_sum   'Li6 Sc1 Fe5 Si12 O36'
_cell_volume   655.71916864
_cell_formula_units_Z   1
loop_
 _symmetry_equiv_pos_site_id
 _symmetry_equiv_pos_as_xyz
  1  'x, y, z'
loop_
 _atom_site_type_symbol
 _atom_site_label
 _atom_site_symmetry_multiplicity
 _atom_site_fract_x
 _atom_site_fract_y
 _atom_site_fract_z
 _atom_site_occupancy
  Li  Li0  1  0.250312  0.083667  0.333147  1
  Li  Li1  1  0.252190  0.413340  0.664928  1
  Li  Li2  1  0.748605  0.251184  0.000059  1
  Li  Li3  1  0.250057  0.751027  0.002547  1
  Li  Li4  1  0.749212  0.583510  0.332796  1
  Li  Li5  1  0.744695  0.920537  0.664688  1
  Sc  Sc6  1  0.102195  0.681359  0.784389  1
  Fe  Fe7  1  0.102306  0.014785  0.117940  1
  Fe  Fe8  1  0.103333  0.348914  0.450380  1
  Fe  Fe9  1  0.896888  0.318412  0.216334  1
  Fe  Fe10  1  0.896321  0.651940  0.546970  1
  Fe  Fe11  1  0.895312  0.987025  0.883200  1
  Si  Si12  1  0.206688  0.002751  0.615179  1
  Si  Si13  1  0.386581  0.046588  0.842310  1
  Si  Si14  1  0.208204  0.330231  0.950361  1
  Si  Si15  1  0.385566  0.382087  0.175006  1
  Si  Si16  1  0.615003  0.284306  0.491697  1
  Si  Si17  1  0.206988  0.668247  0.281048  1
  Si  Si18  1  0.792501  0.332820  0.717826  1
  Si  Si19  1  0.385809  0.715276  0.505573  1
  Si  Si20  1  0.617087  0.618299  0.825238  1
  Si  Si21  1  0.793220  0.666426  0.053665  1
  Si  Si22  1  0.612847  0.951450  0.158934  1
  Si  Si23  1  0.793278  0.998814  0.384357  1
  O  O24  1  0.117658  0.140841  0.512750  1
  O  O25  1  0.355565  0.049779  0.697123  1
  O  O26  1  0.031253  0.248516  0.051308  1
  O  O27  1  0.373472  0.034613  0.148963  1
  O  O28  1  0.356940  0.214315  0.865433  1
  O  O29  1  0.201532  0.304478  0.273065  1
  O  O30  1  0.113525  0.467365  0.849709  1
  O  O31  1  0.648686  0.114840  0.471194  1
  O  O32  1  0.032239  0.584120  0.381929  1
  O  O33  1  0.375609  0.366986  0.481167  1
  O  O34  1  0.796394  0.029631  0.060812  1
  O  O35  1  0.645214  0.283601  0.636375  1
  O  O36  1  0.354741  0.381579  0.030833  1
  O  O37  1  0.204404  0.634177  0.601522  1
  O  O38  1  0.884581  0.194943  0.819699  1
  O  O39  1  0.625224  0.299614  0.185414  1
  O  O40  1  0.968900  0.082321  0.284002  1
  O  O41  1  0.646358  0.450155  0.802603  1
  O  O42  1  0.352382  0.551787  0.194829  1
  O  O43  1  0.026910  0.924176  0.715478  1
  O  O44  1  0.378587  0.702085  0.818315  1
  O  O45  1  0.112425  0.806978  0.180915  1
  O  O46  1  0.798869  0.362215  0.393809  1
  O  O47  1  0.654653  0.614472  0.968948  1
  O  O48  1  0.354660  0.719095  0.360703  1
  O  O49  1  0.200907  0.970479  0.940024  1
  O  O50  1  0.626022  0.633156  0.514498  1
  O  O51  1  0.968637  0.415488  0.616558  1
  O  O52  1  0.350457  0.882788  0.531659  1
  O  O53  1  0.885308  0.527044  0.154344  1
  O  O54  1  0.794957  0.696983  0.723533  1
  O  O55  1  0.642931  0.782289  0.138516  1
  O  O56  1  0.625924  0.963244  0.851943  1
  O  O57  1  0.967663  0.752100  0.955593  1
  O  O58  1  0.644234  0.950965  0.303363  1
  O  O59  1  0.886980  0.859786  0.484487  1
