# generated using pymatgen
data_Li12VCo3P4(CO7)4
_symmetry_space_group_name_H-M   'P 1'
_cell_length_a   8.44785743
_cell_length_b   6.51585557
_cell_length_c   9.99893107
_cell_angle_alpha   90.00000000
_cell_angle_beta   95.27269599
_cell_angle_gamma   90.00000000
_symmetry_Int_Tables_number   1
_chemical_formula_structural   Li12VCo3P4(CO7)4
_chemical_formula_sum   'Li12 V1 Co3 P4 C4 O28'
_cell_volume   548.06242583
_cell_formula_units_Z   1
loop_
 _symmetry_equiv_pos_site_id
 _symmetry_equiv_pos_as_xyz
  1  'x, y, z'
loop_
 _atom_site_type_symbol
 _atom_site_label
 _atom_site_symmetry_multiplicity
 _atom_site_fract_x
 _atom_site_fract_y
 _atom_site_fract_z
 _atom_site_occupancy
  Li  Li0  1  0.902699  0.000000  0.384956  1
  Li  Li1  1  0.900485  0.000000  0.884369  1
  Li  Li2  1  0.723697  0.229284  0.126016  1
  Li  Li3  1  0.723697  0.770716  0.126016  1
  Li  Li4  1  0.723079  0.231235  0.625515  1
  Li  Li5  1  0.723079  0.768765  0.625515  1
  Li  Li6  1  0.277905  0.726371  0.372196  1
  Li  Li7  1  0.277905  0.273629  0.372196  1
  Li  Li8  1  0.277106  0.727179  0.875900  1
  Li  Li9  1  0.277106  0.272821  0.875900  1
  Li  Li10  1  0.098414  0.500000  0.115786  1
  Li  Li11  1  0.099707  0.500000  0.615759  1
  V  V12  1  0.328821  0.000000  0.603942  1
  Co  Co13  1  0.668285  0.500000  0.394832  1
  Co  Co14  1  0.668464  0.500000  0.893921  1
  Co  Co15  1  0.331752  0.000000  0.105450  1
  P  P16  1  0.588698  0.000000  0.360721  1
  P  P17  1  0.587577  0.000000  0.861084  1
  P  P18  1  0.413135  0.500000  0.138622  1
  P  P19  1  0.412166  0.500000  0.638984  1
  C  C20  1  0.963110  0.500000  0.349260  1
  C  C21  1  0.963038  0.500000  0.849551  1
  C  C22  1  0.037573  0.000000  0.150782  1
  C  C23  1  0.034310  0.000000  0.652202  1
  O  O24  1  0.927763  0.500000  0.472565  1
  O  O25  1  0.891525  0.000000  0.181579  1
  O  O26  1  0.927875  0.500000  0.972651  1
  O  O27  1  0.845959  0.500000  0.254603  1
  O  O28  1  0.888282  0.000000  0.680204  1
  O  O29  1  0.845782  0.500000  0.754828  1
  O  O30  1  0.692660  0.186542  0.412718  1
  O  O31  1  0.692660  0.813458  0.412718  1
  O  O32  1  0.691129  0.187024  0.912520  1
  O  O33  1  0.691129  0.812976  0.912520  1
  O  O34  1  0.579346  0.500000  0.086428  1
  O  O35  1  0.566690  0.000000  0.203854  1
  O  O36  1  0.578927  0.500000  0.587078  1
  O  O37  1  0.569009  0.000000  0.704373  1
  O  O38  1  0.434018  0.500000  0.295810  1
  O  O39  1  0.421815  0.000000  0.411902  1
  O  O40  1  0.434392  0.500000  0.796145  1
  O  O41  1  0.421222  0.000000  0.913952  1
  O  O42  1  0.308470  0.313630  0.087492  1
  O  O43  1  0.308470  0.686370  0.087492  1
  O  O44  1  0.306473  0.683138  0.585685  1
  O  O45  1  0.306473  0.316862  0.585685  1
  O  O46  1  0.154859  0.000000  0.245678  1
  O  O47  1  0.109018  0.500000  0.318399  1
  O  O48  1  0.149766  0.000000  0.748209  1
  O  O49  1  0.072817  0.000000  0.027789  1
  O  O50  1  0.109078  0.500000  0.818675  1
  O  O51  1  0.072582  0.000000  0.528972  1
