# generated using pymatgen
data_LiV2OF5
_symmetry_space_group_name_H-M   'P 1'
_cell_length_a   4.58043597
_cell_length_b   8.69820847
_cell_length_c   8.74423736
_cell_angle_alpha   119.79615590
_cell_angle_beta   89.90917307
_cell_angle_gamma   90.65047492
_symmetry_Int_Tables_number   1
_chemical_formula_structural   LiV2OF5
_chemical_formula_sum   'Li3 V6 O3 F15'
_cell_volume   302.30468387
_cell_formula_units_Z   3
loop_
 _symmetry_equiv_pos_site_id
 _symmetry_equiv_pos_as_xyz
  1  'x, y, z'
loop_
 _atom_site_type_symbol
 _atom_site_label
 _atom_site_symmetry_multiplicity
 _atom_site_fract_x
 _atom_site_fract_y
 _atom_site_fract_z
 _atom_site_occupancy
  Li  Li0  1  0.516694  0.335713  0.668854  1
  Li  Li1  1  0.004404  0.999750  0.999479  1
  Li  Li2  1  0.491672  0.668372  0.333313  1
  V  V3  1  0.982827  0.639246  0.993524  1
  V  V4  1  0.514229  0.326779  0.996379  1
  V  V5  1  0.016184  0.991667  0.656710  1
  V  V6  1  0.480019  0.692768  0.684852  1
  V  V7  1  0.515807  0.006497  0.313262  1
  V  V8  1  0.985479  0.334314  0.341852  1
  O  O9  1  0.742887  0.441212  0.905498  1
  O  O10  1  0.234653  0.883674  0.755430  1
  O  O11  1  0.764793  0.126700  0.241304  1
  F  F12  1  0.754963  0.771982  0.888412  1
  F  F13  1  0.257095  0.561335  0.790667  1
  F  F14  1  0.735598  0.465025  0.566595  1
  F  F15  1  0.265307  0.216174  0.774102  1
  F  F16  1  0.765303  0.105711  0.881015  1
  F  F17  1  0.265721  0.230391  0.445916  1
  F  F18  1  0.740917  0.100748  0.545207  1
  F  F19  1  0.734343  0.782280  0.550515  1
  F  F20  1  0.264154  0.896874  0.432649  1
  F  F21  1  0.259438  0.555003  0.453206  1
  F  F22  1  0.745586  0.775233  0.213867  1
  F  F23  1  0.235616  0.877695  0.109213  1
  F  F24  1  0.732670  0.442534  0.229317  1
  F  F25  1  0.255933  0.544625  0.113786  1
  F  F26  1  0.237706  0.227797  0.115173  1
