# generated using pymatgen
data_Li3Ta7O19
_symmetry_space_group_name_H-M   'P 1'
_cell_length_a   6.30097151
_cell_length_b   6.30097151
_cell_length_c   20.16851685
_cell_angle_alpha   90.00000000
_cell_angle_beta   90.00000000
_cell_angle_gamma   120.00000000
_symmetry_Int_Tables_number   1
_chemical_formula_structural   Li3Ta7O19
_chemical_formula_sum   'Li6 Ta14 O38'
_cell_volume   693.45714341
_cell_formula_units_Z   2
loop_
 _symmetry_equiv_pos_site_id
 _symmetry_equiv_pos_as_xyz
  1  'x, y, z'
loop_
 _atom_site_type_symbol
 _atom_site_label
 _atom_site_symmetry_multiplicity
 _atom_site_fract_x
 _atom_site_fract_y
 _atom_site_fract_z
 _atom_site_occupancy
  Li  Li0  1  0.000000  0.500000  0.000000  1
  Li  Li1  1  0.000000  0.500000  0.500000  1
  Li  Li2  1  0.500000  0.500000  0.000000  1
  Li  Li3  1  0.500000  0.500000  0.500000  1
  Li  Li4  1  0.500000  0.000000  0.500000  1
  Li  Li5  1  0.500000  0.000000  0.000000  1
  Ta  Ta6  1  0.305086  0.970709  0.654857  1
  Ta  Ta7  1  0.305086  0.970709  0.845143  1
  Ta  Ta8  1  0.029291  0.334376  0.654857  1
  Ta  Ta9  1  0.029291  0.334376  0.845143  1
  Ta  Ta10  1  0.000000  0.000000  0.000000  1
  Ta  Ta11  1  0.000000  0.000000  0.500000  1
  Ta  Ta12  1  0.334376  0.305086  0.154857  1
  Ta  Ta13  1  0.334376  0.305086  0.345143  1
  Ta  Ta14  1  0.665624  0.694914  0.654857  1
  Ta  Ta15  1  0.665624  0.694914  0.845143  1
  Ta  Ta16  1  0.970709  0.665624  0.154857  1
  Ta  Ta17  1  0.970709  0.665624  0.345143  1
  Ta  Ta18  1  0.694914  0.029291  0.154857  1
  Ta  Ta19  1  0.694914  0.029291  0.345143  1
  O  O20  1  0.243063  0.959612  0.554913  1
  O  O21  1  0.243063  0.959612  0.945087  1
  O  O22  1  0.294623  0.930725  0.750000  1
  O  O23  1  0.085897  0.420197  0.150299  1
  O  O24  1  0.085897  0.420197  0.349701  1
  O  O25  1  0.069275  0.363898  0.750000  1
  O  O26  1  0.334299  0.914103  0.150299  1
  O  O27  1  0.334299  0.914103  0.349701  1
  O  O28  1  0.040388  0.283451  0.554913  1
  O  O29  1  0.040388  0.283451  0.945087  1
  O  O30  1  0.000000  0.000000  0.163760  1
  O  O31  1  0.000000  0.000000  0.336240  1
  O  O32  1  0.000000  0.000000  0.663760  1
  O  O33  1  0.000000  0.000000  0.836240  1
  O  O34  1  0.333333  0.666667  0.637936  1
  O  O35  1  0.333333  0.666667  0.862064  1
  O  O36  1  0.283451  0.243063  0.054913  1
  O  O37  1  0.283451  0.243063  0.445087  1
  O  O38  1  0.363898  0.294623  0.250000  1
  O  O39  1  0.420197  0.334299  0.650299  1
  O  O40  1  0.420197  0.334299  0.849701  1
  O  O41  1  0.579803  0.665701  0.349701  1
  O  O42  1  0.579803  0.665701  0.150299  1
  O  O43  1  0.636102  0.705377  0.750000  1
  O  O44  1  0.716549  0.756937  0.554913  1
  O  O45  1  0.716549  0.756937  0.945087  1
  O  O46  1  0.666667  0.333333  0.362064  1
  O  O47  1  0.666667  0.333333  0.137936  1
  O  O48  1  0.959612  0.716549  0.054913  1
  O  O49  1  0.959612  0.716549  0.445087  1
  O  O50  1  0.665701  0.085897  0.650299  1
  O  O51  1  0.665701  0.085897  0.849701  1
  O  O52  1  0.930725  0.636102  0.250000  1
  O  O53  1  0.914103  0.579803  0.650299  1
  O  O54  1  0.914103  0.579803  0.849701  1
  O  O55  1  0.705377  0.069275  0.250000  1
  O  O56  1  0.756937  0.040388  0.054913  1
  O  O57  1  0.756937  0.040388  0.445087  1
