# generated using pymatgen
data_Li2Mn(BO3)2
_symmetry_space_group_name_H-M   'P 1'
_cell_length_a   5.22209519
_cell_length_b   8.49218682
_cell_length_c   10.83249511
_cell_angle_alpha   90.00000000
_cell_angle_beta   114.56079323
_cell_angle_gamma   90.00000000
_symmetry_Int_Tables_number   1
_chemical_formula_structural   Li2Mn(BO3)2
_chemical_formula_sum   'Li8 Mn4 B8 O24'
_cell_volume   436.92353428
_cell_formula_units_Z   4
loop_
 _symmetry_equiv_pos_site_id
 _symmetry_equiv_pos_as_xyz
  1  'x, y, z'
loop_
 _atom_site_type_symbol
 _atom_site_label
 _atom_site_symmetry_multiplicity
 _atom_site_fract_x
 _atom_site_fract_y
 _atom_site_fract_z
 _atom_site_occupancy
  Li  Li0  1  0.436383  0.670109  0.623815  1
  Li  Li1  1  0.944955  0.962402  0.123520  1
  Li  Li2  1  0.563617  0.170109  0.876185  1
  Li  Li3  1  0.055045  0.462402  0.376480  1
  Li  Li4  1  0.944955  0.537598  0.623520  1
  Li  Li5  1  0.436383  0.829891  0.123815  1
  Li  Li6  1  0.055045  0.037598  0.876480  1
  Li  Li7  1  0.563617  0.329891  0.376185  1
  Mn  Mn8  1  0.036775  0.286233  0.128628  1
  Mn  Mn9  1  0.963225  0.786233  0.371372  1
  Mn  Mn10  1  0.036775  0.213767  0.628628  1
  Mn  Mn11  1  0.963225  0.713767  0.871372  1
  B  B12  1  0.462897  0.306292  0.619888  1
  B  B13  1  0.954407  0.633577  0.130546  1
  B  B14  1  0.537103  0.806292  0.880112  1
  B  B15  1  0.045593  0.133577  0.369454  1
  B  B16  1  0.954407  0.866423  0.630546  1
  B  B17  1  0.462897  0.193708  0.119888  1
  B  B18  1  0.045593  0.366423  0.869454  1
  B  B19  1  0.537103  0.693708  0.380112  1
  O  O20  1  0.885465  0.320017  0.937861  1
  O  O21  1  0.308252  0.657407  0.405447  1
  O  O22  1  0.760512  0.909284  0.903281  1
  O  O23  1  0.585250  0.659786  0.836424  1
  O  O24  1  0.168082  0.254146  0.323928  1
  O  O25  1  0.079573  0.983968  0.334810  1
  O  O26  1  0.414750  0.159786  0.663576  1
  O  O27  1  0.239488  0.409284  0.596719  1
  O  O28  1  0.920427  0.483968  0.165190  1
  O  O29  1  0.831918  0.754146  0.176072  1
  O  O30  1  0.114535  0.820017  0.562139  1
  O  O31  1  0.691748  0.157407  0.094553  1
  O  O32  1  0.308252  0.842593  0.905447  1
  O  O33  1  0.885465  0.179983  0.437861  1
  O  O34  1  0.168082  0.245854  0.823928  1
  O  O35  1  0.079573  0.516032  0.834810  1
  O  O36  1  0.760512  0.590716  0.403281  1
  O  O37  1  0.585250  0.840214  0.336424  1
  O  O38  1  0.920427  0.016032  0.665190  1
  O  O39  1  0.831918  0.745854  0.676072  1
  O  O40  1  0.414750  0.340214  0.163576  1
  O  O41  1  0.239488  0.090716  0.096719  1
  O  O42  1  0.691748  0.342593  0.594553  1
  O  O43  1  0.114535  0.679983  0.062139  1
