# generated using pymatgen
data_In2WO6
_symmetry_space_group_name_H-M   'P 1'
_cell_length_a   5.46052645
_cell_length_b   10.38077330
_cell_length_c   16.05974590
_cell_angle_alpha   90.00000000
_cell_angle_beta   90.00000000
_cell_angle_gamma   90.00000000
_symmetry_Int_Tables_number   1
_chemical_formula_structural   In2WO6
_chemical_formula_sum   'In16 W8 O48'
_cell_volume   910.33846052
_cell_formula_units_Z   8
loop_
 _symmetry_equiv_pos_site_id
 _symmetry_equiv_pos_as_xyz
  1  'x, y, z'
loop_
 _atom_site_type_symbol
 _atom_site_label
 _atom_site_symmetry_multiplicity
 _atom_site_fract_x
 _atom_site_fract_y
 _atom_site_fract_z
 _atom_site_occupancy
  In  In0  1  0.906140  0.641865  0.063138  1
  In  In1  1  0.406140  0.858135  0.063138  1
  In  In2  1  0.958377  0.854029  0.228759  1
  In  In3  1  0.458377  0.645971  0.228759  1
  In  In4  1  0.958377  0.354029  0.271241  1
  In  In5  1  0.458377  0.145971  0.271241  1
  In  In6  1  0.406140  0.358135  0.436862  1
  In  In7  1  0.906140  0.141865  0.436862  1
  In  In8  1  0.093860  0.858135  0.563138  1
  In  In9  1  0.593860  0.641865  0.563138  1
  In  In10  1  0.541623  0.854029  0.728759  1
  In  In11  1  0.041623  0.645971  0.728759  1
  In  In12  1  0.541623  0.354029  0.771241  1
  In  In13  1  0.041623  0.145971  0.771241  1
  In  In14  1  0.093860  0.358135  0.936862  1
  In  In15  1  0.593860  0.141865  0.936862  1
  W  W16  1  0.391192  0.380769  0.118048  1
  W  W17  1  0.891192  0.119231  0.118048  1
  W  W18  1  0.391192  0.880769  0.381952  1
  W  W19  1  0.891192  0.619231  0.381952  1
  W  W20  1  0.108808  0.380769  0.618048  1
  W  W21  1  0.608808  0.119231  0.618048  1
  W  W22  1  0.108808  0.880769  0.881952  1
  W  W23  1  0.608808  0.619231  0.881952  1
  O  O24  1  0.921718  0.216851  0.019783  1
  O  O25  1  0.421718  0.283149  0.019783  1
  O  O26  1  0.118103  0.461381  0.068062  1
  O  O27  1  0.618103  0.038619  0.068062  1
  O  O28  1  0.111455  0.989265  0.104581  1
  O  O29  1  0.611455  0.510735  0.104581  1
  O  O30  1  0.685380  0.770960  0.146785  1
  O  O31  1  0.185380  0.729040  0.146785  1
  O  O32  1  0.664340  0.267801  0.173480  1
  O  O33  1  0.164340  0.232199  0.173480  1
  O  O34  1  0.801593  0.047755  0.228602  1
  O  O35  1  0.301593  0.452245  0.228602  1
  O  O36  1  0.301593  0.952245  0.271398  1
  O  O37  1  0.801593  0.547755  0.271398  1
  O  O38  1  0.664340  0.767801  0.326520  1
  O  O39  1  0.164340  0.732199  0.326520  1
  O  O40  1  0.685380  0.270960  0.353215  1
  O  O41  1  0.185380  0.229040  0.353215  1
  O  O42  1  0.111455  0.489265  0.395419  1
  O  O43  1  0.611455  0.010735  0.395419  1
  O  O44  1  0.118103  0.961381  0.431938  1
  O  O45  1  0.618103  0.538619  0.431938  1
  O  O46  1  0.421718  0.783149  0.480217  1
  O  O47  1  0.921718  0.716851  0.480217  1
  O  O48  1  0.078282  0.283149  0.519783  1
  O  O49  1  0.578282  0.216851  0.519783  1
  O  O50  1  0.381897  0.461381  0.568062  1
  O  O51  1  0.881897  0.038619  0.568062  1
  O  O52  1  0.388545  0.989265  0.604581  1
  O  O53  1  0.888545  0.510735  0.604581  1
  O  O54  1  0.814620  0.770960  0.646785  1
  O  O55  1  0.314620  0.729040  0.646785  1
  O  O56  1  0.835660  0.267801  0.673480  1
  O  O57  1  0.335660  0.232199  0.673480  1
  O  O58  1  0.198407  0.452245  0.728602  1
  O  O59  1  0.698407  0.047755  0.728602  1
  O  O60  1  0.198407  0.952245  0.771398  1
  O  O61  1  0.698407  0.547755  0.771398  1
  O  O62  1  0.835660  0.767801  0.826520  1
  O  O63  1  0.335660  0.732199  0.826520  1
  O  O64  1  0.814620  0.270960  0.853215  1
  O  O65  1  0.314620  0.229040  0.853215  1
  O  O66  1  0.388545  0.489265  0.895419  1
  O  O67  1  0.888545  0.010735  0.895419  1
  O  O68  1  0.381897  0.961381  0.931938  1
  O  O69  1  0.881897  0.538619  0.931938  1
  O  O70  1  0.078282  0.783149  0.980217  1
  O  O71  1  0.578282  0.716851  0.980217  1
