# generated using pymatgen
data_Na2Ge2O5
_symmetry_space_group_name_H-M   'P 1'
_cell_length_a   5.03515601
_cell_length_b   24.77624174
_cell_length_c   8.53919385
_cell_angle_alpha   90.00000000
_cell_angle_beta   90.24272697
_cell_angle_gamma   90.00000000
_symmetry_Int_Tables_number   1
_chemical_formula_structural   Na2Ge2O5
_chemical_formula_sum   'Na16 Ge16 O40'
_cell_volume   1065.27402323
_cell_formula_units_Z   8
loop_
 _symmetry_equiv_pos_site_id
 _symmetry_equiv_pos_as_xyz
  1  'x, y, z'
loop_
 _atom_site_type_symbol
 _atom_site_label
 _atom_site_symmetry_multiplicity
 _atom_site_fract_x
 _atom_site_fract_y
 _atom_site_fract_z
 _atom_site_occupancy
  Na  Na0  1  0.224163  0.739063  0.524024  1
  Na  Na1  1  0.224163  0.760937  0.024024  1
  Na  Na2  1  0.240761  0.279494  0.723619  1
  Na  Na3  1  0.240761  0.220506  0.223619  1
  Na  Na4  1  0.257235  0.526127  0.899050  1
  Na  Na5  1  0.257235  0.973873  0.399050  1
  Na  Na6  1  0.280419  0.013497  0.852211  1
  Na  Na7  1  0.280419  0.486503  0.352211  1
  Na  Na8  1  0.719581  0.513497  0.647789  1
  Na  Na9  1  0.719581  0.986503  0.147789  1
  Na  Na10  1  0.742765  0.026127  0.600950  1
  Na  Na11  1  0.742765  0.473873  0.100950  1
  Na  Na12  1  0.759239  0.779494  0.776381  1
  Na  Na13  1  0.759239  0.720506  0.276381  1
  Na  Na14  1  0.775837  0.239063  0.975976  1
  Na  Na15  1  0.775837  0.260937  0.475976  1
  Ge  Ge16  1  0.181161  0.589603  0.541112  1
  Ge  Ge17  1  0.181161  0.910397  0.041112  1
  Ge  Ge18  1  0.203266  0.110425  0.520424  1
  Ge  Ge19  1  0.203266  0.389575  0.020424  1
  Ge  Ge20  1  0.298688  0.863068  0.698275  1
  Ge  Ge21  1  0.298688  0.636932  0.198275  1
  Ge  Ge22  1  0.317286  0.161322  0.860098  1
  Ge  Ge23  1  0.317286  0.338678  0.360098  1
  Ge  Ge24  1  0.682714  0.661322  0.639902  1
  Ge  Ge25  1  0.682714  0.838678  0.139902  1
  Ge  Ge26  1  0.701312  0.363068  0.801725  1
  Ge  Ge27  1  0.701312  0.136932  0.301725  1
  Ge  Ge28  1  0.796734  0.610425  0.979576  1
  Ge  Ge29  1  0.796734  0.889575  0.479576  1
  Ge  Ge30  1  0.818839  0.089603  0.958888  1
  Ge  Ge31  1  0.818839  0.410397  0.458888  1
  O  O32  1  0.149880  0.887836  0.520638  1
  O  O33  1  0.149880  0.612164  0.020638  1
  O  O34  1  0.170214  0.102049  0.940622  1
  O  O35  1  0.170214  0.397951  0.440622  1
  O  O36  1  0.226050  0.797742  0.754280  1
  O  O37  1  0.226050  0.702258  0.254280  1
  O  O38  1  0.243784  0.916815  0.834915  1
  O  O39  1  0.251842  0.528491  0.626350  1
  O  O40  1  0.243784  0.583185  0.334915  1
  O  O41  1  0.251842  0.971509  0.126350  1
  O  O42  1  0.247653  0.222553  0.946333  1
  O  O43  1  0.247653  0.277447  0.446333  1
  O  O44  1  0.256875  0.165535  0.653882  1
  O  O45  1  0.256875  0.334465  0.153882  1
  O  O46  1  0.274884  0.045499  0.580981  1
  O  O47  1  0.274884  0.454501  0.080981  1
  O  O48  1  0.330065  0.650003  0.616175  1
  O  O49  1  0.330065  0.849997  0.116175  1
  O  O50  1  0.349601  0.366046  0.841925  1
  O  O51  1  0.349601  0.133954  0.341925  1
  O  O52  1  0.650399  0.866046  0.658075  1
  O  O53  1  0.650399  0.633954  0.158075  1
  O  O54  1  0.669935  0.150003  0.883825  1
  O  O55  1  0.669935  0.349997  0.383825  1
  O  O56  1  0.725116  0.545499  0.919019  1
  O  O57  1  0.725116  0.954501  0.419019  1
  O  O58  1  0.743125  0.665535  0.846118  1
  O  O59  1  0.743125  0.834465  0.346118  1
  O  O60  1  0.752347  0.722553  0.553667  1
  O  O61  1  0.752347  0.777447  0.053667  1
  O  O62  1  0.748158  0.028491  0.873650  1
  O  O63  1  0.756216  0.416815  0.665085  1
  O  O64  1  0.748158  0.471509  0.373650  1
  O  O65  1  0.756216  0.083185  0.165085  1
  O  O66  1  0.773950  0.297742  0.745720  1
  O  O67  1  0.773950  0.202258  0.245720  1
  O  O68  1  0.829786  0.602049  0.559378  1
  O  O69  1  0.829786  0.897951  0.059378  1
  O  O70  1  0.850120  0.387836  0.979362  1
  O  O71  1  0.850120  0.112164  0.479362  1
