# generated using pymatgen
data_Na6Sn2O7
_symmetry_space_group_name_H-M   'P 1'
_cell_length_a   9.35190721
_cell_length_b   6.24318605
_cell_length_c   18.47964743
_cell_angle_alpha   90.00000000
_cell_angle_beta   116.32104050
_cell_angle_gamma   90.00000000
_symmetry_Int_Tables_number   1
_chemical_formula_structural   Na6Sn2O7
_chemical_formula_sum   'Na24 Sn8 O28'
_cell_volume   967.08580648
_cell_formula_units_Z   4
loop_
 _symmetry_equiv_pos_site_id
 _symmetry_equiv_pos_as_xyz
  1  'x, y, z'
loop_
 _atom_site_type_symbol
 _atom_site_label
 _atom_site_symmetry_multiplicity
 _atom_site_fract_x
 _atom_site_fract_y
 _atom_site_fract_z
 _atom_site_occupancy
  Na  Na0  1  0.650075  0.369911  0.615557  1
  Na  Na1  1  0.007502  0.697543  0.957689  1
  Na  Na2  1  0.873317  0.665604  0.743351  1
  Na  Na3  1  0.402759  0.279027  0.198549  1
  Na  Na4  1  0.821699  0.014847  0.623584  1
  Na  Na5  1  0.741710  0.647164  0.514334  1
  Na  Na6  1  0.597241  0.779027  0.301451  1
  Na  Na7  1  0.258290  0.147164  0.985666  1
  Na  Na8  1  0.178301  0.514847  0.876416  1
  Na  Na9  1  0.126683  0.165604  0.756649  1
  Na  Na10  1  0.992498  0.197543  0.542311  1
  Na  Na11  1  0.349925  0.869911  0.884443  1
  Na  Na12  1  0.650075  0.130089  0.115557  1
  Na  Na13  1  0.007502  0.802457  0.457689  1
  Na  Na14  1  0.873317  0.834396  0.243351  1
  Na  Na15  1  0.821699  0.485153  0.123584  1
  Na  Na16  1  0.741710  0.852836  0.014334  1
  Na  Na17  1  0.402759  0.220973  0.698549  1
  Na  Na18  1  0.258290  0.352836  0.485666  1
  Na  Na19  1  0.178301  0.985153  0.376416  1
  Na  Na20  1  0.597241  0.720973  0.801451  1
  Na  Na21  1  0.126683  0.334396  0.256649  1
  Na  Na22  1  0.992498  0.302457  0.042311  1
  Na  Na23  1  0.349925  0.630089  0.384443  1
  Sn  Sn24  1  0.841853  0.176498  0.831373  1
  Sn  Sn25  1  0.563380  0.151922  0.413998  1
  Sn  Sn26  1  0.436620  0.651922  0.086002  1
  Sn  Sn27  1  0.841853  0.323502  0.331373  1
  Sn  Sn28  1  0.158147  0.676498  0.668627  1
  Sn  Sn29  1  0.563380  0.348078  0.913998  1
  Sn  Sn30  1  0.436620  0.848078  0.586002  1
  Sn  Sn31  1  0.158147  0.823502  0.168627  1
  O  O32  1  0.842060  0.862948  0.840838  1
  O  O33  1  0.654263  0.733048  0.619372  1
  O  O34  1  0.014353  0.325919  0.923505  1
  O  O35  1  0.559201  0.838289  0.411743  1
  O  O36  1  0.868803  0.273043  0.735570  1
  O  O37  1  0.375106  0.713767  0.179430  1
  O  O38  1  0.728666  0.275278  0.514942  1
  O  O39  1  0.624894  0.213767  0.320570  1
  O  O40  1  0.440799  0.338289  0.088257  1
  O  O41  1  0.271334  0.775278  0.985058  1
  O  O42  1  0.131197  0.773043  0.764430  1
  O  O43  1  0.985647  0.825919  0.576495  1
  O  O44  1  0.842060  0.637052  0.340838  1
  O  O45  1  0.345737  0.233048  0.880628  1
  O  O46  1  0.654263  0.766952  0.119372  1
  O  O47  1  0.157940  0.362948  0.659162  1
  O  O48  1  0.014353  0.174081  0.423505  1
  O  O49  1  0.868803  0.226957  0.235570  1
  O  O50  1  0.728666  0.224722  0.014942  1
  O  O51  1  0.559201  0.661711  0.911743  1
  O  O52  1  0.375106  0.786233  0.679430  1
  O  O53  1  0.271334  0.724722  0.485058  1
  O  O54  1  0.624894  0.286233  0.820570  1
  O  O55  1  0.131197  0.726957  0.264430  1
  O  O56  1  0.440799  0.161711  0.588257  1
  O  O57  1  0.985647  0.674081  0.076495  1
  O  O58  1  0.345737  0.266952  0.380628  1
  O  O59  1  0.157940  0.137052  0.159162  1
