# generated using pymatgen
data_Mn8O13F3
_symmetry_space_group_name_H-M   'P 1'
_cell_length_a   4.52668417
_cell_length_b   5.97357805
_cell_length_c   9.34988479
_cell_angle_alpha   90.00000000
_cell_angle_beta   94.12408075
_cell_angle_gamma   90.00000000
_symmetry_Int_Tables_number   1
_chemical_formula_structural   Mn8O13F3
_chemical_formula_sum   'Mn8 O13 F3'
_cell_volume   252.17091574
_cell_formula_units_Z   1
loop_
 _symmetry_equiv_pos_site_id
 _symmetry_equiv_pos_as_xyz
  1  'x, y, z'
loop_
 _atom_site_type_symbol
 _atom_site_label
 _atom_site_symmetry_multiplicity
 _atom_site_fract_x
 _atom_site_fract_y
 _atom_site_fract_z
 _atom_site_occupancy
  Mn  Mn0  1  0.003485  0.000000  0.999282  1
  Mn  Mn1  1  0.539199  0.750691  0.735637  1
  Mn  Mn2  1  0.970050  0.500000  0.013326  1
  Mn  Mn3  1  0.010079  0.000000  0.495061  1
  Mn  Mn4  1  0.472839  0.742668  0.260298  1
  Mn  Mn5  1  0.539199  0.249309  0.735637  1
  Mn  Mn6  1  0.003278  0.500000  0.499096  1
  Mn  Mn7  1  0.472839  0.257332  0.260298  1
  O  O8  1  0.783529  0.751032  0.910115  1
  O  O9  1  0.205929  0.748068  0.092336  1
  O  O10  1  0.740822  0.000000  0.659974  1
  O  O11  1  0.205929  0.251932  0.092336  1
  O  O12  1  0.223753  0.751356  0.584351  1
  O  O13  1  0.737005  0.500000  0.656530  1
  O  O14  1  0.783529  0.248968  0.910115  1
  O  O15  1  0.779251  0.750368  0.416615  1
  O  O16  1  0.268403  0.000000  0.338594  1
  O  O17  1  0.779251  0.249632  0.416615  1
  O  O18  1  0.272105  0.500000  0.338838  1
  O  O19  1  0.223753  0.248644  0.584351  1
  O  O20  1  0.675422  0.500000  0.176544  1
  F  F21  1  0.308270  0.000000  0.828070  1
  F  F22  1  0.685136  0.000000  0.171861  1
  F  F23  1  0.316947  0.500000  0.824120  1
