# generated using pymatgen
data_KPH3NO3
_symmetry_space_group_name_H-M   'P 1'
_cell_length_a   6.88488288
_cell_length_b   10.51352153
_cell_length_c   13.58158118
_cell_angle_alpha   90.00000000
_cell_angle_beta   116.42641697
_cell_angle_gamma   90.00000000
_symmetry_Int_Tables_number   1
_chemical_formula_structural   KPH3NO3
_chemical_formula_sum   'K8 P8 H24 N8 O24'
_cell_volume   880.36733339
_cell_formula_units_Z   8
loop_
 _symmetry_equiv_pos_site_id
 _symmetry_equiv_pos_as_xyz
  1  'x, y, z'
loop_
 _atom_site_type_symbol
 _atom_site_label
 _atom_site_symmetry_multiplicity
 _atom_site_fract_x
 _atom_site_fract_y
 _atom_site_fract_z
 _atom_site_occupancy
  K  K0  1  0.186595  0.322584  0.212030  1
  K  K1  1  0.813405  0.822584  0.287970  1
  K  K2  1  0.813405  0.677416  0.787970  1
  K  K3  1  0.186595  0.177416  0.712030  1
  K  K4  1  0.683029  0.336360  0.930770  1
  K  K5  1  0.316971  0.836360  0.569230  1
  K  K6  1  0.316971  0.663640  0.069230  1
  K  K7  1  0.683029  0.163640  0.430770  1
  P  P8  1  0.250139  0.527106  0.683213  1
  P  P9  1  0.749861  0.027106  0.816787  1
  P  P10  1  0.749861  0.472894  0.316787  1
  P  P11  1  0.250139  0.972894  0.183213  1
  P  P12  1  0.795052  0.623709  0.521094  1
  P  P13  1  0.204948  0.123709  0.978906  1
  P  P14  1  0.204948  0.376291  0.478906  1
  P  P15  1  0.795052  0.876291  0.021094  1
  H  H16  1  0.570627  0.460477  0.424863  1
  H  H17  1  0.429373  0.960477  0.075137  1
  H  H18  1  0.429373  0.539523  0.575137  1
  H  H19  1  0.570627  0.039523  0.924863  1
  H  H20  1  0.910412  0.457307  0.643738  1
  H  H21  1  0.089588  0.957307  0.856262  1
  H  H22  1  0.089588  0.542693  0.356262  1
  H  H23  1  0.910412  0.042693  0.143738  1
  H  H24  1  0.867098  0.610021  0.050347  1
  H  H25  1  0.132902  0.110021  0.449653  1
  H  H26  1  0.132902  0.389979  0.949653  1
  H  H27  1  0.867098  0.889979  0.550347  1
  H  H28  1  0.816461  0.541278  0.138496  1
  H  H29  1  0.183539  0.041278  0.361504  1
  H  H30  1  0.183539  0.458722  0.861504  1
  H  H31  1  0.816461  0.958722  0.638496  1
  H  H32  1  0.368554  0.684824  0.416724  1
  H  H33  1  0.631446  0.184824  0.083276  1
  H  H34  1  0.631446  0.315176  0.583276  1
  H  H35  1  0.368554  0.815176  0.916724  1
  H  H36  1  0.275709  0.757580  0.304699  1
  H  H37  1  0.724291  0.257580  0.195301  1
  H  H38  1  0.724291  0.242420  0.695301  1
  H  H39  1  0.275709  0.742420  0.804699  1
  N  N40  1  0.682500  0.520101  0.416114  1
  N  N41  1  0.317500  0.020101  0.083886  1
  N  N42  1  0.317500  0.479899  0.583886  1
  N  N43  1  0.682500  0.979899  0.916114  1
  N  N44  1  0.976912  0.539070  0.629309  1
  N  N45  1  0.023088  0.039070  0.870691  1
  N  N46  1  0.023088  0.460930  0.370691  1
  N  N47  1  0.976912  0.960930  0.129309  1
  O  O48  1  0.360224  0.655311  0.720187  1
  O  O49  1  0.639776  0.155311  0.779813  1
  O  O50  1  0.639776  0.344689  0.279813  1
  O  O51  1  0.360224  0.844689  0.220187  1
  O  O52  1  0.304294  0.425129  0.771007  1
  O  O53  1  0.695706  0.925129  0.728993  1
  O  O54  1  0.695706  0.574871  0.228993  1
  O  O55  1  0.304294  0.074871  0.271007  1
  O  O56  1  0.912363  0.730135  0.495072  1
  O  O57  1  0.087637  0.230135  0.004928  1
  O  O58  1  0.087637  0.269865  0.504928  1
  O  O59  1  0.912363  0.769865  0.995072  1
  O  O60  1  0.611011  0.659336  0.549590  1
  O  O61  1  0.388989  0.159336  0.950410  1
  O  O62  1  0.388989  0.340664  0.450410  1
  O  O63  1  0.611011  0.840664  0.049590  1
  O  O64  1  0.870976  0.525714  0.082789  1
  O  O65  1  0.129024  0.025714  0.417211  1
  O  O66  1  0.129024  0.474286  0.917211  1
  O  O67  1  0.870976  0.974286  0.582789  1
  O  O68  1  0.230273  0.713570  0.356098  1
  O  O69  1  0.769727  0.213570  0.143902  1
  O  O70  1  0.769727  0.286430  0.643902  1
  O  O71  1  0.230273  0.786430  0.856098  1
