# generated using pymatgen
data_Li7Fe7SiO16
_symmetry_space_group_name_H-M   'P 1'
_cell_length_a   5.23586010
_cell_length_b   5.23586010
_cell_length_c   11.41016440
_cell_angle_alpha   90.00000000
_cell_angle_beta   90.00000000
_cell_angle_gamma   113.42889998
_symmetry_Int_Tables_number   1
_chemical_formula_structural   Li7Fe7SiO16
_chemical_formula_sum   'Li7 Fe7 Si1 O16'
_cell_volume   287.01175942
_cell_formula_units_Z   1
loop_
 _symmetry_equiv_pos_site_id
 _symmetry_equiv_pos_as_xyz
  1  'x, y, z'
loop_
 _atom_site_type_symbol
 _atom_site_label
 _atom_site_symmetry_multiplicity
 _atom_site_fract_x
 _atom_site_fract_y
 _atom_site_fract_z
 _atom_site_occupancy
  Li  Li0  1  0.500000  1.000000  0.121915  1
  Li  Li1  1  0.000000  0.000000  0.248514  1
  Li  Li2  1  0.000000  0.500000  0.373331  1
  Li  Li3  1  0.500000  0.500000  0.500000  1
  Li  Li4  1  0.000000  0.000000  0.751486  1
  Li  Li5  1  0.500000  1.000000  0.626669  1
  Li  Li6  1  0.000000  0.500000  0.878085  1
  Fe  Fe7  1  0.000000  0.500000  0.120992  1
  Fe  Fe8  1  0.500000  0.500000  0.237792  1
  Fe  Fe9  1  0.500000  1.000000  0.373409  1
  Fe  Fe10  1  0.000000  0.000000  0.500000  1
  Fe  Fe11  1  0.000000  0.500000  0.626591  1
  Fe  Fe12  1  0.500000  0.500000  0.762208  1
  Fe  Fe13  1  0.500000  1.000000  0.879008  1
  Si  Si14  1  0.000000  0.000000  0.000000  1
  O  O15  1  0.788195  0.755809  0.117051  1
  O  O16  1  0.797774  0.202226  0.000000  1
  O  O17  1  0.202226  0.797774  0.000000  1
  O  O18  1  0.271372  0.727141  0.245313  1
  O  O19  1  0.211805  0.244191  0.117051  1
  O  O20  1  0.728628  0.272859  0.245313  1
  O  O21  1  0.731653  0.768086  0.371879  1
  O  O22  1  0.768086  0.731653  0.628121  1
  O  O23  1  0.268347  0.231914  0.371879  1
  O  O24  1  0.767642  0.232358  0.500000  1
  O  O25  1  0.232358  0.767642  0.500000  1
  O  O26  1  0.272859  0.728628  0.754687  1
  O  O27  1  0.755809  0.788195  0.882949  1
  O  O28  1  0.231914  0.268347  0.628121  1
  O  O29  1  0.727141  0.271372  0.754687  1
  O  O30  1  0.244191  0.211805  0.882949  1
