# generated using pymatgen
data_LiFe4(PO4)3
_symmetry_space_group_name_H-M   'P 1'
_cell_length_a   7.65280280
_cell_length_b   7.90435065
_cell_length_c   9.64457638
_cell_angle_alpha   110.47495881
_cell_angle_beta   110.67758217
_cell_angle_gamma   94.95532644
_symmetry_Int_Tables_number   1
_chemical_formula_structural   LiFe4(PO4)3
_chemical_formula_sum   'Li2 Fe8 P6 O24'
_cell_volume   496.46182394
_cell_formula_units_Z   2
loop_
 _symmetry_equiv_pos_site_id
 _symmetry_equiv_pos_as_xyz
  1  'x, y, z'
loop_
 _atom_site_type_symbol
 _atom_site_label
 _atom_site_symmetry_multiplicity
 _atom_site_fract_x
 _atom_site_fract_y
 _atom_site_fract_z
 _atom_site_occupancy
  Li  Li0  1  0.386545  0.151557  0.417783  1
  Li  Li1  1  0.613455  0.848443  0.582217  1
  Fe  Fe2  1  0.005641  0.787746  0.448611  1
  Fe  Fe3  1  0.275098  0.912357  0.922739  1
  Fe  Fe4  1  0.286939  0.536204  0.932612  1
  Fe  Fe5  1  0.289848  0.589145  0.285779  1
  Fe  Fe6  1  0.710152  0.410855  0.714221  1
  Fe  Fe7  1  0.713061  0.463796  0.067388  1
  Fe  Fe8  1  0.724902  0.087643  0.077261  1
  Fe  Fe9  1  0.994359  0.212254  0.551389  1
  P  P10  1  0.014479  0.238420  0.924155  1
  P  P11  1  0.310729  0.551268  0.609154  1
  P  P12  1  0.405707  0.132560  0.742744  1
  P  P13  1  0.594293  0.867440  0.257256  1
  P  P14  1  0.689271  0.448732  0.390846  1
  P  P15  1  0.985521  0.761580  0.075845  1
  O  O16  1  0.145885  0.755163  0.013740  1
  O  O17  1  0.074794  0.054781  0.894429  1
  O  O18  1  0.188919  0.047450  0.623601  1
  O  O19  1  0.252586  0.634907  0.756377  1
  O  O20  1  0.205713  0.340779  0.513969  1
  O  O21  1  0.054311  0.725438  0.235377  1
  O  O22  1  0.438682  0.337215  0.863388  1
  O  O23  1  0.240796  0.656820  0.496475  1
  O  O24  1  0.470546  0.015721  0.845357  1
  O  O25  1  0.188373  0.407683  0.049798  1
  O  O26  1  0.529493  0.582603  0.666201  1
  O  O27  1  0.527520  0.135850  0.644224  1
  O  O28  1  0.472480  0.864150  0.355776  1
  O  O29  1  0.470507  0.417397  0.333799  1
  O  O30  1  0.811627  0.592317  0.950202  1
  O  O31  1  0.529454  0.984279  0.154643  1
  O  O32  1  0.759204  0.343180  0.503525  1
  O  O33  1  0.561318  0.662785  0.136612  1
  O  O34  1  0.945689  0.274562  0.764623  1
  O  O35  1  0.794287  0.659221  0.486031  1
  O  O36  1  0.747414  0.365093  0.243623  1
  O  O37  1  0.811081  0.952550  0.376399  1
  O  O38  1  0.925206  0.945219  0.105571  1
  O  O39  1  0.854115  0.244837  0.986260  1
