# generated using pymatgen
data_SmCuO3
_symmetry_space_group_name_H-M   'P 1'
_cell_length_a   5.33426291
_cell_length_b   5.33426291
_cell_length_c   5.33426291
_cell_angle_alpha   62.44453442
_cell_angle_beta   62.44453442
_cell_angle_gamma   62.44453442
_symmetry_Int_Tables_number   1
_chemical_formula_structural   SmCuO3
_chemical_formula_sum   'Sm2 Cu2 O6'
_cell_volume   113.17609883
_cell_formula_units_Z   2
loop_
 _symmetry_equiv_pos_site_id
 _symmetry_equiv_pos_as_xyz
  1  'x, y, z'
loop_
 _atom_site_type_symbol
 _atom_site_label
 _atom_site_symmetry_multiplicity
 _atom_site_fract_x
 _atom_site_fract_y
 _atom_site_fract_z
 _atom_site_occupancy
  Sm  Sm0  1  0.750000  0.750000  0.750000  1
  Sm  Sm1  1  0.250000  0.250000  0.250000  1
  Cu  Cu2  1  0.000000  0.000000  0.000000  1
  Cu  Cu3  1  0.500000  0.500000  0.500000  1
  O  O4  1  0.673498  0.826502  0.250000  1
  O  O5  1  0.173498  0.750000  0.326502  1
  O  O6  1  0.750000  0.326502  0.173498  1
  O  O7  1  0.250000  0.673498  0.826502  1
  O  O8  1  0.826502  0.250000  0.673498  1
  O  O9  1  0.326502  0.173498  0.750000  1
