# generated using pymatgen
data_KLi2MnPCO7
_symmetry_space_group_name_H-M   'P 1'
_cell_length_a   5.59609666
_cell_length_b   6.76945252
_cell_length_c   9.27605775
_cell_angle_alpha   90.00000000
_cell_angle_beta   90.52038817
_cell_angle_gamma   90.00000000
_symmetry_Int_Tables_number   1
_chemical_formula_structural   KLi2MnPCO7
_chemical_formula_sum   'K2 Li4 Mn2 P2 C2 O14'
_cell_volume   351.38586250
_cell_formula_units_Z   2
loop_
 _symmetry_equiv_pos_site_id
 _symmetry_equiv_pos_as_xyz
  1  'x, y, z'
loop_
 _atom_site_type_symbol
 _atom_site_label
 _atom_site_symmetry_multiplicity
 _atom_site_fract_x
 _atom_site_fract_y
 _atom_site_fract_z
 _atom_site_occupancy
  K  K0  1  0.226006  0.464887  0.752315  1
  K  K1  1  0.773994  0.964887  0.247685  1
  Li  Li2  1  0.197912  0.916362  0.651963  1
  Li  Li3  1  0.612260  0.089751  0.661723  1
  Li  Li4  1  0.387740  0.589751  0.338277  1
  Li  Li5  1  0.802088  0.416362  0.348037  1
  Mn  Mn6  1  0.779814  0.770209  0.874440  1
  Mn  Mn7  1  0.220186  0.270209  0.125560  1
  P  P8  1  0.715124  0.271980  0.924523  1
  P  P9  1  0.284876  0.771980  0.075477  1
  C  C10  1  0.707353  0.737368  0.567682  1
  C  C11  1  0.292647  0.237368  0.432318  1
  O  O12  1  0.328664  0.160089  0.558146  1
  O  O13  1  0.922380  0.762281  0.617954  1
  O  O14  1  0.527019  0.795345  0.646583  1
  O  O15  1  0.790366  0.088925  0.830601  1
  O  O16  1  0.764738  0.457468  0.830404  1
  O  O17  1  0.145683  0.772278  0.930312  1
  O  O18  1  0.442559  0.257025  0.951639  1
  O  O19  1  0.557441  0.757025  0.048361  1
  O  O20  1  0.854317  0.272278  0.069688  1
  O  O21  1  0.235262  0.957468  0.169596  1
  O  O22  1  0.209634  0.588925  0.169399  1
  O  O23  1  0.472981  0.295345  0.353417  1
  O  O24  1  0.077620  0.262281  0.382046  1
  O  O25  1  0.671336  0.660089  0.441854  1
