# generated using pymatgen
data_Li3Cr(BO3)2
_symmetry_space_group_name_H-M   'P 1'
_cell_length_a   9.09961039
_cell_length_b   6.03959634
_cell_length_c   9.43584629
_cell_angle_alpha   90.00000000
_cell_angle_beta   115.14716561
_cell_angle_gamma   90.00000000
_symmetry_Int_Tables_number   1
_chemical_formula_structural   Li3Cr(BO3)2
_chemical_formula_sum   'Li12 Cr4 B8 O24'
_cell_volume   469.42408709
_cell_formula_units_Z   4
loop_
 _symmetry_equiv_pos_site_id
 _symmetry_equiv_pos_as_xyz
  1  'x, y, z'
loop_
 _atom_site_type_symbol
 _atom_site_label
 _atom_site_symmetry_multiplicity
 _atom_site_fract_x
 _atom_site_fract_y
 _atom_site_fract_z
 _atom_site_occupancy
  Li  Li0  1  0.865908  0.287774  0.072702  1
  Li  Li1  1  0.713208  0.065543  0.185051  1
  Li  Li2  1  0.865908  0.212226  0.572702  1
  Li  Li3  1  0.713208  0.434457  0.685051  1
  Li  Li4  1  0.620496  0.748555  0.486405  1
  Li  Li5  1  0.379504  0.248555  0.013595  1
  Li  Li6  1  0.620496  0.751445  0.986405  1
  Li  Li7  1  0.379504  0.251445  0.513595  1
  Li  Li8  1  0.286792  0.565543  0.314949  1
  Li  Li9  1  0.134092  0.787774  0.427298  1
  Li  Li10  1  0.286792  0.934457  0.814949  1
  Li  Li11  1  0.134092  0.712226  0.927298  1
  Cr  Cr12  1  0.767438  0.966217  0.781075  1
  Cr  Cr13  1  0.232562  0.466217  0.718925  1
  Cr  Cr14  1  0.767438  0.533783  0.281075  1
  Cr  Cr15  1  0.232562  0.033783  0.218925  1
  B  B16  1  0.949670  0.714517  0.080367  1
  B  B17  1  0.949670  0.785483  0.580367  1
  B  B18  1  0.546686  0.339775  0.314497  1
  B  B19  1  0.453314  0.839775  0.185503  1
  B  B20  1  0.546686  0.160225  0.814497  1
  B  B21  1  0.453314  0.660225  0.685503  1
  B  B22  1  0.050330  0.214517  0.419633  1
  B  B23  1  0.050330  0.285483  0.919633  1
  O  O24  1  0.823567  0.607472  0.098560  1
  O  O25  1  0.901845  0.255573  0.295014  1
  O  O26  1  0.932775  0.731164  0.431586  1
  O  O27  1  0.823567  0.892528  0.598560  1
  O  O28  1  0.901845  0.244427  0.795014  1
  O  O29  1  0.600848  0.790918  0.187053  1
  O  O30  1  0.932775  0.768836  0.931586  1
  O  O31  1  0.577117  0.318259  0.182916  1
  O  O32  1  0.677906  0.433374  0.443096  1
  O  O33  1  0.600848  0.709082  0.687053  1
  O  O34  1  0.322094  0.933374  0.056904  1
  O  O35  1  0.577117  0.181741  0.682916  1
  O  O36  1  0.677906  0.066626  0.943096  1
  O  O37  1  0.422883  0.818259  0.317084  1
  O  O38  1  0.399152  0.290918  0.312947  1
  O  O39  1  0.322094  0.566626  0.556904  1
  O  O40  1  0.422883  0.681741  0.817084  1
  O  O41  1  0.067225  0.231164  0.068414  1
  O  O42  1  0.399152  0.209082  0.812947  1
  O  O43  1  0.098155  0.755573  0.204986  1
  O  O44  1  0.176433  0.107472  0.401440  1
  O  O45  1  0.067225  0.268836  0.568414  1
  O  O46  1  0.098155  0.744427  0.704986  1
  O  O47  1  0.176433  0.392528  0.901440  1
