# generated using pymatgen
data_LiCoP2O7
_symmetry_space_group_name_H-M   'P 1'
_cell_length_a   8.00699531
_cell_length_b   5.19275068
_cell_length_c   13.77230562
_cell_angle_alpha   90.00000000
_cell_angle_beta   111.56502215
_cell_angle_gamma   90.00000000
_symmetry_Int_Tables_number   1
_chemical_formula_structural   LiCoP2O7
_chemical_formula_sum   'Li4 Co4 P8 O28'
_cell_volume   532.54600759
_cell_formula_units_Z   4
loop_
 _symmetry_equiv_pos_site_id
 _symmetry_equiv_pos_as_xyz
  1  'x, y, z'
loop_
 _atom_site_type_symbol
 _atom_site_label
 _atom_site_symmetry_multiplicity
 _atom_site_fract_x
 _atom_site_fract_y
 _atom_site_fract_z
 _atom_site_occupancy
  Li  Li0  1  0.418726  0.520445  0.174025  1
  Li  Li1  1  0.973057  0.913653  0.830280  1
  Li  Li2  1  0.973057  0.086347  0.330280  1
  Li  Li3  1  0.418726  0.479555  0.674025  1
  Co  Co4  1  0.730134  0.034620  0.628527  1
  Co  Co5  1  0.730134  0.965380  0.128527  1
  Co  Co6  1  0.268574  0.515319  0.854843  1
  Co  Co7  1  0.268574  0.484681  0.354843  1
  P  P8  1  0.819526  0.447813  0.802891  1
  P  P9  1  0.302828  0.034128  0.017860  1
  P  P10  1  0.698909  0.541797  0.482355  1
  P  P11  1  0.819526  0.552187  0.302891  1
  P  P12  1  0.179128  0.981994  0.693635  1
  P  P13  1  0.302828  0.965872  0.517860  1
  P  P14  1  0.698909  0.458203  0.982355  1
  P  P15  1  0.179128  0.018006  0.193635  1
  O  O16  1  0.271881  0.278675  0.227710  1
  O  O17  1  0.156525  0.984832  0.072528  1
  O  O18  1  0.281050  0.783215  0.252363  1
  O  O19  1  0.516971  0.450166  0.404415  1
  O  O20  1  0.312008  0.324118  0.001764  1
  O  O21  1  0.695585  0.828022  0.507282  1
  O  O22  1  0.774242  0.369435  0.577758  1
  O  O23  1  0.477131  0.915345  0.096979  1
  O  O24  1  0.013971  0.507997  0.812757  1
  O  O25  1  0.684627  0.362634  0.234291  1
  O  O26  1  0.986313  0.966018  0.691665  1
  O  O27  1  0.838435  0.513804  0.423681  1
  O  O28  1  0.772688  0.836073  0.276929  1
  O  O29  1  0.226307  0.883191  0.916339  1
  O  O30  1  0.774242  0.630565  0.077758  1
  O  O31  1  0.271881  0.721325  0.727710  1
  O  O32  1  0.156525  0.015168  0.572528  1
  O  O33  1  0.013971  0.492003  0.312757  1
  O  O34  1  0.281050  0.216785  0.752363  1
  O  O35  1  0.986313  0.033982  0.191665  1
  O  O36  1  0.516971  0.549834  0.904415  1
  O  O37  1  0.226307  0.116809  0.416339  1
  O  O38  1  0.312008  0.675882  0.501764  1
  O  O39  1  0.695585  0.171978  0.007282  1
  O  O40  1  0.477131  0.084655  0.596979  1
  O  O41  1  0.684627  0.637366  0.734291  1
  O  O42  1  0.838435  0.486196  0.923681  1
  O  O43  1  0.772688  0.163927  0.776929  1
