# generated using pymatgen
data_Li3CoNi3O8
_symmetry_space_group_name_H-M   'P 1'
_cell_length_a   5.72019817
_cell_length_b   5.72019817
_cell_length_c   9.29561370
_cell_angle_alpha   90.00000000
_cell_angle_beta   90.00000000
_cell_angle_gamma   120.00000000
_symmetry_Int_Tables_number   1
_chemical_formula_structural   Li3CoNi3O8
_chemical_formula_sum   'Li6 Co2 Ni6 O16'
_cell_volume   263.40914531
_cell_formula_units_Z   2
loop_
 _symmetry_equiv_pos_site_id
 _symmetry_equiv_pos_as_xyz
  1  'x, y, z'
loop_
 _atom_site_type_symbol
 _atom_site_label
 _atom_site_symmetry_multiplicity
 _atom_site_fract_x
 _atom_site_fract_y
 _atom_site_fract_z
 _atom_site_occupancy
  Li  Li0  1  0.161364  0.826499  0.051853  1
  Li  Li1  1  0.665135  0.838636  0.051853  1
  Li  Li2  1  0.173501  0.334865  0.051853  1
  Li  Li3  1  0.838636  0.665135  0.551853  1
  Li  Li4  1  0.334865  0.173501  0.551853  1
  Li  Li5  1  0.826499  0.161364  0.551853  1
  Co  Co6  1  0.333333  0.666667  0.513613  1
  Co  Co7  1  0.666667  0.333333  0.013613  1
  Ni  Ni8  1  0.163826  0.823749  0.786134  1
  Ni  Ni9  1  0.659923  0.836174  0.786134  1
  Ni  Ni10  1  0.176251  0.340077  0.786134  1
  Ni  Ni11  1  0.836174  0.659923  0.286134  1
  Ni  Ni12  1  0.340077  0.176251  0.286134  1
  Ni  Ni13  1  0.823749  0.163826  0.286134  1
  O  O14  1  0.155127  0.822245  0.412884  1
  O  O15  1  0.462586  0.961243  0.648152  1
  O  O16  1  0.667117  0.844873  0.412884  1
  O  O17  1  0.333333  0.666667  0.894418  1
  O  O18  1  0.038757  0.501343  0.648152  1
  O  O19  1  0.498657  0.537414  0.648152  1
  O  O20  1  0.844873  0.667117  0.912884  1
  O  O21  1  0.177755  0.332883  0.412884  1
  O  O22  1  0.537414  0.498657  0.148152  1
  O  O23  1  0.666667  0.333333  0.394418  1
  O  O24  1  0.000000  0.000000  0.185890  1
  O  O25  1  0.961243  0.462586  0.148152  1
  O  O26  1  0.000000  0.000000  0.685890  1
  O  O27  1  0.332883  0.177755  0.912884  1
  O  O28  1  0.501343  0.038757  0.148152  1
  O  O29  1  0.822245  0.155127  0.912884  1
