# generated using pymatgen
data_Li5Mn5(CoO6)2
_symmetry_space_group_name_H-M   'P 1'
_cell_length_a   5.16072937
_cell_length_b   5.16072937
_cell_length_c   9.84258474
_cell_angle_alpha   85.41838391
_cell_angle_beta   94.58161609
_cell_angle_gamma   60.87952515
_symmetry_Int_Tables_number   1
_chemical_formula_structural   Li5Mn5(CoO6)2
_chemical_formula_sum   'Li5 Mn5 Co2 O12'
_cell_volume   226.13974427
_cell_formula_units_Z   1
loop_
 _symmetry_equiv_pos_site_id
 _symmetry_equiv_pos_as_xyz
  1  'x, y, z'
loop_
 _atom_site_type_symbol
 _atom_site_label
 _atom_site_symmetry_multiplicity
 _atom_site_fract_x
 _atom_site_fract_y
 _atom_site_fract_z
 _atom_site_occupancy
  Li  Li0  1  0.153476  0.676152  0.241760  1
  Li  Li1  1  0.676152  0.153476  0.758240  1
  Li  Li2  1  0.342574  0.832903  0.755898  1
  Li  Li3  1  0.832903  0.342574  0.244102  1
  Li  Li4  1  0.081018  0.081018  0.000000  1
  Mn  Mn5  1  0.003889  0.486485  0.757612  1
  Mn  Mn6  1  0.486485  0.003889  0.242388  1
  Mn  Mn7  1  0.922234  0.922234  0.500000  1
  Mn  Mn8  1  0.417825  0.417825  0.000000  1
  Mn  Mn9  1  0.581798  0.581798  0.500000  1
  Co  Co10  1  0.744945  0.744945  0.000000  1
  Co  Co11  1  0.250810  0.250810  0.500000  1
  O  O12  1  0.049155  0.752024  0.887410  1
  O  O13  1  0.303088  0.541851  0.615593  1
  O  O14  1  0.650515  0.832886  0.629938  1
  O  O15  1  0.156772  0.363749  0.124254  1
  O  O16  1  0.206405  0.979250  0.366862  1
  O  O17  1  0.466539  0.694276  0.111372  1
  O  O18  1  0.541851  0.303088  0.384407  1
  O  O19  1  0.752024  0.049155  0.112590  1
  O  O20  1  0.832886  0.650515  0.370062  1
  O  O21  1  0.363749  0.156772  0.875746  1
  O  O22  1  0.694276  0.466539  0.888628  1
  O  O23  1  0.979250  0.206405  0.633138  1
