# generated using pymatgen
data_LiFeF3
_symmetry_space_group_name_H-M   'P 1'
_cell_length_a   3.03144087
_cell_length_b   7.83895652
_cell_length_c   9.99044612
_cell_angle_alpha   90.00000000
_cell_angle_beta   90.00000000
_cell_angle_gamma   90.00000000
_symmetry_Int_Tables_number   1
_chemical_formula_structural   LiFeF3
_chemical_formula_sum   'Li4 Fe4 F12'
_cell_volume   237.40629938
_cell_formula_units_Z   4
loop_
 _symmetry_equiv_pos_site_id
 _symmetry_equiv_pos_as_xyz
  1  'x, y, z'
loop_
 _atom_site_type_symbol
 _atom_site_label
 _atom_site_symmetry_multiplicity
 _atom_site_fract_x
 _atom_site_fract_y
 _atom_site_fract_z
 _atom_site_occupancy
  Li  Li0  1  0.750000  0.997302  0.814001  1
  Li  Li1  1  0.250000  0.502698  0.314001  1
  Li  Li2  1  0.750000  0.497302  0.685999  1
  Li  Li3  1  0.250000  0.002698  0.185999  1
  Fe  Fe4  1  0.250000  0.809410  0.513502  1
  Fe  Fe5  1  0.750000  0.690590  0.013502  1
  Fe  Fe6  1  0.250000  0.309410  0.986498  1
  Fe  Fe7  1  0.750000  0.190590  0.486498  1
  F  F8  1  0.250000  0.026368  0.388989  1
  F  F9  1  0.250000  0.824581  0.912483  1
  F  F10  1  0.750000  0.850456  0.164247  1
  F  F11  1  0.250000  0.649544  0.664247  1
  F  F12  1  0.750000  0.675419  0.412483  1
  F  F13  1  0.750000  0.473632  0.888989  1
  F  F14  1  0.250000  0.526368  0.111011  1
  F  F15  1  0.250000  0.324581  0.587517  1
  F  F16  1  0.750000  0.350456  0.335753  1
  F  F17  1  0.250000  0.149544  0.835753  1
  F  F18  1  0.750000  0.175419  0.087517  1
  F  F19  1  0.750000  0.973632  0.611011  1
