# generated using pymatgen
data_Li3Ni2(CO3)4
_symmetry_space_group_name_H-M   'P 1'
_cell_length_a   6.88485478
_cell_length_b   9.47496392
_cell_length_c   8.37218844
_cell_angle_alpha   90.00000000
_cell_angle_beta   109.93501666
_cell_angle_gamma   90.00000000
_symmetry_Int_Tables_number   1
_chemical_formula_structural   Li3Ni2(CO3)4
_chemical_formula_sum   'Li6 Ni4 C8 O24'
_cell_volume   513.42394962
_cell_formula_units_Z   2
loop_
 _symmetry_equiv_pos_site_id
 _symmetry_equiv_pos_as_xyz
  1  'x, y, z'
loop_
 _atom_site_type_symbol
 _atom_site_label
 _atom_site_symmetry_multiplicity
 _atom_site_fract_x
 _atom_site_fract_y
 _atom_site_fract_z
 _atom_site_occupancy
  Li  Li0  1  0.301130  0.195173  0.168474  1
  Li  Li1  1  0.252184  0.886100  0.901010  1
  Li  Li2  1  0.747816  0.386100  0.098990  1
  Li  Li3  1  0.698870  0.695173  0.831526  1
  Li  Li4  1  0.753436  0.613865  0.402413  1
  Li  Li5  1  0.246564  0.113865  0.597587  1
  Ni  Ni6  1  0.290268  0.385462  0.799167  1
  Ni  Ni7  1  0.709732  0.885462  0.200833  1
  Ni  Ni8  1  0.787836  0.116170  0.300413  1
  Ni  Ni9  1  0.212164  0.616170  0.699587  1
  C  C10  1  0.493801  0.606044  0.025983  1
  C  C11  1  0.506199  0.106044  0.974017  1
  C  C12  1  0.517343  0.490266  0.605919  1
  C  C13  1  0.482657  0.990266  0.394081  1
  C  C14  1  0.020923  0.004499  0.112088  1
  C  C15  1  0.979077  0.504499  0.887912  1
  C  C16  1  0.992262  0.892422  0.520625  1
  C  C17  1  0.007738  0.392422  0.479375  1
  O  O18  1  0.378421  0.154260  0.838857  1
  O  O19  1  0.465596  0.471155  0.005118  1
  O  O20  1  0.399034  0.694119  0.902892  1
  O  O21  1  0.600966  0.194119  0.097108  1
  O  O22  1  0.534404  0.971155  0.994882  1
  O  O23  1  0.621579  0.654260  0.161143  1
  O  O24  1  0.369607  0.982333  0.482789  1
  O  O25  1  0.440387  0.615710  0.624750  1
  O  O26  1  0.481403  0.380918  0.684988  1
  O  O27  1  0.518597  0.880918  0.315012  1
  O  O28  1  0.559613  0.115710  0.375250  1
  O  O29  1  0.844740  0.517641  0.959499  1
  O  O30  1  0.630393  0.482333  0.517211  1
  O  O31  1  0.914902  0.889558  0.098303  1
  O  O32  1  0.998029  0.113391  0.201517  1
  O  O33  1  0.001971  0.613391  0.798483  1
  O  O34  1  0.085098  0.389558  0.901697  1
  O  O35  1  0.155260  0.017641  0.040501  1
  O  O36  1  0.881724  0.344928  0.341032  1
  O  O37  1  0.962377  0.028423  0.503665  1
  O  O38  1  0.895302  0.806369  0.399874  1
  O  O39  1  0.104698  0.306369  0.600126  1
  O  O40  1  0.037623  0.528423  0.496335  1
  O  O41  1  0.118276  0.844928  0.658968  1
