# generated using pymatgen
data_Hf2N2O
_symmetry_space_group_name_H-M   'P 1'
_cell_length_a   8.71977818
_cell_length_b   8.73047394
_cell_length_c   8.73829808
_cell_angle_alpha   109.37495894
_cell_angle_beta   109.48809066
_cell_angle_gamma   109.41164901
_symmetry_Int_Tables_number   1
_chemical_formula_structural   Hf2N2O
_chemical_formula_sum   'Hf16 N16 O8'
_cell_volume   512.96823676
_cell_formula_units_Z   8
loop_
 _symmetry_equiv_pos_site_id
 _symmetry_equiv_pos_as_xyz
  1  'x, y, z'
loop_
 _atom_site_type_symbol
 _atom_site_label
 _atom_site_symmetry_multiplicity
 _atom_site_fract_x
 _atom_site_fract_y
 _atom_site_fract_z
 _atom_site_occupancy
  Hf  Hf0  1  0.998986  0.012264  0.508612  1
  Hf  Hf1  1  0.244238  0.705341  0.461978  1
  Hf  Hf2  1  0.294013  0.043038  0.256123  1
  Hf  Hf3  1  0.775691  0.526872  0.247613  1
  Hf  Hf4  1  0.743982  0.786404  0.037056  1
  Hf  Hf5  1  0.956440  0.740994  0.707593  1
  Hf  Hf6  1  0.002471  0.490500  0.992090  1
  Hf  Hf7  1  0.510139  0.003524  0.011240  1
  Hf  Hf8  1  0.033950  0.258035  0.284928  1
  Hf  Hf9  1  0.487453  0.481696  0.489997  1
  Hf  Hf10  1  0.533075  0.250042  0.786720  1
  Hf  Hf11  1  0.472267  0.749719  0.208276  1
  Hf  Hf12  1  0.250235  0.218309  0.961721  1
  Hf  Hf13  1  0.213823  0.464200  0.748502  1
  Hf  Hf14  1  0.724443  0.974832  0.755692  1
  Hf  Hf15  1  0.752423  0.287995  0.537615  1
  N  N16  1  0.963600  0.004694  0.736403  1
  N  N17  1  0.730334  0.759896  0.272471  1
  N  N18  1  0.535237  0.270547  0.042188  1
  N  N19  1  0.541241  0.032218  0.268681  1
  N  N20  1  0.987596  0.461824  0.229433  1
  N  N21  1  0.270910  0.236160  0.724084  1
  N  N22  1  0.728740  0.496228  0.457800  1
  N  N23  1  0.012626  0.551410  0.778411  1
  N  N24  1  0.772758  0.228456  0.766498  1
  N  N25  1  0.239993  0.467763  0.016671  1
  N  N26  1  0.259956  0.266953  0.226919  1
  N  N27  1  0.486348  0.260483  0.533307  1
  N  N28  1  0.774058  0.042397  0.030598  1
  N  N29  1  0.468609  0.728284  0.953880  1
  N  N30  1  0.952279  0.224306  0.484160  1
  N  N31  1  0.276675  0.518527  0.547094  1
  O  O32  1  0.057350  0.778034  0.522001  1
  O  O33  1  0.036770  0.980600  0.261570  1
  O  O34  1  0.448994  0.963607  0.722124  1
  O  O35  1  0.511623  0.746623  0.470836  1
  O  O36  1  0.737300  0.723168  0.773359  1
  O  O37  1  0.757333  0.535539  0.979888  1
  O  O38  1  0.227894  0.952730  0.963319  1
  O  O39  1  0.228149  0.775786  0.242553  1
