# generated using pymatgen
data_Tl3SnSe4
_symmetry_space_group_name_H-M   'P 1'
_cell_length_a   8.36892649
_cell_length_b   8.42498023
_cell_length_c   15.29312746
_cell_angle_alpha   90.00000000
_cell_angle_beta   99.23075561
_cell_angle_gamma   90.00000000
_symmetry_Int_Tables_number   1
_chemical_formula_structural   Tl3SnSe4
_chemical_formula_sum   'Tl12 Sn4 Se16'
_cell_volume   1064.32493507
_cell_formula_units_Z   4
loop_
 _symmetry_equiv_pos_site_id
 _symmetry_equiv_pos_as_xyz
  1  'x, y, z'
loop_
 _atom_site_type_symbol
 _atom_site_label
 _atom_site_symmetry_multiplicity
 _atom_site_fract_x
 _atom_site_fract_y
 _atom_site_fract_z
 _atom_site_occupancy
  Tl  Tl0  1  0.492312  0.025477  0.383336  1
  Tl  Tl1  1  0.507688  0.525477  0.116664  1
  Tl  Tl2  1  0.507688  0.974523  0.616664  1
  Tl  Tl3  1  0.492312  0.474523  0.883336  1
  Tl  Tl4  1  0.266372  0.391901  0.363320  1
  Tl  Tl5  1  0.733628  0.891901  0.136680  1
  Tl  Tl6  1  0.733628  0.608099  0.636680  1
  Tl  Tl7  1  0.266372  0.108099  0.863320  1
  Tl  Tl8  1  0.097960  0.826518  0.386320  1
  Tl  Tl9  1  0.902040  0.326518  0.113680  1
  Tl  Tl10  1  0.902040  0.173482  0.613680  1
  Tl  Tl11  1  0.097960  0.673482  0.886320  1
  Sn  Sn12  1  0.702115  0.597916  0.375911  1
  Sn  Sn13  1  0.297885  0.097916  0.124089  1
  Sn  Sn14  1  0.297885  0.402084  0.624089  1
  Sn  Sn15  1  0.702115  0.902084  0.875911  1
  Se  Se16  1  0.335222  0.641877  0.525680  1
  Se  Se17  1  0.664778  0.141877  0.974320  1
  Se  Se18  1  0.664778  0.358123  0.474320  1
  Se  Se19  1  0.335222  0.858123  0.025680  1
  Se  Se20  1  0.918087  0.570098  0.272475  1
  Se  Se21  1  0.081913  0.070098  0.227525  1
  Se  Se22  1  0.081913  0.429902  0.727525  1
  Se  Se23  1  0.918087  0.929902  0.772475  1
  Se  Se24  1  0.804839  0.659154  0.975265  1
  Se  Se25  1  0.195161  0.159154  0.524735  1
  Se  Se26  1  0.195161  0.340846  0.024735  1
  Se  Se27  1  0.804839  0.840846  0.475265  1
  Se  Se28  1  0.563302  0.194499  0.218017  1
  Se  Se29  1  0.436698  0.694499  0.281983  1
  Se  Se30  1  0.436698  0.805501  0.781983  1
  Se  Se31  1  0.563302  0.305501  0.718017  1
