# generated using pymatgen
data_LiMnV(P2O7)2
_symmetry_space_group_name_H-M   'P 1'
_cell_length_a   8.17388040
_cell_length_b   9.73242302
_cell_length_c   9.98795080
_cell_angle_alpha   94.91070218
_cell_angle_beta   90.53301600
_cell_angle_gamma   91.89825290
_symmetry_Int_Tables_number   1
_chemical_formula_structural   LiMnV(P2O7)2
_chemical_formula_sum   'Li3 Mn3 V3 P12 O42'
_cell_volume   791.14830221
_cell_formula_units_Z   3
loop_
 _symmetry_equiv_pos_site_id
 _symmetry_equiv_pos_as_xyz
  1  'x, y, z'
loop_
 _atom_site_type_symbol
 _atom_site_label
 _atom_site_symmetry_multiplicity
 _atom_site_fract_x
 _atom_site_fract_y
 _atom_site_fract_z
 _atom_site_occupancy
  Li  Li0  1  0.357726  0.277627  0.051109  1
  Li  Li1  1  0.863495  0.724139  0.947656  1
  Li  Li2  1  0.862850  0.058110  0.613046  1
  Mn  Mn3  1  0.007672  0.916252  0.350003  1
  Mn  Mn4  1  0.993141  0.255624  0.023551  1
  Mn  Mn5  1  0.006034  0.582458  0.682285  1
  V  V6  1  0.504747  0.412735  0.314468  1
  V  V7  1  0.495919  0.743348  0.975062  1
  V  V8  1  0.494635  0.077632  0.640212  1
  P  P9  1  0.780735  0.987609  0.103952  1
  P  P10  1  0.288606  0.679506  0.234337  1
  P  P11  1  0.682077  0.455303  0.027613  1
  P  P12  1  0.176150  0.878802  0.641818  1
  P  P13  1  0.782175  0.654447  0.436052  1
  P  P14  1  0.679373  0.788518  0.695803  1
  P  P15  1  0.175189  0.211940  0.306155  1
  P  P16  1  0.286879  0.347851  0.565983  1
  P  P17  1  0.678409  0.122482  0.362857  1
  P  P18  1  0.177442  0.546793  0.975661  1
  P  P19  1  0.781252  0.321408  0.770110  1
  P  P20  1  0.289021  0.012083  0.898408  1
  O  O21  1  0.686344  0.877466  0.011075  1
  O  O22  1  0.932810  0.924880  0.160890  1
  O  O23  1  0.439061  0.738456  0.161500  1
  O  O24  1  0.151030  0.631833  0.118736  1
  O  O25  1  0.203874  0.777181  0.331172  1
  O  O26  1  0.827614  0.781407  0.361942  1
  O  O27  1  0.038559  0.928432  0.554728  1
  O  O28  1  0.847649  0.425830  0.080398  1
  O  O29  1  0.347019  0.922958  0.594351  1
  O  O30  1  0.537015  0.407223  0.111513  1
  O  O31  1  0.670811  0.941839  0.664874  1
  O  O32  1  0.341739  0.546721  0.295251  1
  O  O33  1  0.680455  0.551889  0.342158  1
  O  O34  1  0.149609  0.967024  0.785580  1
  O  O35  1  0.653170  0.698996  0.554083  1
  O  O36  1  0.821124  0.112648  0.026776  1
  O  O37  1  0.931963  0.592864  0.496656  1
  O  O38  1  0.172290  0.726510  0.663294  1
  O  O39  1  0.038403  0.254528  0.215912  1
  O  O40  1  0.344656  0.259089  0.254353  1
  O  O41  1  0.844036  0.756754  0.754712  1
  O  O42  1  0.535971  0.746632  0.783663  1
  O  O43  1  0.662063  0.274233  0.331633  1
  O  O44  1  0.440471  0.407983  0.499816  1
  O  O45  1  0.333013  0.880091  0.962804  1
  O  O46  1  0.152642  0.298915  0.449384  1
  O  O47  1  0.652361  0.031943  0.220269  1
  O  O48  1  0.200808  0.443532  0.664008  1
  O  O49  1  0.174188  0.059561  0.330635  1
  O  O50  1  0.826216  0.447739  0.696329  1
  O  O51  1  0.038897  0.592468  0.887833  1
  O  O52  1  0.843582  0.090924  0.419964  1
  O  O53  1  0.348281  0.588695  0.926872  1
  O  O54  1  0.535212  0.077147  0.449054  1
  O  O55  1  0.670704  0.608551  0.997903  1
  O  O56  1  0.337591  0.215043  0.630016  1
  O  O57  1  0.689426  0.211207  0.675550  1
  O  O58  1  0.649107  0.364525  0.884275  1
  O  O59  1  0.931091  0.258929  0.832573  1
  O  O60  1  0.176539  0.392630  0.996965  1
  O  O61  1  0.441216  0.072416  0.829966  1
  O  O62  1  0.212705  0.117381  0.995585  1
