# generated using pymatgen
data_LiVF5
_symmetry_space_group_name_H-M   'P 1'
_cell_length_a   5.47731490
_cell_length_b   5.66208208
_cell_length_c   7.38182959
_cell_angle_alpha   104.77394078
_cell_angle_beta   99.48962934
_cell_angle_gamma   110.17100476
_symmetry_Int_Tables_number   1
_chemical_formula_structural   LiVF5
_chemical_formula_sum   'Li2 V2 F10'
_cell_volume   199.56481606
_cell_formula_units_Z   2
loop_
 _symmetry_equiv_pos_site_id
 _symmetry_equiv_pos_as_xyz
  1  'x, y, z'
loop_
 _atom_site_type_symbol
 _atom_site_label
 _atom_site_symmetry_multiplicity
 _atom_site_fract_x
 _atom_site_fract_y
 _atom_site_fract_z
 _atom_site_occupancy
  Li  Li0  1  0.326481  0.698655  0.768194  1
  Li  Li1  1  0.673519  0.301345  0.231806  1
  V  V2  1  0.000000  0.000000  0.500000  1
  V  V3  1  0.000000  0.000000  0.000000  1
  F  F4  1  0.270865  0.338895  0.621494  1
  F  F5  1  0.765288  0.155734  0.421285  1
  F  F6  1  0.234712  0.844266  0.578715  1
  F  F7  1  0.975858  0.316309  0.118798  1
  F  F8  1  0.113599  0.978113  0.262292  1
  F  F9  1  0.729135  0.661105  0.378506  1
  F  F10  1  0.368442  0.192245  0.026014  1
  F  F11  1  0.631558  0.807755  0.973986  1
  F  F12  1  0.886401  0.021887  0.737708  1
  F  F13  1  0.024142  0.683691  0.881202  1
