# generated using pymatgen
data_Zr2N2O
_symmetry_space_group_name_H-M   'P 1'
_cell_length_a   8.86681005
_cell_length_b   8.87617348
_cell_length_c   8.87817094
_cell_angle_alpha   109.65738258
_cell_angle_beta   109.36006317
_cell_angle_gamma   109.33706134
_symmetry_Int_Tables_number   1
_chemical_formula_structural   Zr2N2O
_chemical_formula_sum   'Zr16 N16 O8'
_cell_volume   538.28004500
_cell_formula_units_Z   8
loop_
 _symmetry_equiv_pos_site_id
 _symmetry_equiv_pos_as_xyz
  1  'x, y, z'
loop_
 _atom_site_type_symbol
 _atom_site_label
 _atom_site_symmetry_multiplicity
 _atom_site_fract_x
 _atom_site_fract_y
 _atom_site_fract_z
 _atom_site_occupancy
  Zr  Zr0  1  0.713984  0.958098  0.249452  1
  Zr  Zr1  1  0.499968  0.507125  0.489851  1
  Zr  Zr2  1  0.756066  0.790471  0.967997  1
  Zr  Zr3  1  0.241722  0.703777  0.536209  1
  Zr  Zr4  1  0.972444  0.750613  0.280719  1
  Zr  Zr5  1  0.463647  0.747876  0.780999  1
  Zr  Zr6  1  0.000667  0.499591  0.002036  1
  Zr  Zr7  1  0.206359  0.458513  0.254743  1
  Zr  Zr8  1  0.790593  0.532582  0.757533  1
  Zr  Zr9  1  0.501825  0.008573  0.988263  1
  Zr  Zr10  1  0.009225  0.004751  0.502418  1
  Zr  Zr11  1  0.533609  0.257137  0.212326  1
  Zr  Zr12  1  0.028878  0.246208  0.712926  1
  Zr  Zr13  1  0.257808  0.219572  0.036347  1
  Zr  Zr14  1  0.746609  0.285777  0.466702  1
  Zr  Zr15  1  0.287819  0.039405  0.748999  1
  N  N16  1  0.510669  0.739893  0.535075  1
  N  N17  1  0.240421  0.468326  0.983857  1
  N  N18  1  0.044335  0.773050  0.486333  1
  N  N19  1  0.769430  0.043709  0.969999  1
  N  N20  1  0.991274  0.456731  0.773730  1
  N  N21  1  0.535469  0.272432  0.950542  1
  N  N22  1  0.276225  0.514171  0.450519  1
  N  N23  1  0.035190  0.985395  0.738258  1
  N  N24  1  0.005692  0.541451  0.229989  1
  N  N25  1  0.226036  0.958059  0.034071  1
  N  N26  1  0.759671  0.532385  0.012896  1
  N  N27  1  0.952203  0.224033  0.512859  1
  N  N28  1  0.543556  0.028884  0.729884  1
  N  N29  1  0.739783  0.727011  0.230146  1
  N  N30  1  0.269554  0.233803  0.272895  1
  N  N31  1  0.491102  0.263120  0.466108  1
  O  O32  1  0.724799  0.761514  0.730630  1
  O  O33  1  0.262342  0.272625  0.770848  1
  O  O34  1  0.458432  0.969569  0.273297  1
  O  O35  1  0.468090  0.726512  0.044905  1
  O  O36  1  0.961355  0.015122  0.262380  1
  O  O37  1  0.723905  0.484662  0.550335  1
  O  O38  1  0.224465  0.771635  0.765627  1
  O  O39  1  0.774784  0.225839  0.237297  1
