# generated using pymatgen
data_Li8MnCr3O12
_symmetry_space_group_name_H-M   'P 1'
_cell_length_a   4.96459961
_cell_length_b   4.98382694
_cell_length_c   8.41195766
_cell_angle_alpha   90.31885207
_cell_angle_beta   90.47109801
_cell_angle_gamma   90.07115518
_symmetry_Int_Tables_number   1
_chemical_formula_structural   Li8MnCr3O12
_chemical_formula_sum   'Li8 Mn1 Cr3 O12'
_cell_volume   208.12415874
_cell_formula_units_Z   1
loop_
 _symmetry_equiv_pos_site_id
 _symmetry_equiv_pos_as_xyz
  1  'x, y, z'
loop_
 _atom_site_type_symbol
 _atom_site_label
 _atom_site_symmetry_multiplicity
 _atom_site_fract_x
 _atom_site_fract_y
 _atom_site_fract_z
 _atom_site_occupancy
  Li  Li0  1  0.497644  0.004634  0.770685  1
  Li  Li1  1  0.500172  0.999031  0.080895  1
  Li  Li2  1  0.000514  0.003153  0.745379  1
  Li  Li3  1  0.004472  0.999660  0.432702  1
  Li  Li4  1  0.500839  0.502110  0.245613  1
  Li  Li5  1  0.500652  0.499089  0.933263  1
  Li  Li6  1  0.998989  0.502910  0.270504  1
  Li  Li7  1  0.997930  0.495265  0.581956  1
  Mn  Mn8  1  0.000203  0.998373  0.094001  1
  Cr  Cr9  1  0.498921  0.510765  0.593156  1
  Cr  Cr10  1  0.507407  0.004407  0.413389  1
  Cr  Cr11  1  0.002052  0.496570  0.916822  1
  O  O12  1  0.747297  0.148292  0.255889  1
  O  O13  1  0.779546  0.164975  0.932090  1
  O  O14  1  0.712900  0.169361  0.580542  1
  O  O15  1  0.280832  0.329572  0.436154  1
  O  O16  1  0.211901  0.326904  0.083039  1
  O  O17  1  0.241280  0.355002  0.760199  1
  O  O18  1  0.746287  0.632634  0.758698  1
  O  O19  1  0.787763  0.672813  0.081314  1
  O  O20  1  0.723016  0.673393  0.431301  1
  O  O21  1  0.286670  0.827559  0.578934  1
  O  O22  1  0.219528  0.830430  0.932522  1
  O  O23  1  0.253173  0.853169  0.257605  1
