# generated using pymatgen
data_Sb5O7F
_symmetry_space_group_name_H-M   'P 1'
_cell_length_a   4.15791312
_cell_length_b   10.10533407
_cell_length_c   13.09230769
_cell_angle_alpha   72.23113721
_cell_angle_beta   81.10000250
_cell_angle_gamma   78.27141960
_symmetry_Int_Tables_number   1
_chemical_formula_structural   Sb5O7F
_chemical_formula_sum   'Sb10 O14 F2'
_cell_volume   510.38126287
_cell_formula_units_Z   2
loop_
 _symmetry_equiv_pos_site_id
 _symmetry_equiv_pos_as_xyz
  1  'x, y, z'
loop_
 _atom_site_type_symbol
 _atom_site_label
 _atom_site_symmetry_multiplicity
 _atom_site_fract_x
 _atom_site_fract_y
 _atom_site_fract_z
 _atom_site_occupancy
  Sb  Sb0  1  0.463445  0.736465  0.339901  1
  Sb  Sb1  1  0.892074  0.665942  0.558804  1
  Sb  Sb2  1  0.226251  0.662917  0.888659  1
  Sb  Sb3  1  0.402551  0.060164  0.127799  1
  Sb  Sb4  1  0.767237  0.097977  0.356021  1
  Sb  Sb5  1  0.232763  0.902023  0.643979  1
  Sb  Sb6  1  0.597449  0.939836  0.872201  1
  Sb  Sb7  1  0.773749  0.337083  0.111341  1
  Sb  Sb8  1  0.107926  0.334058  0.441196  1
  Sb  Sb9  1  0.536555  0.263535  0.660099  1
  O  O10  1  0.938989  0.735238  0.390641  1
  O  O11  1  0.396989  0.711244  0.501320  1
  O  O12  1  0.291555  0.696975  0.720899  1
  O  O13  1  0.383184  0.948910  0.287627  1
  O  O14  1  0.698901  0.736835  0.872197  1
  O  O15  1  0.784604  0.853553  0.585602  1
  O  O16  1  0.856227  0.104196  0.175091  1
  O  O17  1  0.143773  0.895804  0.824909  1
  O  O18  1  0.215396  0.146447  0.414398  1
  O  O19  1  0.301099  0.263165  0.127803  1
  O  O20  1  0.616816  0.051090  0.712373  1
  O  O21  1  0.708445  0.303025  0.279101  1
  O  O22  1  0.603011  0.288756  0.498680  1
  O  O23  1  0.061011  0.264762  0.609359  1
  F  F24  1  0.875737  0.252375  0.977012  1
  F  F25  1  0.124263  0.747625  0.022988  1
