# generated using pymatgen
data_Yb6Cl13
_symmetry_space_group_name_H-M   'P 1'
_cell_length_a   6.59277675
_cell_length_b   6.87990986
_cell_length_c   20.91472127
_cell_angle_alpha   97.82065622
_cell_angle_beta   98.80617966
_cell_angle_gamma   89.96490082
_symmetry_Int_Tables_number   1
_chemical_formula_structural   Yb6Cl13
_chemical_formula_sum   'Yb12 Cl26'
_cell_volume   928.54357130
_cell_formula_units_Z   2
loop_
 _symmetry_equiv_pos_site_id
 _symmetry_equiv_pos_as_xyz
  1  'x, y, z'
loop_
 _atom_site_type_symbol
 _atom_site_label
 _atom_site_symmetry_multiplicity
 _atom_site_fract_x
 _atom_site_fract_y
 _atom_site_fract_z
 _atom_site_occupancy
  Yb  Yb0  1  0.659416  0.347796  0.258575  1
  Yb  Yb1  1  0.340584  0.652204  0.741425  1
  Yb  Yb2  1  0.818258  0.493092  0.581114  1
  Yb  Yb3  1  0.181742  0.506908  0.418886  1
  Yb  Yb4  1  0.896366  0.152462  0.743747  1
  Yb  Yb5  1  0.103634  0.847538  0.256253  1
  Yb  Yb6  1  0.980160  0.624325  0.906857  1
  Yb  Yb7  1  0.019840  0.375675  0.093143  1
  Yb  Yb8  1  0.575500  0.878876  0.093508  1
  Yb  Yb9  1  0.424500  0.121124  0.906492  1
  Yb  Yb10  1  0.738723  0.009803  0.419894  1
  Yb  Yb11  1  0.261277  0.990197  0.580106  1
  Cl  Cl12  1  0.739205  0.114146  0.012673  1
  Cl  Cl13  1  0.260795  0.885854  0.987327  1
  Cl  Cl14  1  0.387991  0.215772  0.142637  1
  Cl  Cl15  1  0.612009  0.784228  0.857363  1
  Cl  Cl16  1  0.892712  0.102990  0.175690  1
  Cl  Cl17  1  0.107288  0.897010  0.824310  1
  Cl  Cl18  1  0.489413  0.017131  0.291804  1
  Cl  Cl19  1  0.510587  0.982869  0.708196  1
  Cl  Cl20  1  0.981299  0.177402  0.338937  1
  Cl  Cl21  1  0.018701  0.822598  0.661063  1
  Cl  Cl22  1  0.574277  0.374602  0.430190  1
  Cl  Cl23  1  0.425723  0.625398  0.569810  1
  Cl  Cl24  1  0.058225  0.251045  0.499898  1
  Cl  Cl25  1  0.941775  0.748955  0.500102  1
  Cl  Cl26  1  0.635334  0.130458  0.564478  1
  Cl  Cl27  1  0.364666  0.869542  0.435522  1
  Cl  Cl28  1  0.133433  0.319558  0.660720  1
  Cl  Cl29  1  0.866567  0.680442  0.339280  1
  Cl  Cl30  1  0.693364  0.481017  0.709064  1
  Cl  Cl31  1  0.306636  0.518983  0.290936  1
  Cl  Cl32  1  0.213718  0.397914  0.823779  1
  Cl  Cl33  1  0.786282  0.602086  0.176221  1
  Cl  Cl34  1  0.743589  0.286508  0.859301  1
  Cl  Cl35  1  0.256411  0.713492  0.140699  1
  Cl  Cl36  1  0.225272  0.384636  0.986474  1
  Cl  Cl37  1  0.774728  0.615364  0.013526  1
