# generated using pymatgen
data_Bi4O5F2
_symmetry_space_group_name_H-M   'P 1'
_cell_length_a   10.66786998
_cell_length_b   5.62128733
_cell_length_c   14.22942299
_cell_angle_alpha   90.00000000
_cell_angle_beta   97.45305329
_cell_angle_gamma   90.00000000
_symmetry_Int_Tables_number   1
_chemical_formula_structural   Bi4O5F2
_chemical_formula_sum   'Bi16 O20 F8'
_cell_volume   846.08901158
_cell_formula_units_Z   4
loop_
 _symmetry_equiv_pos_site_id
 _symmetry_equiv_pos_as_xyz
  1  'x, y, z'
loop_
 _atom_site_type_symbol
 _atom_site_label
 _atom_site_symmetry_multiplicity
 _atom_site_fract_x
 _atom_site_fract_y
 _atom_site_fract_z
 _atom_site_occupancy
  Bi  Bi0  1  0.610987  0.682018  0.964440  1
  Bi  Bi1  1  0.258340  0.699130  0.883264  1
  Bi  Bi2  1  0.809708  0.284785  0.832635  1
  Bi  Bi3  1  0.434079  0.185203  0.773722  1
  Bi  Bi4  1  0.086457  0.236069  0.707570  1
  Bi  Bi5  1  0.669688  0.786762  0.685931  1
  Bi  Bi6  1  0.279122  0.716399  0.615756  1
  Bi  Bi7  1  0.917044  0.749590  0.551397  1
  Bi  Bi8  1  0.082956  0.249590  0.448603  1
  Bi  Bi9  1  0.720878  0.216399  0.384244  1
  Bi  Bi10  1  0.330312  0.286762  0.314069  1
  Bi  Bi11  1  0.913543  0.736069  0.292430  1
  Bi  Bi12  1  0.565921  0.685203  0.226278  1
  Bi  Bi13  1  0.190292  0.784785  0.167365  1
  Bi  Bi14  1  0.741660  0.199130  0.116736  1
  Bi  Bi15  1  0.389013  0.182018  0.035560  1
  O  O16  1  0.737400  0.342719  0.965201  1
  O  O17  1  0.422628  0.974752  0.903927  1
  O  O18  1  0.430926  0.477610  0.914020  1
  O  O19  1  0.681472  0.997693  0.810437  1
  O  O20  1  0.653582  0.499488  0.779575  1
  O  O21  1  0.248692  0.984361  0.737950  1
  O  O22  1  0.261259  0.478306  0.734950  1
  O  O23  1  0.471185  0.845158  0.682944  1
  O  O24  1  0.077005  0.002947  0.579707  1
  O  O25  1  0.075892  0.492846  0.583283  1
  O  O26  1  0.924108  0.992846  0.416717  1
  O  O27  1  0.922995  0.502947  0.420293  1
  O  O28  1  0.528815  0.345158  0.317056  1
  O  O29  1  0.738741  0.978306  0.265050  1
  O  O30  1  0.751308  0.484361  0.262050  1
  O  O31  1  0.346418  0.999488  0.220425  1
  O  O32  1  0.318528  0.497693  0.189563  1
  O  O33  1  0.569074  0.977610  0.085980  1
  O  O34  1  0.577372  0.474752  0.096073  1
  O  O35  1  0.262600  0.842719  0.034799  1
  F  F36  1  0.177811  0.324891  0.920025  1
  F  F37  1  0.922545  0.759800  0.725701  1
  F  F38  1  0.836984  0.242733  0.652936  1
  F  F39  1  0.334199  0.349059  0.556097  1
  F  F40  1  0.665801  0.849059  0.443903  1
  F  F41  1  0.163016  0.742733  0.347064  1
  F  F42  1  0.077455  0.259800  0.274299  1
  F  F43  1  0.822189  0.824891  0.079975  1
