# generated using pymatgen
data_Ti17(NO4)6
_symmetry_space_group_name_H-M   'P 1'
_cell_length_a   7.50170517
_cell_length_b   7.50170517
_cell_length_c   10.73655896
_cell_angle_alpha   74.21144134
_cell_angle_beta   105.78855866
_cell_angle_gamma   99.71900281
_symmetry_Int_Tables_number   1
_chemical_formula_structural   Ti17(NO4)6
_chemical_formula_sum   'Ti17 N6 O24'
_cell_volume   556.53671260
_cell_formula_units_Z   1
loop_
 _symmetry_equiv_pos_site_id
 _symmetry_equiv_pos_as_xyz
  1  'x, y, z'
loop_
 _atom_site_type_symbol
 _atom_site_label
 _atom_site_symmetry_multiplicity
 _atom_site_fract_x
 _atom_site_fract_y
 _atom_site_fract_z
 _atom_site_occupancy
  Ti  Ti0  1  0.712974  0.502252  0.326908  1
  Ti  Ti1  1  0.948368  0.829801  0.177735  1
  Ti  Ti2  1  0.829801  0.948368  0.822265  1
  Ti  Ti3  1  0.782314  0.111028  0.499726  1
  Ti  Ti4  1  0.502252  0.712974  0.673092  1
  Ti  Ti5  1  0.553929  0.553929  0.000000  1
  Ti  Ti6  1  0.387854  0.828577  0.327358  1
  Ti  Ti7  1  0.828576  0.387854  0.672642  1
  Ti  Ti8  1  0.163326  0.614340  0.824589  1
  Ti  Ti9  1  0.111028  0.782314  0.500274  1
  Ti  Ti10  1  0.884199  0.220640  0.998954  1
  Ti  Ti11  1  0.220640  0.884199  0.001046  1
  Ti  Ti12  1  0.614340  0.163326  0.175411  1
  Ti  Ti13  1  0.054283  0.176213  0.317581  1
  Ti  Ti14  1  0.491804  0.286815  0.807124  1
  Ti  Ti15  1  0.176213  0.054283  0.682419  1
  Ti  Ti16  1  0.286815  0.491804  0.192876  1
  N  N17  1  0.980808  0.980808  0.000000  1
  N  N18  1  0.349922  0.709217  0.500183  1
  N  N19  1  0.315338  0.644869  0.000880  1
  N  N20  1  0.709217  0.349922  0.499817  1
  N  N21  1  0.020143  0.020143  0.500000  1
  N  N22  1  0.644869  0.315338  0.999120  1
  O  O23  1  0.919249  0.675935  0.368021  1
  O  O24  1  0.639725  0.506259  0.700399  1
  O  O25  1  0.506259  0.639725  0.299601  1
  O  O26  1  0.955503  0.161178  0.687594  1
  O  O27  1  0.675935  0.919249  0.631979  1
  O  O28  1  0.655336  0.749704  0.870381  1
  O  O29  1  0.749704  0.655336  0.129619  1
  O  O30  1  0.587481  0.007414  0.368812  1
  O  O31  1  0.830497  0.286167  0.312292  1
  O  O32  1  0.286167  0.830497  0.687708  1
  O  O33  1  0.707949  0.167490  0.812190  1
  O  O34  1  0.826697  0.040176  0.181194  1
  O  O35  1  0.007414  0.587481  0.631188  1
  O  O36  1  0.161178  0.955503  0.312406  1
  O  O37  1  0.994912  0.408794  0.869588  1
  O  O38  1  0.408794  0.994912  0.130412  1
  O  O39  1  0.167490  0.707949  0.187810  1
  O  O40  1  0.340040  0.246957  0.640694  1
  O  O41  1  0.246957  0.340040  0.359306  1
  O  O42  1  0.324650  0.075575  0.872061  1
  O  O43  1  0.040176  0.826697  0.818806  1
  O  O44  1  0.501314  0.376363  0.187159  1
  O  O45  1  0.376363  0.501314  0.812841  1
  O  O46  1  0.075575  0.324650  0.127939  1
