# generated using pymatgen
data_Sn(PO3)4
_symmetry_space_group_name_H-M   'P 1'
_cell_length_a   7.29079641
_cell_length_b   7.29079641
_cell_length_c   10.26895399
_cell_angle_alpha   65.90474915
_cell_angle_beta   114.09525085
_cell_angle_gamma   109.79694894
_symmetry_Int_Tables_number   1
_chemical_formula_structural   Sn(PO3)4
_chemical_formula_sum   'Sn2 P8 O24'
_cell_volume   445.07861409
_cell_formula_units_Z   2
loop_
 _symmetry_equiv_pos_site_id
 _symmetry_equiv_pos_as_xyz
  1  'x, y, z'
loop_
 _atom_site_type_symbol
 _atom_site_label
 _atom_site_symmetry_multiplicity
 _atom_site_fract_x
 _atom_site_fract_y
 _atom_site_fract_z
 _atom_site_occupancy
  Sn  Sn0  1  0.057158  0.057158  0.250000  1
  Sn  Sn1  1  0.942842  0.942842  0.750000  1
  P  P2  1  0.691598  0.287274  0.198534  1
  P  P3  1  0.274260  0.252178  0.979406  1
  P  P4  1  0.252178  0.274260  0.520594  1
  P  P5  1  0.712726  0.308402  0.698534  1
  P  P6  1  0.287274  0.691598  0.301466  1
  P  P7  1  0.747822  0.725740  0.479406  1
  P  P8  1  0.725740  0.747822  0.020594  1
  P  P9  1  0.308402  0.712726  0.801466  1
  O  O10  1  0.351479  0.809440  0.657628  1
  O  O11  1  0.737676  0.803503  0.591944  1
  O  O12  1  0.289190  0.466373  0.851836  1
  O  O13  1  0.196497  0.262324  0.091944  1
  O  O14  1  0.505740  0.222643  0.057467  1
  O  O15  1  0.879376  0.261239  0.182713  1
  O  O16  1  0.777357  0.494260  0.557467  1
  O  O17  1  0.809440  0.351479  0.842372  1
  O  O18  1  0.160276  0.086357  0.906261  1
  O  O19  1  0.466373  0.289190  0.648164  1
  O  O20  1  0.261239  0.879376  0.317287  1
  O  O21  1  0.086357  0.160276  0.593739  1
  O  O22  1  0.913643  0.839724  0.406261  1
  O  O23  1  0.738761  0.120624  0.682713  1
  O  O24  1  0.533627  0.710810  0.351836  1
  O  O25  1  0.839724  0.913643  0.093739  1
  O  O26  1  0.190560  0.648521  0.157628  1
  O  O27  1  0.222643  0.505740  0.442533  1
  O  O28  1  0.120624  0.738761  0.817287  1
  O  O29  1  0.494260  0.777357  0.942533  1
  O  O30  1  0.803503  0.737676  0.908056  1
  O  O31  1  0.710810  0.533627  0.148164  1
  O  O32  1  0.262324  0.196497  0.408056  1
  O  O33  1  0.648521  0.190560  0.342372  1
