# generated using pymatgen
data_Li2Co3SbO8
_symmetry_space_group_name_H-M   'P 1'
_cell_length_a   5.88563083
_cell_length_b   5.88563083
_cell_length_c   5.88563083
_cell_angle_alpha   58.92428103
_cell_angle_beta   58.92428103
_cell_angle_gamma   58.92428103
_symmetry_Int_Tables_number   1
_chemical_formula_structural   Li2Co3SbO8
_chemical_formula_sum   'Li2 Co3 Sb1 O8'
_cell_volume   140.62733572
_cell_formula_units_Z   1
loop_
 _symmetry_equiv_pos_site_id
 _symmetry_equiv_pos_as_xyz
  1  'x, y, z'
loop_
 _atom_site_type_symbol
 _atom_site_label
 _atom_site_symmetry_multiplicity
 _atom_site_fract_x
 _atom_site_fract_y
 _atom_site_fract_z
 _atom_site_occupancy
  Li  Li0  1  0.126058  0.126058  0.126058  1
  Li  Li1  1  0.873942  0.873942  0.873942  1
  Co  Co2  1  0.500000  0.500000  0.000000  1
  Co  Co3  1  0.000000  0.500000  0.500000  1
  Co  Co4  1  0.500000  0.000000  0.500000  1
  Sb  Sb5  1  0.500000  0.500000  0.500000  1
  O  O6  1  0.714535  0.256833  0.256833  1
  O  O7  1  0.256833  0.256833  0.714535  1
  O  O8  1  0.733978  0.733978  0.733978  1
  O  O9  1  0.256833  0.714535  0.256833  1
  O  O10  1  0.743167  0.285465  0.743167  1
  O  O11  1  0.266022  0.266022  0.266022  1
  O  O12  1  0.743167  0.743167  0.285465  1
  O  O13  1  0.285465  0.743167  0.743167  1
