# generated using pymatgen
data_FeCu5S4
_symmetry_space_group_name_H-M   'P 1'
_cell_length_a   12.79616167
_cell_length_b   12.79616167
_cell_length_c   12.79616167
_cell_angle_alpha   17.27133050
_cell_angle_beta   17.27133050
_cell_angle_gamma   17.27133050
_symmetry_Int_Tables_number   1
_chemical_formula_structural   FeCu5S4
_chemical_formula_sum   'Fe1 Cu5 S4'
_cell_volume   161.16004781
_cell_formula_units_Z   1
loop_
 _symmetry_equiv_pos_site_id
 _symmetry_equiv_pos_as_xyz
  1  'x, y, z'
loop_
 _atom_site_type_symbol
 _atom_site_label
 _atom_site_symmetry_multiplicity
 _atom_site_fract_x
 _atom_site_fract_y
 _atom_site_fract_z
 _atom_site_occupancy
  Fe  Fe0  1  0.694700  0.694700  0.694700  1
  Cu  Cu1  1  0.559408  0.559408  0.559408  1
  Cu  Cu2  1  0.168741  0.168741  0.168741  1
  Cu  Cu3  1  0.313811  0.313811  0.313811  1
  Cu  Cu4  1  0.434157  0.434157  0.434157  1
  Cu  Cu5  1  0.939898  0.939898  0.939898  1
  S  S6  1  0.006718  0.006718  0.006718  1
  S  S7  1  0.252559  0.252559  0.252559  1
  S  S8  1  0.753104  0.753104  0.753104  1
  S  S9  1  0.499259  0.499259  0.499259  1
