# generated using pymatgen
data_Li3Mn2P2(CO7)2
_symmetry_space_group_name_H-M   'P 1'
_cell_length_a   5.06316065
_cell_length_b   6.47587453
_cell_length_c   8.31497629
_cell_angle_alpha   90.92690252
_cell_angle_beta   94.12750356
_cell_angle_gamma   90.20232198
_symmetry_Int_Tables_number   1
_chemical_formula_structural   Li3Mn2P2(CO7)2
_chemical_formula_sum   'Li3 Mn2 P2 C2 O14'
_cell_volume   271.88899517
_cell_formula_units_Z   1
loop_
 _symmetry_equiv_pos_site_id
 _symmetry_equiv_pos_as_xyz
  1  'x, y, z'
loop_
 _atom_site_type_symbol
 _atom_site_label
 _atom_site_symmetry_multiplicity
 _atom_site_fract_x
 _atom_site_fract_y
 _atom_site_fract_z
 _atom_site_occupancy
  Li  Li0  1  0.760292  0.537643  0.265155  1
  Li  Li1  1  0.246588  0.485778  0.746727  1
  Li  Li2  1  0.244234  0.018059  0.747849  1
  Mn  Mn3  1  0.201583  0.244713  0.330043  1
  Mn  Mn4  1  0.790638  0.749705  0.663783  1
  P  P5  1  0.276894  0.746807  0.419660  1
  P  P6  1  0.729244  0.253241  0.577529  1
  C  C7  1  0.282533  0.256551  0.046604  1
  C  C8  1  0.709721  0.744263  0.949055  1
  O  O9  1  0.046344  0.244623  0.098497  1
  O  O10  1  0.664508  0.723463  0.090597  1
  O  O11  1  0.468104  0.266000  0.165254  1
  O  O12  1  0.204586  0.938808  0.323900  1
  O  O13  1  0.168321  0.560615  0.317244  1
  O  O14  1  0.844749  0.265603  0.411238  1
  O  O15  1  0.582786  0.720893  0.456622  1
  O  O16  1  0.418924  0.254110  0.549941  1
  O  O17  1  0.157478  0.749871  0.588845  1
  O  O18  1  0.827493  0.061922  0.672003  1
  O  O19  1  0.827378  0.437543  0.687213  1
  O  O20  1  0.519024  0.753319  0.828119  1
  O  O21  1  0.328924  0.256461  0.899774  1
  O  O22  1  0.945556  0.756192  0.891408  1
