# generated using pymatgen
data_Na3NiO2
_symmetry_space_group_name_H-M   'P 1'
_cell_length_a   5.54088822
_cell_length_b   5.54088822
_cell_length_c   12.18101115
_cell_angle_alpha   90.00000000
_cell_angle_beta   90.00000000
_cell_angle_gamma   90.00000000
_symmetry_Int_Tables_number   1
_chemical_formula_structural   Na3NiO2
_chemical_formula_sum   'Na12 Ni4 O8'
_cell_volume   373.97461027
_cell_formula_units_Z   4
loop_
 _symmetry_equiv_pos_site_id
 _symmetry_equiv_pos_as_xyz
  1  'x, y, z'
loop_
 _atom_site_type_symbol
 _atom_site_label
 _atom_site_symmetry_multiplicity
 _atom_site_fract_x
 _atom_site_fract_y
 _atom_site_fract_z
 _atom_site_occupancy
  Na  Na0  1  0.520007  0.021845  0.626080  1
  Na  Na1  1  0.521845  0.979993  0.376080  1
  Na  Na2  1  0.549541  0.450459  0.250000  1
  Na  Na3  1  0.950459  0.950459  0.000000  1
  Na  Na4  1  0.978155  0.479993  0.873920  1
  Na  Na5  1  0.979993  0.521845  0.623920  1
  Na  Na6  1  0.020007  0.478155  0.123920  1
  Na  Na7  1  0.021845  0.520007  0.373920  1
  Na  Na8  1  0.049541  0.049541  0.500000  1
  Na  Na9  1  0.450459  0.549541  0.750000  1
  Na  Na10  1  0.478155  0.020007  0.876080  1
  Na  Na11  1  0.479993  0.978155  0.126080  1
  Ni  Ni12  1  0.504202  0.504202  0.500000  1
  Ni  Ni13  1  0.995798  0.004202  0.750000  1
  Ni  Ni14  1  0.004202  0.995798  0.250000  1
  Ni  Ni15  1  0.495798  0.495798  0.000000  1
  O  O16  1  0.721174  0.266494  0.010021  1
  O  O17  1  0.733506  0.278826  0.489979  1
  O  O18  1  0.766494  0.778826  0.760021  1
  O  O19  1  0.778826  0.766494  0.239979  1
  O  O20  1  0.221174  0.233506  0.739979  1
  O  O21  1  0.233506  0.221174  0.260021  1
  O  O22  1  0.266494  0.721174  0.989979  1
  O  O23  1  0.278826  0.733506  0.510021  1
