# generated using pymatgen
data_Ce(ClO4)4
_symmetry_space_group_name_H-M   'P 1'
_cell_length_a   8.06323114
_cell_length_b   8.06323114
_cell_length_c   13.99120367
_cell_angle_alpha   75.34651782
_cell_angle_beta   104.65348218
_cell_angle_gamma   116.13310638
_symmetry_Int_Tables_number   1
_chemical_formula_structural   Ce(ClO4)4
_chemical_formula_sum   'Ce2 Cl8 O32'
_cell_volume   779.53203988
_cell_formula_units_Z   2
loop_
 _symmetry_equiv_pos_site_id
 _symmetry_equiv_pos_as_xyz
  1  'x, y, z'
loop_
 _atom_site_type_symbol
 _atom_site_label
 _atom_site_symmetry_multiplicity
 _atom_site_fract_x
 _atom_site_fract_y
 _atom_site_fract_z
 _atom_site_occupancy
  Ce  Ce0  1  0.649640  0.404596  0.097382  1
  Ce  Ce1  1  0.595404  0.350360  0.597382  1
  Cl  Cl2  1  0.957433  0.580113  0.266372  1
  Cl  Cl3  1  0.419887  0.042567  0.766372  1
  Cl  Cl4  1  0.300969  0.168015  0.425984  1
  Cl  Cl5  1  0.630138  0.747393  0.498586  1
  Cl  Cl6  1  0.831985  0.699031  0.925984  1
  Cl  Cl7  1  0.589647  0.993196  0.162840  1
  Cl  Cl8  1  0.252607  0.369862  0.998586  1
  Cl  Cl9  1  0.006804  0.410353  0.662840  1
  O  O10  1  0.675509  0.130385  0.074426  1
  O  O11  1  0.964556  0.484046  0.187260  1
  O  O12  1  0.533132  0.115324  0.205448  1
  O  O13  1  0.869615  0.324491  0.574426  1
  O  O14  1  0.515954  0.035444  0.687260  1
  O  O15  1  0.752253  0.553984  0.241015  1
  O  O16  1  0.504407  0.192152  0.456547  1
  O  O17  1  0.745490  0.716268  0.006783  1
  O  O18  1  0.884676  0.466868  0.705448  1
  O  O19  1  0.372657  0.444376  0.094480  1
  O  O20  1  0.087541  0.211714  0.021452  1
  O  O21  1  0.689833  0.617375  0.466585  1
  O  O22  1  0.275502  0.275973  0.330196  1
  O  O23  1  0.446016  0.247747  0.741015  1
  O  O24  1  0.807848  0.495593  0.956547  1
  O  O25  1  0.283732  0.254510  0.506783  1
  O  O26  1  0.728099  0.944201  0.233997  1
  O  O27  1  0.555624  0.627343  0.594480  1
  O  O28  1  0.788286  0.912459  0.521452  1
  O  O29  1  0.426967  0.839752  0.129821  1
  O  O30  1  0.382625  0.310167  0.966585  1
  O  O31  1  0.724027  0.724498  0.830196  1
  O  O32  1  0.482109  0.777252  0.426249  1
  O  O33  1  0.055799  0.271901  0.733997  1
  O  O34  1  0.991809  0.481624  0.363533  1
  O  O35  1  0.160248  0.573033  0.629821  1
  O  O36  1  0.075705  0.773905  0.250102  1
  O  O37  1  0.222748  0.517891  0.926249  1
  O  O38  1  0.518376  0.008191  0.863533  1
  O  O39  1  0.179901  0.975069  0.434834  1
  O  O40  1  0.226095  0.924295  0.750101  1
  O  O41  1  0.024931  0.820099  0.934834  1
