# generated using pymatgen
data_Sr8Cu8O17
_symmetry_space_group_name_H-M   'P 1'
_cell_length_a   8.80261496
_cell_length_b   8.80261496
_cell_length_c   8.11856559
_cell_angle_alpha   64.26079423
_cell_angle_beta   115.73920577
_cell_angle_gamma   127.19447160
_symmetry_Int_Tables_number   1
_chemical_formula_structural   Sr8Cu8O17
_chemical_formula_sum   'Sr8 Cu8 O17'
_cell_volume   438.27300302
_cell_formula_units_Z   1
loop_
 _symmetry_equiv_pos_site_id
 _symmetry_equiv_pos_as_xyz
  1  'x, y, z'
loop_
 _atom_site_type_symbol
 _atom_site_label
 _atom_site_symmetry_multiplicity
 _atom_site_fract_x
 _atom_site_fract_y
 _atom_site_fract_z
 _atom_site_occupancy
  Sr  Sr0  1  0.751281  0.751281  0.500000  1
  Sr  Sr1  1  0.618673  0.858854  0.999948  1
  Sr  Sr2  1  0.000000  0.500000  0.500000  1
  Sr  Sr3  1  0.248719  0.248719  0.500000  1
  Sr  Sr4  1  0.858854  0.618673  0.000052  1
  Sr  Sr5  1  0.141146  0.381327  0.999948  1
  Sr  Sr6  1  0.381327  0.141146  0.000052  1
  Sr  Sr7  1  0.500000  1.000000  0.500000  1
  Cu  Cu8  1  0.064992  0.935008  0.259464  1
  Cu  Cu9  1  0.311259  0.688741  0.254798  1
  Cu  Cu10  1  0.184295  0.815705  0.746481  1
  Cu  Cu11  1  0.434901  0.565099  0.738414  1
  Cu  Cu12  1  0.565099  0.434901  0.261586  1
  Cu  Cu13  1  0.688741  0.311259  0.745202  1
  Cu  Cu14  1  0.815705  0.184295  0.253519  1
  Cu  Cu15  1  0.935008  0.064992  0.740536  1
  O  O16  1  0.061592  0.938408  0.753444  1
  O  O17  1  0.561112  0.938570  0.245229  1
  O  O18  1  0.686904  0.821807  0.730288  1
  O  O19  1  0.821807  0.686904  0.269712  1
  O  O20  1  0.435037  0.564963  0.266030  1
  O  O21  1  0.500000  0.500000  0.000000  1
  O  O22  1  0.564963  0.435037  0.733970  1
  O  O23  1  0.184838  0.815162  0.245392  1
  O  O24  1  0.302423  0.697577  0.733734  1
  O  O25  1  0.938570  0.561112  0.754771  1
  O  O26  1  0.178193  0.313096  0.730288  1
  O  O27  1  0.313096  0.178193  0.269712  1
  O  O28  1  0.061430  0.438888  0.245229  1
  O  O29  1  0.815162  0.184838  0.754608  1
  O  O30  1  0.938408  0.061592  0.246556  1
  O  O31  1  0.697577  0.302423  0.266266  1
  O  O32  1  0.438888  0.061430  0.754771  1
