# generated using pymatgen
data_ZrCoO3
_symmetry_space_group_name_H-M   'P 1'
_cell_length_a   5.68992140
_cell_length_b   5.68992140
_cell_length_c   5.68992140
_cell_angle_alpha   56.77014018
_cell_angle_beta   56.77014018
_cell_angle_gamma   56.77014018
_symmetry_Int_Tables_number   1
_chemical_formula_structural   ZrCoO3
_chemical_formula_sum   'Zr2 Co2 O6'
_cell_volume   120.54618076
_cell_formula_units_Z   2
loop_
 _symmetry_equiv_pos_site_id
 _symmetry_equiv_pos_as_xyz
  1  'x, y, z'
loop_
 _atom_site_type_symbol
 _atom_site_label
 _atom_site_symmetry_multiplicity
 _atom_site_fract_x
 _atom_site_fract_y
 _atom_site_fract_z
 _atom_site_occupancy
  Zr  Zr0  1  0.141274  0.141274  0.141274  1
  Zr  Zr1  1  0.858726  0.858726  0.858726  1
  Co  Co2  1  0.355145  0.355145  0.355145  1
  Co  Co3  1  0.644855  0.644855  0.644855  1
  O  O4  1  0.048707  0.450241  0.754196  1
  O  O5  1  0.450241  0.754196  0.048707  1
  O  O6  1  0.754196  0.048707  0.450241  1
  O  O7  1  0.245804  0.951293  0.549759  1
  O  O8  1  0.549759  0.245804  0.951293  1
  O  O9  1  0.951293  0.549759  0.245804  1
