# generated using pymatgen
data_Li4Sn2P4H3O16
_symmetry_space_group_name_H-M   'P 1'
_cell_length_a   4.94517961
_cell_length_b   8.14587335
_cell_length_c   8.91272133
_cell_angle_alpha   90.69391566
_cell_angle_beta   91.43593173
_cell_angle_gamma   100.74503167
_symmetry_Int_Tables_number   1
_chemical_formula_structural   Li4Sn2P4H3O16
_chemical_formula_sum   'Li4 Sn2 P4 H3 O16'
_cell_volume   352.57216002
_cell_formula_units_Z   1
loop_
 _symmetry_equiv_pos_site_id
 _symmetry_equiv_pos_as_xyz
  1  'x, y, z'
loop_
 _atom_site_type_symbol
 _atom_site_label
 _atom_site_symmetry_multiplicity
 _atom_site_fract_x
 _atom_site_fract_y
 _atom_site_fract_z
 _atom_site_occupancy
  Li  Li0  1  0.107076  0.684478  0.652404  1
  Li  Li1  1  0.404259  0.841784  0.125680  1
  Li  Li2  1  0.614343  0.154413  0.866212  1
  Li  Li3  1  0.877403  0.311270  0.345612  1
  Sn  Sn4  1  0.999010  0.505946  0.995649  1
  Sn  Sn5  1  0.494695  0.994570  0.501322  1
  P  P6  1  0.126947  0.274060  0.666227  1
  P  P7  1  0.363779  0.230213  0.141657  1
  P  P8  1  0.620043  0.774644  0.854632  1
  P  P9  1  0.873951  0.722609  0.329981  1
  H  H10  1  0.461214  0.491879  0.639872  1
  H  H11  1  0.534302  0.514602  0.380434  1
  H  H12  1  0.041219  0.022085  0.019656  1
  O  O13  1  0.056296  0.795502  0.464788  1
  O  O14  1  0.966146  0.305947  0.807514  1
  O  O15  1  0.131784  0.331315  0.173202  1
  O  O16  1  0.267340  0.461261  0.607041  1
  O  O17  1  0.409885  0.672598  0.964283  1
  O  O18  1  0.476682  0.797365  0.702382  1
  O  O19  1  0.228017  0.047872  0.074156  1
  O  O20  1  0.358459  0.178575  0.700440  1
  O  O21  1  0.639912  0.815745  0.295497  1
  O  O22  1  0.740665  0.943680  0.931747  1
  O  O23  1  0.512177  0.196713  0.286872  1
  O  O24  1  0.559385  0.316773  0.022264  1
  O  O25  1  0.735580  0.532818  0.382706  1
  O  O26  1  0.847901  0.666577  0.821786  1
  O  O27  1  0.043340  0.694751  0.191557  1
  O  O28  1  0.937076  0.201856  0.534527  1
