# generated using pymatgen
data_Li3VSi4(HO6)2
_symmetry_space_group_name_H-M   'P 1'
_cell_length_a   7.54273358
_cell_length_b   8.25017519
_cell_length_c   9.11571460
_cell_angle_alpha   116.07877842
_cell_angle_beta   94.84635635
_cell_angle_gamma   89.24673395
_symmetry_Int_Tables_number   1
_chemical_formula_structural   Li3VSi4(HO6)2
_chemical_formula_sum   'Li6 V2 Si8 H4 O24'
_cell_volume   507.50405758
_cell_formula_units_Z   2
loop_
 _symmetry_equiv_pos_site_id
 _symmetry_equiv_pos_as_xyz
  1  'x, y, z'
loop_
 _atom_site_type_symbol
 _atom_site_label
 _atom_site_symmetry_multiplicity
 _atom_site_fract_x
 _atom_site_fract_y
 _atom_site_fract_z
 _atom_site_occupancy
  Li  Li0  1  0.833572  0.264131  0.104821  1
  Li  Li1  1  0.680437  0.127160  0.390407  1
  Li  Li2  1  0.659803  0.638196  0.868717  1
  Li  Li3  1  0.340197  0.361804  0.131283  1
  Li  Li4  1  0.319563  0.872840  0.609593  1
  Li  Li5  1  0.166428  0.735869  0.895179  1
  V  V6  1  0.000000  0.500000  0.000000  1
  V  V7  1  0.500000  0.000000  0.000000  1
  Si  Si8  1  0.889322  0.922748  0.156301  1
  Si  Si9  1  0.772787  0.698064  0.318035  1
  Si  Si10  1  0.730634  0.891036  0.688478  1
  Si  Si11  1  0.600017  0.258629  0.820775  1
  Si  Si12  1  0.399983  0.741371  0.179225  1
  Si  Si13  1  0.269366  0.108964  0.311522  1
  Si  Si14  1  0.227213  0.301936  0.681965  1
  Si  Si15  1  0.110678  0.077252  0.843699  1
  H  H16  1  0.883930  0.395597  0.625306  1
  H  H17  1  0.806186  0.452864  0.490356  1
  H  H18  1  0.193814  0.547136  0.509644  1
  H  H19  1  0.116070  0.604403  0.374694  1
  O  O20  1  0.906386  0.733152  0.997833  1
  O  O21  1  0.900171  0.534015  0.218983  1
  O  O22  1  0.919057  0.969645  0.797849  1
  O  O23  1  0.833583  0.891349  0.317528  1
  O  O24  1  0.799320  0.357672  0.526603  1
  O  O25  1  0.776575  0.731435  0.509621  1
  O  O26  1  0.738854  0.059529  0.142630  1
  O  O27  1  0.767808  0.396541  0.871884  1
  O  O28  1  0.631819  0.059357  0.660277  1
  O  O29  1  0.564955  0.648294  0.241872  1
  O  O30  1  0.603335  0.817507  0.779713  1
  O  O31  1  0.452176  0.777396  0.026157  1
  O  O32  1  0.547824  0.222604  0.973843  1
  O  O33  1  0.396665  0.182493  0.220287  1
  O  O34  1  0.435045  0.351706  0.758128  1
  O  O35  1  0.368181  0.940643  0.339723  1
  O  O36  1  0.232192  0.603459  0.128116  1
  O  O37  1  0.261146  0.940471  0.857370  1
  O  O38  1  0.223425  0.268565  0.490379  1
  O  O39  1  0.200680  0.642328  0.473397  1
  O  O40  1  0.166417  0.108651  0.682472  1
  O  O41  1  0.080943  0.030355  0.202151  1
  O  O42  1  0.099829  0.465985  0.781017  1
  O  O43  1  0.093614  0.266848  0.002167  1
