# generated using pymatgen
data_SmHIClO13
_symmetry_space_group_name_H-M   'P 1'
_cell_length_a   11.11125980
_cell_length_b   7.26802488
_cell_length_c   13.26578711
_cell_angle_alpha   90.00000000
_cell_angle_beta   96.00603612
_cell_angle_gamma   90.00000000
_symmetry_Int_Tables_number   1
_chemical_formula_structural   SmHIClO13
_chemical_formula_sum   'Sm4 H4 I4 Cl4 O52'
_cell_volume   1065.42349222
_cell_formula_units_Z   4
loop_
 _symmetry_equiv_pos_site_id
 _symmetry_equiv_pos_as_xyz
  1  'x, y, z'
loop_
 _atom_site_type_symbol
 _atom_site_label
 _atom_site_symmetry_multiplicity
 _atom_site_fract_x
 _atom_site_fract_y
 _atom_site_fract_z
 _atom_site_occupancy
  Sm  Sm0  1  0.979539  0.641114  0.180313  1
  Sm  Sm1  1  0.020461  0.141114  0.319687  1
  Sm  Sm2  1  0.020461  0.358886  0.819687  1
  Sm  Sm3  1  0.979539  0.858886  0.680313  1
  H  H4  1  0.286834  0.684386  0.489244  1
  H  H5  1  0.713166  0.184386  0.010756  1
  H  H6  1  0.713166  0.315614  0.510756  1
  H  H7  1  0.286834  0.815614  0.989244  1
  I  I8  1  0.072557  0.633261  0.439637  1
  I  I9  1  0.927443  0.133261  0.060363  1
  I  I10  1  0.927443  0.366739  0.560363  1
  I  I11  1  0.072557  0.866739  0.939637  1
  Cl  Cl12  1  0.549644  0.766250  0.385842  1
  Cl  Cl13  1  0.450356  0.266250  0.114158  1
  Cl  Cl14  1  0.450356  0.233750  0.614158  1
  Cl  Cl15  1  0.549644  0.733750  0.885842  1
  O  O16  1  0.081579  0.804961  0.542662  1
  O  O17  1  0.918421  0.304961  0.957338  1
  O  O18  1  0.918421  0.195039  0.457338  1
  O  O19  1  0.081579  0.695039  0.042662  1
  O  O20  1  0.902201  0.577164  0.463544  1
  O  O21  1  0.097799  0.077164  0.036456  1
  O  O22  1  0.097799  0.422836  0.536456  1
  O  O23  1  0.902201  0.922836  0.963544  1
  O  O24  1  0.056964  0.466436  0.328776  1
  O  O25  1  0.943036  0.966436  0.171224  1
  O  O26  1  0.943036  0.533564  0.671224  1
  O  O27  1  0.056964  0.033564  0.828776  1
  O  O28  1  0.240764  0.634630  0.427088  1
  O  O29  1  0.759236  0.134630  0.072912  1
  O  O30  1  0.759236  0.365370  0.572912  1
  O  O31  1  0.240764  0.865370  0.927088  1
  O  O32  1  0.777465  0.611066  0.085724  1
  O  O33  1  0.222535  0.111066  0.414276  1
  O  O34  1  0.222535  0.388934  0.914276  1
  O  O35  1  0.777465  0.888934  0.585724  1
  O  O36  1  0.288941  0.725086  0.197380  1
  O  O37  1  0.711059  0.225086  0.302620  1
  O  O38  1  0.711059  0.274914  0.802620  1
  O  O39  1  0.288941  0.774914  0.697380  1
  O  O40  1  0.974846  0.309512  0.160978  1
  O  O41  1  0.025154  0.809512  0.339022  1
  O  O42  1  0.025154  0.690488  0.839022  1
  O  O43  1  0.974846  0.190488  0.660978  1
  O  O44  1  0.763838  0.601916  0.181187  1
  O  O45  1  0.236162  0.101916  0.318813  1
  O  O46  1  0.236162  0.398084  0.818813  1
  O  O47  1  0.763838  0.898084  0.681187  1
  O  O48  1  0.354783  0.733147  0.632085  1
  O  O49  1  0.645217  0.233147  0.867915  1
  O  O50  1  0.645217  0.266853  0.367915  1
  O  O51  1  0.354783  0.766853  0.132085  1
  O  O52  1  0.651897  0.826354  0.334719  1
  O  O53  1  0.348103  0.326354  0.165281  1
  O  O54  1  0.348103  0.173646  0.665281  1
  O  O55  1  0.651897  0.673646  0.834719  1
  O  O56  1  0.594225  0.714617  0.491750  1
  O  O57  1  0.405775  0.214617  0.008250  1
  O  O58  1  0.405775  0.285383  0.508250  1
  O  O59  1  0.594225  0.785383  0.991750  1
  O  O60  1  0.496686  0.597331  0.340423  1
  O  O61  1  0.503314  0.097331  0.159577  1
  O  O62  1  0.503314  0.402669  0.659577  1
  O  O63  1  0.496686  0.902669  0.840423  1
  O  O64  1  0.458792  0.908503  0.385317  1
  O  O65  1  0.541208  0.408503  0.114683  1
  O  O66  1  0.541208  0.091497  0.614683  1
  O  O67  1  0.458792  0.591497  0.885317  1
