# generated using pymatgen
data_V11NiO18
_symmetry_space_group_name_H-M   'P 1'
_cell_length_a   5.55317706
_cell_length_b   7.50771375
_cell_length_c   8.84119088
_cell_angle_alpha   112.78270411
_cell_angle_beta   105.48687184
_cell_angle_gamma   96.35789840
_symmetry_Int_Tables_number   1
_chemical_formula_structural   V11NiO18
_chemical_formula_sum   'V11 Ni1 O18'
_cell_volume   317.85231966
_cell_formula_units_Z   1
loop_
 _symmetry_equiv_pos_site_id
 _symmetry_equiv_pos_as_xyz
  1  'x, y, z'
loop_
 _atom_site_type_symbol
 _atom_site_label
 _atom_site_symmetry_multiplicity
 _atom_site_fract_x
 _atom_site_fract_y
 _atom_site_fract_z
 _atom_site_occupancy
  V  V0  1  0.700741  0.647093  0.999503  1
  V  V1  1  0.296092  0.849215  0.997941  1
  V  V2  1  0.032539  0.482064  0.669443  1
  V  V3  1  0.701967  0.148543  0.997852  1
  V  V4  1  0.301712  0.350190  0.999849  1
  V  V5  1  0.028971  0.987384  0.665043  1
  V  V6  1  0.966239  0.016505  0.339112  1
  V  V7  1  0.369586  0.314489  0.334775  1
  V  V8  1  0.632361  0.682745  0.666811  1
  V  V9  1  0.363888  0.816251  0.332862  1
  V  V10  1  0.964603  0.515666  0.333142  1
  Ni  Ni11  1  0.626806  0.188953  0.668641  1
  O  O12  1  0.399689  0.649448  0.796400  1
  O  O13  1  0.603776  0.354225  0.904997  1
  O  O14  1  0.936052  0.684788  0.871763  1
  O  O15  1  0.059969  0.308024  0.434284  1
  O  O16  1  0.738100  0.979757  0.771138  1
  O  O17  1  0.045901  0.286101  0.767249  1
  O  O18  1  0.631244  0.383838  0.561818  1
  O  O19  1  0.296828  0.043615  0.897100  1
  O  O20  1  0.262641  0.017752  0.530933  1
  O  O21  1  0.736112  0.977254  0.448100  1
  O  O22  1  0.710633  0.956436  0.110268  1
  O  O23  1  0.365991  0.619311  0.432707  1
  O  O24  1  0.963940  0.717853  0.233965  1
  O  O25  1  0.256224  0.016429  0.233315  1
  O  O26  1  0.935115  0.686887  0.564881  1
  O  O27  1  0.396739  0.651832  0.100675  1
  O  O28  1  0.070517  0.316559  0.132779  1
  O  O29  1  0.605022  0.350794  0.202657  1
