# generated using pymatgen
data_Li4Ti3Co5O16
_symmetry_space_group_name_H-M   'P 1'
_cell_length_a   5.72685069
_cell_length_b   5.72685069
_cell_length_c   9.31004470
_cell_angle_alpha   89.68677950
_cell_angle_beta   90.31322050
_cell_angle_gamma   119.10629831
_symmetry_Int_Tables_number   1
_chemical_formula_structural   Li4Ti3Co5O16
_chemical_formula_sum   'Li4 Ti3 Co5 O16'
_cell_volume   266.77578985
_cell_formula_units_Z   1
loop_
 _symmetry_equiv_pos_site_id
 _symmetry_equiv_pos_as_xyz
  1  'x, y, z'
loop_
 _atom_site_type_symbol
 _atom_site_label
 _atom_site_symmetry_multiplicity
 _atom_site_fract_x
 _atom_site_fract_y
 _atom_site_fract_z
 _atom_site_occupancy
  Li  Li0  1  0.671100  0.328900  0.111573  1
  Li  Li1  1  0.987985  0.012015  0.005311  1
  Li  Li2  1  0.993914  0.006086  0.500890  1
  Li  Li3  1  0.337168  0.662832  0.604285  1
  Ti  Ti4  1  0.832908  0.660862  0.787989  1
  Ti  Ti5  1  0.339138  0.167092  0.787989  1
  Ti  Ti6  1  0.170483  0.829517  0.287299  1
  Co  Co7  1  0.667174  0.332826  0.515223  1
  Co  Co8  1  0.826596  0.173404  0.785929  1
  Co  Co9  1  0.336319  0.663681  0.020857  1
  Co  Co10  1  0.661870  0.833029  0.291069  1
  Co  Co11  1  0.166971  0.338130  0.291069  1
  O  O12  1  0.828654  0.664118  0.397167  1
  O  O13  1  0.524189  0.475811  0.654732  1
  O  O14  1  0.665303  0.334697  0.902243  1
  O  O15  1  0.995341  0.004659  0.689308  1
  O  O16  1  0.994201  0.005799  0.192761  1
  O  O17  1  0.335882  0.171346  0.397167  1
  O  O18  1  0.958268  0.473460  0.653201  1
  O  O19  1  0.526540  0.041732  0.653201  1
  O  O20  1  0.170811  0.829189  0.899185  1
  O  O21  1  0.833289  0.166711  0.391671  1
  O  O22  1  0.484660  0.955077  0.156805  1
  O  O23  1  0.044923  0.515340  0.156805  1
  O  O24  1  0.337415  0.662585  0.398004  1
  O  O25  1  0.664908  0.828407  0.897495  1
  O  O26  1  0.479519  0.520481  0.166856  1
  O  O27  1  0.171593  0.335092  0.897495  1
