# generated using pymatgen
data_Li2VO2F
_symmetry_space_group_name_H-M   'P 1'
_cell_length_a   5.20303877
_cell_length_b   6.00316505
_cell_length_c   9.01583293
_cell_angle_alpha   90.00000000
_cell_angle_beta   125.25897602
_cell_angle_gamma   90.00000000
_symmetry_Int_Tables_number   1
_chemical_formula_structural   Li2VO2F
_chemical_formula_sum   'Li8 V4 O8 F4'
_cell_volume   229.94638427
_cell_formula_units_Z   4
loop_
 _symmetry_equiv_pos_site_id
 _symmetry_equiv_pos_as_xyz
  1  'x, y, z'
loop_
 _atom_site_type_symbol
 _atom_site_label
 _atom_site_symmetry_multiplicity
 _atom_site_fract_x
 _atom_site_fract_y
 _atom_site_fract_z
 _atom_site_occupancy
  Li  Li0  1  0.809155  0.000000  0.151129  1
  Li  Li1  1  0.183412  0.000000  0.842296  1
  Li  Li2  1  0.718772  0.739102  0.867078  1
  Li  Li3  1  0.301734  0.732905  0.144360  1
  Li  Li4  1  0.157930  0.500000  0.860845  1
  Li  Li5  1  0.836960  0.500000  0.145327  1
  Li  Li6  1  0.301734  0.267095  0.144360  1
  Li  Li7  1  0.718772  0.260898  0.867078  1
  V  V8  1  0.495366  0.000000  0.499845  1
  V  V9  1  0.987180  0.755979  0.492360  1
  V  V10  1  0.508632  0.500000  0.495533  1
  V  V11  1  0.987180  0.244021  0.492360  1
  O  O12  1  0.668351  0.000000  0.344172  1
  O  O13  1  0.303482  0.000000  0.646205  1
  O  O14  1  0.185029  0.745336  0.354396  1
  O  O15  1  0.817641  0.748319  0.647144  1
  O  O16  1  0.695598  0.500000  0.349322  1
  O  O17  1  0.999572  0.500000  0.002150  1
  O  O18  1  0.185029  0.254664  0.354396  1
  O  O19  1  0.817641  0.251681  0.647144  1
  F  F20  1  0.996328  0.000000  0.998745  1
  F  F21  1  0.497209  0.757967  0.996461  1
  F  F22  1  0.330081  0.500000  0.660832  1
  F  F23  1  0.497209  0.242033  0.996461  1
