# generated using pymatgen
data_VOF
_symmetry_space_group_name_H-M   'P 1'
_cell_length_a   6.34115865
_cell_length_b   6.34115865
_cell_length_c   6.34115865
_cell_angle_alpha   31.48562853
_cell_angle_beta   31.48562853
_cell_angle_gamma   31.48562853
_symmetry_Int_Tables_number   1
_chemical_formula_structural   VOF
_chemical_formula_sum   'V2 O2 F2'
_cell_volume   61.74841486
_cell_formula_units_Z   2
loop_
 _symmetry_equiv_pos_site_id
 _symmetry_equiv_pos_as_xyz
  1  'x, y, z'
loop_
 _atom_site_type_symbol
 _atom_site_label
 _atom_site_symmetry_multiplicity
 _atom_site_fract_x
 _atom_site_fract_y
 _atom_site_fract_z
 _atom_site_occupancy
  V  V0  1  0.760514  0.760514  0.760514  1
  V  V1  1  0.239486  0.239486  0.239486  1
  O  O2  1  0.875068  0.875068  0.875068  1
  O  O3  1  0.124932  0.124932  0.124932  1
  F  F4  1  0.626641  0.626641  0.626641  1
  F  F5  1  0.373359  0.373359  0.373359  1
