# generated using pymatgen
data_H13S2N3O8
_symmetry_space_group_name_H-M   'P 1'
_cell_length_a   8.37928476
_cell_length_b   8.37928476
_cell_length_c   10.35338870
_cell_angle_alpha   80.34621770
_cell_angle_beta   99.65378230
_cell_angle_gamma   138.83004461
_symmetry_Int_Tables_number   1
_chemical_formula_structural   H13S2N3O8
_chemical_formula_sum   'H26 S4 N6 O16'
_cell_volume   470.79818195
_cell_formula_units_Z   2
loop_
 _symmetry_equiv_pos_site_id
 _symmetry_equiv_pos_as_xyz
  1  'x, y, z'
loop_
 _atom_site_type_symbol
 _atom_site_label
 _atom_site_symmetry_multiplicity
 _atom_site_fract_x
 _atom_site_fract_y
 _atom_site_fract_z
 _atom_site_occupancy
  H  H0  1  0.653659  0.589312  0.824780  1
  H  H1  1  0.410688  0.346341  0.324780  1
  H  H2  1  0.346341  0.410688  0.175220  1
  H  H3  1  0.589312  0.653659  0.675220  1
  H  H4  1  0.868516  0.775944  0.717862  1
  H  H5  1  0.224056  0.131484  0.217862  1
  H  H6  1  0.131484  0.224056  0.282138  1
  H  H7  1  0.775944  0.868516  0.782138  1
  H  H8  1  0.869701  0.519976  0.243027  1
  H  H9  1  0.480024  0.130299  0.743027  1
  H  H10  1  0.130299  0.480024  0.756973  1
  H  H11  1  0.519976  0.869701  0.256973  1
  H  H12  1  0.954418  0.441718  0.155859  1
  H  H13  1  0.558282  0.045582  0.655859  1
  H  H14  1  0.045582  0.558282  0.844141  1
  H  H15  1  0.441718  0.954418  0.344141  1
  H  H16  1  0.769904  0.452811  0.083816  1
  H  H17  1  0.547189  0.230096  0.583816  1
  H  H18  1  0.230096  0.547189  0.916184  1
  H  H19  1  0.452811  0.769904  0.416184  1
  H  H20  1  0.064964  0.716739  0.124348  1
  H  H21  1  0.283261  0.935036  0.624348  1
  H  H22  1  0.935036  0.283261  0.875652  1
  H  H23  1  0.716739  0.064964  0.375652  1
  H  H24  1  0.000000  1.000000  0.500000  1
  H  H25  1  0.000000  0.000000  0.000000  1
  S  S26  1  0.319885  0.094664  0.961215  1
  S  S27  1  0.905336  0.680115  0.461215  1
  S  S28  1  0.680115  0.905336  0.038785  1
  S  S29  1  0.094664  0.319885  0.538785  1
  N  N30  1  0.276719  0.276719  0.250000  1
  N  N31  1  0.723281  0.723281  0.750000  1
  N  N32  1  0.914525  0.532693  0.151909  1
  N  N33  1  0.467307  0.085475  0.651909  1
  N  N34  1  0.085475  0.467307  0.848091  1
  N  N35  1  0.532693  0.914525  0.348091  1
  O  O36  1  0.171987  0.873071  0.892292  1
  O  O37  1  0.126929  0.828013  0.392292  1
  O  O38  1  0.828013  0.126929  0.107708  1
  O  O39  1  0.873071  0.171987  0.607708  1
  O  O40  1  0.186810  0.159504  0.944437  1
  O  O41  1  0.840496  0.813190  0.444437  1
  O  O42  1  0.813190  0.840496  0.055563  1
  O  O43  1  0.159504  0.186810  0.555563  1
  O  O44  1  0.350271  0.054268  0.104266  1
  O  O45  1  0.945732  0.649729  0.604266  1
  O  O46  1  0.649729  0.945732  0.895734  1
  O  O47  1  0.054268  0.350271  0.395734  1
  O  O48  1  0.557660  0.307714  0.903044  1
  O  O49  1  0.692286  0.442340  0.403044  1
  O  O50  1  0.442340  0.692286  0.096956  1
  O  O51  1  0.307714  0.557660  0.596956  1
