# generated using pymatgen
data_Li4V2Fe5O12
_symmetry_space_group_name_H-M   'P 1'
_cell_length_a   5.12407424
_cell_length_b   9.06229213
_cell_length_c   9.97310050
_cell_angle_alpha   90.00000000
_cell_angle_beta   101.65823507
_cell_angle_gamma   90.00000000
_symmetry_Int_Tables_number   1
_chemical_formula_structural   Li4V2Fe5O12
_chemical_formula_sum   'Li8 V4 Fe10 O24'
_cell_volume   453.55569836
_cell_formula_units_Z   2
loop_
 _symmetry_equiv_pos_site_id
 _symmetry_equiv_pos_as_xyz
  1  'x, y, z'
loop_
 _atom_site_type_symbol
 _atom_site_label
 _atom_site_symmetry_multiplicity
 _atom_site_fract_x
 _atom_site_fract_y
 _atom_site_fract_z
 _atom_site_occupancy
  Li  Li0  1  0.007126  0.920475  0.254377  1
  Li  Li1  1  0.487013  0.922143  0.742434  1
  Li  Li2  1  0.758104  0.579080  0.496985  1
  Li  Li3  1  0.501703  0.583581  0.749017  1
  Li  Li4  1  0.992874  0.420475  0.745623  1
  Li  Li5  1  0.512987  0.422143  0.257566  1
  Li  Li6  1  0.241896  0.079080  0.503015  1
  Li  Li7  1  0.498297  0.083581  0.250983  1
  V  V8  1  0.245449  0.745438  0.492957  1
  V  V9  1  0.754681  0.746988  0.005656  1
  V  V10  1  0.245319  0.246988  0.994344  1
  V  V11  1  0.754551  0.245438  0.507043  1
  Fe  Fe12  1  0.248422  0.922906  0.992002  1
  Fe  Fe13  1  0.753900  0.925616  0.507178  1
  Fe  Fe14  1  0.993596  0.755848  0.746663  1
  Fe  Fe15  1  0.508403  0.746381  0.252004  1
  Fe  Fe16  1  0.238800  0.578570  0.998169  1
  Fe  Fe17  1  0.246100  0.425616  0.492822  1
  Fe  Fe18  1  0.751578  0.422906  0.007998  1
  Fe  Fe19  1  0.006404  0.255848  0.253337  1
  Fe  Fe20  1  0.491597  0.246381  0.747996  1
  Fe  Fe21  1  0.761200  0.078570  0.001831  1
  O  O22  1  0.123640  0.899073  0.610339  1
  O  O23  1  0.846447  0.905491  0.885785  1
  O  O24  1  0.885261  0.764020  0.384779  1
  O  O25  1  0.635579  0.909161  0.128418  1
  O  O26  1  0.385344  0.899695  0.374095  1
  O  O27  1  0.137866  0.749552  0.114867  1
  O  O28  1  0.138696  0.591438  0.609414  1
  O  O29  1  0.598389  0.760848  0.610185  1
  O  O30  1  0.383468  0.739545  0.884453  1
  O  O31  1  0.879495  0.587861  0.876628  1
  O  O32  1  0.610638  0.591253  0.121358  1
  O  O33  1  0.384074  0.593630  0.382328  1
  O  O34  1  0.153553  0.405491  0.114215  1
  O  O35  1  0.876360  0.399073  0.389661  1
  O  O36  1  0.114739  0.264020  0.615221  1
  O  O37  1  0.614656  0.399695  0.625905  1
  O  O38  1  0.862134  0.249552  0.885133  1
  O  O39  1  0.364421  0.409161  0.871582  1
  O  O40  1  0.401611  0.260848  0.389815  1
  O  O41  1  0.120505  0.087861  0.123372  1
  O  O42  1  0.861304  0.091438  0.390586  1
  O  O43  1  0.616532  0.239545  0.115547  1
  O  O44  1  0.615926  0.093630  0.617672  1
  O  O45  1  0.389362  0.091253  0.878642  1
