# generated using pymatgen
data_Li3Co(NiO3)2
_symmetry_space_group_name_H-M   'P 1'
_cell_length_a   6.61529520
_cell_length_b   6.61529520
_cell_length_c   5.76674744
_cell_angle_alpha   77.17765799
_cell_angle_beta   102.82234201
_cell_angle_gamma   155.16469889
_symmetry_Int_Tables_number   1
_chemical_formula_structural   Li3Co(NiO3)2
_chemical_formula_sum   'Li3 Co1 Ni2 O6'
_cell_volume   103.22310692
_cell_formula_units_Z   1
loop_
 _symmetry_equiv_pos_site_id
 _symmetry_equiv_pos_as_xyz
  1  'x, y, z'
loop_
 _atom_site_type_symbol
 _atom_site_label
 _atom_site_symmetry_multiplicity
 _atom_site_fract_x
 _atom_site_fract_y
 _atom_site_fract_z
 _atom_site_occupancy
  Li  Li0  1  0.000000  0.000000  0.000000  1
  Li  Li1  1  0.336183  0.663817  0.673553  1
  Li  Li2  1  0.663817  0.336183  0.326447  1
  Co  Co3  1  0.000000  1.000000  0.500000  1
  Ni  Ni4  1  0.335947  0.664053  0.166382  1
  Ni  Ni5  1  0.664053  0.335947  0.833618  1
  O  O6  1  0.846311  0.153689  0.403393  1
  O  O7  1  0.153689  0.846311  0.596607  1
  O  O8  1  0.501084  0.498916  0.275683  1
  O  O9  1  0.168649  0.831351  0.065483  1
  O  O10  1  0.498916  0.501084  0.724317  1
  O  O11  1  0.831351  0.168649  0.934517  1
