# generated using pymatgen
data_Li2MnV5O12
_symmetry_space_group_name_H-M   'P 1'
_cell_length_a   6.90093955
_cell_length_b   6.90093955
_cell_length_c   5.81485496
_cell_angle_alpha   75.10380907
_cell_angle_beta   104.89619093
_cell_angle_gamma   96.43432588
_symmetry_Int_Tables_number   1
_chemical_formula_structural   Li2MnV5O12
_chemical_formula_sum   'Li2 Mn1 V5 O12'
_cell_volume   258.30692263
_cell_formula_units_Z   1
loop_
 _symmetry_equiv_pos_site_id
 _symmetry_equiv_pos_as_xyz
  1  'x, y, z'
loop_
 _atom_site_type_symbol
 _atom_site_label
 _atom_site_symmetry_multiplicity
 _atom_site_fract_x
 _atom_site_fract_y
 _atom_site_fract_z
 _atom_site_occupancy
  Li  Li0  1  0.754484  0.754484  0.500000  1
  Li  Li1  1  0.246979  0.246979  0.000000  1
  Mn  Mn2  1  0.085031  0.085031  0.500000  1
  V  V3  1  0.913498  0.913498  0.000000  1
  V  V4  1  0.395343  0.804584  0.017986  1
  V  V5  1  0.203637  0.607776  0.514386  1
  V  V6  1  0.804584  0.395343  0.982014  1
  V  V7  1  0.607776  0.203637  0.485614  1
  O  O8  1  0.191743  0.977388  0.907931  1
  O  O9  1  0.647619  0.898809  0.075462  1
  O  O10  1  0.018252  0.796205  0.387110  1
  O  O11  1  0.348466  0.637861  0.807638  1
  O  O12  1  0.898809  0.647619  0.924538  1
  O  O13  1  0.370431  0.639285  0.315975  1
  O  O14  1  0.637861  0.348466  0.192362  1
  O  O15  1  0.093414  0.369196  0.576200  1
  O  O16  1  0.639285  0.370431  0.684025  1
  O  O17  1  0.977388  0.191743  0.092069  1
  O  O18  1  0.369196  0.093414  0.423800  1
  O  O19  1  0.796205  0.018252  0.612890  1
