# generated using pymatgen
data_Li2VO2F
_symmetry_space_group_name_H-M   'P 1'
_cell_length_a   6.69837911
_cell_length_b   6.69837911
_cell_length_c   5.97953234
_cell_angle_alpha   76.67650073
_cell_angle_beta   103.32349927
_cell_angle_gamma   154.55287710
_symmetry_Int_Tables_number   1
_chemical_formula_structural   Li2VO2F
_chemical_formula_sum   'Li4 V2 O4 F2'
_cell_volume   112.01558772
_cell_formula_units_Z   2
loop_
 _symmetry_equiv_pos_site_id
 _symmetry_equiv_pos_as_xyz
  1  'x, y, z'
loop_
 _atom_site_type_symbol
 _atom_site_label
 _atom_site_symmetry_multiplicity
 _atom_site_fract_x
 _atom_site_fract_y
 _atom_site_fract_z
 _atom_site_occupancy
  Li  Li0  1  0.166304  0.833696  0.572209  1
  Li  Li1  1  0.833696  0.166304  0.427791  1
  Li  Li2  1  0.500417  0.499583  0.726434  1
  Li  Li3  1  0.499583  0.500417  0.273566  1
  V  V4  1  0.169220  0.830780  0.094959  1
  V  V5  1  0.830780  0.169220  0.905041  1
  O  O6  1  0.668041  0.331959  0.853344  1
  O  O7  1  0.662570  0.337430  0.315796  1
  O  O8  1  0.337430  0.662570  0.684204  1
  O  O9  1  0.331959  0.668041  0.146656  1
  F  F10  1  1.000000  1.000000  0.000000  1
  F  F11  1  1.000000  1.000000  0.500000  1
