# generated using pymatgen
data_LiCo2(PO4)3
_symmetry_space_group_name_H-M   'P 1'
_cell_length_a   8.39891970
_cell_length_b   8.39891970
_cell_length_c   8.39891970
_cell_angle_alpha   59.34610152
_cell_angle_beta   59.34610152
_cell_angle_gamma   59.34610152
_symmetry_Int_Tables_number   1
_chemical_formula_structural   LiCo2(PO4)3
_chemical_formula_sum   'Li2 Co4 P6 O24'
_cell_volume   412.70727713
_cell_formula_units_Z   2
loop_
 _symmetry_equiv_pos_site_id
 _symmetry_equiv_pos_as_xyz
  1  'x, y, z'
loop_
 _atom_site_type_symbol
 _atom_site_label
 _atom_site_symmetry_multiplicity
 _atom_site_fract_x
 _atom_site_fract_y
 _atom_site_fract_z
 _atom_site_occupancy
  Li  Li0  1  0.000000  0.000000  0.000000  1
  Li  Li1  1  0.500000  0.500000  0.500000  1
  Co  Co2  1  0.859707  0.859707  0.859707  1
  Co  Co3  1  0.640293  0.640293  0.640293  1
  Co  Co4  1  0.359707  0.359707  0.359707  1
  Co  Co5  1  0.140293  0.140293  0.140293  1
  P  P6  1  0.250000  0.534344  0.965656  1
  P  P7  1  0.965656  0.250000  0.534344  1
  P  P8  1  0.534344  0.965656  0.250000  1
  P  P9  1  0.465656  0.034344  0.750000  1
  P  P10  1  0.034344  0.750000  0.465656  1
  P  P11  1  0.750000  0.465656  0.034344  1
  O  O12  1  0.706738  0.485620  0.868062  1
  O  O13  1  0.485620  0.868062  0.706738  1
  O  O14  1  0.077980  0.734533  0.944473  1
  O  O15  1  0.868062  0.706738  0.485620  1
  O  O16  1  0.422020  0.555527  0.765467  1
  O  O17  1  0.206738  0.368062  0.985620  1
  O  O18  1  0.944473  0.077980  0.734533  1
  O  O19  1  0.765467  0.422020  0.555527  1
  O  O20  1  0.555527  0.765467  0.422020  1
  O  O21  1  0.631938  0.014380  0.793262  1
  O  O22  1  0.265467  0.055527  0.922020  1
  O  O23  1  0.014380  0.793262  0.631938  1
  O  O24  1  0.985620  0.206738  0.368062  1
  O  O25  1  0.734533  0.944473  0.077980  1
  O  O26  1  0.368062  0.985620  0.206738  1
  O  O27  1  0.444473  0.234533  0.577980  1
  O  O28  1  0.234533  0.577980  0.444473  1
  O  O29  1  0.055527  0.922020  0.265467  1
  O  O30  1  0.793262  0.631938  0.014380  1
  O  O31  1  0.577980  0.444473  0.234533  1
  O  O32  1  0.131938  0.293262  0.514380  1
  O  O33  1  0.922020  0.265467  0.055527  1
  O  O34  1  0.514380  0.131938  0.293262  1
  O  O35  1  0.293262  0.514380  0.131938  1
