# generated using pymatgen
data_Li5Co7O16
_symmetry_space_group_name_H-M   'P 1'
_cell_length_a   8.07553090
_cell_length_b   8.15291820
_cell_length_c   8.13808336
_cell_angle_alpha   90.00000000
_cell_angle_beta   90.36307033
_cell_angle_gamma   90.00000000
_symmetry_Int_Tables_number   1
_chemical_formula_structural   Li5Co7O16
_chemical_formula_sum   'Li10 Co14 O32'
_cell_volume   535.79367565
_cell_formula_units_Z   2
loop_
 _symmetry_equiv_pos_site_id
 _symmetry_equiv_pos_as_xyz
  1  'x, y, z'
loop_
 _atom_site_type_symbol
 _atom_site_label
 _atom_site_symmetry_multiplicity
 _atom_site_fract_x
 _atom_site_fract_y
 _atom_site_fract_z
 _atom_site_occupancy
  Li  Li0  1  0.249661  0.503211  0.499946  1
  Li  Li1  1  0.127657  0.623357  0.867797  1
  Li  Li2  1  0.000486  0.251362  0.745452  1
  Li  Li3  1  0.999514  0.751362  0.254548  1
  Li  Li4  1  0.872343  0.123357  0.132203  1
  Li  Li5  1  0.750339  0.003211  0.500054  1
  Li  Li6  1  0.623121  0.374507  0.620527  1
  Li  Li7  1  0.496884  0.748044  0.743464  1
  Li  Li8  1  0.503116  0.248044  0.256536  1
  Li  Li9  1  0.376879  0.874507  0.379473  1
  Co  Co10  1  0.122487  0.879884  0.621165  1
  Co  Co11  1  0.128279  0.126332  0.381463  1
  Co  Co12  1  0.130880  0.378873  0.124289  1
  Co  Co13  1  0.869120  0.878873  0.875711  1
  Co  Co14  1  0.871721  0.626332  0.618537  1
  Co  Co15  1  0.877513  0.379884  0.378835  1
  Co  Co16  1  0.758082  0.498632  0.997302  1
  Co  Co17  1  0.625871  0.118359  0.880460  1
  Co  Co18  1  0.623569  0.871590  0.121270  1
  Co  Co19  1  0.627955  0.626757  0.368774  1
  Co  Co20  1  0.372045  0.126757  0.631226  1
  Co  Co21  1  0.376431  0.371590  0.878730  1
  Co  Co22  1  0.374129  0.618359  0.119540  1
  Co  Co23  1  0.241918  0.998632  0.002698  1
  O  O24  1  0.145665  0.369501  0.903421  1
  O  O25  1  0.149102  0.602109  0.132098  1
  O  O26  1  0.137580  0.116287  0.612655  1
  O  O27  1  0.116642  0.901763  0.398935  1
  O  O28  1  0.130459  0.138022  0.143153  1
  O  O29  1  0.112142  0.361428  0.356953  1
  O  O30  1  0.107794  0.880347  0.864084  1
  O  O31  1  0.104082  0.649411  0.621881  1
  O  O32  1  0.895918  0.149411  0.378119  1
  O  O33  1  0.892206  0.380347  0.135916  1
  O  O34  1  0.887858  0.861428  0.643047  1
  O  O35  1  0.869541  0.638022  0.856847  1
  O  O36  1  0.883358  0.401763  0.601065  1
  O  O37  1  0.862420  0.616287  0.387345  1
  O  O38  1  0.850898  0.102109  0.867902  1
  O  O39  1  0.854335  0.869501  0.096579  1
  O  O40  1  0.645560  0.630328  0.598608  1
  O  O41  1  0.654145  0.396153  0.370589  1
  O  O42  1  0.635032  0.887128  0.886896  1
  O  O43  1  0.621246  0.100555  0.103259  1
  O  O44  1  0.632635  0.855327  0.343350  1
  O  O45  1  0.613611  0.633553  0.129246  1
  O  O46  1  0.595520  0.121073  0.648899  1
  O  O47  1  0.610587  0.355412  0.884380  1
  O  O48  1  0.389413  0.855412  0.115620  1
  O  O49  1  0.404480  0.621073  0.351101  1
  O  O50  1  0.386389  0.133553  0.870754  1
  O  O51  1  0.367365  0.355327  0.656650  1
  O  O52  1  0.378754  0.600555  0.896741  1
  O  O53  1  0.364968  0.387128  0.113104  1
  O  O54  1  0.345855  0.896153  0.629411  1
  O  O55  1  0.354440  0.130328  0.401392  1
