# generated using pymatgen
data_MnOF
_symmetry_space_group_name_H-M   'P 1'
_cell_length_a   3.08232978
_cell_length_b   4.80264992
_cell_length_c   14.19443764
_cell_angle_alpha   90.00000000
_cell_angle_beta   90.00000000
_cell_angle_gamma   90.00000000
_symmetry_Int_Tables_number   1
_chemical_formula_structural   MnOF
_chemical_formula_sum   'Mn6 O6 F6'
_cell_volume   210.12524073
_cell_formula_units_Z   6
loop_
 _symmetry_equiv_pos_site_id
 _symmetry_equiv_pos_as_xyz
  1  'x, y, z'
loop_
 _atom_site_type_symbol
 _atom_site_label
 _atom_site_symmetry_multiplicity
 _atom_site_fract_x
 _atom_site_fract_y
 _atom_site_fract_z
 _atom_site_occupancy
  Mn  Mn0  1  0.500000  0.716610  0.999149  1
  Mn  Mn1  1  0.500000  0.854598  0.331466  1
  Mn  Mn2  1  0.500000  0.707571  0.666951  1
  Mn  Mn3  1  0.000000  0.292429  0.166951  1
  Mn  Mn4  1  0.000000  0.283390  0.499149  1
  Mn  Mn5  1  0.000000  0.145402  0.831466  1
  O  O6  1  0.000000  0.020041  0.267800  1
  O  O7  1  0.000000  0.891153  0.935371  1
  O  O8  1  0.500000  0.979959  0.767800  1
  O  O9  1  0.500000  0.108847  0.435371  1
  O  O10  1  0.500000  0.445293  0.565922  1
  O  O11  1  0.000000  0.554707  0.065922  1
  F  F12  1  0.000000  0.919994  0.605769  1
  F  F13  1  0.500000  0.080006  0.105769  1
  F  F14  1  0.500000  0.512142  0.234408  1
  F  F15  1  0.500000  0.368604  0.893122  1
  F  F16  1  0.000000  0.631396  0.393122  1
  F  F17  1  0.000000  0.487858  0.734408  1
