# generated using pymatgen
data_Li3VOF5
_symmetry_space_group_name_H-M   'P 1'
_cell_length_a   5.07355586
_cell_length_b   5.28982479
_cell_length_c   9.18726115
_cell_angle_alpha   90.00000000
_cell_angle_beta   123.16518898
_cell_angle_gamma   90.00000000
_symmetry_Int_Tables_number   1
_chemical_formula_structural   Li3VOF5
_chemical_formula_sum   'Li6 V2 O2 F10'
_cell_volume   206.40275909
_cell_formula_units_Z   2
loop_
 _symmetry_equiv_pos_site_id
 _symmetry_equiv_pos_as_xyz
  1  'x, y, z'
loop_
 _atom_site_type_symbol
 _atom_site_label
 _atom_site_symmetry_multiplicity
 _atom_site_fract_x
 _atom_site_fract_y
 _atom_site_fract_z
 _atom_site_occupancy
  Li  Li0  1  0.505034  0.245398  0.500924  1
  Li  Li1  1  0.746578  0.795893  0.751596  1
  Li  Li2  1  0.505034  0.754602  0.000924  1
  Li  Li3  1  0.273763  0.284498  0.761857  1
  Li  Li4  1  0.746578  0.204107  0.251596  1
  Li  Li5  1  0.273763  0.715502  0.261857  1
  V  V6  1  0.029302  0.264332  0.004540  1
  V  V7  1  0.029302  0.735668  0.504540  1
  O  O8  1  0.358214  0.581022  0.558328  1
  O  O9  1  0.358214  0.418978  0.058328  1
  F  F10  1  0.088530  0.317844  0.233384  1
  F  F11  1  0.741523  0.554679  0.917680  1
  F  F12  1  0.627301  0.071686  0.934717  1
  F  F13  1  0.231069  0.069579  0.573429  1
  F  F14  1  0.898684  0.824787  0.263543  1
  F  F15  1  0.088530  0.682156  0.733384  1
  F  F16  1  0.741523  0.445321  0.417680  1
  F  F17  1  0.627301  0.928314  0.434717  1
  F  F18  1  0.231069  0.930421  0.073429  1
  F  F19  1  0.898684  0.175213  0.763543  1
