# generated using pymatgen
data_Li6Co5(P2O7)4
_symmetry_space_group_name_H-M   'P 1'
_cell_length_a   6.35494909
_cell_length_b   8.47533613
_cell_length_c   10.05197486
_cell_angle_alpha   107.77419342
_cell_angle_beta   90.32113811
_cell_angle_gamma   92.77006979
_symmetry_Int_Tables_number   1
_chemical_formula_structural   Li6Co5(P2O7)4
_chemical_formula_sum   'Li6 Co5 P8 O28'
_cell_volume   514.83951063
_cell_formula_units_Z   1
loop_
 _symmetry_equiv_pos_site_id
 _symmetry_equiv_pos_as_xyz
  1  'x, y, z'
loop_
 _atom_site_type_symbol
 _atom_site_label
 _atom_site_symmetry_multiplicity
 _atom_site_fract_x
 _atom_site_fract_y
 _atom_site_fract_z
 _atom_site_occupancy
  Li  Li0  1  0.000000  0.500000  0.500000  1
  Li  Li1  1  0.019166  0.162463  0.609325  1
  Li  Li2  1  0.093066  0.606953  0.124155  1
  Li  Li3  1  0.500000  0.500000  0.500000  1
  Li  Li4  1  0.906934  0.393047  0.875845  1
  Li  Li5  1  0.980834  0.837537  0.390675  1
  Co  Co6  1  0.311056  0.886770  0.643951  1
  Co  Co7  1  0.357368  0.881851  0.060275  1
  Co  Co8  1  0.500000  0.500000  0.000000  1
  Co  Co9  1  0.642632  0.118149  0.939725  1
  Co  Co10  1  0.688944  0.113230  0.356049  1
  P  P11  1  0.151743  0.206512  0.017132  1
  P  P12  1  0.187274  0.181141  0.311296  1
  P  P13  1  0.263947  0.540157  0.738363  1
  P  P14  1  0.475425  0.754163  0.320308  1
  P  P15  1  0.524575  0.245837  0.679692  1
  P  P16  1  0.736053  0.459843  0.261637  1
  P  P17  1  0.812726  0.818859  0.688704  1
  P  P18  1  0.848257  0.793488  0.982868  1
  O  O19  1  0.043784  0.838795  0.078028  1
  O  O20  1  0.017677  0.084733  0.369776  1
  O  O21  1  0.069152  0.424686  0.723058  1
  O  O22  1  0.079269  0.200613  0.168353  1
  O  O23  1  0.222584  0.386390  0.027404  1
  O  O24  1  0.237274  0.353415  0.409476  1
  O  O25  1  0.257999  0.649012  0.640866  1
  O  O26  1  0.299289  0.806712  0.423777  1
  O  O27  1  0.336563  0.634181  0.888979  1
  O  O28  1  0.326720  0.130339  0.650791  1
  O  O29  1  0.326462  0.080641  0.969806  1
  O  O30  1  0.392944  0.709220  0.166741  1
  O  O31  1  0.384951  0.079858  0.260947  1
  O  O32  1  0.458893  0.423119  0.668525  1
  O  O33  1  0.541107  0.576881  0.331475  1
  O  O34  1  0.615049  0.920142  0.739053  1
  O  O35  1  0.607056  0.290780  0.833259  1
  O  O36  1  0.673538  0.919359  0.030194  1
  O  O37  1  0.673280  0.869661  0.349209  1
  O  O38  1  0.663437  0.365819  0.111021  1
  O  O39  1  0.700711  0.193288  0.576223  1
  O  O40  1  0.742001  0.350988  0.359134  1
  O  O41  1  0.762726  0.646585  0.590524  1
  O  O42  1  0.777416  0.613610  0.972596  1
  O  O43  1  0.920731  0.799387  0.831647  1
  O  O44  1  0.930848  0.575314  0.276942  1
  O  O45  1  0.982323  0.915267  0.630224  1
  O  O46  1  0.956216  0.161205  0.921972  1
