# generated using pymatgen
data_Li4Cu7(PO4)6
_symmetry_space_group_name_H-M   'P 1'
_cell_length_a   8.90643929
_cell_length_b   8.90643929
_cell_length_c   6.25427736
_cell_angle_alpha   80.92774432
_cell_angle_beta   99.07225568
_cell_angle_gamma   76.90576851
_symmetry_Int_Tables_number   1
_chemical_formula_structural   Li4Cu7(PO4)6
_chemical_formula_sum   'Li4 Cu7 P6 O24'
_cell_volume   467.42733278
_cell_formula_units_Z   1
loop_
 _symmetry_equiv_pos_site_id
 _symmetry_equiv_pos_as_xyz
  1  'x, y, z'
loop_
 _atom_site_type_symbol
 _atom_site_label
 _atom_site_symmetry_multiplicity
 _atom_site_fract_x
 _atom_site_fract_y
 _atom_site_fract_z
 _atom_site_occupancy
  Li  Li0  1  0.729916  0.270084  0.472477  1
  Li  Li1  1  0.541053  0.712790  0.468801  1
  Li  Li2  1  0.287210  0.458947  0.468801  1
  Li  Li3  1  0.055982  0.944018  0.486920  1
  Cu  Cu4  1  0.985276  0.639885  0.818513  1
  Cu  Cu5  1  0.360115  0.014724  0.818513  1
  Cu  Cu6  1  0.625948  0.624289  0.002075  1
  Cu  Cu7  1  0.375711  0.374052  0.002075  1
  Cu  Cu8  1  0.007375  0.992625  0.999302  1
  Cu  Cu9  1  0.650381  0.993085  0.183406  1
  Cu  Cu10  1  0.006915  0.349619  0.183406  1
  P  P11  1  0.285196  0.095638  0.288234  1
  P  P12  1  0.904362  0.714804  0.288234  1
  P  P13  1  0.671628  0.328372  0.928322  1
  P  P14  1  0.320868  0.679132  0.076794  1
  P  P15  1  0.715185  0.914693  0.708273  1
  P  P16  1  0.085307  0.284815  0.708273  1
  O  O17  1  0.589497  0.232991  0.088368  1
  O  O18  1  0.767009  0.410503  0.088368  1
  O  O19  1  0.769115  0.230885  0.800592  1
  O  O20  1  0.975429  0.611330  0.133349  1
  O  O21  1  0.388670  0.024571  0.133349  1
  O  O22  1  0.103803  0.098575  0.227979  1
  O  O23  1  0.901425  0.896197  0.227979  1
  O  O24  1  0.725706  0.717960  0.266803  1
  O  O25  1  0.282040  0.274294  0.266803  1
  O  O26  1  0.534085  0.465915  0.784254  1
  O  O27  1  0.439743  0.560257  0.272753  1
  O  O28  1  0.110109  0.099761  0.782746  1
  O  O29  1  0.900239  0.889891  0.782746  1
  O  O30  1  0.695618  0.746709  0.704979  1
  O  O31  1  0.253291  0.304382  0.704979  1
  O  O32  1  0.664890  0.030706  0.482968  1
  O  O33  1  0.969294  0.335110  0.482968  1
  O  O34  1  0.205266  0.794734  0.163143  1
  O  O35  1  0.614849  0.986519  0.867415  1
  O  O36  1  0.013481  0.385151  0.867415  1
  O  O37  1  0.416875  0.764642  0.929127  1
  O  O38  1  0.235358  0.583125  0.929127  1
  O  O39  1  0.012789  0.652015  0.517523  1
  O  O40  1  0.347985  0.987211  0.517523  1
