# generated using pymatgen
data_Na3Mn2P2(CO7)2
_symmetry_space_group_name_H-M   'P 1'
_cell_length_a   8.37384555
_cell_length_b   8.42750162
_cell_length_c   9.01112823
_cell_angle_alpha   91.05309803
_cell_angle_beta   91.06590583
_cell_angle_gamma   103.28920191
_symmetry_Int_Tables_number   1
_chemical_formula_structural   Na3Mn2P2(CO7)2
_chemical_formula_sum   'Na6 Mn4 P4 C4 O28'
_cell_volume   618.61731850
_cell_formula_units_Z   2
loop_
 _symmetry_equiv_pos_site_id
 _symmetry_equiv_pos_as_xyz
  1  'x, y, z'
loop_
 _atom_site_type_symbol
 _atom_site_label
 _atom_site_symmetry_multiplicity
 _atom_site_fract_x
 _atom_site_fract_y
 _atom_site_fract_z
 _atom_site_occupancy
  Na  Na0  1  0.619090  0.629104  0.757854  1
  Na  Na1  1  0.886724  0.349172  0.755349  1
  Na  Na2  1  0.373712  0.874594  0.765716  1
  Na  Na3  1  0.894265  0.857212  0.244769  1
  Na  Na4  1  0.615758  0.124750  0.242030  1
  Na  Na5  1  0.383196  0.382559  0.234602  1
  Mn  Mn6  1  0.511318  0.270809  0.655622  1
  Mn  Mn7  1  0.017117  0.769556  0.649051  1
  Mn  Mn8  1  0.471557  0.735649  0.342377  1
  Mn  Mn9  1  0.983215  0.236736  0.353469  1
  P  P10  1  0.732426  0.977885  0.574094  1
  P  P11  1  0.232345  0.491066  0.571157  1
  P  P12  1  0.769768  0.510834  0.427706  1
  P  P13  1  0.263320  0.026275  0.425961  1
  C  C14  1  0.991472  0.736510  0.918259  1
  C  C15  1  0.491241  0.242240  0.923280  1
  C  C16  1  0.512441  0.758378  0.075724  1
  C  C17  1  0.007829  0.257947  0.083609  1
  O  O18  1  0.527762  0.774560  0.939221  1
  O  O19  1  0.022051  0.271027  0.948717  1
  O  O20  1  0.601554  0.355271  0.856198  1
  O  O21  1  0.101839  0.848801  0.853794  1
  O  O22  1  0.897237  0.639504  0.815621  1
  O  O23  1  0.394458  0.145534  0.827128  1
  O  O24  1  0.856712  0.907589  0.667274  1
  O  O25  1  0.358912  0.438696  0.671744  1
  O  O26  1  0.676955  0.105469  0.670663  1
  O  O27  1  0.171823  0.622301  0.665602  1
  O  O28  1  0.581411  0.835042  0.531918  1
  O  O29  1  0.697083  0.442086  0.577354  1
  O  O30  1  0.193982  0.941446  0.569869  1
  O  O31  1  0.082165  0.344548  0.534526  1
  O  O32  1  0.915312  0.660330  0.466669  1
  O  O33  1  0.808084  0.051921  0.426383  1
  O  O34  1  0.305263  0.556975  0.422649  1
  O  O35  1  0.405282  0.178081  0.468497  1
  O  O36  1  0.828741  0.373792  0.339460  1
  O  O37  1  0.645830  0.564502  0.326211  1
  O  O38  1  0.332386  0.917655  0.320672  1
  O  O39  1  0.127138  0.087112  0.337453  1
  O  O40  1  0.608419  0.853776  0.176302  1
  O  O41  1  0.103734  0.353108  0.183917  1
  O  O42  1  0.895175  0.147419  0.150434  1
  O  O43  1  0.399564  0.647474  0.137896  1
  O  O44  1  0.973630  0.721279  0.052749  1
  O  O45  1  0.482804  0.231326  0.060450  1
