# generated using pymatgen
data_Li3NiPCO7
_symmetry_space_group_name_H-M   'P 1'
_cell_length_a   6.39644262
_cell_length_b   8.35604307
_cell_length_c   9.89314155
_cell_angle_alpha   94.99705964
_cell_angle_beta   90.26787102
_cell_angle_gamma   90.25857504
_symmetry_Int_Tables_number   1
_chemical_formula_structural   Li3NiPCO7
_chemical_formula_sum   'Li12 Ni4 P4 C4 O28'
_cell_volume   526.75605068
_cell_formula_units_Z   4
loop_
 _symmetry_equiv_pos_site_id
 _symmetry_equiv_pos_as_xyz
  1  'x, y, z'
loop_
 _atom_site_type_symbol
 _atom_site_label
 _atom_site_symmetry_multiplicity
 _atom_site_fract_x
 _atom_site_fract_y
 _atom_site_fract_z
 _atom_site_occupancy
  Li  Li0  1  0.747014  0.897419  0.389012  1
  Li  Li1  1  0.746016  0.903748  0.878909  1
  Li  Li2  1  0.509786  0.724602  0.131852  1
  Li  Li3  1  0.993796  0.724423  0.611727  1
  Li  Li4  1  0.508571  0.723961  0.611260  1
  Li  Li5  1  0.252034  0.655573  0.399206  1
  Li  Li6  1  0.472214  0.281387  0.379478  1
  Li  Li7  1  0.027326  0.281875  0.379048  1
  Li  Li8  1  0.477769  0.277582  0.873822  1
  Li  Li9  1  0.021187  0.276506  0.873744  1
  Li  Li10  1  0.249423  0.094529  0.118564  1
  Li  Li11  1  0.250808  0.101207  0.613936  1
  Ni  Ni12  1  0.994913  0.727261  0.137689  1
  Ni  Ni13  1  0.250965  0.665810  0.893883  1
  Ni  Ni14  1  0.750447  0.333191  0.103488  1
  Ni  Ni15  1  0.750986  0.332632  0.603060  1
  P  P16  1  0.752986  0.589107  0.361665  1
  P  P17  1  0.749134  0.584709  0.863502  1
  P  P18  1  0.247603  0.409941  0.141398  1
  P  P19  1  0.250490  0.416728  0.641468  1
  C  C20  1  0.242048  0.962426  0.349716  1
  C  C21  1  0.248331  0.959340  0.851267  1
  C  C22  1  0.753936  0.039065  0.147805  1
  C  C23  1  0.750173  0.039750  0.648779  1
  O  O24  1  0.249768  0.927573  0.472281  1
  O  O25  1  0.759798  0.889969  0.180700  1
  O  O26  1  0.248473  0.922507  0.976137  1
  O  O27  1  0.231275  0.848597  0.249176  1
  O  O28  1  0.750006  0.891632  0.677729  1
  O  O29  1  0.247350  0.841651  0.756548  1
  O  O30  1  0.942251  0.692558  0.410834  1
  O  O31  1  0.560042  0.690407  0.403675  1
  O  O32  1  0.937553  0.690449  0.923219  1
  O  O33  1  0.562534  0.690945  0.914606  1
  O  O34  1  0.243185  0.580898  0.087052  1
  O  O35  1  0.764479  0.565917  0.199674  1
  O  O36  1  0.251635  0.581872  0.587843  1
  O  O37  1  0.757579  0.563592  0.706538  1
  O  O38  1  0.248374  0.431427  0.296633  1
  O  O39  1  0.749952  0.419458  0.412078  1
  O  O40  1  0.249839  0.436178  0.800560  1
  O  O41  1  0.749009  0.417222  0.916401  1
  O  O42  1  0.061388  0.304562  0.084751  1
  O  O43  1  0.438010  0.313440  0.083630  1
  O  O44  1  0.437957  0.309760  0.590854  1
  O  O45  1  0.062990  0.308615  0.589465  1
  O  O46  1  0.747531  0.154504  0.242710  1
  O  O47  1  0.249715  0.110602  0.318341  1
  O  O48  1  0.750723  0.156280  0.745162  1
  O  O49  1  0.751032  0.072354  0.023425  1
  O  O50  1  0.250066  0.106399  0.820865  1
  O  O51  1  0.749531  0.077861  0.524836  1
