# generated using pymatgen
data_Lu4(B2O5)3
_symmetry_space_group_name_H-M   'P 1'
_cell_length_a   7.94293301
_cell_length_b   7.94293301
_cell_length_c   7.94293301
_cell_angle_alpha   112.00079312
_cell_angle_beta   112.00079312
_cell_angle_gamma   112.00079312
_symmetry_Int_Tables_number   1
_chemical_formula_structural   Lu4(B2O5)3
_chemical_formula_sum   'Lu4 B6 O15'
_cell_volume   344.94932435
_cell_formula_units_Z   1
loop_
 _symmetry_equiv_pos_site_id
 _symmetry_equiv_pos_as_xyz
  1  'x, y, z'
loop_
 _atom_site_type_symbol
 _atom_site_label
 _atom_site_symmetry_multiplicity
 _atom_site_fract_x
 _atom_site_fract_y
 _atom_site_fract_z
 _atom_site_occupancy
  Lu  Lu0  1  0.198017  0.904735  0.720611  1
  Lu  Lu1  1  0.720611  0.198017  0.904735  1
  Lu  Lu2  1  0.006357  0.006357  0.006357  1
  Lu  Lu3  1  0.904735  0.720611  0.198017  1
  B  B4  1  0.498971  0.727991  0.812359  1
  B  B5  1  0.149465  0.487380  0.406184  1
  B  B6  1  0.406184  0.149465  0.487380  1
  B  B7  1  0.812359  0.498971  0.727991  1
  B  B8  1  0.727991  0.812359  0.498971  1
  B  B9  1  0.487380  0.406184  0.149465  1
  O  O10  1  0.275776  0.199788  0.007258  1
  O  O11  1  0.490839  0.911868  0.884092  1
  O  O12  1  0.113590  0.645646  0.410978  1
  O  O13  1  0.314466  0.524336  0.596730  1
  O  O14  1  0.691504  0.751858  0.951220  1
  O  O15  1  0.410978  0.113590  0.645646  1
  O  O16  1  0.199788  0.007258  0.275776  1
  O  O17  1  0.884092  0.490839  0.911868  1
  O  O18  1  0.751858  0.951220  0.691504  1
  O  O19  1  0.596730  0.314466  0.524336  1
  O  O20  1  0.524336  0.596730  0.314466  1
  O  O21  1  0.951220  0.691504  0.751858  1
  O  O22  1  0.911868  0.884092  0.490839  1
  O  O23  1  0.645646  0.410978  0.113590  1
  O  O24  1  0.007258  0.275776  0.199788  1
