# generated using pymatgen
data_ZrBrO
_symmetry_space_group_name_H-M   'P 1'
_cell_length_a   9.88329040
_cell_length_b   9.88329040
_cell_length_c   9.88329040
_cell_angle_alpha   21.90133889
_cell_angle_beta   21.90133889
_cell_angle_gamma   21.90133889
_symmetry_Int_Tables_number   1
_chemical_formula_structural   ZrBrO
_chemical_formula_sum   'Zr2 Br2 O2'
_cell_volume   117.74136508
_cell_formula_units_Z   2
loop_
 _symmetry_equiv_pos_site_id
 _symmetry_equiv_pos_as_xyz
  1  'x, y, z'
loop_
 _atom_site_type_symbol
 _atom_site_label
 _atom_site_symmetry_multiplicity
 _atom_site_fract_x
 _atom_site_fract_y
 _atom_site_fract_z
 _atom_site_occupancy
  Zr  Zr0  1  0.876403  0.876403  0.876403  1
  Zr  Zr1  1  0.123598  0.123598  0.123597  1
  Br  Br2  1  0.609130  0.609130  0.609130  1
  Br  Br3  1  0.390870  0.390870  0.390870  1
  O  O4  1  0.800536  0.800536  0.800536  1
  O  O5  1  0.199464  0.199464  0.199464  1
