# generated using pymatgen
data_Li2MnNi3O8
_symmetry_space_group_name_H-M   'P 1'
_cell_length_a   5.74502137
_cell_length_b   5.74502137
_cell_length_c   5.89360155
_cell_angle_alpha   60.49068701
_cell_angle_beta   119.50931299
_cell_angle_gamma   120.06035600
_symmetry_Int_Tables_number   1
_chemical_formula_structural   Li2MnNi3O8
_chemical_formula_sum   'Li2 Mn1 Ni3 O8'
_cell_volume   138.49345269
_cell_formula_units_Z   1
loop_
 _symmetry_equiv_pos_site_id
 _symmetry_equiv_pos_as_xyz
  1  'x, y, z'
loop_
 _atom_site_type_symbol
 _atom_site_label
 _atom_site_symmetry_multiplicity
 _atom_site_fract_x
 _atom_site_fract_y
 _atom_site_fract_z
 _atom_site_occupancy
  Li  Li0  1  0.500000  0.500000  0.500000  1
  Li  Li1  1  0.000000  0.000000  0.500000  1
  Mn  Mn2  1  0.500000  0.500000  0.000000  1
  Ni  Ni3  1  0.000000  0.000000  0.000000  1
  Ni  Ni4  1  0.000000  0.500000  0.000000  1
  Ni  Ni5  1  0.500000  0.000000  0.000000  1
  O  O6  1  0.717072  0.757670  0.213831  1
  O  O7  1  0.242330  0.282928  0.213831  1
  O  O8  1  0.246769  0.753231  0.204605  1
  O  O9  1  0.739584  0.260416  0.202922  1
  O  O10  1  0.260416  0.739584  0.797078  1
  O  O11  1  0.753231  0.246769  0.795395  1
  O  O12  1  0.757670  0.717072  0.786169  1
  O  O13  1  0.282928  0.242330  0.786169  1
