# generated using pymatgen
data_MgSO3
_symmetry_space_group_name_H-M   'P 1'
_cell_length_a   7.80003441
_cell_length_b   7.80003441
_cell_length_c   7.80003441
_cell_angle_alpha   109.40732986
_cell_angle_beta   109.40732986
_cell_angle_gamma   109.40732986
_symmetry_Int_Tables_number   1
_chemical_formula_structural   MgSO3
_chemical_formula_sum   'Mg6 S6 O18'
_cell_volume   366.17673638
_cell_formula_units_Z   6
loop_
 _symmetry_equiv_pos_site_id
 _symmetry_equiv_pos_as_xyz
  1  'x, y, z'
loop_
 _atom_site_type_symbol
 _atom_site_label
 _atom_site_symmetry_multiplicity
 _atom_site_fract_x
 _atom_site_fract_y
 _atom_site_fract_z
 _atom_site_occupancy
  Mg  Mg0  1  0.312793  0.814329  0.130862  1
  Mg  Mg1  1  0.869138  0.687207  0.185671  1
  Mg  Mg2  1  0.185671  0.869138  0.687207  1
  Mg  Mg3  1  0.814329  0.130862  0.312793  1
  Mg  Mg4  1  0.130862  0.312793  0.814329  1
  Mg  Mg5  1  0.687207  0.185671  0.869138  1
  S  S6  1  0.707768  0.852573  0.525596  1
  S  S7  1  0.147427  0.474404  0.292232  1
  S  S8  1  0.474404  0.292232  0.147427  1
  S  S9  1  0.525596  0.707768  0.852573  1
  S  S10  1  0.852573  0.525596  0.707768  1
  S  S11  1  0.292232  0.147427  0.474404  1
  O  O12  1  0.736015  0.840925  0.063425  1
  O  O13  1  0.159075  0.936575  0.263985  1
  O  O14  1  0.613585  0.914613  0.363204  1
  O  O15  1  0.187507  0.518873  0.124795  1
  O  O16  1  0.875205  0.812493  0.481127  1
  O  O17  1  0.636796  0.386415  0.085387  1
  O  O18  1  0.085387  0.636796  0.386415  1
  O  O19  1  0.936575  0.263985  0.159075  1
  O  O20  1  0.481127  0.875205  0.812493  1
  O  O21  1  0.518873  0.124795  0.187507  1
  O  O22  1  0.063425  0.736015  0.840925  1
  O  O23  1  0.914613  0.363204  0.613585  1
  O  O24  1  0.363204  0.613585  0.914613  1
  O  O25  1  0.124795  0.187507  0.518873  1
  O  O26  1  0.812493  0.481127  0.875205  1
  O  O27  1  0.386415  0.085387  0.636796  1
  O  O28  1  0.840925  0.063425  0.736015  1
  O  O29  1  0.263985  0.159075  0.936575  1
