# generated using pymatgen
data_Li2Cr2(SO4)3
_symmetry_space_group_name_H-M   'P 1'
_cell_length_a   8.62601017
_cell_length_b   8.78089597
_cell_length_c   13.23570694
_cell_angle_alpha   90.00000000
_cell_angle_beta   90.00000000
_cell_angle_gamma   90.00000000
_symmetry_Int_Tables_number   1
_chemical_formula_structural   Li2Cr2(SO4)3
_chemical_formula_sum   'Li8 Cr8 S12 O48'
_cell_volume   1002.52668275
_cell_formula_units_Z   4
loop_
 _symmetry_equiv_pos_site_id
 _symmetry_equiv_pos_as_xyz
  1  'x, y, z'
loop_
 _atom_site_type_symbol
 _atom_site_label
 _atom_site_symmetry_multiplicity
 _atom_site_fract_x
 _atom_site_fract_y
 _atom_site_fract_z
 _atom_site_occupancy
  Li  Li0  1  0.223304  0.277391  0.185226  1
  Li  Li1  1  0.776696  0.777391  0.185226  1
  Li  Li2  1  0.276696  0.777391  0.314774  1
  Li  Li3  1  0.723304  0.277391  0.314774  1
  Li  Li4  1  0.276696  0.722609  0.685226  1
  Li  Li5  1  0.723304  0.222609  0.685226  1
  Li  Li6  1  0.223304  0.222609  0.814774  1
  Li  Li7  1  0.776696  0.722609  0.814774  1
  Cr  Cr8  1  0.249276  0.960338  0.108517  1
  Cr  Cr9  1  0.750724  0.460338  0.108517  1
  Cr  Cr10  1  0.749276  0.960338  0.391483  1
  Cr  Cr11  1  0.250724  0.460338  0.391483  1
  Cr  Cr12  1  0.250724  0.039662  0.608517  1
  Cr  Cr13  1  0.749276  0.539662  0.608517  1
  Cr  Cr14  1  0.249276  0.539662  0.891483  1
  Cr  Cr15  1  0.750724  0.039662  0.891483  1
  S  S16  1  0.455117  0.250000  0.000000  1
  S  S17  1  0.544883  0.750000  0.000000  1
  S  S18  1  0.099195  0.607058  0.144958  1
  S  S19  1  0.900805  0.107058  0.144958  1
  S  S20  1  0.400805  0.107058  0.355042  1
  S  S21  1  0.599195  0.607058  0.355042  1
  S  S22  1  0.044883  0.750000  0.500000  1
  S  S23  1  0.955117  0.250000  0.500000  1
  S  S24  1  0.400805  0.392942  0.644958  1
  S  S25  1  0.599195  0.892942  0.644958  1
  S  S26  1  0.099195  0.892942  0.855042  1
  S  S27  1  0.900805  0.392942  0.855042  1
  O  O28  1  0.132183  0.583191  0.038411  1
  O  O29  1  0.867817  0.083191  0.038411  1
  O  O30  1  0.547707  0.363188  0.054576  1
  O  O31  1  0.452293  0.863188  0.054576  1
  O  O32  1  0.352389  0.174322  0.076587  1
  O  O33  1  0.647611  0.674322  0.076587  1
  O  O34  1  0.073672  0.112845  0.161729  1
  O  O35  1  0.926328  0.612845  0.161729  1
  O  O36  1  0.165046  0.756815  0.181071  1
  O  O37  1  0.834954  0.256815  0.181071  1
  O  O38  1  0.835954  0.984087  0.209119  1
  O  O39  1  0.164046  0.484087  0.209119  1
  O  O40  1  0.335954  0.984087  0.290881  1
  O  O41  1  0.664046  0.484087  0.290881  1
  O  O42  1  0.665046  0.756815  0.318929  1
  O  O43  1  0.334954  0.256815  0.318929  1
  O  O44  1  0.426328  0.612845  0.338271  1
  O  O45  1  0.573672  0.112845  0.338271  1
  O  O46  1  0.147611  0.674322  0.423413  1
  O  O47  1  0.852389  0.174322  0.423413  1
  O  O48  1  0.047707  0.363188  0.445424  1
  O  O49  1  0.952293  0.863188  0.445424  1
  O  O50  1  0.632183  0.583191  0.461589  1
  O  O51  1  0.367817  0.083191  0.461589  1
  O  O52  1  0.367817  0.416809  0.538411  1
  O  O53  1  0.632183  0.916809  0.538411  1
  O  O54  1  0.047707  0.136812  0.554576  1
  O  O55  1  0.952293  0.636812  0.554576  1
  O  O56  1  0.147611  0.825678  0.576587  1
  O  O57  1  0.852389  0.325678  0.576587  1
  O  O58  1  0.426328  0.887155  0.661729  1
  O  O59  1  0.573672  0.387155  0.661729  1
  O  O60  1  0.334954  0.243185  0.681071  1
  O  O61  1  0.665046  0.743185  0.681071  1
  O  O62  1  0.335954  0.515913  0.709119  1
  O  O63  1  0.664046  0.015913  0.709119  1
  O  O64  1  0.164046  0.015913  0.790881  1
  O  O65  1  0.835954  0.515913  0.790881  1
  O  O66  1  0.165046  0.743185  0.818929  1
  O  O67  1  0.834954  0.243185  0.818929  1
  O  O68  1  0.073672  0.387155  0.838271  1
  O  O69  1  0.926328  0.887155  0.838271  1
  O  O70  1  0.352389  0.325678  0.923413  1
  O  O71  1  0.647611  0.825678  0.923413  1
  O  O72  1  0.452293  0.636812  0.945424  1
  O  O73  1  0.547707  0.136812  0.945424  1
  O  O74  1  0.132183  0.916809  0.961589  1
  O  O75  1  0.867817  0.416809  0.961589  1
