# generated using pymatgen
data_Li3VOF6
_symmetry_space_group_name_H-M   'P 1'
_cell_length_a   5.20370976
_cell_length_b   5.21601012
_cell_length_c   16.12737524
_cell_angle_alpha   90.00000000
_cell_angle_beta   90.00000000
_cell_angle_gamma   90.00000000
_symmetry_Int_Tables_number   1
_chemical_formula_structural   Li3VOF6
_chemical_formula_sum   'Li12 V4 O4 F24'
_cell_volume   437.73893986
_cell_formula_units_Z   4
loop_
 _symmetry_equiv_pos_site_id
 _symmetry_equiv_pos_as_xyz
  1  'x, y, z'
loop_
 _atom_site_type_symbol
 _atom_site_label
 _atom_site_symmetry_multiplicity
 _atom_site_fract_x
 _atom_site_fract_y
 _atom_site_fract_z
 _atom_site_occupancy
  Li  Li0  1  0.200783  0.491518  0.999594  1
  Li  Li1  1  0.233016  0.991369  0.876408  1
  Li  Li2  1  0.235067  0.468595  0.255346  1
  Li  Li3  1  0.264933  0.531405  0.755346  1
  Li  Li4  1  0.266984  0.008631  0.376408  1
  Li  Li5  1  0.299217  0.508482  0.499594  1
  Li  Li6  1  0.700783  0.008482  0.000406  1
  Li  Li7  1  0.733016  0.508631  0.123592  1
  Li  Li8  1  0.735067  0.031405  0.744654  1
  Li  Li9  1  0.764933  0.968595  0.244654  1
  Li  Li10  1  0.766984  0.491369  0.623592  1
  Li  Li11  1  0.799217  0.991518  0.500406  1
  V  V12  1  0.245457  0.004165  0.624433  1
  V  V13  1  0.254543  0.995835  0.124433  1
  V  V14  1  0.745457  0.495835  0.375567  1
  V  V15  1  0.754543  0.504165  0.875567  1
  O  O16  1  0.013717  0.339792  0.390898  1
  O  O17  1  0.486283  0.660208  0.890898  1
  O  O18  1  0.513717  0.160208  0.609102  1
  O  O19  1  0.986283  0.839792  0.109102  1
  F  F20  1  0.042974  0.261697  0.556695  1
  F  F21  1  0.096205  0.331449  0.862346  1
  F  F22  1  0.080755  0.241638  0.699478  1
  F  F23  1  0.124551  0.342532  0.123276  1
  F  F24  1  0.136223  0.086454  0.241097  1
  F  F25  1  0.213332  0.878521  0.508954  1
  F  F26  1  0.286668  0.121479  0.008954  1
  F  F27  1  0.363777  0.913546  0.741097  1
  F  F28  1  0.375449  0.657468  0.623276  1
  F  F29  1  0.419245  0.758362  0.199478  1
  F  F30  1  0.403795  0.668551  0.362346  1
  F  F31  1  0.457026  0.738303  0.056695  1
  F  F32  1  0.542974  0.238303  0.443305  1
  F  F33  1  0.596205  0.168551  0.137654  1
  F  F34  1  0.580755  0.258362  0.300522  1
  F  F35  1  0.624551  0.157468  0.876724  1
  F  F36  1  0.636223  0.413546  0.758903  1
  F  F37  1  0.713332  0.621479  0.491046  1
  F  F38  1  0.786668  0.378521  0.991046  1
  F  F39  1  0.863777  0.586454  0.258903  1
  F  F40  1  0.875449  0.842532  0.376724  1
  F  F41  1  0.919245  0.741638  0.800522  1
  F  F42  1  0.903795  0.831449  0.637654  1
  F  F43  1  0.957026  0.761697  0.943305  1
