# generated using pymatgen
data_Li2(TaS2)3
_symmetry_space_group_name_H-M   'P 1'
_cell_length_a   5.80917773
_cell_length_b   5.80917773
_cell_length_c   12.98606809
_cell_angle_alpha   90.00000000
_cell_angle_beta   90.00000000
_cell_angle_gamma   120.00000000
_symmetry_Int_Tables_number   1
_chemical_formula_structural   Li2(TaS2)3
_chemical_formula_sum   'Li4 Ta6 S12'
_cell_volume   379.52259299
_cell_formula_units_Z   2
loop_
 _symmetry_equiv_pos_site_id
 _symmetry_equiv_pos_as_xyz
  1  'x, y, z'
loop_
 _atom_site_type_symbol
 _atom_site_label
 _atom_site_symmetry_multiplicity
 _atom_site_fract_x
 _atom_site_fract_y
 _atom_site_fract_z
 _atom_site_occupancy
  Li  Li0  1  0.000000  0.000000  0.250000  1
  Li  Li1  1  0.000000  0.000000  0.750000  1
  Li  Li2  1  0.333333  0.666667  0.250000  1
  Li  Li3  1  0.666667  0.333333  0.750000  1
  Ta  Ta4  1  0.000000  0.000000  0.500000  1
  Ta  Ta5  1  0.000000  0.000000  0.000000  1
  Ta  Ta6  1  0.333333  0.666667  0.999294  1
  Ta  Ta7  1  0.333333  0.666667  0.500706  1
  Ta  Ta8  1  0.666667  0.333333  0.499294  1
  Ta  Ta9  1  0.666667  0.333333  0.000706  1
  S  S10  1  0.333613  0.334512  0.620372  1
  S  S11  1  0.334512  0.333613  0.379628  1
  S  S12  1  0.665488  0.666387  0.879628  1
  S  S13  1  0.666387  0.665488  0.120372  1
  S  S14  1  0.665488  0.999101  0.620372  1
  S  S15  1  0.000899  0.334512  0.879628  1
  S  S16  1  0.999101  0.333613  0.120372  1
  S  S17  1  0.666387  0.000899  0.379628  1
  S  S18  1  0.000899  0.666387  0.620372  1
  S  S19  1  0.999101  0.665488  0.379628  1
  S  S20  1  0.333613  0.999101  0.879628  1
  S  S21  1  0.334512  0.000899  0.120372  1
