# generated using pymatgen
data_Li2TiVO4
_symmetry_space_group_name_H-M   'P 1'
_cell_length_a   5.22885606
_cell_length_b   5.98803473
_cell_length_c   7.90521881
_cell_angle_alpha   100.92394368
_cell_angle_beta   109.01515275
_cell_angle_gamma   90.16731633
_symmetry_Int_Tables_number   1
_chemical_formula_structural   Li2TiVO4
_chemical_formula_sum   'Li6 Ti3 V3 O12'
_cell_volume   229.21201704
_cell_formula_units_Z   3
loop_
 _symmetry_equiv_pos_site_id
 _symmetry_equiv_pos_as_xyz
  1  'x, y, z'
loop_
 _atom_site_type_symbol
 _atom_site_label
 _atom_site_symmetry_multiplicity
 _atom_site_fract_x
 _atom_site_fract_y
 _atom_site_fract_z
 _atom_site_occupancy
  Li  Li0  1  0.998918  0.084571  0.832622  1
  Li  Li1  1  0.996746  0.253184  0.502463  1
  Li  Li2  1  0.997591  0.574217  0.832574  1
  Li  Li3  1  0.001082  0.915429  0.167378  1
  Li  Li4  1  0.002409  0.425783  0.167426  1
  Li  Li5  1  0.003254  0.746816  0.497537  1
  Ti  Ti6  1  0.497239  0.815578  0.835047  1
  Ti  Ti7  1  0.502761  0.184422  0.164953  1
  Ti  Ti8  1  0.500000  0.000000  0.500000  1
  V  V9  1  0.501338  0.322084  0.835087  1
  V  V10  1  0.498662  0.677916  0.164913  1
  V  V11  1  0.500000  0.500000  0.500000  1
  O  O12  1  0.738639  0.631034  0.989297  1
  O  O13  1  0.728001  0.107526  0.003686  1
  O  O14  1  0.736444  0.449476  0.321598  1
  O  O15  1  0.726103  0.976223  0.335893  1
  O  O16  1  0.735030  0.274965  0.658433  1
  O  O17  1  0.725665  0.804094  0.666815  1
  O  O18  1  0.271999  0.892474  0.996314  1
  O  O19  1  0.261361  0.368966  0.010703  1
  O  O20  1  0.274335  0.195906  0.333185  1
  O  O21  1  0.264970  0.725035  0.341567  1
  O  O22  1  0.273897  0.023777  0.664107  1
  O  O23  1  0.263556  0.550524  0.678402  1
