# generated using pymatgen
data_Li8TeO6
_symmetry_space_group_name_H-M   'P 1'
_cell_length_a   6.22537303
_cell_length_b   6.22537303
_cell_length_c   6.22537303
_cell_angle_alpha   53.53405046
_cell_angle_beta   53.53405046
_cell_angle_gamma   53.53405046
_symmetry_Int_Tables_number   1
_chemical_formula_structural   Li8TeO6
_chemical_formula_sum   'Li8 Te1 O6'
_cell_volume   144.79219077
_cell_formula_units_Z   1
loop_
 _symmetry_equiv_pos_site_id
 _symmetry_equiv_pos_as_xyz
  1  'x, y, z'
loop_
 _atom_site_type_symbol
 _atom_site_label
 _atom_site_symmetry_multiplicity
 _atom_site_fract_x
 _atom_site_fract_y
 _atom_site_fract_z
 _atom_site_occupancy
  Li  Li0  1  0.490263  0.770744  0.101624  1
  Li  Li1  1  0.229256  0.898376  0.509737  1
  Li  Li2  1  0.898376  0.509737  0.229256  1
  Li  Li3  1  0.652721  0.652721  0.652721  1
  Li  Li4  1  0.347279  0.347279  0.347279  1
  Li  Li5  1  0.101624  0.490263  0.770744  1
  Li  Li6  1  0.770744  0.101624  0.490263  1
  Li  Li7  1  0.509737  0.229256  0.898376  1
  Te  Te8  1  0.000000  0.000000  0.000000  1
  O  O9  1  0.606332  0.901232  0.238358  1
  O  O10  1  0.098768  0.761642  0.393668  1
  O  O11  1  0.761642  0.393668  0.098768  1
  O  O12  1  0.238358  0.606332  0.901232  1
  O  O13  1  0.901232  0.238358  0.606332  1
  O  O14  1  0.393668  0.098768  0.761642  1
