# generated using pymatgen
data_BaCuO2
_symmetry_space_group_name_H-M   'P 1'
_cell_length_a   3.70276219
_cell_length_b   6.06111736
_cell_length_c   11.91043092
_cell_angle_alpha   90.00000000
_cell_angle_beta   90.00000000
_cell_angle_gamma   90.00000000
_symmetry_Int_Tables_number   1
_chemical_formula_structural   BaCuO2
_chemical_formula_sum   'Ba4 Cu4 O8'
_cell_volume   267.30432633
_cell_formula_units_Z   4
loop_
 _symmetry_equiv_pos_site_id
 _symmetry_equiv_pos_as_xyz
  1  'x, y, z'
loop_
 _atom_site_type_symbol
 _atom_site_label
 _atom_site_symmetry_multiplicity
 _atom_site_fract_x
 _atom_site_fract_y
 _atom_site_fract_z
 _atom_site_occupancy
  Ba  Ba0  1  0.500000  0.730976  0.642717  1
  Ba  Ba1  1  0.500000  0.269024  0.357283  1
  Ba  Ba2  1  0.500000  0.230976  0.857283  1
  Ba  Ba3  1  0.500000  0.769024  0.142717  1
  Cu  Cu4  1  0.000000  0.733395  0.873698  1
  Cu  Cu5  1  0.000000  0.266605  0.126302  1
  Cu  Cu6  1  0.000000  0.233395  0.626302  1
  Cu  Cu7  1  0.000000  0.766605  0.373698  1
  O  O8  1  0.500000  0.738900  0.414527  1
  O  O9  1  0.500000  0.761100  0.914527  1
  O  O10  1  0.000000  0.008384  0.260466  1
  O  O11  1  0.000000  0.991616  0.739534  1
  O  O12  1  0.500000  0.261100  0.585473  1
  O  O13  1  0.500000  0.238900  0.085473  1
  O  O14  1  0.000000  0.508384  0.239534  1
  O  O15  1  0.000000  0.491616  0.760466  1
