# generated using pymatgen
data_Hf5N5O2
_symmetry_space_group_name_H-M   'P 1'
_cell_length_a   5.40231322
_cell_length_b   5.40231322
_cell_length_c   9.16992795
_cell_angle_alpha   74.84992208
_cell_angle_beta   105.15007792
_cell_angle_gamma   146.99488171
_symmetry_Int_Tables_number   1
_chemical_formula_structural   Hf5N5O2
_chemical_formula_sum   'Hf5 N5 O2'
_cell_volume   140.25861896
_cell_formula_units_Z   1
loop_
 _symmetry_equiv_pos_site_id
 _symmetry_equiv_pos_as_xyz
  1  'x, y, z'
loop_
 _atom_site_type_symbol
 _atom_site_label
 _atom_site_symmetry_multiplicity
 _atom_site_fract_x
 _atom_site_fract_y
 _atom_site_fract_z
 _atom_site_occupancy
  Hf  Hf0  1  0.109329  0.890671  0.920030  1
  Hf  Hf1  1  0.698488  0.301512  0.299580  1
  Hf  Hf2  1  0.306353  0.693647  0.702106  1
  Hf  Hf3  1  0.887789  0.112211  0.081431  1
  Hf  Hf4  1  0.989441  0.010559  0.506257  1
  N  N5  1  0.508353  0.491647  0.014635  1
  N  N6  1  0.740416  0.259584  0.856090  1
  N  N7  1  0.266041  0.733959  0.152017  1
  N  N8  1  0.338159  0.661841  0.446979  1
  N  N9  1  0.954939  0.045061  0.716365  1
  O  O10  1  0.045647  0.954353  0.294620  1
  O  O11  1  0.653781  0.346219  0.551821  1
