# generated using pymatgen
data_V4OF11
_symmetry_space_group_name_H-M   'P 1'
_cell_length_a   5.24802761
_cell_length_b   5.45969413
_cell_length_c   17.43628426
_cell_angle_alpha   89.14711625
_cell_angle_beta   98.19216959
_cell_angle_gamma   118.40928241
_symmetry_Int_Tables_number   1
_chemical_formula_structural   V4OF11
_chemical_formula_sum   'V8 O2 F22'
_cell_volume   434.14179822
_cell_formula_units_Z   2
loop_
 _symmetry_equiv_pos_site_id
 _symmetry_equiv_pos_as_xyz
  1  'x, y, z'
loop_
 _atom_site_type_symbol
 _atom_site_label
 _atom_site_symmetry_multiplicity
 _atom_site_fract_x
 _atom_site_fract_y
 _atom_site_fract_z
 _atom_site_occupancy
  V  V0  1  0.506581  0.737305  0.243097  1
  V  V1  1  0.493419  0.262695  0.756903  1
  V  V2  1  0.252316  0.121375  0.373972  1
  V  V3  1  0.253705  0.619683  0.873675  1
  V  V4  1  0.000000  0.500000  0.500000  1
  V  V5  1  0.000000  0.000000  0.000000  1
  V  V6  1  0.746295  0.380317  0.126325  1
  V  V7  1  0.747684  0.878625  0.626028  1
  O  O8  1  0.579153  0.589393  0.170276  1
  O  O9  1  0.420847  0.410607  0.829724  1
  F  F10  1  0.077754  0.538550  0.213463  1
  F  F11  1  0.518861  0.058089  0.187326  1
  F  F12  1  0.520726  0.557014  0.686224  1
  F  F13  1  0.479274  0.442986  0.313776  1
  F  F14  1  0.073372  0.336752  0.411682  1
  F  F15  1  0.076588  0.034897  0.713001  1
  F  F16  1  0.076469  0.835554  0.911845  1
  F  F17  1  0.923412  0.965103  0.286999  1
  F  F18  1  0.922246  0.461450  0.786537  1
  F  F19  1  0.926628  0.663248  0.588318  1
  F  F20  1  0.023933  0.812555  0.436967  1
  F  F21  1  0.481139  0.941911  0.812674  1
  F  F22  1  0.572031  0.284240  0.462283  1
  F  F23  1  0.573600  0.094773  0.667079  1
  F  F24  1  0.572688  0.784115  0.962812  1
  F  F25  1  0.923531  0.164446  0.088155  1
  F  F26  1  0.427969  0.715760  0.537717  1
  F  F27  1  0.426400  0.905227  0.332921  1
  F  F28  1  0.023101  0.311648  0.937530  1
  F  F29  1  0.976899  0.688352  0.062470  1
  F  F30  1  0.976067  0.187445  0.563033  1
  F  F31  1  0.427312  0.215885  0.037188  1
