# generated using pymatgen
data_LiMnF3
_symmetry_space_group_name_H-M   'P 1'
_cell_length_a   5.37667139
_cell_length_b   7.32303118
_cell_length_c   11.20508284
_cell_angle_alpha   90.00000000
_cell_angle_beta   90.00000000
_cell_angle_gamma   90.00000000
_symmetry_Int_Tables_number   1
_chemical_formula_structural   LiMnF3
_chemical_formula_sum   'Li8 Mn8 F24'
_cell_volume   441.18369038
_cell_formula_units_Z   8
loop_
 _symmetry_equiv_pos_site_id
 _symmetry_equiv_pos_as_xyz
  1  'x, y, z'
loop_
 _atom_site_type_symbol
 _atom_site_label
 _atom_site_symmetry_multiplicity
 _atom_site_fract_x
 _atom_site_fract_y
 _atom_site_fract_z
 _atom_site_occupancy
  Li  Li0  1  0.864087  0.492817  0.117326  1
  Li  Li1  1  0.864087  0.007183  0.117326  1
  Li  Li2  1  0.364087  0.992817  0.382674  1
  Li  Li3  1  0.364087  0.507183  0.382674  1
  Li  Li4  1  0.635913  0.492817  0.617326  1
  Li  Li5  1  0.635913  0.007183  0.617326  1
  Li  Li6  1  0.135913  0.992817  0.882674  1
  Li  Li7  1  0.135913  0.507183  0.882674  1
  Mn  Mn8  1  0.328017  0.250000  0.173492  1
  Mn  Mn9  1  0.352903  0.750000  0.100266  1
  Mn  Mn10  1  0.852903  0.250000  0.399734  1
  Mn  Mn11  1  0.828017  0.750000  0.326508  1
  Mn  Mn12  1  0.171983  0.250000  0.673492  1
  Mn  Mn13  1  0.147097  0.750000  0.600266  1
  Mn  Mn14  1  0.647097  0.250000  0.899734  1
  Mn  Mn15  1  0.671983  0.750000  0.826508  1
  F  F16  1  0.229477  0.455863  0.049668  1
  F  F17  1  0.229477  0.044137  0.049668  1
  F  F18  1  0.697659  0.250000  0.090389  1
  F  F19  1  0.979100  0.750000  0.152158  1
  F  F20  1  0.552933  0.572514  0.220134  1
  F  F21  1  0.552933  0.927486  0.220134  1
  F  F22  1  0.052933  0.072514  0.279866  1
  F  F23  1  0.052933  0.427486  0.279866  1
  F  F24  1  0.479100  0.250000  0.347842  1
  F  F25  1  0.197659  0.750000  0.409611  1
  F  F26  1  0.729477  0.955863  0.450332  1
  F  F27  1  0.729477  0.544137  0.450332  1
  F  F28  1  0.270523  0.455863  0.549668  1
  F  F29  1  0.270523  0.044137  0.549668  1
  F  F30  1  0.802341  0.250000  0.590389  1
  F  F31  1  0.520900  0.750000  0.652158  1
  F  F32  1  0.947067  0.927486  0.720134  1
  F  F33  1  0.947067  0.572514  0.720134  1
  F  F34  1  0.447067  0.427486  0.779866  1
  F  F35  1  0.447067  0.072514  0.779866  1
  F  F36  1  0.020900  0.250000  0.847842  1
  F  F37  1  0.302341  0.750000  0.909611  1
  F  F38  1  0.770523  0.955863  0.950332  1
  F  F39  1  0.770523  0.544137  0.950332  1
