# generated using pymatgen
data_Li4Cr3CuO8
_symmetry_space_group_name_H-M   'P 1'
_cell_length_a   5.91770890
_cell_length_b   5.91770890
_cell_length_c   5.91770890
_cell_angle_alpha   59.98481118
_cell_angle_beta   59.98481118
_cell_angle_gamma   59.98481118
_symmetry_Int_Tables_number   1
_chemical_formula_structural   Li4Cr3CuO8
_chemical_formula_sum   'Li4 Cr3 Cu1 O8'
_cell_volume   146.48602665
_cell_formula_units_Z   1
loop_
 _symmetry_equiv_pos_site_id
 _symmetry_equiv_pos_as_xyz
  1  'x, y, z'
loop_
 _atom_site_type_symbol
 _atom_site_label
 _atom_site_symmetry_multiplicity
 _atom_site_fract_x
 _atom_site_fract_y
 _atom_site_fract_z
 _atom_site_occupancy
  Li  Li0  1  0.500000  0.500000  0.500000  1
  Li  Li1  1  1.000000  0.500000  0.000000  1
  Li  Li2  1  0.000000  0.000000  0.500000  1
  Li  Li3  1  0.500000  1.000000  1.000000  1
  Cr  Cr4  1  0.500000  0.000000  0.500000  1
  Cr  Cr5  1  0.500000  0.500000  0.000000  1
  Cr  Cr6  1  0.000000  0.500000  0.500000  1
  Cu  Cu7  1  0.000000  1.000000  0.000000  1
  O  O8  1  0.257969  0.257969  0.257969  1
  O  O9  1  0.756895  0.261133  0.756895  1
  O  O10  1  0.756895  0.756895  0.261133  1
  O  O11  1  0.742031  0.742031  0.742031  1
  O  O12  1  0.261133  0.756895  0.756895  1
  O  O13  1  0.243105  0.738867  0.243105  1
  O  O14  1  0.243105  0.243105  0.738867  1
  O  O15  1  0.738867  0.243105  0.243105  1
