# generated using pymatgen
data_Li4Mn3V5O16
_symmetry_space_group_name_H-M   'P 1'
_cell_length_a   5.84253837
_cell_length_b   5.89691060
_cell_length_c   9.55766870
_cell_angle_alpha   91.58684007
_cell_angle_beta   90.49850290
_cell_angle_gamma   117.75813338
_symmetry_Int_Tables_number   1
_chemical_formula_structural   Li4Mn3V5O16
_chemical_formula_sum   'Li4 Mn3 V5 O16'
_cell_volume   291.19692408
_cell_formula_units_Z   1
loop_
 _symmetry_equiv_pos_site_id
 _symmetry_equiv_pos_as_xyz
  1  'x, y, z'
loop_
 _atom_site_type_symbol
 _atom_site_label
 _atom_site_symmetry_multiplicity
 _atom_site_fract_x
 _atom_site_fract_y
 _atom_site_fract_z
 _atom_site_occupancy
  Li  Li0  1  0.339196  0.683166  0.104048  1
  Li  Li1  1  0.999134  0.003702  0.006904  1
  Li  Li2  1  0.003632  0.993259  0.506459  1
  Li  Li3  1  0.669117  0.332599  0.601458  1
  Mn  Mn4  1  0.170576  0.337261  0.788398  1
  Mn  Mn5  1  0.342214  0.173643  0.285900  1
  Mn  Mn6  1  0.832469  0.167922  0.288237  1
  V  V7  1  0.172333  0.827539  0.783395  1
  V  V8  1  0.334319  0.654289  0.512557  1
  V  V9  1  0.657766  0.832596  0.788401  1
  V  V10  1  0.836729  0.659758  0.284411  1
  V  V11  1  0.667529  0.348105  0.011881  1
  O  O12  1  0.158399  0.796310  0.409111  1
  O  O13  1  0.467168  0.961191  0.657806  1
  O  O14  1  0.318969  0.668490  0.895737  1
  O  O15  1  0.004337  0.998441  0.694488  1
  O  O16  1  0.001319  0.996117  0.194891  1
  O  O17  1  0.665654  0.798855  0.399706  1
  O  O18  1  0.040320  0.518016  0.660355  1
  O  O19  1  0.491912  0.535770  0.648336  1
  O  O20  1  0.831968  0.672182  0.897359  1
  O  O21  1  0.165426  0.315577  0.407532  1
  O  O22  1  0.535195  0.499876  0.145392  1
  O  O23  1  0.967569  0.506048  0.155609  1
  O  O24  1  0.670637  0.336620  0.390601  1
  O  O25  1  0.325365  0.169943  0.905088  1
  O  O26  1  0.525771  0.052022  0.157656  1
  O  O27  1  0.804677  0.160703  0.910443  1
