# generated using pymatgen
data_VOF2
_symmetry_space_group_name_H-M   'P 1'
_cell_length_a   5.19584145
_cell_length_b   5.23758403
_cell_length_c   13.38898076
_cell_angle_alpha   88.76302865
_cell_angle_beta   89.33783881
_cell_angle_gamma   60.28317865
_symmetry_Int_Tables_number   1
_chemical_formula_structural   VOF2
_chemical_formula_sum   'V6 O6 F12'
_cell_volume   316.37037711
_cell_formula_units_Z   6
loop_
 _symmetry_equiv_pos_site_id
 _symmetry_equiv_pos_as_xyz
  1  'x, y, z'
loop_
 _atom_site_type_symbol
 _atom_site_label
 _atom_site_symmetry_multiplicity
 _atom_site_fract_x
 _atom_site_fract_y
 _atom_site_fract_z
 _atom_site_occupancy
  V  V0  1  0.000000  0.000000  0.500000  1
  V  V1  1  0.000000  0.000000  0.000000  1
  V  V2  1  0.379353  0.349465  0.833170  1
  V  V3  1  0.698620  0.667064  0.663029  1
  V  V4  1  0.301380  0.332936  0.336971  1
  V  V5  1  0.620647  0.650535  0.166830  1
  O  O6  1  0.663991  0.247444  0.913811  1
  O  O7  1  0.912297  0.747820  0.587646  1
  O  O8  1  0.567303  0.430130  0.247295  1
  O  O9  1  0.432697  0.569870  0.752705  1
  O  O10  1  0.087703  0.252180  0.412354  1
  O  O11  1  0.336009  0.752556  0.086189  1
  F  F12  1  0.021869  0.398430  0.752320  1
  F  F13  1  0.599173  0.996171  0.755315  1
  F  F14  1  0.666430  0.069556  0.411181  1
  F  F15  1  0.914115  0.352659  0.085939  1
  F  F16  1  0.736193  0.338411  0.583343  1
  F  F17  1  0.400827  0.003829  0.244685  1
  F  F18  1  0.978131  0.601570  0.247680  1
  F  F19  1  0.255566  0.079621  0.913261  1
  F  F20  1  0.744434  0.920379  0.086739  1
  F  F21  1  0.263807  0.661589  0.416657  1
  F  F22  1  0.085885  0.647341  0.914061  1
  F  F23  1  0.333570  0.930444  0.588819  1
