# generated using pymatgen
data_Li2AlFeO4
_symmetry_space_group_name_H-M   'P 1'
_cell_length_a   5.15811666
_cell_length_b   10.91757820
_cell_length_c   8.25800235
_cell_angle_alpha   90.00000000
_cell_angle_beta   128.76034725
_cell_angle_gamma   90.00000000
_symmetry_Int_Tables_number   1
_chemical_formula_structural   Li2AlFeO4
_chemical_formula_sum   'Li8 Al4 Fe4 O16'
_cell_volume   362.62671383
_cell_formula_units_Z   4
loop_
 _symmetry_equiv_pos_site_id
 _symmetry_equiv_pos_as_xyz
  1  'x, y, z'
loop_
 _atom_site_type_symbol
 _atom_site_label
 _atom_site_symmetry_multiplicity
 _atom_site_fract_x
 _atom_site_fract_y
 _atom_site_fract_z
 _atom_site_occupancy
  Li  Li0  1  0.318175  0.164716  0.007329  1
  Li  Li1  1  0.535406  0.921056  0.239905  1
  Li  Li2  1  0.464594  0.421056  0.260095  1
  Li  Li3  1  0.681825  0.664716  0.492671  1
  Li  Li4  1  0.318175  0.335284  0.507329  1
  Li  Li5  1  0.535406  0.578944  0.739905  1
  Li  Li6  1  0.464594  0.078944  0.760095  1
  Li  Li7  1  0.681825  0.835284  0.992671  1
  Al  Al8  1  0.929688  0.586789  0.244788  1
  Al  Al9  1  0.070312  0.086789  0.255212  1
  Al  Al10  1  0.929688  0.913211  0.744788  1
  Al  Al11  1  0.070312  0.413211  0.755212  1
  Fe  Fe12  1  0.820892  0.334484  0.003234  1
  Fe  Fe13  1  0.179108  0.834484  0.496766  1
  Fe  Fe14  1  0.820892  0.165516  0.503234  1
  Fe  Fe15  1  0.179108  0.665516  0.996766  1
  O  O16  1  0.832749  0.663078  0.021448  1
  O  O17  1  0.738804  0.168124  0.029963  1
  O  O18  1  0.962243  0.931574  0.251481  1
  O  O19  1  0.571829  0.590956  0.233638  1
  O  O20  1  0.428171  0.090956  0.266362  1
  O  O21  1  0.037757  0.431574  0.248519  1
  O  O22  1  0.261196  0.668124  0.470037  1
  O  O23  1  0.167251  0.163078  0.478552  1
  O  O24  1  0.832749  0.836922  0.521448  1
  O  O25  1  0.738804  0.331876  0.529963  1
  O  O26  1  0.962243  0.568426  0.751481  1
  O  O27  1  0.571829  0.909044  0.733638  1
  O  O28  1  0.428171  0.409044  0.766362  1
  O  O29  1  0.037757  0.068426  0.748519  1
  O  O30  1  0.261196  0.831876  0.970037  1
  O  O31  1  0.167251  0.336922  0.978552  1
