# generated using pymatgen
data_Ta2Zn4O9
_symmetry_space_group_name_H-M   'P 1'
_cell_length_a   5.24377398
_cell_length_b   5.24377398
_cell_length_c   14.34691950
_cell_angle_alpha   90.00000000
_cell_angle_beta   90.00000000
_cell_angle_gamma   120.00000000
_symmetry_Int_Tables_number   1
_chemical_formula_structural   Ta2Zn4O9
_chemical_formula_sum   'Ta4 Zn8 O18'
_cell_volume   341.64669331
_cell_formula_units_Z   2
loop_
 _symmetry_equiv_pos_site_id
 _symmetry_equiv_pos_as_xyz
  1  'x, y, z'
loop_
 _atom_site_type_symbol
 _atom_site_label
 _atom_site_symmetry_multiplicity
 _atom_site_fract_x
 _atom_site_fract_y
 _atom_site_fract_z
 _atom_site_occupancy
  Ta  Ta0  1  0.000000  0.000000  0.141499  1
  Ta  Ta1  1  0.000000  0.000000  0.358501  1
  Ta  Ta2  1  0.000000  0.000000  0.641499  1
  Ta  Ta3  1  0.000000  0.000000  0.858501  1
  Zn  Zn4  1  0.333333  0.666667  0.018397  1
  Zn  Zn5  1  0.333333  0.666667  0.303204  1
  Zn  Zn6  1  0.333333  0.666667  0.518397  1
  Zn  Zn7  1  0.333333  0.666667  0.803204  1
  Zn  Zn8  1  0.666667  0.333333  0.196796  1
  Zn  Zn9  1  0.666667  0.333333  0.481603  1
  Zn  Zn10  1  0.666667  0.333333  0.696796  1
  Zn  Zn11  1  0.666667  0.333333  0.981603  1
  O  O12  1  0.000000  0.714811  0.750000  1
  O  O13  1  0.023648  0.683323  0.415738  1
  O  O14  1  0.316677  0.976352  0.915738  1
  O  O15  1  0.023648  0.340324  0.915738  1
  O  O16  1  0.000000  0.285189  0.250000  1
  O  O17  1  0.285189  0.285189  0.750000  1
  O  O18  1  0.316677  0.340324  0.415738  1
  O  O19  1  0.659676  0.976352  0.415738  1
  O  O20  1  0.340324  0.316677  0.084262  1
  O  O21  1  0.285189  0.000000  0.250000  1
  O  O22  1  0.659676  0.683323  0.915738  1
  O  O23  1  0.340324  0.023648  0.584262  1
  O  O24  1  0.683323  0.659676  0.584262  1
  O  O25  1  0.714811  0.714811  0.250000  1
  O  O26  1  0.976352  0.659676  0.084262  1
  O  O27  1  0.683323  0.023648  0.084262  1
  O  O28  1  0.714811  0.000000  0.750000  1
  O  O29  1  0.976352  0.316677  0.584262  1
