# generated using pymatgen
data_Ti3CrSn2(PO4)6
_symmetry_space_group_name_H-M   'P 1'
_cell_length_a   9.01241051
_cell_length_b   9.01241051
_cell_length_c   9.01241051
_cell_angle_alpha   57.24201137
_cell_angle_beta   57.24201137
_cell_angle_gamma   57.24201137
_symmetry_Int_Tables_number   1
_chemical_formula_structural   Ti3CrSn2(PO4)6
_chemical_formula_sum   'Ti3 Cr1 Sn2 P6 O24'
_cell_volume   484.73935023
_cell_formula_units_Z   1
loop_
 _symmetry_equiv_pos_site_id
 _symmetry_equiv_pos_as_xyz
  1  'x, y, z'
loop_
 _atom_site_type_symbol
 _atom_site_label
 _atom_site_symmetry_multiplicity
 _atom_site_fract_x
 _atom_site_fract_y
 _atom_site_fract_z
 _atom_site_occupancy
  Ti  Ti0  1  0.852960  0.852960  0.852960  1
  Ti  Ti1  1  0.648813  0.648813  0.648813  1
  Ti  Ti2  1  0.351113  0.351113  0.351113  1
  Cr  Cr3  1  0.146902  0.146902  0.146902  1
  Sn  Sn4  1  0.002862  0.002862  0.002862  1
  Sn  Sn5  1  0.501411  0.501411  0.501411  1
  P  P6  1  0.249625  0.534819  0.962291  1
  P  P7  1  0.962291  0.249625  0.534819  1
  P  P8  1  0.461955  0.038642  0.750658  1
  P  P9  1  0.038642  0.750658  0.461955  1
  P  P10  1  0.750658  0.461955  0.038642  1
  P  P11  1  0.534819  0.962291  0.249625  1
  O  O12  1  0.710422  0.496014  0.874566  1
  O  O13  1  0.496014  0.874566  0.710422  1
  O  O14  1  0.077700  0.720273  0.938592  1
  O  O15  1  0.874566  0.710422  0.496014  1
  O  O16  1  0.215885  0.372271  0.989406  1
  O  O17  1  0.423133  0.563544  0.778712  1
  O  O18  1  0.938592  0.077700  0.720273  1
  O  O19  1  0.778712  0.423133  0.563544  1
  O  O20  1  0.626297  0.005601  0.789140  1
  O  O21  1  0.563544  0.778712  0.423133  1
  O  O22  1  0.277552  0.060370  0.922981  1
  O  O23  1  0.005601  0.789140  0.626297  1
  O  O24  1  0.989406  0.215885  0.372271  1
  O  O25  1  0.720273  0.938592  0.077700  1
  O  O26  1  0.438848  0.221525  0.576111  1
  O  O27  1  0.372271  0.989406  0.215885  1
  O  O28  1  0.221525  0.576111  0.438848  1
  O  O29  1  0.060370  0.922981  0.277552  1
  O  O30  1  0.576111  0.438848  0.221525  1
  O  O31  1  0.789140  0.626297  0.005601  1
  O  O32  1  0.127737  0.288355  0.502913  1
  O  O33  1  0.922981  0.277552  0.060370  1
  O  O34  1  0.502913  0.127737  0.288355  1
  O  O35  1  0.288355  0.502913  0.127737  1
