# generated using pymatgen
data_Er2TiO5
_symmetry_space_group_name_H-M   'P 1'
_cell_length_a   5.84201515
_cell_length_b   5.84201515
_cell_length_c   10.45128602
_cell_angle_alpha   90.00000000
_cell_angle_beta   90.00000000
_cell_angle_gamma   139.20833819
_symmetry_Int_Tables_number   1
_chemical_formula_structural   Er2TiO5
_chemical_formula_sum   'Er4 Ti2 O10'
_cell_volume   233.03152856
_cell_formula_units_Z   2
loop_
 _symmetry_equiv_pos_site_id
 _symmetry_equiv_pos_as_xyz
  1  'x, y, z'
loop_
 _atom_site_type_symbol
 _atom_site_label
 _atom_site_symmetry_multiplicity
 _atom_site_fract_x
 _atom_site_fract_y
 _atom_site_fract_z
 _atom_site_occupancy
  Er  Er0  1  0.642643  0.357357  0.930620  1
  Er  Er1  1  0.642643  0.357357  0.569380  1
  Er  Er2  1  0.357357  0.642643  0.069380  1
  Er  Er3  1  0.357357  0.642643  0.430620  1
  Ti  Ti4  1  0.673148  0.326852  0.250000  1
  Ti  Ti5  1  0.326852  0.673148  0.750000  1
  O  O6  1  0.551634  0.448366  0.376547  1
  O  O7  1  0.551634  0.448366  0.123453  1
  O  O8  1  0.208464  0.791536  0.909751  1
  O  O9  1  0.208464  0.791536  0.590249  1
  O  O10  1  0.771586  0.228414  0.750000  1
  O  O11  1  0.228414  0.771586  0.250000  1
  O  O12  1  0.791536  0.208464  0.090249  1
  O  O13  1  0.791536  0.208464  0.409751  1
  O  O14  1  0.448366  0.551634  0.623453  1
  O  O15  1  0.448366  0.551634  0.876547  1
