# generated using pymatgen
data_MgH12SeO10
_symmetry_space_group_name_H-M   'P 1'
_cell_length_a   6.36177300
_cell_length_b   6.36177300
_cell_length_c   25.15163279
_cell_angle_alpha   82.90459990
_cell_angle_beta   97.09540010
_cell_angle_gamma   108.55763148
_symmetry_Int_Tables_number   1
_chemical_formula_structural   MgH12SeO10
_chemical_formula_sum   'Mg4 H48 Se4 O40'
_cell_volume   953.77743378
_cell_formula_units_Z   4
loop_
 _symmetry_equiv_pos_site_id
 _symmetry_equiv_pos_as_xyz
  1  'x, y, z'
loop_
 _atom_site_type_symbol
 _atom_site_label
 _atom_site_symmetry_multiplicity
 _atom_site_fract_x
 _atom_site_fract_y
 _atom_site_fract_z
 _atom_site_occupancy
  Mg  Mg0  1  0.555449  0.555449  0.250000  1
  Mg  Mg1  1  0.500000  0.500000  0.500000  1
  Mg  Mg2  1  0.444551  0.444551  0.750000  1
  Mg  Mg3  1  0.500000  0.500000  0.000000  1
  H  H4  1  0.980296  0.567637  0.229180  1
  H  H5  1  0.459392  0.163331  0.079515  1
  H  H6  1  0.556925  0.225754  0.192582  1
  H  H7  1  0.746768  0.208718  0.501863  1
  H  H8  1  0.827506  0.580429  0.085131  1
  H  H9  1  0.834734  0.504011  0.338437  1
  H  H10  1  0.573859  0.171922  0.449394  1
  H  H11  1  0.608497  0.300550  0.343869  1
  H  H12  1  0.212833  0.153890  0.053276  1
  H  H13  1  0.930448  0.785053  0.199685  1
  H  H14  1  0.308211  0.179170  0.203761  1
  H  H15  1  0.784164  0.808247  0.061805  1
  H  H16  1  0.432363  0.019704  0.729180  1
  H  H17  1  0.836669  0.540608  0.579515  1
  H  H18  1  0.774246  0.443075  0.692582  1
  H  H19  1  0.791282  0.253232  0.001863  1
  H  H20  1  0.419571  0.172494  0.585131  1
  H  H21  1  0.495989  0.165266  0.838437  1
  H  H22  1  0.828078  0.426141  0.949394  1
  H  H23  1  0.699450  0.391503  0.843869  1
  H  H24  1  0.808247  0.784164  0.438195  1
  H  H25  1  0.846110  0.787167  0.553276  1
  H  H26  1  0.214947  0.069552  0.699685  1
  H  H27  1  0.179170  0.308211  0.296239  1
  H  H28  1  0.820830  0.691789  0.703761  1
  H  H29  1  0.785053  0.930448  0.300315  1
  H  H30  1  0.153890  0.212833  0.446724  1
  H  H31  1  0.191753  0.215836  0.561805  1
  H  H32  1  0.300550  0.608497  0.156131  1
  H  H33  1  0.171922  0.573859  0.050606  1
  H  H34  1  0.504011  0.834734  0.161563  1
  H  H35  1  0.580429  0.827506  0.414869  1
  H  H36  1  0.208718  0.746768  0.998137  1
  H  H37  1  0.225754  0.556925  0.307418  1
  H  H38  1  0.163331  0.459392  0.420485  1
  H  H39  1  0.567637  0.980296  0.270820  1
  H  H40  1  0.215836  0.191753  0.938195  1
  H  H41  1  0.691789  0.820830  0.796239  1
  H  H42  1  0.069552  0.214947  0.800315  1
  H  H43  1  0.787167  0.846110  0.946724  1
  H  H44  1  0.391503  0.699450  0.656131  1
  H  H45  1  0.426141  0.828078  0.550606  1
  H  H46  1  0.165266  0.495989  0.661563  1
  H  H47  1  0.172494  0.419571  0.914869  1
  H  H48  1  0.253232  0.791282  0.498137  1
  H  H49  1  0.443075  0.774246  0.807418  1
  H  H50  1  0.540608  0.836669  0.920485  1
  H  H51  1  0.019704  0.432363  0.770820  1
  Se  Se52  1  0.917155  0.182660  0.123299  1
  Se  Se53  1  0.817340  0.082845  0.623299  1
  Se  Se54  1  0.182660  0.917155  0.376701  1
  Se  Se55  1  0.082845  0.817340  0.876701  1
  O  O56  1  0.921959  0.093707  0.063036  1
  O  O57  1  0.650223  0.121321  0.136902  1
  O  O58  1  0.906293  0.078041  0.563036  1
  O  O59  1  0.460033  0.038000  0.381834  1
  O  O60  1  0.372885  0.208184  0.047263  1
  O  O61  1  0.878679  0.349777  0.636902  1
  O  O62  1  0.863527  0.637875  0.219456  1
  O  O63  1  0.464420  0.238158  0.220241  1
  O  O64  1  0.692625  0.422200  0.319221  1
  O  O65  1  0.643966  0.271763  0.477939  1
  O  O66  1  0.719530  0.643990  0.062922  1
  O  O67  1  0.052157  0.058549  0.171766  1
  O  O68  1  0.962000  0.539967  0.881835  1
  O  O69  1  0.058549  0.052157  0.328234  1
  O  O70  1  0.791816  0.627115  0.547263  1
  O  O71  1  0.362125  0.136473  0.719456  1
  O  O72  1  0.761842  0.535580  0.720241  1
  O  O73  1  0.577800  0.307375  0.819221  1
  O  O74  1  0.728237  0.356034  0.977939  1
  O  O75  1  0.356010  0.280470  0.562922  1
  O  O76  1  0.643990  0.719530  0.437078  1
  O  O77  1  0.271763  0.643966  0.022061  1
  O  O78  1  0.422200  0.692625  0.180779  1
  O  O79  1  0.238158  0.464420  0.279759  1
  O  O80  1  0.637875  0.863527  0.280544  1
  O  O81  1  0.208184  0.372885  0.452737  1
  O  O82  1  0.941451  0.947843  0.671766  1
  O  O83  1  0.038000  0.460033  0.118166  1
  O  O84  1  0.947843  0.941451  0.828234  1
  O  O85  1  0.280470  0.356010  0.937078  1
  O  O86  1  0.356034  0.728237  0.522061  1
  O  O87  1  0.307375  0.577800  0.680779  1
  O  O88  1  0.535580  0.761842  0.779759  1
  O  O89  1  0.136473  0.362125  0.780544  1
  O  O90  1  0.121321  0.650223  0.363098  1
  O  O91  1  0.627115  0.791816  0.952737  1
  O  O92  1  0.539967  0.962000  0.618166  1
  O  O93  1  0.093707  0.921959  0.436964  1
  O  O94  1  0.349777  0.878679  0.863098  1
  O  O95  1  0.078041  0.906293  0.936964  1
