# generated using pymatgen
data_VGa2O5
_symmetry_space_group_name_H-M   'P 1'
_cell_length_a   5.62146239
_cell_length_b   5.62146239
_cell_length_c   6.98233651
_cell_angle_alpha   71.71683058
_cell_angle_beta   108.28316942
_cell_angle_gamma   126.59680688
_symmetry_Int_Tables_number   1
_chemical_formula_structural   VGa2O5
_chemical_formula_sum   'V2 Ga4 O10'
_cell_volume   165.86549998
_cell_formula_units_Z   2
loop_
 _symmetry_equiv_pos_site_id
 _symmetry_equiv_pos_as_xyz
  1  'x, y, z'
loop_
 _atom_site_type_symbol
 _atom_site_label
 _atom_site_symmetry_multiplicity
 _atom_site_fract_x
 _atom_site_fract_y
 _atom_site_fract_z
 _atom_site_occupancy
  V  V0  1  0.000000  0.000000  0.000000  1
  V  V1  1  0.000000  1.000000  0.500000  1
  Ga  Ga2  1  0.358920  0.630414  0.771394  1
  Ga  Ga3  1  0.369586  0.641080  0.271394  1
  Ga  Ga4  1  0.630414  0.358920  0.728606  1
  Ga  Ga5  1  0.641080  0.369586  0.228606  1
  O  O6  1  0.246526  0.420684  0.546162  1
  O  O7  1  0.579316  0.753474  0.046162  1
  O  O8  1  0.967242  0.329579  0.853954  1
  O  O9  1  0.329579  0.967242  0.646046  1
  O  O10  1  0.670421  0.032758  0.353954  1
  O  O11  1  0.032758  0.670421  0.146046  1
  O  O12  1  0.420684  0.246526  0.953838  1
  O  O13  1  0.798908  0.798908  0.750000  1
  O  O14  1  0.753474  0.579316  0.453838  1
  O  O15  1  0.201092  0.201092  0.250000  1
