# generated using pymatgen
data_Li4TiS4
_symmetry_space_group_name_H-M   'P 1'
_cell_length_a   11.02714019
_cell_length_b   11.02714019
_cell_length_c   11.02714019
_cell_angle_alpha   90.00000000
_cell_angle_beta   90.00000000
_cell_angle_gamma   90.00000000
_symmetry_Int_Tables_number   1
_chemical_formula_structural   Li4TiS4
_chemical_formula_sum   'Li32 Ti8 S32'
_cell_volume   1340.87621643
_cell_formula_units_Z   8
loop_
 _symmetry_equiv_pos_site_id
 _symmetry_equiv_pos_as_xyz
  1  'x, y, z'
loop_
 _atom_site_type_symbol
 _atom_site_label
 _atom_site_symmetry_multiplicity
 _atom_site_fract_x
 _atom_site_fract_y
 _atom_site_fract_z
 _atom_site_occupancy
  Li  Li0  1  0.081577  0.150414  0.659525  1
  Li  Li1  1  0.081577  0.849586  0.340475  1
  Li  Li2  1  0.150414  0.340475  0.918423  1
  Li  Li3  1  0.150414  0.659525  0.081577  1
  Li  Li4  1  0.159525  0.349586  0.418423  1
  Li  Li5  1  0.161995  0.838005  0.838005  1
  Li  Li6  1  0.161995  0.161995  0.161995  1
  Li  Li7  1  0.159525  0.650414  0.581577  1
  Li  Li8  1  0.340475  0.081577  0.849586  1
  Li  Li9  1  0.338005  0.338005  0.661995  1
  Li  Li10  1  0.338005  0.661995  0.338005  1
  Li  Li11  1  0.340475  0.918423  0.150414  1
  Li  Li12  1  0.349586  0.418423  0.159525  1
  Li  Li13  1  0.349586  0.581577  0.840475  1
  Li  Li14  1  0.418423  0.159525  0.349586  1
  Li  Li15  1  0.418423  0.840475  0.650414  1
  Li  Li16  1  0.581577  0.159525  0.650414  1
  Li  Li17  1  0.581577  0.840475  0.349586  1
  Li  Li18  1  0.650414  0.418423  0.840475  1
  Li  Li19  1  0.650414  0.581577  0.159525  1
  Li  Li20  1  0.659525  0.081577  0.150414  1
  Li  Li21  1  0.661995  0.338005  0.338005  1
  Li  Li22  1  0.661995  0.661995  0.661995  1
  Li  Li23  1  0.659525  0.918423  0.849586  1
  Li  Li24  1  0.838005  0.161995  0.838005  1
  Li  Li25  1  0.840475  0.349586  0.581577  1
  Li  Li26  1  0.840475  0.650414  0.418423  1
  Li  Li27  1  0.838005  0.838005  0.161995  1
  Li  Li28  1  0.849586  0.340475  0.081577  1
  Li  Li29  1  0.849586  0.659525  0.918423  1
  Li  Li30  1  0.918423  0.150414  0.340475  1
  Li  Li31  1  0.918423  0.849586  0.659525  1
  Ti  Ti32  1  0.000000  0.000000  0.000000  1
  Ti  Ti33  1  0.000000  0.500000  0.250000  1
  Ti  Ti34  1  0.000000  0.500000  0.750000  1
  Ti  Ti35  1  0.250000  0.000000  0.500000  1
  Ti  Ti36  1  0.500000  0.500000  0.500000  1
  Ti  Ti37  1  0.500000  0.250000  0.000000  1
  Ti  Ti38  1  0.500000  0.750000  0.000000  1
  Ti  Ti39  1  0.750000  0.000000  0.500000  1
  S  S40  1  0.115526  0.376810  0.635456  1
  S  S41  1  0.115526  0.623190  0.364544  1
  S  S42  1  0.118013  0.118013  0.881987  1
  S  S43  1  0.118013  0.881987  0.118013  1
  S  S44  1  0.123190  0.384474  0.135456  1
  S  S45  1  0.123190  0.615526  0.864544  1
  S  S46  1  0.135456  0.123190  0.384474  1
  S  S47  1  0.135456  0.876810  0.615526  1
  S  S48  1  0.364544  0.115526  0.623190  1
  S  S49  1  0.364544  0.884474  0.376810  1
  S  S50  1  0.376810  0.364544  0.884474  1
  S  S51  1  0.376810  0.635456  0.115526  1
  S  S52  1  0.381987  0.381987  0.381987  1
  S  S53  1  0.381987  0.618013  0.618013  1
  S  S54  1  0.384474  0.135456  0.123190  1
  S  S55  1  0.384474  0.864544  0.876810  1
  S  S56  1  0.615526  0.135456  0.876810  1
  S  S57  1  0.615526  0.864544  0.123190  1
  S  S58  1  0.618013  0.381987  0.618013  1
  S  S59  1  0.618013  0.618013  0.381987  1
  S  S60  1  0.623190  0.364544  0.115526  1
  S  S61  1  0.623190  0.635456  0.884474  1
  S  S62  1  0.635456  0.115526  0.376810  1
  S  S63  1  0.635456  0.884474  0.623190  1
  S  S64  1  0.864544  0.123190  0.615526  1
  S  S65  1  0.864544  0.876810  0.384474  1
  S  S66  1  0.876810  0.384474  0.864544  1
  S  S67  1  0.876810  0.615526  0.135456  1
  S  S68  1  0.881987  0.118013  0.118013  1
  S  S69  1  0.881987  0.881987  0.881987  1
  S  S70  1  0.884474  0.376810  0.364544  1
  S  S71  1  0.884474  0.623190  0.635456  1
