# generated using pymatgen
data_Li5MnP2(O4F)2
_symmetry_space_group_name_H-M   'P 1'
_cell_length_a   9.99408764
_cell_length_b   9.99408764
_cell_length_c   6.56721667
_cell_angle_alpha   90.00000000
_cell_angle_beta   90.00000000
_cell_angle_gamma   120.00000000
_symmetry_Int_Tables_number   1
_chemical_formula_structural   Li5MnP2(O4F)2
_chemical_formula_sum   'Li15 Mn3 P6 O24 F6'
_cell_volume   568.06532891
_cell_formula_units_Z   3
loop_
 _symmetry_equiv_pos_site_id
 _symmetry_equiv_pos_as_xyz
  1  'x, y, z'
loop_
 _atom_site_type_symbol
 _atom_site_label
 _atom_site_symmetry_multiplicity
 _atom_site_fract_x
 _atom_site_fract_y
 _atom_site_fract_z
 _atom_site_occupancy
  Li  Li0  1  0.499597  0.500520  0.501843  1
  Li  Li1  1  0.666667  0.333333  0.560214  1
  Li  Li2  1  0.666667  0.333333  0.944846  1
  Li  Li3  1  0.333333  0.666667  0.449062  1
  Li  Li4  1  0.333333  0.666667  0.065633  1
  Li  Li5  1  0.499480  0.999078  0.501843  1
  Li  Li6  1  0.000922  0.500403  0.501843  1
  Li  Li7  1  0.798312  0.148434  0.734958  1
  Li  Li8  1  0.653679  0.802403  0.273591  1
  Li  Li9  1  0.148724  0.346321  0.273591  1
  Li  Li10  1  0.000000  0.000000  0.983950  1
  Li  Li11  1  0.000000  0.000000  0.490100  1
  Li  Li12  1  0.851566  0.649878  0.734958  1
  Li  Li13  1  0.350122  0.201688  0.734958  1
  Li  Li14  1  0.197597  0.851276  0.273591  1
  Mn  Mn15  1  0.500103  0.500387  0.003843  1
  Mn  Mn16  1  0.499613  0.999716  0.003843  1
  Mn  Mn17  1  0.000284  0.499897  0.003843  1
  P  P18  1  0.368361  0.191686  0.260220  1
  P  P19  1  0.823324  0.631639  0.260220  1
  P  P20  1  0.631620  0.809312  0.749623  1
  P  P21  1  0.808314  0.176676  0.260220  1
  P  P22  1  0.177692  0.368380  0.749623  1
  P  P23  1  0.190688  0.822308  0.749623  1
  O  O24  1  0.349888  0.405983  0.772104  1
  O  O25  1  0.451833  0.295013  0.068096  1
  O  O26  1  0.446093  0.281422  0.454216  1
  O  O27  1  0.651741  0.595936  0.235290  1
  O  O28  1  0.404064  0.055805  0.235290  1
  O  O29  1  0.835329  0.553907  0.454216  1
  O  O30  1  0.843180  0.548167  0.068096  1
  O  O31  1  0.594017  0.943905  0.772104  1
  O  O32  1  0.704987  0.156820  0.068096  1
  O  O33  1  0.718578  0.164671  0.454216  1
  O  O34  1  0.556791  0.720048  0.554701  1
  O  O35  1  0.547338  0.705609  0.941014  1
  O  O36  1  0.944195  0.348259  0.235290  1
  O  O37  1  0.056095  0.650112  0.772104  1
  O  O38  1  0.870641  0.064478  0.255860  1
  O  O39  1  0.806751  0.873587  0.757811  1
  O  O40  1  0.158271  0.452662  0.941014  1
  O  O41  1  0.163257  0.443209  0.554701  1
  O  O42  1  0.066836  0.193249  0.757811  1
  O  O43  1  0.935522  0.806162  0.255860  1
  O  O44  1  0.193838  0.129359  0.255860  1
  O  O45  1  0.126413  0.933164  0.757811  1
  O  O46  1  0.279952  0.836743  0.554701  1
  O  O47  1  0.294391  0.841729  0.941014  1
  F  F48  1  0.359296  0.513292  0.241037  1
  F  F49  1  0.641554  0.486557  0.769713  1
  F  F50  1  0.513443  0.154997  0.769713  1
  F  F51  1  0.486708  0.846004  0.241037  1
  F  F52  1  0.845003  0.358446  0.769713  1
  F  F53  1  0.153996  0.640704  0.241037  1
