# generated using pymatgen
data_LiCoSnO4
_symmetry_space_group_name_H-M   'P 1'
_cell_length_a   5.98822497
_cell_length_b   5.98822497
_cell_length_c   5.98822497
_cell_angle_alpha   120.40744681
_cell_angle_beta   116.09749175
_cell_angle_gamma   93.09285445
_symmetry_Int_Tables_number   1
_chemical_formula_structural   LiCoSnO4
_chemical_formula_sum   'Li2 Co2 Sn2 O8'
_cell_volume   155.34510574
_cell_formula_units_Z   2
loop_
 _symmetry_equiv_pos_site_id
 _symmetry_equiv_pos_as_xyz
  1  'x, y, z'
loop_
 _atom_site_type_symbol
 _atom_site_label
 _atom_site_symmetry_multiplicity
 _atom_site_fract_x
 _atom_site_fract_y
 _atom_site_fract_z
 _atom_site_occupancy
  Li  Li0  1  0.000000  0.500000  0.500000  1
  Li  Li1  1  0.500000  0.500000  0.000000  1
  Co  Co2  1  0.000000  0.500000  0.000000  1
  Co  Co3  1  0.000000  0.000000  0.500000  1
  Sn  Sn4  1  0.000000  0.000000  0.000000  1
  Sn  Sn5  1  0.500000  1.000000  0.500000  1
  O  O6  1  0.798677  0.248729  0.549949  1
  O  O7  1  0.235788  0.745321  0.009534  1
  O  O8  1  0.198780  0.248729  0.950051  1
  O  O9  1  0.764212  0.773746  0.509534  1
  O  O10  1  0.235788  0.226254  0.490466  1
  O  O11  1  0.801220  0.751271  0.049949  1
  O  O12  1  0.764212  0.254679  0.990466  1
  O  O13  1  0.201323  0.751271  0.450051  1
