# generated using pymatgen
data_Li2CrFeO4
_symmetry_space_group_name_H-M   'P 1'
_cell_length_a   5.16470879
_cell_length_b   5.16470879
_cell_length_c   5.15235886
_cell_angle_alpha   80.45295865
_cell_angle_beta   99.54704135
_cell_angle_gamma   146.52519162
_symmetry_Int_Tables_number   1
_chemical_formula_structural   Li2CrFeO4
_chemical_formula_sum   'Li2 Cr1 Fe1 O4'
_cell_volume   74.65954109
_cell_formula_units_Z   1
loop_
 _symmetry_equiv_pos_site_id
 _symmetry_equiv_pos_as_xyz
  1  'x, y, z'
loop_
 _atom_site_type_symbol
 _atom_site_label
 _atom_site_symmetry_multiplicity
 _atom_site_fract_x
 _atom_site_fract_y
 _atom_site_fract_z
 _atom_site_occupancy
  Li  Li0  1  0.749224  0.250776  0.748756  1
  Li  Li1  1  0.250776  0.749224  0.251244  1
  Cr  Cr2  1  0.000000  0.000000  0.500000  1
  Fe  Fe3  1  0.500000  0.500000  0.000000  1
  O  O4  1  0.114271  0.885729  0.869811  1
  O  O5  1  0.885729  0.114271  0.130189  1
  O  O6  1  0.612810  0.387190  0.372351  1
  O  O7  1  0.387190  0.612810  0.627649  1
