# generated using pymatgen
data_Li3FeF6
_symmetry_space_group_name_H-M   'P 1'
_cell_length_a   8.57279539
_cell_length_b   8.57279539
_cell_length_c   10.25874367
_cell_angle_alpha   85.96704202
_cell_angle_beta   94.03295798
_cell_angle_gamma   118.28392723
_symmetry_Int_Tables_number   1
_chemical_formula_structural   Li3FeF6
_chemical_formula_sum   'Li18 Fe6 F36'
_cell_volume   661.69890420
_cell_formula_units_Z   6
loop_
 _symmetry_equiv_pos_site_id
 _symmetry_equiv_pos_as_xyz
  1  'x, y, z'
loop_
 _atom_site_type_symbol
 _atom_site_label
 _atom_site_symmetry_multiplicity
 _atom_site_fract_x
 _atom_site_fract_y
 _atom_site_fract_z
 _atom_site_occupancy
  Li  Li0  1  0.941201  0.345110  0.067890  1
  Li  Li1  1  0.654890  0.058799  0.567890  1
  Li  Li2  1  0.454617  0.119865  0.050513  1
  Li  Li3  1  0.880135  0.545383  0.550513  1
  Li  Li4  1  0.994378  0.713456  0.269401  1
  Li  Li5  1  0.286544  0.005622  0.769401  1
  Li  Li6  1  0.673328  0.627053  0.038483  1
  Li  Li7  1  0.372947  0.326672  0.538483  1
  Li  Li8  1  0.190363  0.190363  0.250000  1
  Li  Li9  1  0.809637  0.809637  0.750000  1
  Li  Li10  1  0.627053  0.673328  0.461517  1
  Li  Li11  1  0.326672  0.372947  0.961517  1
  Li  Li12  1  0.713456  0.994378  0.230599  1
  Li  Li13  1  0.005622  0.286544  0.730599  1
  Li  Li14  1  0.119865  0.454617  0.449487  1
  Li  Li15  1  0.545383  0.880135  0.949487  1
  Li  Li16  1  0.345110  0.941201  0.432110  1
  Li  Li17  1  0.058799  0.654890  0.932110  1
  Fe  Fe18  1  0.659983  0.334773  0.295465  1
  Fe  Fe19  1  0.665227  0.340017  0.795465  1
  Fe  Fe20  1  0.000000  0.000000  0.500000  1
  Fe  Fe21  1  0.000000  0.000000  0.000000  1
  Fe  Fe22  1  0.334773  0.659983  0.204535  1
  Fe  Fe23  1  0.340017  0.665227  0.704535  1
  F  F24  1  0.934521  0.078118  0.333541  1
  F  F25  1  0.921882  0.065479  0.833541  1
  F  F26  1  0.734318  0.226495  0.163482  1
  F  F27  1  0.584613  0.106235  0.393755  1
  F  F28  1  0.773505  0.265682  0.663482  1
  F  F29  1  0.891748  0.431042  0.390138  1
  F  F30  1  0.893765  0.415387  0.893755  1
  F  F31  1  0.568958  0.108252  0.890138  1
  F  F32  1  0.761593  0.559177  0.193637  1
  F  F33  1  0.433748  0.244942  0.195240  1
  F  F34  1  0.440823  0.238407  0.693637  1
  F  F35  1  0.755058  0.566252  0.695240  1
  F  F36  1  0.585847  0.430246  0.433245  1
  F  F37  1  0.913663  0.759641  0.436655  1
  F  F38  1  0.239939  0.094242  0.433609  1
  F  F39  1  0.569754  0.414153  0.933245  1
  F  F40  1  0.240359  0.086337  0.936655  1
  F  F41  1  0.905758  0.760061  0.933609  1
  F  F42  1  0.094242  0.239939  0.066391  1
  F  F43  1  0.759641  0.913663  0.063345  1
  F  F44  1  0.430246  0.585847  0.066755  1
  F  F45  1  0.760061  0.905758  0.566391  1
  F  F46  1  0.086337  0.240359  0.563345  1
  F  F47  1  0.414153  0.569754  0.566755  1
  F  F48  1  0.244942  0.433748  0.304760  1
  F  F49  1  0.559177  0.761593  0.306363  1
  F  F50  1  0.566252  0.755058  0.804760  1
  F  F51  1  0.238407  0.440823  0.806363  1
  F  F52  1  0.431042  0.891748  0.109862  1
  F  F53  1  0.106235  0.584613  0.106245  1
  F  F54  1  0.108252  0.568958  0.609862  1
  F  F55  1  0.226495  0.734318  0.336518  1
  F  F56  1  0.415387  0.893765  0.606245  1
  F  F57  1  0.265682  0.773505  0.836518  1
  F  F58  1  0.078118  0.934521  0.166459  1
  F  F59  1  0.065479  0.921882  0.666459  1
