# generated using pymatgen
data_TiMnV4O12
_symmetry_space_group_name_H-M   'P 1'
_cell_length_a   6.95544424
_cell_length_b   6.95544424
_cell_length_c   5.80792972
_cell_angle_alpha   74.89571870
_cell_angle_beta   105.10428130
_cell_angle_gamma   95.73389768
_symmetry_Int_Tables_number   1
_chemical_formula_structural   TiMnV4O12
_chemical_formula_sum   'Ti1 Mn1 V4 O12'
_cell_volume   261.74434066
_cell_formula_units_Z   1
loop_
 _symmetry_equiv_pos_site_id
 _symmetry_equiv_pos_as_xyz
  1  'x, y, z'
loop_
 _atom_site_type_symbol
 _atom_site_label
 _atom_site_symmetry_multiplicity
 _atom_site_fract_x
 _atom_site_fract_y
 _atom_site_fract_z
 _atom_site_occupancy
  Ti  Ti0  1  0.096106  0.096106  0.500000  1
  Mn  Mn1  1  0.908041  0.908041  0.000000  1
  V  V2  1  0.383796  0.793451  0.997490  1
  V  V3  1  0.193348  0.609795  0.504665  1
  V  V4  1  0.793451  0.383796  0.002510  1
  V  V5  1  0.609795  0.193348  0.495335  1
  O  O6  1  0.187573  0.964269  0.859164  1
  O  O7  1  0.607463  0.918819  0.015216  1
  O  O8  1  0.042626  0.822130  0.398163  1
  O  O9  1  0.360067  0.628697  0.806321  1
  O  O10  1  0.918819  0.607463  0.984784  1
  O  O11  1  0.362354  0.664979  0.294231  1
  O  O12  1  0.628697  0.360067  0.193679  1
  O  O13  1  0.099621  0.356865  0.534931  1
  O  O14  1  0.664979  0.362354  0.705769  1
  O  O15  1  0.964269  0.187573  0.140836  1
  O  O16  1  0.356865  0.099621  0.465069  1
  O  O17  1  0.822130  0.042626  0.601837  1
