# generated using pymatgen
data_Fe10O11F9
_symmetry_space_group_name_H-M   'P 1'
_cell_length_a   4.77428538
_cell_length_b   4.77803732
_cell_length_c   15.30077060
_cell_angle_alpha   89.91365781
_cell_angle_beta   89.89311995
_cell_angle_gamma   84.98999701
_symmetry_Int_Tables_number   1
_chemical_formula_structural   Fe10O11F9
_chemical_formula_sum   'Fe10 O11 F9'
_cell_volume   347.70237089
_cell_formula_units_Z   1
loop_
 _symmetry_equiv_pos_site_id
 _symmetry_equiv_pos_as_xyz
  1  'x, y, z'
loop_
 _atom_site_type_symbol
 _atom_site_label
 _atom_site_symmetry_multiplicity
 _atom_site_fract_x
 _atom_site_fract_y
 _atom_site_fract_z
 _atom_site_occupancy
  Fe  Fe0  1  0.993453  0.984450  0.994863  1
  Fe  Fe1  1  0.990633  0.989205  0.804210  1
  Fe  Fe2  1  0.001704  0.999073  0.601084  1
  Fe  Fe3  1  0.994623  0.983612  0.395368  1
  Fe  Fe4  1  0.960697  0.015755  0.204096  1
  Fe  Fe5  1  0.530512  0.529243  0.899054  1
  Fe  Fe6  1  0.496460  0.493066  0.501043  1
  Fe  Fe7  1  0.497280  0.495051  0.700575  1
  Fe  Fe8  1  0.543123  0.522891  0.307106  1
  Fe  Fe9  1  0.497362  0.479950  0.093353  1
  O  O10  1  0.813872  0.809048  0.897630  1
  O  O11  1  0.808870  0.812828  0.298893  1
  O  O12  1  0.704155  0.300047  0.998218  1
  O  O13  1  0.697037  0.304875  0.794631  1
  O  O14  1  0.695020  0.298046  0.603209  1
  O  O15  1  0.706449  0.300550  0.405138  1
  O  O16  1  0.679864  0.321831  0.199227  1
  O  O17  1  0.306250  0.697228  0.000490  1
  O  O18  1  0.307100  0.695306  0.794643  1
  O  O19  1  0.301176  0.692108  0.603072  1
  O  O20  1  0.308407  0.696402  0.402997  1
  F  F21  1  0.807725  0.805667  0.698785  1
  F  F22  1  0.810611  0.803461  0.502885  1
  F  F23  1  0.801813  0.809518  0.101559  1
  F  F24  1  0.291716  0.711846  0.197819  1
  F  F25  1  0.196483  0.191260  0.897947  1
  F  F26  1  0.192614  0.185690  0.501539  1
  F  F27  1  0.189433  0.187629  0.700380  1
  F  F28  1  0.185374  0.189530  0.102079  1
  F  F29  1  0.190182  0.194835  0.298109  1
