# generated using pymatgen
data_Ca3Pb3I14
_symmetry_space_group_name_H-M   'P 1'
_cell_length_a   17.06702120
_cell_length_b   4.45540836
_cell_length_c   24.50842119
_cell_angle_alpha   90.00000000
_cell_angle_beta   104.13143325
_cell_angle_gamma   90.00000000
_symmetry_Int_Tables_number   1
_chemical_formula_structural   Ca3Pb3I14
_chemical_formula_sum   'Ca6 Pb6 I28'
_cell_volume   1807.23692261
_cell_formula_units_Z   2
loop_
 _symmetry_equiv_pos_site_id
 _symmetry_equiv_pos_as_xyz
  1  'x, y, z'
loop_
 _atom_site_type_symbol
 _atom_site_label
 _atom_site_symmetry_multiplicity
 _atom_site_fract_x
 _atom_site_fract_y
 _atom_site_fract_z
 _atom_site_occupancy
  Ca  Ca0  1  0.239252  0.750000  0.980033  1
  Ca  Ca1  1  0.123269  0.250000  0.364350  1
  Ca  Ca2  1  0.463848  0.250000  0.709662  1
  Ca  Ca3  1  0.536152  0.750000  0.290338  1
  Ca  Ca4  1  0.876731  0.750000  0.635650  1
  Ca  Ca5  1  0.760748  0.250000  0.019967  1
  Pb  Pb6  1  0.059634  0.250000  0.801661  1
  Pb  Pb7  1  0.308527  0.750000  0.536901  1
  Pb  Pb8  1  0.601034  0.750000  0.866359  1
  Pb  Pb9  1  0.398966  0.250000  0.133641  1
  Pb  Pb10  1  0.691473  0.250000  0.463099  1
  Pb  Pb11  1  0.940366  0.750000  0.198339  1
  I  I12  1  0.107438  0.250000  0.974679  1
  I  I13  1  0.059543  0.750000  0.699697  1
  I  I14  1  0.210278  0.750000  0.849397  1
  I  I15  1  0.080176  0.750000  0.444929  1
  I  I16  1  0.190983  0.250000  0.575950  1
  I  I17  1  0.039761  0.250000  0.144362  1
  I  I18  1  0.156098  0.750000  0.281707  1
  I  I19  1  0.329620  0.750000  0.693507  1
  I  I20  1  0.457015  0.250000  0.838298  1
  I  I21  1  0.302654  0.250000  0.433624  1
  I  I22  1  0.256272  0.750000  0.112517  1
  I  I23  1  0.455829  0.250000  0.581654  1
  I  I24  1  0.623310  0.750000  0.002428  1
  I  I25  1  0.400645  0.250000  0.267050  1
  I  I26  1  0.599355  0.750000  0.732950  1
  I  I27  1  0.376690  0.250000  0.997572  1
  I  I28  1  0.544171  0.750000  0.418346  1
  I  I29  1  0.743728  0.250000  0.887483  1
  I  I30  1  0.697346  0.750000  0.566376  1
  I  I31  1  0.542985  0.750000  0.161702  1
  I  I32  1  0.670380  0.250000  0.306493  1
  I  I33  1  0.843902  0.250000  0.718293  1
  I  I34  1  0.960239  0.750000  0.855638  1
  I  I35  1  0.809017  0.750000  0.424050  1
  I  I36  1  0.919824  0.250000  0.555071  1
  I  I37  1  0.789722  0.250000  0.150603  1
  I  I38  1  0.940457  0.250000  0.300303  1
  I  I39  1  0.892562  0.750000  0.025321  1
