# generated using pymatgen
data_Li2Co2(CO3)3
_symmetry_space_group_name_H-M   'P 1'
_cell_length_a   7.44234326
_cell_length_b   7.46001310
_cell_length_c   7.51294940
_cell_angle_alpha   108.90649272
_cell_angle_beta   108.99343295
_cell_angle_gamma   107.36794858
_symmetry_Int_Tables_number   1
_chemical_formula_structural   Li2Co2(CO3)3
_chemical_formula_sum   'Li4 Co4 C6 O18'
_cell_volume   332.91679443
_cell_formula_units_Z   2
loop_
 _symmetry_equiv_pos_site_id
 _symmetry_equiv_pos_as_xyz
  1  'x, y, z'
loop_
 _atom_site_type_symbol
 _atom_site_label
 _atom_site_symmetry_multiplicity
 _atom_site_fract_x
 _atom_site_fract_y
 _atom_site_fract_z
 _atom_site_occupancy
  Li  Li0  1  0.689727  0.155389  0.389550  1
  Li  Li1  1  0.413492  0.693599  0.194072  1
  Li  Li2  1  0.157204  0.161831  0.150109  1
  Li  Li3  1  0.187927  0.435444  0.712831  1
  Co  Co4  1  0.965102  0.847956  0.464363  1
  Co  Co5  1  0.580595  0.560123  0.580920  1
  Co  Co6  1  0.849473  0.465179  0.963163  1
  Co  Co7  1  0.466911  0.964969  0.847319  1
  C  C8  1  0.754650  0.842597  0.076102  1
  C  C9  1  0.599761  0.413223  0.190890  1
  C  C10  1  0.829231  0.065745  0.743279  1
  C  C11  1  0.193392  0.595525  0.415286  1
  C  C12  1  0.409322  0.194385  0.597019  1
  C  C13  1  0.074865  0.756144  0.841927  1
  O  O14  1  0.950717  0.948126  0.219299  1
  O  O15  1  0.616457  0.914470  0.098245  1
  O  O16  1  0.604708  0.300639  0.021081  1
  O  O17  1  0.643870  0.611514  0.246785  1
  O  O18  1  0.893996  0.082810  0.602582  1
  O  O19  1  0.551494  0.329113  0.303819  1
  O  O20  1  0.911349  0.694590  0.665624  1
  O  O21  1  0.655426  0.905757  0.686057  1
  O  O22  1  0.306764  0.537250  0.333901  1
  O  O23  1  0.940448  0.214492  0.938515  1
  O  O24  1  0.608414  0.253906  0.637010  1
  O  O25  1  0.321422  0.309016  0.553534  1
  O  O26  1  0.689971  0.663981  0.913522  1
  O  O27  1  0.303825  0.023423  0.600334  1
  O  O28  1  0.025385  0.603062  0.299485  1
  O  O29  1  0.247407  0.648591  0.614192  1
  O  O30  1  0.220647  0.949933  0.947230  1
  O  O31  1  0.097552  0.618720  0.913256  1
