# generated using pymatgen
data_Na3Li3Mn2P2(CO7)2
_symmetry_space_group_name_H-M   'P 1'
_cell_length_a   6.77261374
_cell_length_b   8.77430368
_cell_length_c   10.18378500
_cell_angle_alpha   90.92413960
_cell_angle_beta   90.20391138
_cell_angle_gamma   91.16499943
_symmetry_Int_Tables_number   1
_chemical_formula_structural   Na3Li3Mn2P2(CO7)2
_chemical_formula_sum   'Na6 Li6 Mn4 P4 C4 O28'
_cell_volume   604.96274631
_cell_formula_units_Z   2
loop_
 _symmetry_equiv_pos_site_id
 _symmetry_equiv_pos_as_xyz
  1  'x, y, z'
loop_
 _atom_site_type_symbol
 _atom_site_label
 _atom_site_symmetry_multiplicity
 _atom_site_fract_x
 _atom_site_fract_y
 _atom_site_fract_z
 _atom_site_occupancy
  Na  Na0  1  0.240480  0.917335  0.877224  1
  Na  Na1  1  0.501259  0.746165  0.623940  1
  Na  Na2  1  0.997835  0.746210  0.126374  1
  Na  Na3  1  0.501329  0.744433  0.124961  1
  Na  Na4  1  0.500814  0.253680  0.875327  1
  Na  Na5  1  0.499562  0.253803  0.375975  1
  Li  Li6  1  0.234725  0.915885  0.375320  1
  Li  Li7  1  0.024880  0.726539  0.612916  1
  Li  Li8  1  0.974909  0.273102  0.887806  1
  Li  Li9  1  0.983305  0.268317  0.383295  1
  Li  Li10  1  0.773798  0.087984  0.626552  1
  Li  Li11  1  0.763264  0.092373  0.127506  1
  Mn  Mn12  1  0.750371  0.638182  0.884424  1
  Mn  Mn13  1  0.753845  0.641300  0.389769  1
  Mn  Mn14  1  0.245486  0.353196  0.612165  1
  Mn  Mn15  1  0.243833  0.357527  0.111431  1
  P  P16  1  0.239159  0.584885  0.849857  1
  P  P17  1  0.246469  0.591136  0.355122  1
  P  P18  1  0.758863  0.405723  0.645238  1
  P  P19  1  0.752173  0.403599  0.146117  1
  C  C20  1  0.760881  0.955239  0.865738  1
  C  C21  1  0.760573  0.955780  0.367062  1
  C  C22  1  0.238817  0.043441  0.626717  1
  C  C23  1  0.246286  0.059839  0.142960  1
  O  O24  1  0.222557  0.898756  0.647461  1
  O  O25  1  0.255334  0.914793  0.164928  1
  O  O26  1  0.753781  0.916958  0.989193  1
  O  O27  1  0.752226  0.915882  0.489401  1
  O  O28  1  0.751582  0.850365  0.773827  1
  O  O29  1  0.754286  0.851060  0.274022  1
  O  O30  1  0.064922  0.681666  0.900038  1
  O  O31  1  0.432611  0.672354  0.890183  1
  O  O32  1  0.073700  0.695120  0.400179  1
  O  O33  1  0.438912  0.678809  0.396276  1
  O  O34  1  0.228362  0.573117  0.696498  1
  O  O35  1  0.770831  0.570892  0.590454  1
  O  O36  1  0.241797  0.572638  0.202402  1
  O  O37  1  0.746801  0.564539  0.085177  1
  O  O38  1  0.231815  0.420238  0.905010  1
  O  O39  1  0.775171  0.419904  0.798323  1
  O  O40  1  0.231164  0.429113  0.413808  1
  O  O41  1  0.774897  0.424592  0.298441  1
  O  O42  1  0.563233  0.320620  0.608202  1
  O  O43  1  0.926628  0.303121  0.591893  1
  O  O44  1  0.562404  0.307673  0.114253  1
  O  O45  1  0.924794  0.306669  0.091944  1
  O  O46  1  0.246049  0.139636  0.726041  1
  O  O47  1  0.234042  0.154730  0.241362  1
  O  O48  1  0.248570  0.094511  0.507358  1
  O  O49  1  0.248930  0.112031  0.023818  1
  O  O50  1  0.776618  0.097027  0.832052  1
  O  O51  1  0.775065  0.097513  0.333662  1
