# generated using pymatgen
data_Er3TaO7
_symmetry_space_group_name_H-M   'P 1'
_cell_length_a   6.43817255
_cell_length_b   6.43817255
_cell_length_c   7.45337779
_cell_angle_alpha   90.00000000
_cell_angle_beta   90.00000000
_cell_angle_gamma   109.08425420
_symmetry_Int_Tables_number   1
_chemical_formula_structural   Er3TaO7
_chemical_formula_sum   'Er6 Ta2 O14'
_cell_volume   291.96312229
_cell_formula_units_Z   2
loop_
 _symmetry_equiv_pos_site_id
 _symmetry_equiv_pos_as_xyz
  1  'x, y, z'
loop_
 _atom_site_type_symbol
 _atom_site_label
 _atom_site_symmetry_multiplicity
 _atom_site_fract_x
 _atom_site_fract_y
 _atom_site_fract_z
 _atom_site_occupancy
  Er  Er0  1  0.465430  0.999180  0.253194  1
  Er  Er1  1  0.000820  0.534570  0.246806  1
  Er  Er2  1  0.525577  0.525577  0.500000  1
  Er  Er3  1  0.474423  0.474423  0.000000  1
  Er  Er4  1  0.999180  0.465430  0.746806  1
  Er  Er5  1  0.534570  0.000820  0.753194  1
  Ta  Ta6  1  0.002319  0.002319  0.500000  1
  Ta  Ta7  1  0.997681  0.997681  0.000000  1
  O  O8  1  0.930078  0.069922  0.750000  1
  O  O9  1  0.316425  0.060002  0.538266  1
  O  O10  1  0.327905  0.081289  0.970281  1
  O  O11  1  0.639006  0.360994  0.750000  1
  O  O12  1  0.629107  0.370893  0.250000  1
  O  O13  1  0.081289  0.327905  0.029719  1
  O  O14  1  0.060002  0.316425  0.461734  1
  O  O15  1  0.939998  0.683575  0.961734  1
  O  O16  1  0.918711  0.672095  0.529719  1
  O  O17  1  0.370893  0.629107  0.750000  1
  O  O18  1  0.360994  0.639006  0.250000  1
  O  O19  1  0.672095  0.918711  0.470281  1
  O  O20  1  0.683575  0.939998  0.038266  1
  O  O21  1  0.069922  0.930078  0.250000  1
