# generated using pymatgen
data_BaSr2I6
_symmetry_space_group_name_H-M   'P 1'
_cell_length_a   8.50314120
_cell_length_b   8.27989805
_cell_length_c   24.78888309
_cell_angle_alpha   90.00000000
_cell_angle_beta   92.42801560
_cell_angle_gamma   90.00000000
_symmetry_Int_Tables_number   1
_chemical_formula_structural   BaSr2I6
_chemical_formula_sum   'Ba4 Sr8 I24'
_cell_volume   1743.69800227
_cell_formula_units_Z   4
loop_
 _symmetry_equiv_pos_site_id
 _symmetry_equiv_pos_as_xyz
  1  'x, y, z'
loop_
 _atom_site_type_symbol
 _atom_site_label
 _atom_site_symmetry_multiplicity
 _atom_site_fract_x
 _atom_site_fract_y
 _atom_site_fract_z
 _atom_site_occupancy
  Ba  Ba0  1  0.166748  0.961455  0.594038  1
  Ba  Ba1  1  0.166748  0.538545  0.094038  1
  Ba  Ba2  1  0.833252  0.461455  0.905962  1
  Ba  Ba3  1  0.833252  0.038545  0.405962  1
  Sr  Sr4  1  0.232317  0.461849  0.742969  1
  Sr  Sr5  1  0.338283  0.029904  0.907234  1
  Sr  Sr6  1  0.232317  0.038151  0.242969  1
  Sr  Sr7  1  0.338283  0.470096  0.407234  1
  Sr  Sr8  1  0.661717  0.529904  0.592766  1
  Sr  Sr9  1  0.767683  0.961849  0.757031  1
  Sr  Sr10  1  0.661717  0.970096  0.092766  1
  Sr  Sr11  1  0.767683  0.538151  0.257031  1
  I  I12  1  0.045249  0.195048  0.819875  1
  I  I13  1  0.104386  0.714227  0.839665  1
  I  I14  1  0.138924  0.286351  0.982058  1
  I  I15  1  0.045249  0.304952  0.319875  1
  I  I16  1  0.104386  0.785773  0.339665  1
  I  I17  1  0.138924  0.213649  0.482058  1
  I  I18  1  0.367727  0.694497  0.517135  1
  I  I19  1  0.404054  0.273427  0.645516  1
  I  I20  1  0.464639  0.760797  0.686834  1
  I  I21  1  0.535361  0.260797  0.813166  1
  I  I22  1  0.367727  0.805503  0.017135  1
  I  I23  1  0.595946  0.773427  0.854484  1
  I  I24  1  0.404054  0.226573  0.145516  1
  I  I25  1  0.632273  0.194497  0.982865  1
  I  I26  1  0.464639  0.739203  0.186834  1
  I  I27  1  0.535361  0.239203  0.313166  1
  I  I28  1  0.595946  0.726573  0.354484  1
  I  I29  1  0.632273  0.305503  0.482865  1
  I  I30  1  0.861076  0.786351  0.517942  1
  I  I31  1  0.895614  0.214227  0.660335  1
  I  I32  1  0.954751  0.695048  0.680125  1
  I  I33  1  0.861076  0.713649  0.017942  1
  I  I34  1  0.895614  0.285773  0.160335  1
  I  I35  1  0.954751  0.804952  0.180125  1
