# generated using pymatgen
data_K3H3Pd
_symmetry_space_group_name_H-M   'P 1'
_cell_length_a   10.90940784
_cell_length_b   10.90940784
_cell_length_c   10.37252476
_cell_angle_alpha   90.00000000
_cell_angle_beta   90.00000000
_cell_angle_gamma   90.00000000
_symmetry_Int_Tables_number   1
_chemical_formula_structural   K3H3Pd
_chemical_formula_sum   'K24 H24 Pd8'
_cell_volume   1234.48789534
_cell_formula_units_Z   8
loop_
 _symmetry_equiv_pos_site_id
 _symmetry_equiv_pos_as_xyz
  1  'x, y, z'
loop_
 _atom_site_type_symbol
 _atom_site_label
 _atom_site_symmetry_multiplicity
 _atom_site_fract_x
 _atom_site_fract_y
 _atom_site_fract_z
 _atom_site_occupancy
  K  K0  1  0.794199  0.205801  0.500000  1
  K  K1  1  0.205801  0.794199  0.500000  1
  K  K2  1  0.294199  0.294199  0.000000  1
  K  K3  1  0.705801  0.705801  0.000000  1
  K  K4  1  0.799393  0.799393  0.500000  1
  K  K5  1  0.200607  0.200607  0.500000  1
  K  K6  1  0.299393  0.700607  0.000000  1
  K  K7  1  0.700607  0.299393  0.000000  1
  K  K8  1  0.503522  0.249101  0.292218  1
  K  K9  1  0.496478  0.750899  0.292218  1
  K  K10  1  0.003522  0.250899  0.792218  1
  K  K11  1  0.996478  0.749101  0.792218  1
  K  K12  1  0.496478  0.750899  0.707782  1
  K  K13  1  0.503522  0.249101  0.707782  1
  K  K14  1  0.996478  0.749101  0.207782  1
  K  K15  1  0.003522  0.250899  0.207782  1
  K  K16  1  0.249101  0.503522  0.292218  1
  K  K17  1  0.750899  0.496478  0.292218  1
  K  K18  1  0.250899  0.003522  0.792218  1
  K  K19  1  0.749101  0.996478  0.792218  1
  K  K20  1  0.750899  0.496478  0.707782  1
  K  K21  1  0.249101  0.503522  0.707782  1
  K  K22  1  0.749101  0.996478  0.207782  1
  K  K23  1  0.250899  0.003522  0.207782  1
  H  H24  1  0.753566  0.246434  0.244249  1
  H  H25  1  0.246434  0.753566  0.244249  1
  H  H26  1  0.253566  0.253566  0.744249  1
  H  H27  1  0.746434  0.746434  0.744249  1
  H  H28  1  0.246434  0.753566  0.755751  1
  H  H29  1  0.753566  0.246434  0.755751  1
  H  H30  1  0.746434  0.746434  0.255751  1
  H  H31  1  0.253566  0.253566  0.255751  1
  H  H32  1  0.609297  0.390703  0.500000  1
  H  H33  1  0.390703  0.609297  0.500000  1
  H  H34  1  0.109297  0.109297  0.000000  1
  H  H35  1  0.890703  0.890703  0.000000  1
  H  H36  1  0.500000  0.500000  0.162936  1
  H  H37  1  0.000000  0.000000  0.662936  1
  H  H38  1  0.500000  0.500000  0.837064  1
  H  H39  1  0.000000  0.000000  0.337064  1
  H  H40  1  0.346269  0.000453  0.500000  1
  H  H41  1  0.653731  0.999547  0.500000  1
  H  H42  1  0.846269  0.499547  0.000000  1
  H  H43  1  0.153731  0.500453  0.000000  1
  H  H44  1  0.000453  0.346269  0.500000  1
  H  H45  1  0.999547  0.653731  0.500000  1
  H  H46  1  0.499547  0.846269  0.000000  1
  H  H47  1  0.500453  0.153731  0.000000  1
  Pd  Pd48  1  0.500000  0.500000  0.500000  1
  Pd  Pd49  1  0.000000  0.000000  0.000000  1
  Pd  Pd50  1  0.500000  0.500000  0.000000  1
  Pd  Pd51  1  0.000000  0.000000  0.500000  1
  Pd  Pd52  1  0.500000  0.000000  0.500000  1
  Pd  Pd53  1  0.000000  0.500000  0.000000  1
  Pd  Pd54  1  0.000000  0.500000  0.500000  1
  Pd  Pd55  1  0.500000  0.000000  0.000000  1
