# generated using pymatgen
data_La3ScO6
_symmetry_space_group_name_H-M   'P 1'
_cell_length_a   6.94881154
_cell_length_b   6.94881154
_cell_length_c   6.94881154
_cell_angle_alpha   92.29217592
_cell_angle_beta   92.29217592
_cell_angle_gamma   92.29217592
_symmetry_Int_Tables_number   1
_chemical_formula_structural   La3ScO6
_chemical_formula_sum   'La6 Sc2 O12'
_cell_volume   334.70261587
_cell_formula_units_Z   2
loop_
 _symmetry_equiv_pos_site_id
 _symmetry_equiv_pos_as_xyz
  1  'x, y, z'
loop_
 _atom_site_type_symbol
 _atom_site_label
 _atom_site_symmetry_multiplicity
 _atom_site_fract_x
 _atom_site_fract_y
 _atom_site_fract_z
 _atom_site_occupancy
  La  La0  1  0.253730  0.560290  0.067886  1
  La  La1  1  0.932114  0.746270  0.439710  1
  La  La2  1  0.439710  0.932114  0.746270  1
  La  La3  1  0.560290  0.067886  0.253730  1
  La  La4  1  0.067886  0.253730  0.560290  1
  La  La5  1  0.746270  0.439710  0.932114  1
  Sc  Sc6  1  0.000000  0.000000  0.000000  1
  Sc  Sc7  1  0.500000  0.500000  0.500000  1
  O  O8  1  0.297627  0.921059  0.064182  1
  O  O9  1  0.935818  0.702373  0.078941  1
  O  O10  1  0.587735  0.796510  0.460552  1
  O  O11  1  0.078941  0.935818  0.702373  1
  O  O12  1  0.539448  0.412265  0.203490  1
  O  O13  1  0.203490  0.539448  0.412265  1
  O  O14  1  0.796510  0.460552  0.587735  1
  O  O15  1  0.460552  0.587735  0.796510  1
  O  O16  1  0.921059  0.064182  0.297627  1
  O  O17  1  0.412265  0.203490  0.539448  1
  O  O18  1  0.064182  0.297627  0.921059  1
  O  O19  1  0.702373  0.078941  0.935818  1
