# generated using pymatgen
data_Mn8O13F3
_symmetry_space_group_name_H-M   'P 1'
_cell_length_a   5.52282000
_cell_length_b   6.70285450
_cell_length_c   6.74861331
_cell_angle_alpha   96.06566959
_cell_angle_beta   90.64044572
_cell_angle_gamma   90.31284790
_symmetry_Int_Tables_number   1
_chemical_formula_structural   Mn8O13F3
_chemical_formula_sum   'Mn8 O13 F3'
_cell_volume   248.40489463
_cell_formula_units_Z   1
loop_
 _symmetry_equiv_pos_site_id
 _symmetry_equiv_pos_as_xyz
  1  'x, y, z'
loop_
 _atom_site_type_symbol
 _atom_site_label
 _atom_site_symmetry_multiplicity
 _atom_site_fract_x
 _atom_site_fract_y
 _atom_site_fract_z
 _atom_site_occupancy
  Mn  Mn0  1  0.352765  0.872969  0.625132  1
  Mn  Mn1  1  0.666676  0.622969  0.884489  1
  Mn  Mn2  1  0.171375  0.864966  0.122406  1
  Mn  Mn3  1  0.116605  0.377937  0.625083  1
  Mn  Mn4  1  0.857683  0.120434  0.865748  1
  Mn  Mn5  1  0.853381  0.631584  0.372476  1
  Mn  Mn6  1  0.647546  0.128941  0.374249  1
  Mn  Mn7  1  0.357776  0.372799  0.124322  1
  O  O8  1  0.115348  0.919928  0.845254  1
  O  O9  1  0.616561  0.901287  0.829276  1
  O  O10  1  0.611604  0.849026  0.426511  1
  O  O11  1  0.615457  0.340584  0.922857  1
  O  O12  1  0.884480  0.579555  0.653793  1
  O  O13  1  0.104186  0.327913  0.903016  1
  O  O14  1  0.113973  0.831042  0.401791  1
  O  O15  1  0.883762  0.170764  0.595990  1
  O  O16  1  0.102136  0.422572  0.346244  1
  O  O17  1  0.895608  0.678851  0.100391  1
  O  O18  1  0.393266  0.649179  0.071034  1
  O  O19  1  0.608984  0.411488  0.327729  1
  O  O20  1  0.387019  0.095837  0.177328  1
  F  F21  1  0.380071  0.570900  0.670911  1
  F  F22  1  0.368754  0.178816  0.588142  1
  F  F23  1  0.894988  0.079659  0.145826  1
