# generated using pymatgen
data_Li4Cr5Sn3O16
_symmetry_space_group_name_H-M   'P 1'
_cell_length_a   6.07965348
_cell_length_b   6.07965348
_cell_length_c   9.60344121
_cell_angle_alpha   89.66950641
_cell_angle_beta   90.33049359
_cell_angle_gamma   119.84551728
_symmetry_Int_Tables_number   1
_chemical_formula_structural   Li4Cr5Sn3O16
_chemical_formula_sum   'Li4 Cr5 Sn3 O16'
_cell_volume   307.87857649
_cell_formula_units_Z   1
loop_
 _symmetry_equiv_pos_site_id
 _symmetry_equiv_pos_as_xyz
  1  'x, y, z'
loop_
 _atom_site_type_symbol
 _atom_site_label
 _atom_site_symmetry_multiplicity
 _atom_site_fract_x
 _atom_site_fract_y
 _atom_site_fract_z
 _atom_site_occupancy
  Li  Li0  1  0.329601  0.670399  0.887962  1
  Li  Li1  1  0.013184  0.986816  0.991996  1
  Li  Li2  1  0.006385  0.993615  0.501673  1
  Li  Li3  1  0.665448  0.334552  0.396290  1
  Cr  Cr4  1  0.330751  0.669249  0.489074  1
  Cr  Cr5  1  0.169639  0.830361  0.214955  1
  Cr  Cr6  1  0.661606  0.338394  0.982815  1
  Cr  Cr7  1  0.830277  0.661094  0.711073  1
  Cr  Cr8  1  0.338906  0.169723  0.711073  1
  Sn  Sn9  1  0.661611  0.831538  0.213188  1
  Sn  Sn10  1  0.168462  0.338389  0.213188  1
  Sn  Sn11  1  0.829980  0.170020  0.713831  1
  O  O12  1  0.672298  0.829201  0.598503  1
  O  O13  1  0.479546  0.520454  0.350020  1
  O  O14  1  0.328264  0.671736  0.097545  1
  O  O15  1  0.004845  0.995155  0.316795  1
  O  O16  1  0.005462  0.994538  0.807976  1
  O  O17  1  0.170799  0.327702  0.598503  1
  O  O18  1  0.475067  0.961183  0.344995  1
  O  O19  1  0.038817  0.524933  0.344995  1
  O  O20  1  0.836533  0.163467  0.093067  1
  O  O21  1  0.166475  0.833525  0.608952  1
  O  O22  1  0.956927  0.488664  0.843054  1
  O  O23  1  0.511336  0.043073  0.843054  1
  O  O24  1  0.661652  0.338348  0.601731  1
  O  O25  1  0.837507  0.672045  0.099117  1
  O  O26  1  0.521431  0.478569  0.833241  1
  O  O27  1  0.327955  0.162493  0.099117  1
