# generated using pymatgen
data_LiV3(OF3)2
_symmetry_space_group_name_H-M   'P 1'
_cell_length_a   5.22802922
_cell_length_b   7.20749782
_cell_length_c   7.53081802
_cell_angle_alpha   78.76346807
_cell_angle_beta   88.61972453
_cell_angle_gamma   89.44810579
_symmetry_Int_Tables_number   1
_chemical_formula_structural   LiV3(OF3)2
_chemical_formula_sum   'Li2 V6 O4 F12'
_cell_volume   278.24500157
_cell_formula_units_Z   2
loop_
 _symmetry_equiv_pos_site_id
 _symmetry_equiv_pos_as_xyz
  1  'x, y, z'
loop_
 _atom_site_type_symbol
 _atom_site_label
 _atom_site_symmetry_multiplicity
 _atom_site_fract_x
 _atom_site_fract_y
 _atom_site_fract_z
 _atom_site_occupancy
  Li  Li0  1  0.220583  0.162186  0.165168  1
  Li  Li1  1  0.779417  0.837814  0.834832  1
  V  V2  1  0.283174  0.667040  0.183106  1
  V  V3  1  0.755389  0.829095  0.324653  1
  V  V4  1  0.252124  0.683511  0.685324  1
  V  V5  1  0.747876  0.316489  0.314676  1
  V  V6  1  0.244611  0.170905  0.675347  1
  V  V7  1  0.716826  0.332960  0.816894  1
  O  O8  1  0.588984  0.576300  0.297954  1
  O  O9  1  0.123953  0.927027  0.687432  1
  O  O10  1  0.876047  0.072973  0.312568  1
  O  O11  1  0.411016  0.423700  0.702046  1
  F  F12  1  0.425706  0.925577  0.192723  1
  F  F13  1  0.947924  0.801166  0.090480  1
  F  F14  1  0.096160  0.687673  0.426248  1
  F  F15  1  0.081479  0.421914  0.193015  1
  F  F16  1  0.583886  0.312155  0.068504  1
  F  F17  1  0.586544  0.794909  0.571959  1
  F  F18  1  0.413456  0.205091  0.428041  1
  F  F19  1  0.416114  0.687845  0.931496  1
  F  F20  1  0.918521  0.578086  0.806985  1
  F  F21  1  0.903840  0.312327  0.573752  1
  F  F22  1  0.052076  0.198834  0.909520  1
  F  F23  1  0.574294  0.074423  0.807277  1
