# generated using pymatgen
data_Li2VP2O7
_symmetry_space_group_name_H-M   'P 1'
_cell_length_a   5.16057856
_cell_length_b   13.71476324
_cell_length_c   9.37147509
_cell_angle_alpha   90.00000000
_cell_angle_beta   121.71884823
_cell_angle_gamma   90.00000000
_symmetry_Int_Tables_number   1
_chemical_formula_structural   Li2VP2O7
_chemical_formula_sum   'Li8 V4 P8 O28'
_cell_volume   564.20839820
_cell_formula_units_Z   4
loop_
 _symmetry_equiv_pos_site_id
 _symmetry_equiv_pos_as_xyz
  1  'x, y, z'
loop_
 _atom_site_type_symbol
 _atom_site_label
 _atom_site_symmetry_multiplicity
 _atom_site_fract_x
 _atom_site_fract_y
 _atom_site_fract_z
 _atom_site_occupancy
  Li  Li0  1  0.955790  0.103446  0.138157  1
  Li  Li1  1  0.431808  0.695901  0.166805  1
  Li  Li2  1  0.568192  0.195901  0.333195  1
  Li  Li3  1  0.044210  0.603446  0.361843  1
  Li  Li4  1  0.955790  0.396554  0.638157  1
  Li  Li5  1  0.431808  0.804099  0.666805  1
  Li  Li6  1  0.568192  0.304099  0.833195  1
  Li  Li7  1  0.044210  0.896554  0.861843  1
  V  V8  1  0.973361  0.340035  0.265878  1
  V  V9  1  0.026639  0.840035  0.234122  1
  V  V10  1  0.973361  0.159965  0.765878  1
  V  V11  1  0.026639  0.659965  0.734122  1
  P  P12  1  0.260055  0.322521  0.031329  1
  P  P13  1  0.523151  0.973625  0.225302  1
  P  P14  1  0.476849  0.473625  0.274698  1
  P  P15  1  0.739945  0.822521  0.468671  1
  P  P16  1  0.260055  0.177479  0.531329  1
  P  P17  1  0.523151  0.526375  0.725302  1
  P  P18  1  0.476849  0.026375  0.774698  1
  P  P19  1  0.739945  0.677479  0.968671  1
  O  O20  1  0.299962  0.437312  0.075703  1
  O  O21  1  0.556564  0.288821  0.044874  1
  O  O22  1  0.206136  0.271399  0.159715  1
  O  O23  1  0.017441  0.689558  0.148069  1
  O  O24  1  0.271604  0.897105  0.123218  1
  O  O25  1  0.774162  0.972106  0.182792  1
  O  O26  1  0.395580  0.073088  0.223808  1
  O  O27  1  0.604420  0.573088  0.276192  1
  O  O28  1  0.225838  0.472106  0.317208  1
  O  O29  1  0.728396  0.397105  0.376782  1
  O  O30  1  0.793864  0.771399  0.340285  1
  O  O31  1  0.982559  0.189558  0.351931  1
  O  O32  1  0.443436  0.788821  0.455126  1
  O  O33  1  0.700038  0.937312  0.424297  1
  O  O34  1  0.299962  0.062688  0.575703  1
  O  O35  1  0.556564  0.211179  0.544874  1
  O  O36  1  0.017441  0.810442  0.648069  1
  O  O37  1  0.206136  0.228601  0.659715  1
  O  O38  1  0.271604  0.602895  0.623218  1
  O  O39  1  0.774162  0.527894  0.682792  1
  O  O40  1  0.395580  0.426912  0.723808  1
  O  O41  1  0.604420  0.926912  0.776192  1
  O  O42  1  0.225838  0.027894  0.817208  1
  O  O43  1  0.728396  0.102895  0.876782  1
  O  O44  1  0.982559  0.310442  0.851931  1
  O  O45  1  0.793864  0.728601  0.840285  1
  O  O46  1  0.443436  0.711179  0.955126  1
  O  O47  1  0.700038  0.562688  0.924297  1
