# generated using pymatgen
data_NiP4
_symmetry_space_group_name_H-M   'P 1'
_cell_length_a   4.79180993
_cell_length_b   14.02001819
_cell_length_c   7.01142450
_cell_angle_alpha   90.00000000
_cell_angle_beta   101.59044514
_cell_angle_gamma   90.00000000
_symmetry_Int_Tables_number   1
_chemical_formula_structural   NiP4
_chemical_formula_sum   'Ni6 P24'
_cell_volume   461.43133847
_cell_formula_units_Z   6
loop_
 _symmetry_equiv_pos_site_id
 _symmetry_equiv_pos_as_xyz
  1  'x, y, z'
loop_
 _atom_site_type_symbol
 _atom_site_label
 _atom_site_symmetry_multiplicity
 _atom_site_fract_x
 _atom_site_fract_y
 _atom_site_fract_z
 _atom_site_occupancy
  Ni  Ni0  1  0.000000  0.500000  0.500000  1
  Ni  Ni1  1  0.139512  0.669943  0.883348  1
  Ni  Ni2  1  0.000000  0.000000  0.000000  1
  Ni  Ni3  1  0.139512  0.830057  0.383348  1
  Ni  Ni4  1  0.860488  0.169943  0.616652  1
  Ni  Ni5  1  0.860488  0.330057  0.116652  1
  P  P6  1  0.078336  0.272395  0.871118  1
  P  P7  1  0.078336  0.227605  0.371118  1
  P  P8  1  0.209077  0.051923  0.753263  1
  P  P9  1  0.257795  0.384557  0.702657  1
  P  P10  1  0.209077  0.448077  0.253263  1
  P  P11  1  0.354767  0.607265  0.640716  1
  P  P12  1  0.375882  0.945523  0.573631  1
  P  P13  1  0.499939  0.782247  0.957229  1
  P  P14  1  0.257795  0.115443  0.202657  1
  P  P15  1  0.354767  0.892735  0.140716  1
  P  P16  1  0.500061  0.282247  0.542771  1
  P  P17  1  0.375882  0.554477  0.073631  1
  P  P18  1  0.624118  0.445523  0.926369  1
  P  P19  1  0.499939  0.717753  0.457229  1
  P  P20  1  0.645233  0.107265  0.859284  1
  P  P21  1  0.742205  0.884557  0.797343  1
  P  P22  1  0.500061  0.217753  0.042771  1
  P  P23  1  0.624118  0.054477  0.426369  1
  P  P24  1  0.645233  0.392735  0.359284  1
  P  P25  1  0.790923  0.551923  0.746737  1
  P  P26  1  0.742205  0.615443  0.297343  1
  P  P27  1  0.790923  0.948077  0.246737  1
  P  P28  1  0.921664  0.772395  0.628882  1
  P  P29  1  0.921664  0.727605  0.128882  1
