# generated using pymatgen
data_LiCu(PO3)3
_symmetry_space_group_name_H-M   'P 1'
_cell_length_a   5.40905955
_cell_length_b   10.65827484
_cell_length_c   11.48774109
_cell_angle_alpha   90.00000000
_cell_angle_beta   90.00000000
_cell_angle_gamma   90.00000000
_symmetry_Int_Tables_number   1
_chemical_formula_structural   LiCu(PO3)3
_chemical_formula_sum   'Li4 Cu4 P12 O36'
_cell_volume   662.28255666
_cell_formula_units_Z   4
loop_
 _symmetry_equiv_pos_site_id
 _symmetry_equiv_pos_as_xyz
  1  'x, y, z'
loop_
 _atom_site_type_symbol
 _atom_site_label
 _atom_site_symmetry_multiplicity
 _atom_site_fract_x
 _atom_site_fract_y
 _atom_site_fract_z
 _atom_site_occupancy
  Li  Li0  1  0.089014  0.119167  0.076162  1
  Li  Li1  1  0.589014  0.380833  0.923838  1
  Li  Li2  1  0.910986  0.619167  0.423838  1
  Li  Li3  1  0.410986  0.880833  0.576162  1
  Cu  Cu4  1  0.590616  0.031345  0.859974  1
  Cu  Cu5  1  0.090616  0.468655  0.140026  1
  Cu  Cu6  1  0.409384  0.531345  0.640026  1
  Cu  Cu7  1  0.909384  0.968655  0.359974  1
  P  P8  1  0.873527  0.074893  0.621537  1
  P  P9  1  0.371924  0.148899  0.366020  1
  P  P10  1  0.068098  0.194579  0.821111  1
  P  P11  1  0.568098  0.305421  0.178889  1
  P  P12  1  0.871924  0.351101  0.633980  1
  P  P13  1  0.373527  0.425107  0.378463  1
  P  P14  1  0.126473  0.574893  0.878463  1
  P  P15  1  0.628076  0.648899  0.133980  1
  P  P16  1  0.931902  0.694579  0.678889  1
  P  P17  1  0.431902  0.805421  0.321111  1
  P  P18  1  0.128076  0.851101  0.866020  1
  P  P19  1  0.626473  0.925107  0.121537  1
  O  O20  1  0.519312  0.011393  0.031519  1
  O  O21  1  0.637861  0.036683  0.683857  1
  O  O22  1  0.508441  0.058781  0.440833  1
  O  O23  1  0.088108  0.090458  0.718754  1
  O  O24  1  0.116875  0.116112  0.321246  1
  O  O25  1  0.823915  0.178506  0.885419  1
  O  O26  1  0.302720  0.195641  0.888257  1
  O  O27  1  0.548095  0.178736  0.254711  1
  O  O28  1  0.858431  0.215215  0.570481  1
  O  O29  1  0.358431  0.284785  0.429519  1
  O  O30  1  0.048095  0.321264  0.745289  1
  O  O31  1  0.802720  0.304359  0.111743  1
  O  O32  1  0.323915  0.321494  0.114581  1
  O  O33  1  0.616875  0.383888  0.678754  1
  O  O34  1  0.588108  0.409542  0.281246  1
  O  O35  1  0.008441  0.441219  0.559167  1
  O  O36  1  0.137861  0.463317  0.316143  1
  O  O37  1  0.019312  0.488607  0.968481  1
  O  O38  1  0.480688  0.511393  0.468481  1
  O  O39  1  0.362139  0.536683  0.816143  1
  O  O40  1  0.491559  0.558781  0.059167  1
  O  O41  1  0.911892  0.590458  0.781246  1
  O  O42  1  0.883125  0.616112  0.178754  1
  O  O43  1  0.176085  0.678506  0.614581  1
  O  O44  1  0.697280  0.695641  0.611743  1
  O  O45  1  0.451905  0.678736  0.245289  1
  O  O46  1  0.141569  0.715215  0.929519  1
  O  O47  1  0.641569  0.784785  0.070481  1
  O  O48  1  0.951905  0.821264  0.754711  1
  O  O49  1  0.197280  0.804359  0.388257  1
  O  O50  1  0.676085  0.821494  0.385419  1
  O  O51  1  0.383125  0.883888  0.821246  1
  O  O52  1  0.411892  0.909542  0.218754  1
  O  O53  1  0.991559  0.941219  0.940833  1
  O  O54  1  0.862139  0.963317  0.183857  1
  O  O55  1  0.980688  0.988607  0.531519  1
