# generated using pymatgen
data_U3O5
_symmetry_space_group_name_H-M   'P 1'
_cell_length_a   3.82652061
_cell_length_b   3.82652061
_cell_length_c   9.44733014
_cell_angle_alpha   90.00000000
_cell_angle_beta   90.00000000
_cell_angle_gamma   120.00000000
_symmetry_Int_Tables_number   1
_chemical_formula_structural   U3O5
_chemical_formula_sum   'U3 O5'
_cell_volume   119.79752268
_cell_formula_units_Z   1
loop_
 _symmetry_equiv_pos_site_id
 _symmetry_equiv_pos_as_xyz
  1  'x, y, z'
loop_
 _atom_site_type_symbol
 _atom_site_label
 _atom_site_symmetry_multiplicity
 _atom_site_fract_x
 _atom_site_fract_y
 _atom_site_fract_z
 _atom_site_occupancy
  U  U0  1  0.000000  0.000000  0.000853  1
  U  U1  1  0.333333  0.666667  0.657926  1
  U  U2  1  0.666667  0.333333  0.329483  1
  O  O3  1  0.333333  0.666667  0.415161  1
  O  O4  1  0.000000  0.000000  0.763996  1
  O  O5  1  0.666667  0.333333  0.581184  1
  O  O6  1  0.000000  0.000000  0.242253  1
  O  O7  1  0.666667  0.333333  0.054924  1
