# generated using pymatgen
data_LiFe5(OF2)4
_symmetry_space_group_name_H-M   'P 1'
_cell_length_a   9.64889724
_cell_length_b   8.73551427
_cell_length_c   5.65838555
_cell_angle_alpha   81.14048311
_cell_angle_beta   63.44894981
_cell_angle_gamma   35.41056707
_symmetry_Int_Tables_number   1
_chemical_formula_structural   LiFe5(OF2)4
_chemical_formula_sum   'Li1 Fe5 O4 F8'
_cell_volume   225.94467358
_cell_formula_units_Z   1
loop_
 _symmetry_equiv_pos_site_id
 _symmetry_equiv_pos_as_xyz
  1  'x, y, z'
loop_
 _atom_site_type_symbol
 _atom_site_label
 _atom_site_symmetry_multiplicity
 _atom_site_fract_x
 _atom_site_fract_y
 _atom_site_fract_z
 _atom_site_occupancy
  Li  Li0  1  0.500000  0.500000  0.500000  1
  Fe  Fe1  1  0.161369  0.161369  0.838631  1
  Fe  Fe2  1  0.838631  0.838631  0.161369  1
  Fe  Fe3  1  0.250000  0.250000  0.250000  1
  Fe  Fe4  1  0.909039  0.909039  0.590961  1
  Fe  Fe5  1  0.590961  0.590961  0.909039  1
  O  O6  1  0.973419  0.360915  0.630206  1
  O  O7  1  0.360915  0.973419  0.035459  1
  O  O8  1  0.035459  0.630206  0.360915  1
  O  O9  1  0.630206  0.035459  0.973419  1
  F  F10  1  0.472265  0.027735  0.472265  1
  F  F11  1  0.027735  0.472265  0.027735  1
  F  F12  1  0.136539  0.698866  0.779895  1
  F  F13  1  0.698866  0.136539  0.384700  1
  F  F14  1  0.722368  0.277632  0.722368  1
  F  F15  1  0.384700  0.779895  0.698866  1
  F  F16  1  0.277632  0.722368  0.277632  1
  F  F17  1  0.779895  0.384700  0.136539  1
