# generated using pymatgen
data_LiVFeP2(HO5)2
_symmetry_space_group_name_H-M   'P 1'
_cell_length_a   5.30510875
_cell_length_b   7.41785435
_cell_length_c   14.72749827
_cell_angle_alpha   95.80045721
_cell_angle_beta   92.14622429
_cell_angle_gamma   110.15595224
_symmetry_Int_Tables_number   1
_chemical_formula_structural   LiVFeP2(HO5)2
_chemical_formula_sum   'Li3 V3 Fe3 P6 H6 O30'
_cell_volume   539.66180047
_cell_formula_units_Z   3
loop_
 _symmetry_equiv_pos_site_id
 _symmetry_equiv_pos_as_xyz
  1  'x, y, z'
loop_
 _atom_site_type_symbol
 _atom_site_label
 _atom_site_symmetry_multiplicity
 _atom_site_fract_x
 _atom_site_fract_y
 _atom_site_fract_z
 _atom_site_occupancy
  Li  Li0  1  0.078609  0.489315  0.643319  1
  Li  Li1  1  0.587488  0.177269  0.021769  1
  Li  Li2  1  0.746180  0.155058  0.311060  1
  V  V3  1  0.333265  0.333211  0.833058  1
  V  V4  1  0.666521  0.666684  0.166299  1
  V  V5  1  0.999485  0.996731  0.501623  1
  Fe  Fe6  1  0.334703  0.339679  0.334356  1
  Fe  Fe7  1  0.666939  0.673183  0.668260  1
  Fe  Fe8  1  0.997166  0.991359  0.997302  1
  P  P9  1  0.019867  0.375196  0.150500  1
  P  P10  1  0.312434  0.957383  0.182007  1
  P  P11  1  0.354717  0.710100  0.484334  1
  P  P12  1  0.642927  0.287320  0.516366  1
  P  P13  1  0.690697  0.046541  0.816632  1
  P  P14  1  0.975188  0.619139  0.849408  1
  H  H15  1  0.045129  0.983811  0.332038  1
  H  H16  1  0.288560  0.348837  0.001830  1
  H  H17  1  0.376214  0.317232  0.664129  1
  H  H18  1  0.643513  0.679333  0.335962  1
  H  H19  1  0.689358  0.653233  0.996606  1
  H  H20  1  0.977076  0.013017  0.670618  1
  O  O21  1  0.068258  0.826453  0.897871  1
  O  O22  1  0.032840  0.836926  0.213957  1
  O  O23  1  0.148972  0.806866  0.457700  1
  O  O24  1  0.300959  0.971809  0.078878  1
  O  O25  1  0.031326  0.360813  0.253831  1
  O  O26  1  0.184553  0.524805  0.875703  1
  O  O27  1  0.366537  0.696834  0.587885  1
  O  O28  1  0.043828  0.092810  0.376501  1
  O  O29  1  0.265037  0.506138  0.432038  1
  O  O30  1  0.299798  0.496476  0.118955  1
  O  O31  1  0.287524  0.239364  0.957194  1
  O  O32  1  0.527825  0.870086  0.211020  1
  O  O33  1  0.378932  0.427023  0.709186  1
  O  O34  1  0.597962  0.839152  0.768354  1
  O  O35  1  0.634743  0.832035  0.452113  1
  O  O36  1  0.363827  0.171989  0.550848  1
  O  O37  1  0.411379  0.160446  0.237509  1
  O  O38  1  0.602870  0.572083  0.285749  1
  O  O39  1  0.481577  0.141331  0.790677  1
  O  O40  1  0.730869  0.760873  0.047003  1
  O  O41  1  0.697363  0.502997  0.885156  1
  O  O42  1  0.743694  0.493489  0.568149  1
  O  O43  1  0.934093  0.905115  0.620163  1
  O  O44  1  0.617631  0.282465  0.411727  1
  O  O45  1  0.804759  0.463050  0.121950  1
  O  O46  1  0.947946  0.613377  0.744526  1
  O  O47  1  0.717376  0.052065  0.921476  1
  O  O48  1  0.860421  0.201837  0.545224  1
  O  O49  1  0.968886  0.162948  0.781201  1
  O  O50  1  0.921820  0.172484  0.095208  1
