# generated using pymatgen
data_Li2Mn3F8
_symmetry_space_group_name_H-M   'P 1'
_cell_length_a   9.45813069
_cell_length_b   9.45813069
_cell_length_c   5.67482132
_cell_angle_alpha   86.96482065
_cell_angle_beta   93.03517935
_cell_angle_gamma   141.89252524
_symmetry_Int_Tables_number   1
_chemical_formula_structural   Li2Mn3F8
_chemical_formula_sum   'Li4 Mn6 F16'
_cell_volume   312.79729561
_cell_formula_units_Z   2
loop_
 _symmetry_equiv_pos_site_id
 _symmetry_equiv_pos_as_xyz
  1  'x, y, z'
loop_
 _atom_site_type_symbol
 _atom_site_label
 _atom_site_symmetry_multiplicity
 _atom_site_fract_x
 _atom_site_fract_y
 _atom_site_fract_z
 _atom_site_occupancy
  Li  Li0  1  0.966167  0.761159  0.284451  1
  Li  Li1  1  0.238841  0.033833  0.784451  1
  Li  Li2  1  0.761159  0.966167  0.215549  1
  Li  Li3  1  0.033833  0.238841  0.715549  1
  Mn  Mn4  1  0.546263  0.131580  0.234328  1
  Mn  Mn5  1  0.868420  0.453737  0.734328  1
  Mn  Mn6  1  0.131580  0.546263  0.265672  1
  Mn  Mn7  1  0.453737  0.868420  0.765672  1
  Mn  Mn8  1  0.361012  0.361012  0.250000  1
  Mn  Mn9  1  0.638988  0.638988  0.750000  1
  F  F10  1  0.688174  0.567495  0.085486  1
  F  F11  1  0.432505  0.311826  0.585486  1
  F  F12  1  0.225372  0.060004  0.129292  1
  F  F13  1  0.939996  0.774628  0.629292  1
  F  F14  1  0.283338  0.868559  0.455335  1
  F  F15  1  0.131441  0.716662  0.955335  1
  F  F16  1  0.840767  0.468394  0.363198  1
  F  F17  1  0.531606  0.159233  0.863198  1
  F  F18  1  0.468394  0.840767  0.136802  1
  F  F19  1  0.159233  0.531606  0.636802  1
  F  F20  1  0.868559  0.283338  0.044665  1
  F  F21  1  0.716662  0.131441  0.544665  1
  F  F22  1  0.060004  0.225372  0.370708  1
  F  F23  1  0.774628  0.939996  0.870708  1
  F  F24  1  0.567495  0.688174  0.414514  1
  F  F25  1  0.311826  0.432505  0.914514  1
