# generated using pymatgen
data_Li4Fe2Cu3Sb3O16
_symmetry_space_group_name_H-M   'P 1'
_cell_length_a   6.14499450
_cell_length_b   6.14499450
_cell_length_c   9.70462824
_cell_angle_alpha   88.32052727
_cell_angle_beta   91.67947273
_cell_angle_gamma   121.12948754
_symmetry_Int_Tables_number   1
_chemical_formula_structural   Li4Fe2Cu3Sb3O16
_chemical_formula_sum   'Li4 Fe2 Cu3 Sb3 O16'
_cell_volume   313.50912651
_cell_formula_units_Z   1
loop_
 _symmetry_equiv_pos_site_id
 _symmetry_equiv_pos_as_xyz
  1  'x, y, z'
loop_
 _atom_site_type_symbol
 _atom_site_label
 _atom_site_symmetry_multiplicity
 _atom_site_fract_x
 _atom_site_fract_y
 _atom_site_fract_z
 _atom_site_occupancy
  Li  Li0  1  0.671191  0.328809  0.101332  1
  Li  Li1  1  0.009062  0.990938  0.993531  1
  Li  Li2  1  0.020292  0.979708  0.514679  1
  Li  Li3  1  0.337028  0.662972  0.616478  1
  Fe  Fe4  1  0.649026  0.350974  0.523500  1
  Fe  Fe5  1  0.321938  0.678062  0.994968  1
  Cu  Cu6  1  0.829507  0.663023  0.788605  1
  Cu  Cu7  1  0.336977  0.170493  0.788605  1
  Cu  Cu8  1  0.169685  0.830315  0.282374  1
  Sb  Sb9  1  0.827014  0.172986  0.783426  1
  Sb  Sb10  1  0.661953  0.830446  0.285523  1
  Sb  Sb11  1  0.169554  0.338047  0.285523  1
  O  O12  1  0.832993  0.678644  0.397685  1
  O  O13  1  0.520427  0.479573  0.661043  1
  O  O14  1  0.668685  0.331315  0.891745  1
  O  O15  1  0.995785  0.004215  0.698158  1
  O  O16  1  0.985263  0.014737  0.177513  1
  O  O17  1  0.321356  0.167007  0.397685  1
  O  O18  1  0.966225  0.471298  0.649954  1
  O  O19  1  0.528702  0.033775  0.649954  1
  O  O20  1  0.163288  0.836712  0.901455  1
  O  O21  1  0.846904  0.153096  0.399829  1
  O  O22  1  0.484412  0.959715  0.164518  1
  O  O23  1  0.040285  0.515588  0.164518  1
  O  O24  1  0.351971  0.648029  0.404764  1
  O  O25  1  0.664179  0.853826  0.905604  1
  O  O26  1  0.484859  0.515141  0.163680  1
  O  O27  1  0.146174  0.335821  0.905604  1
