# generated using pymatgen
data_Rb6Co2O7
_symmetry_space_group_name_H-M   'P 1'
_cell_length_a   6.91467467
_cell_length_b   9.54205432
_cell_length_c   11.70852295
_cell_angle_alpha   90.00000000
_cell_angle_beta   124.29958255
_cell_angle_gamma   90.00000000
_symmetry_Int_Tables_number   1
_chemical_formula_structural   Rb6Co2O7
_chemical_formula_sum   'Rb12 Co4 O14'
_cell_volume   638.18946684
_cell_formula_units_Z   2
loop_
 _symmetry_equiv_pos_site_id
 _symmetry_equiv_pos_as_xyz
  1  'x, y, z'
loop_
 _atom_site_type_symbol
 _atom_site_label
 _atom_site_symmetry_multiplicity
 _atom_site_fract_x
 _atom_site_fract_y
 _atom_site_fract_z
 _atom_site_occupancy
  Rb  Rb0  1  0.590501  0.790921  0.716040  1
  Rb  Rb1  1  0.952589  0.646507  0.080888  1
  Rb  Rb2  1  0.200160  0.529524  0.448068  1
  Rb  Rb3  1  0.799840  0.029524  0.051932  1
  Rb  Rb4  1  0.409499  0.290921  0.783960  1
  Rb  Rb5  1  0.047411  0.146507  0.419112  1
  Rb  Rb6  1  0.952589  0.853493  0.580888  1
  Rb  Rb7  1  0.590501  0.709079  0.216040  1
  Rb  Rb8  1  0.200160  0.970476  0.948068  1
  Rb  Rb9  1  0.799840  0.470476  0.551932  1
  Rb  Rb10  1  0.047411  0.353493  0.919112  1
  Rb  Rb11  1  0.409499  0.209079  0.283960  1
  Co  Co12  1  0.320757  0.860689  0.370167  1
  Co  Co13  1  0.679243  0.360689  0.129833  1
  Co  Co14  1  0.320757  0.639311  0.870167  1
  Co  Co15  1  0.679243  0.139311  0.629833  1
  O  O16  1  0.500000  0.000000  0.500000  1
  O  O17  1  0.748048  0.090367  0.797623  1
  O  O18  1  0.497059  0.293810  0.570784  1
  O  O19  1  0.943610  0.333055  0.135592  1
  O  O20  1  0.056390  0.833055  0.364408  1
  O  O21  1  0.502941  0.793810  0.929216  1
  O  O22  1  0.251952  0.590367  0.702377  1
  O  O23  1  0.500000  0.500000  0.000000  1
  O  O24  1  0.748048  0.409633  0.297623  1
  O  O25  1  0.497059  0.206190  0.070784  1
  O  O26  1  0.943610  0.166945  0.635592  1
  O  O27  1  0.056390  0.666945  0.864408  1
  O  O28  1  0.502941  0.706190  0.429216  1
  O  O29  1  0.251952  0.909633  0.202377  1
