# generated using pymatgen
data_Li3Cr4(PO4)6
_symmetry_space_group_name_H-M   'P 1'
_cell_length_a   8.56549418
_cell_length_b   8.56549418
_cell_length_c   6.31967404
_cell_angle_alpha   74.99547669
_cell_angle_beta   105.00452331
_cell_angle_gamma   87.56465855
_symmetry_Int_Tables_number   1
_chemical_formula_structural   Li3Cr4(PO4)6
_chemical_formula_sum   'Li3 Cr4 P6 O24'
_cell_volume   429.59150624
_cell_formula_units_Z   1
loop_
 _symmetry_equiv_pos_site_id
 _symmetry_equiv_pos_as_xyz
  1  'x, y, z'
loop_
 _atom_site_type_symbol
 _atom_site_label
 _atom_site_symmetry_multiplicity
 _atom_site_fract_x
 _atom_site_fract_y
 _atom_site_fract_z
 _atom_site_occupancy
  Li  Li0  1  0.498431  0.498979  0.750367  1
  Li  Li1  1  0.498979  0.498431  0.249633  1
  Li  Li2  1  0.018242  0.018242  0.500000  1
  Cr  Cr3  1  0.941269  0.382997  0.105861  1
  Cr  Cr4  1  0.619605  0.058971  0.610196  1
  Cr  Cr5  1  0.382997  0.941269  0.894139  1
  Cr  Cr6  1  0.058971  0.619605  0.389804  1
  P  P7  1  0.842755  0.349252  0.601092  1
  P  P8  1  0.727571  0.727571  0.000000  1
  P  P9  1  0.651583  0.157377  0.107425  1
  P  P10  1  0.349252  0.842755  0.398908  1
  P  P11  1  0.272665  0.272665  0.500000  1
  P  P12  1  0.157377  0.651583  0.892575  1
  O  O13  1  0.933224  0.417760  0.411468  1
  O  O14  1  0.967529  0.356907  0.826518  1
  O  O15  1  0.826789  0.167015  0.615087  1
  O  O16  1  0.850221  0.750511  0.214016  1
  O  O17  1  0.750511  0.850221  0.785984  1
  O  O18  1  0.835044  0.177527  0.138709  1
  O  O19  1  0.681418  0.447544  0.551172  1
  O  O20  1  0.643296  0.028851  0.328512  1
  O  O21  1  0.748987  0.552919  0.971869  1
  O  O22  1  0.586568  0.067967  0.914941  1
  O  O23  1  0.447544  0.681418  0.448828  1
  O  O24  1  0.552919  0.748987  0.028131  1
  O  O25  1  0.446062  0.251208  0.470880  1
  O  O26  1  0.549949  0.318588  0.050328  1
  O  O27  1  0.417760  0.933224  0.588532  1
  O  O28  1  0.251208  0.446062  0.529120  1
  O  O29  1  0.356907  0.967529  0.173482  1
  O  O30  1  0.318588  0.549949  0.949672  1
  O  O31  1  0.167015  0.826789  0.384913  1
  O  O32  1  0.246064  0.144954  0.709015  1
  O  O33  1  0.144954  0.246064  0.290985  1
  O  O34  1  0.177527  0.835044  0.861291  1
  O  O35  1  0.028851  0.643296  0.671488  1
  O  O36  1  0.067967  0.586568  0.085059  1
