# generated using pymatgen
data_Li2Mo(PO4)2
_symmetry_space_group_name_H-M   'P 1'
_cell_length_a   4.95365638
_cell_length_b   17.86117878
_cell_length_c   6.81480944
_cell_angle_alpha   90.00000000
_cell_angle_beta   94.97998881
_cell_angle_gamma   90.00000000
_symmetry_Int_Tables_number   1
_chemical_formula_structural   Li2Mo(PO4)2
_chemical_formula_sum   'Li8 Mo4 P8 O32'
_cell_volume   600.68554525
_cell_formula_units_Z   4
loop_
 _symmetry_equiv_pos_site_id
 _symmetry_equiv_pos_as_xyz
  1  'x, y, z'
loop_
 _atom_site_type_symbol
 _atom_site_label
 _atom_site_symmetry_multiplicity
 _atom_site_fract_x
 _atom_site_fract_y
 _atom_site_fract_z
 _atom_site_occupancy
  Li  Li0  1  0.534030  0.613139  0.221619  1
  Li  Li1  1  0.047244  0.692643  0.401617  1
  Li  Li2  1  0.952756  0.192643  0.598383  1
  Li  Li3  1  0.540338  0.940163  0.564738  1
  Li  Li4  1  0.962789  0.379709  0.235759  1
  Li  Li5  1  0.037211  0.879709  0.764241  1
  Li  Li6  1  0.465970  0.113139  0.778381  1
  Li  Li7  1  0.459662  0.440163  0.435262  1
  Mo  Mo8  1  0.553800  0.628283  0.747492  1
  Mo  Mo9  1  0.962313  0.371465  0.769467  1
  Mo  Mo10  1  0.446200  0.128283  0.252508  1
  Mo  Mo11  1  0.037687  0.871465  0.230533  1
  P  P12  1  0.585438  0.786776  0.470444  1
  P  P13  1  0.912390  0.215539  0.026747  1
  P  P14  1  0.414562  0.286776  0.529556  1
  P  P15  1  0.015133  0.538893  0.525867  1
  P  P16  1  0.984867  0.038893  0.474133  1
  P  P17  1  0.484001  0.464261  0.983515  1
  P  P18  1  0.087610  0.715539  0.973253  1
  P  P19  1  0.515999  0.964261  0.016485  1
  O  O20  1  0.631416  0.701810  0.513835  1
  O  O21  1  0.774601  0.195520  0.219570  1
  O  O22  1  0.225399  0.695520  0.780430  1
  O  O23  1  0.093632  0.802928  0.987265  1
  O  O24  1  0.470309  0.550971  0.966860  1
  O  O25  1  0.906368  0.302928  0.012735  1
  O  O26  1  0.885639  0.564905  0.714409  1
  O  O27  1  0.114361  0.064905  0.285591  1
  O  O28  1  0.623804  0.440575  0.179791  1
  O  O29  1  0.324982  0.563190  0.540519  1
  O  O30  1  0.121743  0.073959  0.656947  1
  O  O31  1  0.216282  0.189321  0.054982  1
  O  O32  1  0.699734  0.838259  0.632770  1
  O  O33  1  0.725787  0.302975  0.573606  1
  O  O34  1  0.383182  0.932085  0.199878  1
  O  O35  1  0.817654  0.934323  0.032149  1
  O  O36  1  0.182346  0.434323  0.967851  1
  O  O37  1  0.224656  0.679849  0.156699  1
  O  O38  1  0.020239  0.450762  0.529144  1
  O  O39  1  0.979761  0.950762  0.470856  1
  O  O40  1  0.529691  0.050971  0.033140  1
  O  O41  1  0.775344  0.179849  0.843301  1
  O  O42  1  0.675018  0.063190  0.459481  1
  O  O43  1  0.734435  0.798571  0.277592  1
  O  O44  1  0.265565  0.298571  0.722408  1
  O  O45  1  0.274213  0.802975  0.426394  1
  O  O46  1  0.783718  0.689321  0.945018  1
  O  O47  1  0.376196  0.940575  0.820209  1
  O  O48  1  0.878257  0.573959  0.343053  1
  O  O49  1  0.616818  0.432085  0.800122  1
  O  O50  1  0.368584  0.201810  0.486165  1
  O  O51  1  0.300266  0.338259  0.367230  1
