# generated using pymatgen
data_SnH10Cl4O5
_symmetry_space_group_name_H-M   'P 1'
_cell_length_a   8.03028795
_cell_length_b   8.03028795
_cell_length_c   8.77589543
_cell_angle_alpha   79.65526075
_cell_angle_beta   100.34473925
_cell_angle_gamma   102.11061055
_symmetry_Int_Tables_number   1
_chemical_formula_structural   SnH10Cl4O5
_chemical_formula_sum   'Sn2 H20 Cl8 O10'
_cell_volume   538.37333683
_cell_formula_units_Z   2
loop_
 _symmetry_equiv_pos_site_id
 _symmetry_equiv_pos_as_xyz
  1  'x, y, z'
loop_
 _atom_site_type_symbol
 _atom_site_label
 _atom_site_symmetry_multiplicity
 _atom_site_fract_x
 _atom_site_fract_y
 _atom_site_fract_z
 _atom_site_occupancy
  Sn  Sn0  1  0.254650  0.254650  0.250000  1
  Sn  Sn1  1  0.745350  0.745350  0.750000  1
  H  H2  1  0.854271  0.417311  0.239419  1
  H  H3  1  0.582689  0.145729  0.739419  1
  H  H4  1  0.782322  0.588864  0.221359  1
  H  H5  1  0.603286  0.373432  0.329618  1
  H  H6  1  0.525772  0.301165  0.501979  1
  H  H7  1  0.411136  0.217678  0.721359  1
  H  H8  1  0.626568  0.396714  0.829618  1
  H  H9  1  0.891730  0.842291  0.340144  1
  H  H10  1  0.842291  0.891730  0.159856  1
  H  H11  1  0.698835  0.474228  0.001979  1
  H  H12  1  0.301165  0.525772  0.998021  1
  H  H13  1  0.157709  0.108270  0.840144  1
  H  H14  1  0.108270  0.157709  0.659856  1
  H  H15  1  0.373432  0.603286  0.170382  1
  H  H16  1  0.588864  0.782322  0.278641  1
  H  H17  1  0.474228  0.698835  0.498021  1
  H  H18  1  0.396714  0.626568  0.670382  1
  H  H19  1  0.217678  0.411136  0.778641  1
  H  H20  1  0.417311  0.854271  0.260581  1
  H  H21  1  0.145729  0.582689  0.760581  1
  Cl  Cl22  1  0.987150  0.211200  0.070601  1
  Cl  Cl23  1  0.788800  0.012850  0.570601  1
  Cl  Cl24  1  0.411299  0.133511  0.098115  1
  Cl  Cl25  1  0.866489  0.588701  0.598115  1
  Cl  Cl26  1  0.133511  0.411299  0.401885  1
  Cl  Cl27  1  0.588701  0.866489  0.901885  1
  Cl  Cl28  1  0.211200  0.987150  0.429399  1
  Cl  Cl29  1  0.012850  0.788800  0.929399  1
  O  O30  1  0.749035  0.465863  0.203424  1
  O  O31  1  0.534137  0.250965  0.703424  1
  O  O32  1  0.500067  0.340666  0.386385  1
  O  O33  1  0.808121  0.808121  0.250000  1
  O  O34  1  0.659334  0.499933  0.886385  1
  O  O35  1  0.340666  0.500067  0.113615  1
  O  O36  1  0.191879  0.191879  0.750000  1
  O  O37  1  0.499933  0.659334  0.613615  1
  O  O38  1  0.465863  0.749035  0.296576  1
  O  O39  1  0.250965  0.534137  0.796576  1
