# generated using pymatgen
data_Li2CrO4
_symmetry_space_group_name_H-M   'P 1'
_cell_length_a   5.06824977
_cell_length_b   5.36152769
_cell_length_c   6.65923319
_cell_angle_alpha   90.00000000
_cell_angle_beta   90.00000000
_cell_angle_gamma   90.00000000
_symmetry_Int_Tables_number   1
_chemical_formula_structural   Li2CrO4
_chemical_formula_sum   'Li4 Cr2 O8'
_cell_volume   180.95508251
_cell_formula_units_Z   2
loop_
 _symmetry_equiv_pos_site_id
 _symmetry_equiv_pos_as_xyz
  1  'x, y, z'
loop_
 _atom_site_type_symbol
 _atom_site_label
 _atom_site_symmetry_multiplicity
 _atom_site_fract_x
 _atom_site_fract_y
 _atom_site_fract_z
 _atom_site_occupancy
  Li  Li0  1  0.007474  0.177959  0.246404  1
  Li  Li1  1  0.507474  0.822041  0.253596  1
  Li  Li2  1  0.507474  0.822041  0.746404  1
  Li  Li3  1  0.007474  0.177959  0.753596  1
  Cr  Cr4  1  0.998294  0.678120  0.000000  1
  Cr  Cr5  1  0.498294  0.321880  0.500000  1
  O  O6  1  0.084110  0.378894  0.000000  1
  O  O7  1  0.671406  0.703899  0.000000  1
  O  O8  1  0.115670  0.821669  0.203248  1
  O  O9  1  0.615670  0.178331  0.296752  1
  O  O10  1  0.171406  0.296101  0.500000  1
  O  O11  1  0.584110  0.621106  0.500000  1
  O  O12  1  0.615670  0.178331  0.703248  1
  O  O13  1  0.115670  0.821669  0.796752  1
