# generated using pymatgen
data_CaH8(NO5)2
_symmetry_space_group_name_H-M   'P 1'
_cell_length_a   6.44824165
_cell_length_b   9.21019326
_cell_length_c   15.20230150
_cell_angle_alpha   90.00000000
_cell_angle_beta   105.73978727
_cell_angle_gamma   90.00000000
_symmetry_Int_Tables_number   1
_chemical_formula_structural   CaH8(NO5)2
_chemical_formula_sum   'Ca4 H32 N8 O40'
_cell_volume   869.00395598
_cell_formula_units_Z   4
loop_
 _symmetry_equiv_pos_site_id
 _symmetry_equiv_pos_as_xyz
  1  'x, y, z'
loop_
 _atom_site_type_symbol
 _atom_site_label
 _atom_site_symmetry_multiplicity
 _atom_site_fract_x
 _atom_site_fract_y
 _atom_site_fract_z
 _atom_site_occupancy
  Ca  Ca0  1  0.677742  0.585820  0.134176  1
  Ca  Ca1  1  0.677742  0.914180  0.634176  1
  Ca  Ca2  1  0.322258  0.414180  0.865824  1
  Ca  Ca3  1  0.322258  0.085820  0.365824  1
  H  H4  1  0.386643  0.886644  0.760424  1
  H  H5  1  0.386643  0.613356  0.260424  1
  H  H6  1  0.613357  0.113356  0.239576  1
  H  H7  1  0.613357  0.386644  0.739576  1
  H  H8  1  0.573102  0.553989  0.747103  1
  H  H9  1  0.573102  0.946011  0.247103  1
  H  H10  1  0.426898  0.446011  0.252897  1
  H  H11  1  0.426898  0.053989  0.752897  1
  H  H12  1  0.033003  0.848840  0.408598  1
  H  H13  1  0.033003  0.651160  0.908598  1
  H  H14  1  0.966997  0.151160  0.591402  1
  H  H15  1  0.966997  0.348840  0.091402  1
  H  H16  1  0.934743  0.998334  0.424987  1
  H  H17  1  0.934743  0.501666  0.924987  1
  H  H18  1  0.065257  0.001666  0.575013  1
  H  H19  1  0.065257  0.498334  0.075013  1
  H  H20  1  0.953896  0.863267  0.143022  1
  H  H21  1  0.953896  0.636733  0.643022  1
  H  H22  1  0.046104  0.136733  0.856978  1
  H  H23  1  0.046104  0.363267  0.356978  1
  H  H24  1  0.847667  0.818314  0.041086  1
  H  H25  1  0.847667  0.681686  0.541086  1
  H  H26  1  0.152333  0.181686  0.958914  1
  H  H27  1  0.152333  0.318314  0.458914  1
  H  H28  1  0.273099  0.715312  0.612207  1
  H  H29  1  0.273099  0.784688  0.112207  1
  H  H30  1  0.726901  0.284688  0.387793  1
  H  H31  1  0.726901  0.215312  0.887793  1
  H  H32  1  0.433583  0.630152  0.570117  1
  H  H33  1  0.433583  0.869848  0.070117  1
  H  H34  1  0.566417  0.369848  0.429883  1
  H  H35  1  0.566417  0.130152  0.929883  1
  N  N36  1  0.485106  0.733882  0.909299  1
  N  N37  1  0.485106  0.766118  0.409299  1
  N  N38  1  0.514894  0.266118  0.090701  1
  N  N39  1  0.514894  0.233882  0.590701  1
  N  N40  1  0.924614  0.627236  0.326905  1
  N  N41  1  0.924614  0.872764  0.826905  1
  N  N42  1  0.075386  0.372764  0.673095  1
  N  N43  1  0.075386  0.127236  0.173095  1
  O  O44  1  0.358974  0.718362  0.830070  1
  O  O45  1  0.358974  0.781638  0.330070  1
  O  O46  1  0.641026  0.281638  0.169930  1
  O  O47  1  0.641026  0.218362  0.669930  1
  O  O48  1  0.541604  0.619253  0.958209  1
  O  O49  1  0.541604  0.880747  0.458209  1
  O  O50  1  0.458396  0.380747  0.041791  1
  O  O51  1  0.458396  0.119253  0.541791  1
  O  O52  1  0.554146  0.856264  0.940002  1
  O  O53  1  0.554146  0.643736  0.440002  1
  O  O54  1  0.445854  0.143736  0.059998  1
  O  O55  1  0.445854  0.356264  0.559998  1
  O  O56  1  0.813026  0.728239  0.280394  1
  O  O57  1  0.813026  0.771761  0.780394  1
  O  O58  1  0.186974  0.271761  0.719606  1
  O  O59  1  0.186974  0.228239  0.219606  1
  O  O60  1  0.020029  0.644084  0.409712  1
  O  O61  1  0.020029  0.855916  0.909712  1
  O  O62  1  0.979971  0.355916  0.590288  1
  O  O63  1  0.979971  0.144084  0.090288  1
  O  O64  1  0.936386  0.507073  0.285706  1
  O  O65  1  0.936386  0.992927  0.785706  1
  O  O66  1  0.063614  0.492927  0.714294  1
  O  O67  1  0.063614  0.007073  0.214294  1
  O  O68  1  0.415157  0.962326  0.719301  1
  O  O69  1  0.415157  0.537674  0.219301  1
  O  O70  1  0.584843  0.037674  0.280699  1
  O  O71  1  0.584843  0.462326  0.780699  1
  O  O72  1  0.070261  0.951010  0.424717  1
  O  O73  1  0.070261  0.548990  0.924717  1
  O  O74  1  0.929739  0.048990  0.575283  1
  O  O75  1  0.929739  0.451010  0.075283  1
  O  O76  1  0.920338  0.777807  0.101218  1
  O  O77  1  0.920338  0.722193  0.601218  1
  O  O78  1  0.079662  0.222193  0.898782  1
  O  O79  1  0.079662  0.277807  0.398782  1
  O  O80  1  0.426934  0.700832  0.617243  1
  O  O81  1  0.426934  0.799168  0.117243  1
  O  O82  1  0.573066  0.299168  0.382757  1
  O  O83  1  0.573066  0.200832  0.882757  1
