# generated using pymatgen
data_Li2CoSiO4
_symmetry_space_group_name_H-M   'P 1'
_cell_length_a   5.23491298
_cell_length_b   10.25565187
_cell_length_c   13.39567177
_cell_angle_alpha   90.00000000
_cell_angle_beta   90.00000000
_cell_angle_gamma   90.00000000
_symmetry_Int_Tables_number   1
_chemical_formula_structural   Li2CoSiO4
_chemical_formula_sum   'Li16 Co8 Si8 O32'
_cell_volume   719.17939263
_cell_formula_units_Z   8
loop_
 _symmetry_equiv_pos_site_id
 _symmetry_equiv_pos_as_xyz
  1  'x, y, z'
loop_
 _atom_site_type_symbol
 _atom_site_label
 _atom_site_symmetry_multiplicity
 _atom_site_fract_x
 _atom_site_fract_y
 _atom_site_fract_z
 _atom_site_occupancy
  Li  Li0  1  0.000001  0.013485  0.553251  1
  Li  Li1  1  0.499552  0.031095  0.946870  1
  Li  Li2  1  0.593235  0.786418  0.299222  1
  Li  Li3  1  0.113334  0.793181  0.205405  1
  Li  Li4  1  0.113334  0.706819  0.705405  1
  Li  Li5  1  0.593235  0.713582  0.799222  1
  Li  Li6  1  0.499552  0.468905  0.446870  1
  Li  Li7  1  0.000001  0.486515  0.053251  1
  Li  Li8  1  0.500448  0.531095  0.946870  1
  Li  Li9  1  0.999999  0.513485  0.553251  1
  Li  Li10  1  0.406765  0.286418  0.299222  1
  Li  Li11  1  0.886666  0.293181  0.205405  1
  Li  Li12  1  0.886666  0.206819  0.705405  1
  Li  Li13  1  0.406765  0.213582  0.799222  1
  Li  Li14  1  0.500448  0.968905  0.446870  1
  Li  Li15  1  0.999999  0.986515  0.053251  1
  Co  Co16  1  0.000395  0.968610  0.812180  1
  Co  Co17  1  0.491121  0.786479  0.062342  1
  Co  Co18  1  0.491121  0.713521  0.562342  1
  Co  Co19  1  0.000395  0.531390  0.312180  1
  Co  Co20  1  0.999605  0.468610  0.812180  1
  Co  Co21  1  0.508879  0.286479  0.062342  1
  Co  Co22  1  0.508879  0.213521  0.562342  1
  Co  Co23  1  0.999605  0.031390  0.312180  1
  Si  Si24  1  0.492908  0.969812  0.691355  1
  Si  Si25  1  0.996178  0.782368  0.433721  1
  Si  Si26  1  0.996178  0.717632  0.933721  1
  Si  Si27  1  0.492908  0.530188  0.191355  1
  Si  Si28  1  0.507092  0.469812  0.691355  1
  Si  Si29  1  0.003822  0.282368  0.433721  1
  Si  Si30  1  0.003822  0.217632  0.933721  1
  Si  Si31  1  0.507092  0.030188  0.191355  1
  O  O32  1  0.634980  0.976824  0.297326  1
  O  O33  1  0.201745  0.986586  0.189817  1
  O  O34  1  0.150367  0.920048  0.419226  1
  O  O35  1  0.638371  0.960443  0.093126  1
  O  O36  1  0.434610  0.810494  0.689950  1
  O  O37  1  0.933757  0.779565  0.821478  1
  O  O38  1  0.723798  0.822222  0.486184  1
  O  O39  1  0.159436  0.825052  0.998627  1
  O  O40  1  0.159436  0.674948  0.498627  1
  O  O41  1  0.723798  0.677778  0.986184  1
  O  O42  1  0.933757  0.720435  0.321478  1
  O  O43  1  0.434610  0.689506  0.189950  1
  O  O44  1  0.638371  0.539557  0.593126  1
  O  O45  1  0.150367  0.579952  0.919226  1
  O  O46  1  0.201745  0.513414  0.689817  1
  O  O47  1  0.634980  0.523176  0.797326  1
  O  O48  1  0.365020  0.476824  0.297326  1
  O  O49  1  0.798255  0.486586  0.189817  1
  O  O50  1  0.849633  0.420048  0.419226  1
  O  O51  1  0.361629  0.460443  0.093126  1
  O  O52  1  0.565390  0.310494  0.689950  1
  O  O53  1  0.066243  0.279565  0.821478  1
  O  O54  1  0.276202  0.322222  0.486184  1
  O  O55  1  0.840564  0.325052  0.998627  1
  O  O56  1  0.840564  0.174948  0.498627  1
  O  O57  1  0.276202  0.177778  0.986184  1
  O  O58  1  0.066243  0.220435  0.321478  1
  O  O59  1  0.565390  0.189506  0.189950  1
  O  O60  1  0.361629  0.039557  0.593126  1
  O  O61  1  0.849633  0.079952  0.919226  1
  O  O62  1  0.798255  0.013414  0.689817  1
  O  O63  1  0.365020  0.023176  0.797326  1
