# generated using pymatgen
data_Li3Cr(BO3)2
_symmetry_space_group_name_H-M   'P 1'
_cell_length_a   5.21575045
_cell_length_b   6.05078569
_cell_length_c   7.57220900
_cell_angle_alpha   76.02969349
_cell_angle_beta   89.21948813
_cell_angle_gamma   87.89172810
_symmetry_Int_Tables_number   1
_chemical_formula_structural   Li3Cr(BO3)2
_chemical_formula_sum   'Li6 Cr2 B4 O12'
_cell_volume   231.74590846
_cell_formula_units_Z   2
loop_
 _symmetry_equiv_pos_site_id
 _symmetry_equiv_pos_as_xyz
  1  'x, y, z'
loop_
 _atom_site_type_symbol
 _atom_site_label
 _atom_site_symmetry_multiplicity
 _atom_site_fract_x
 _atom_site_fract_y
 _atom_site_fract_z
 _atom_site_occupancy
  Li  Li0  1  0.187657  0.918435  0.899737  1
  Li  Li1  1  0.312068  0.050633  0.248029  1
  Li  Li2  1  0.372751  0.753496  0.564846  1
  Li  Li3  1  0.627249  0.246504  0.435154  1
  Li  Li4  1  0.687932  0.949367  0.751971  1
  Li  Li5  1  0.812343  0.081565  0.100263  1
  Cr  Cr6  1  0.102363  0.571102  0.217824  1
  Cr  Cr7  1  0.897637  0.428898  0.782176  1
  B  B8  1  0.168823  0.183117  0.562903  1
  B  B9  1  0.342811  0.341087  0.887802  1
  B  B10  1  0.657189  0.658913  0.112198  1
  B  B11  1  0.831177  0.816883  0.437097  1
  O  O12  1  0.083420  0.789922  0.370436  1
  O  O13  1  0.254675  0.508460  0.742683  1
  O  O14  1  0.140283  0.227431  0.996602  1
  O  O15  1  0.243281  0.299110  0.388642  1
  O  O16  1  0.336931  0.028418  0.664543  1
  O  O17  1  0.405401  0.714908  0.076834  1
  O  O18  1  0.594599  0.285092  0.923166  1
  O  O19  1  0.663069  0.971582  0.335457  1
  O  O20  1  0.756719  0.700890  0.611358  1
  O  O21  1  0.859717  0.772569  0.003398  1
  O  O22  1  0.745325  0.491540  0.257317  1
  O  O23  1  0.916580  0.210078  0.629564  1
