# generated using pymatgen
data_Bi14SO24
_symmetry_space_group_name_H-M   'P 1'
_cell_length_a   10.66882867
_cell_length_b   10.66882867
_cell_length_c   8.80437132
_cell_angle_alpha   65.61305641
_cell_angle_beta   114.38694359
_cell_angle_gamma   71.56884689
_symmetry_Int_Tables_number   1
_chemical_formula_structural   Bi14SO24
_chemical_formula_sum   'Bi14 S1 O24'
_cell_volume   673.20925718
_cell_formula_units_Z   1
loop_
 _symmetry_equiv_pos_site_id
 _symmetry_equiv_pos_as_xyz
  1  'x, y, z'
loop_
 _atom_site_type_symbol
 _atom_site_label
 _atom_site_symmetry_multiplicity
 _atom_site_fract_x
 _atom_site_fract_y
 _atom_site_fract_z
 _atom_site_occupancy
  Bi  Bi0  1  0.216043  0.783957  0.772725  1
  Bi  Bi1  1  0.469230  0.870996  0.187840  1
  Bi  Bi2  1  0.720850  0.940566  0.592579  1
  Bi  Bi3  1  0.444779  0.555221  0.659503  1
  Bi  Bi4  1  0.659541  0.659325  0.002888  1
  Bi  Bi5  1  0.560710  0.439290  0.348182  1
  Bi  Bi6  1  0.941886  0.722399  0.407253  1
  Bi  Bi7  1  0.869657  0.467104  0.809693  1
  Bi  Bi8  1  0.788260  0.211740  0.228210  1
  Bi  Bi9  1  0.129004  0.530770  0.187840  1
  Bi  Bi10  1  0.059434  0.279150  0.592579  1
  Bi  Bi11  1  0.340675  0.340459  0.002888  1
  Bi  Bi12  1  0.277601  0.058114  0.407253  1
  Bi  Bi13  1  0.532896  0.130343  0.809693  1
  S  S14  1  0.975284  0.024716  0.993870  1
  O  O15  1  0.497888  0.992130  0.676303  1
  O  O16  1  0.395830  0.760432  0.695777  1
  O  O17  1  0.455940  0.701763  0.059873  1
  O  O18  1  0.672230  0.820316  0.169473  1
  O  O19  1  0.619018  0.619713  0.500191  1
  O  O20  1  0.879889  0.881159  0.499649  1
  O  O21  1  0.977719  0.880690  0.002575  1
  O  O22  1  0.822272  0.668003  0.829868  1
  O  O23  1  0.700702  0.455777  0.938252  1
  O  O24  1  0.762535  0.395306  0.306783  1
  O  O25  1  0.007870  0.502112  0.676303  1
  O  O26  1  0.990826  0.499895  0.322418  1
  O  O27  1  0.239568  0.604170  0.695777  1
  O  O28  1  0.809918  0.190082  0.790143  1
  O  O29  1  0.298237  0.544060  0.059873  1
  O  O30  1  0.179684  0.327770  0.169473  1
  O  O31  1  0.993369  0.006631  0.181743  1
  O  O32  1  0.118841  0.120111  0.499649  1
  O  O33  1  0.380287  0.380982  0.500191  1
  O  O34  1  0.119310  0.022281  0.002575  1
  O  O35  1  0.331997  0.177728  0.829868  1
  O  O36  1  0.544223  0.299298  0.938252  1
  O  O37  1  0.604694  0.237465  0.306783  1
  O  O38  1  0.500105  0.009174  0.322418  1
