# generated using pymatgen
data_P2Pb3O8
_symmetry_space_group_name_H-M   'P 1'
_cell_length_a   9.97489653
_cell_length_b   9.97489653
_cell_length_c   14.65975452
_cell_angle_alpha   90.00000000
_cell_angle_beta   90.00000000
_cell_angle_gamma   120.00000000
_symmetry_Int_Tables_number   1
_chemical_formula_structural   P2Pb3O8
_chemical_formula_sum   'P12 Pb18 O48'
_cell_volume   1263.20585145
_cell_formula_units_Z   6
loop_
 _symmetry_equiv_pos_site_id
 _symmetry_equiv_pos_as_xyz
  1  'x, y, z'
loop_
 _atom_site_type_symbol
 _atom_site_label
 _atom_site_symmetry_multiplicity
 _atom_site_fract_x
 _atom_site_fract_y
 _atom_site_fract_z
 _atom_site_occupancy
  P  P0  1  0.018836  0.626043  0.375090  1
  P  P1  1  0.020559  0.627515  0.876269  1
  P  P2  1  0.607207  0.981164  0.375090  1
  P  P3  1  0.606956  0.979441  0.876269  1
  P  P4  1  0.372485  0.393044  0.876269  1
  P  P5  1  0.373957  0.392793  0.375090  1
  P  P6  1  0.626043  0.607207  0.624910  1
  P  P7  1  0.627515  0.606956  0.123731  1
  P  P8  1  0.392793  0.018836  0.624910  1
  P  P9  1  0.393044  0.020559  0.123731  1
  P  P10  1  0.981164  0.373957  0.624910  1
  P  P11  1  0.979441  0.372485  0.123731  1
  Pb  Pb12  1  0.995181  0.739049  0.628602  1
  Pb  Pb13  1  0.009716  0.745397  0.127144  1
  Pb  Pb14  1  0.333333  0.666667  0.017489  1
  Pb  Pb15  1  0.333333  0.666667  0.487903  1
  Pb  Pb16  1  0.333333  0.666667  0.748424  1
  Pb  Pb17  1  0.260951  0.256132  0.628602  1
  Pb  Pb18  1  0.254603  0.264319  0.127144  1
  Pb  Pb19  1  0.735681  0.990284  0.127144  1
  Pb  Pb20  1  0.743868  0.004819  0.628602  1
  Pb  Pb21  1  0.256132  0.995181  0.371398  1
  Pb  Pb22  1  0.264319  0.009716  0.872856  1
  Pb  Pb23  1  0.739049  0.743868  0.371398  1
  Pb  Pb24  1  0.745397  0.735681  0.872856  1
  Pb  Pb25  1  0.666667  0.333333  0.512097  1
  Pb  Pb26  1  0.666667  0.333333  0.982511  1
  Pb  Pb27  1  0.666667  0.333333  0.251576  1
  Pb  Pb28  1  0.990284  0.254603  0.872856  1
  Pb  Pb29  1  0.004819  0.260951  0.371398  1
  O  O30  1  0.081659  0.734265  0.789935  1
  O  O31  1  0.071260  0.736856  0.291418  1
  O  O32  1  0.087049  0.736636  0.960867  1
  O  O33  1  0.081475  0.734343  0.460639  1
  O  O34  1  0.095639  0.522148  0.376719  1
  O  O35  1  0.093569  0.519194  0.874495  1
  O  O36  1  0.317583  0.838875  0.624169  1
  O  O37  1  0.310202  0.842337  0.122632  1
  O  O38  1  0.161125  0.478708  0.624169  1
  O  O39  1  0.157663  0.467865  0.122632  1
  O  O40  1  0.426509  0.904361  0.376719  1
  O  O41  1  0.425624  0.906431  0.874495  1
  O  O42  1  0.265735  0.347394  0.789935  1
  O  O43  1  0.263364  0.350414  0.960867  1
  O  O44  1  0.263144  0.334404  0.291418  1
  O  O45  1  0.265657  0.347132  0.460639  1
  O  O46  1  0.521292  0.682417  0.624169  1
  O  O47  1  0.532135  0.689798  0.122632  1
  O  O48  1  0.477852  0.573491  0.376719  1
  O  O49  1  0.480806  0.574376  0.874495  1
  O  O50  1  0.649586  0.912951  0.960867  1
  O  O51  1  0.652868  0.918525  0.460639  1
  O  O52  1  0.652606  0.918341  0.789935  1
  O  O53  1  0.665596  0.928740  0.291418  1
  O  O54  1  0.334404  0.071260  0.708582  1
  O  O55  1  0.350414  0.087049  0.039133  1
  O  O56  1  0.347394  0.081659  0.210065  1
  O  O57  1  0.347132  0.081475  0.539361  1
  O  O58  1  0.522148  0.426509  0.623281  1
  O  O59  1  0.519194  0.425624  0.125505  1
  O  O60  1  0.467865  0.310202  0.877368  1
  O  O61  1  0.478708  0.317583  0.375831  1
  O  O62  1  0.734343  0.652868  0.539361  1
  O  O63  1  0.736856  0.665596  0.708582  1
  O  O64  1  0.736636  0.649586  0.039133  1
  O  O65  1  0.734265  0.652606  0.210065  1
  O  O66  1  0.574376  0.093569  0.125505  1
  O  O67  1  0.573491  0.095639  0.623281  1
  O  O68  1  0.842337  0.532135  0.877368  1
  O  O69  1  0.838875  0.521292  0.375831  1
  O  O70  1  0.689798  0.157663  0.877368  1
  O  O71  1  0.682417  0.161125  0.375831  1
  O  O72  1  0.904361  0.477852  0.623281  1
  O  O73  1  0.906431  0.480806  0.125505  1
  O  O74  1  0.918525  0.265657  0.539361  1
  O  O75  1  0.928740  0.263144  0.708582  1
  O  O76  1  0.912951  0.263364  0.039133  1
  O  O77  1  0.918341  0.265735  0.210065  1
