# generated using pymatgen
data_Li3Sb2(PO4)3
_symmetry_space_group_name_H-M   'P 1'
_cell_length_a   5.14272736
_cell_length_b   5.14272736
_cell_length_c   20.09506593
_cell_angle_alpha   89.89607580
_cell_angle_beta   90.10392420
_cell_angle_gamma   112.92325964
_symmetry_Int_Tables_number   1
_chemical_formula_structural   Li3Sb2(PO4)3
_chemical_formula_sum   'Li6 Sb4 P6 O24'
_cell_volume   489.49464030
_cell_formula_units_Z   2
loop_
 _symmetry_equiv_pos_site_id
 _symmetry_equiv_pos_as_xyz
  1  'x, y, z'
loop_
 _atom_site_type_symbol
 _atom_site_label
 _atom_site_symmetry_multiplicity
 _atom_site_fract_x
 _atom_site_fract_y
 _atom_site_fract_z
 _atom_site_occupancy
  Li  Li0  1  0.999307  0.000693  0.162558  1
  Li  Li1  1  0.660598  0.339402  0.907140  1
  Li  Li2  1  0.662930  0.337070  0.239695  1
  Li  Li3  1  0.337070  0.662930  0.760305  1
  Li  Li4  1  0.000693  0.999307  0.837442  1
  Li  Li5  1  0.339402  0.660598  0.092860  1
  Sb  Sb6  1  0.000000  1.000000  0.500000  1
  Sb  Sb7  1  0.008766  0.991234  0.325041  1
  Sb  Sb8  1  0.991234  0.008766  0.674959  1
  Sb  Sb9  1  0.000000  0.000000  0.000000  1
  P  P10  1  0.646124  0.353876  0.757983  1
  P  P11  1  0.645771  0.354229  0.084679  1
  P  P12  1  0.644046  0.355954  0.410226  1
  P  P13  1  0.355954  0.644046  0.589774  1
  P  P14  1  0.354229  0.645771  0.915321  1
  P  P15  1  0.353876  0.646124  0.242017  1
  O  O16  1  0.764203  0.689596  0.413964  1
  O  O17  1  0.750037  0.687812  0.755952  1
  O  O18  1  0.751607  0.688577  0.085261  1
  O  O19  1  0.688577  0.751607  0.914739  1
  O  O20  1  0.689596  0.764203  0.586036  1
  O  O21  1  0.687812  0.750037  0.244048  1
  O  O22  1  0.249829  0.750171  0.528491  1
  O  O23  1  0.247005  0.752995  0.855115  1
  O  O24  1  0.251219  0.748781  0.180600  1
  O  O25  1  0.724674  0.275326  0.341760  1
  O  O26  1  0.253471  0.746529  0.306368  1
  O  O27  1  0.264314  0.735686  0.983074  1
  O  O28  1  0.275326  0.724674  0.658240  1
  O  O29  1  0.750171  0.249829  0.471509  1
  O  O30  1  0.746529  0.253471  0.693632  1
  O  O31  1  0.748781  0.251219  0.819400  1
  O  O32  1  0.735686  0.264314  0.016926  1
  O  O33  1  0.752995  0.247005  0.144885  1
  O  O34  1  0.235797  0.310404  0.586036  1
  O  O35  1  0.249963  0.312188  0.244048  1
  O  O36  1  0.248393  0.311423  0.914739  1
  O  O37  1  0.310404  0.235797  0.413964  1
  O  O38  1  0.311423  0.248393  0.085261  1
  O  O39  1  0.312188  0.249963  0.755952  1
