# generated using pymatgen
data_Li2Fe3NiO8
_symmetry_space_group_name_H-M   'P 1'
_cell_length_a   5.90392011
_cell_length_b   5.92289020
_cell_length_c   5.97287449
_cell_angle_alpha   119.39989522
_cell_angle_beta   90.18672267
_cell_angle_gamma   119.54851845
_symmetry_Int_Tables_number   1
_chemical_formula_structural   Li2Fe3NiO8
_chemical_formula_sum   'Li2 Fe3 Ni1 O8'
_cell_volume   149.77238455
_cell_formula_units_Z   1
loop_
 _symmetry_equiv_pos_site_id
 _symmetry_equiv_pos_as_xyz
  1  'x, y, z'
loop_
 _atom_site_type_symbol
 _atom_site_label
 _atom_site_symmetry_multiplicity
 _atom_site_fract_x
 _atom_site_fract_y
 _atom_site_fract_z
 _atom_site_occupancy
  Li  Li0  1  0.500000  0.000000  0.500000  1
  Li  Li1  1  0.500000  0.500000  0.500000  1
  Fe  Fe2  1  0.500000  0.500000  0.000000  1
  Fe  Fe3  1  0.000000  0.500000  0.000000  1
  Fe  Fe4  1  0.500000  0.000000  0.000000  1
  Ni  Ni5  1  0.000000  0.000000  0.000000  1
  O  O6  1  0.737780  0.229674  0.790639  1
  O  O7  1  0.273294  0.728063  0.782935  1
  O  O8  1  0.736397  0.723032  0.783683  1
  O  O9  1  0.289519  0.255964  0.794479  1
  O  O10  1  0.710481  0.744036  0.205521  1
  O  O11  1  0.263603  0.276968  0.216317  1
  O  O12  1  0.726706  0.271937  0.217065  1
  O  O13  1  0.262220  0.770326  0.209361  1
