# generated using pymatgen
data_Li4Fe3Co2Cu3O16
_symmetry_space_group_name_H-M   'P 1'
_cell_length_a   5.82804360
_cell_length_b   5.82804360
_cell_length_c   9.28002048
_cell_angle_alpha   89.58953253
_cell_angle_beta   90.41046747
_cell_angle_gamma   119.87025736
_symmetry_Int_Tables_number   1
_chemical_formula_structural   Li4Fe3Co2Cu3O16
_chemical_formula_sum   'Li4 Fe3 Co2 Cu3 O16'
_cell_volume   273.32324774
_cell_formula_units_Z   1
loop_
 _symmetry_equiv_pos_site_id
 _symmetry_equiv_pos_as_xyz
  1  'x, y, z'
loop_
 _atom_site_type_symbol
 _atom_site_label
 _atom_site_symmetry_multiplicity
 _atom_site_fract_x
 _atom_site_fract_y
 _atom_site_fract_z
 _atom_site_occupancy
  Li  Li0  1  0.339128  0.660872  0.897514  1
  Li  Li1  1  0.997238  0.002762  0.995008  1
  Li  Li2  1  0.993766  0.006234  0.489633  1
  Li  Li3  1  0.668344  0.331656  0.395228  1
  Fe  Fe4  1  0.169953  0.830047  0.212526  1
  Fe  Fe5  1  0.831315  0.658771  0.713301  1
  Fe  Fe6  1  0.341229  0.168685  0.713301  1
  Co  Co7  1  0.332510  0.667490  0.484845  1
  Co  Co8  1  0.670022  0.329978  0.986573  1
  Cu  Cu9  1  0.655035  0.824912  0.211049  1
  Cu  Cu10  1  0.175088  0.344965  0.211049  1
  Cu  Cu11  1  0.828230  0.171770  0.710387  1
  O  O12  1  0.656457  0.823211  0.593098  1
  O  O13  1  0.477530  0.522470  0.353818  1
  O  O14  1  0.336690  0.663310  0.107501  1
  O  O15  1  0.992893  0.007107  0.296342  1
  O  O16  1  0.992664  0.007336  0.802309  1
  O  O17  1  0.176789  0.343543  0.593098  1
  O  O18  1  0.475290  0.955389  0.351976  1
  O  O19  1  0.044611  0.524710  0.351976  1
  O  O20  1  0.827035  0.172965  0.092190  1
  O  O21  1  0.169976  0.830024  0.598347  1
  O  O22  1  0.958353  0.477951  0.852200  1
  O  O23  1  0.522049  0.041647  0.852200  1
  O  O24  1  0.671149  0.328851  0.604112  1
  O  O25  1  0.833602  0.654965  0.094585  1
  O  O26  1  0.524351  0.475649  0.848437  1
  O  O27  1  0.345035  0.166398  0.094585  1
