# generated using pymatgen
data_Dy2WO6
_symmetry_space_group_name_H-M   'P 1'
_cell_length_a   5.59483993
_cell_length_b   10.66344779
_cell_length_c   16.09988396
_cell_angle_alpha   90.00000000
_cell_angle_beta   90.00000000
_cell_angle_gamma   90.00000000
_symmetry_Int_Tables_number   1
_chemical_formula_structural   Dy2WO6
_chemical_formula_sum   'Dy16 W8 O48'
_cell_volume   960.52364116
_cell_formula_units_Z   8
loop_
 _symmetry_equiv_pos_site_id
 _symmetry_equiv_pos_as_xyz
  1  'x, y, z'
loop_
 _atom_site_type_symbol
 _atom_site_label
 _atom_site_symmetry_multiplicity
 _atom_site_fract_x
 _atom_site_fract_y
 _atom_site_fract_z
 _atom_site_occupancy
  Dy  Dy0  1  0.401350  0.641653  0.437513  1
  Dy  Dy1  1  0.901350  0.358347  0.062487  1
  Dy  Dy2  1  0.598650  0.858347  0.937513  1
  Dy  Dy3  1  0.098650  0.141653  0.562487  1
  Dy  Dy4  1  0.598650  0.358347  0.562487  1
  Dy  Dy5  1  0.098650  0.641653  0.937513  1
  Dy  Dy6  1  0.401350  0.141653  0.062487  1
  Dy  Dy7  1  0.901350  0.858347  0.437513  1
  Dy  Dy8  1  0.454395  0.855993  0.270580  1
  Dy  Dy9  1  0.954395  0.144007  0.229420  1
  Dy  Dy10  1  0.545605  0.644007  0.770580  1
  Dy  Dy11  1  0.045605  0.355993  0.729420  1
  Dy  Dy12  1  0.545605  0.144007  0.729420  1
  Dy  Dy13  1  0.045605  0.855993  0.770580  1
  Dy  Dy14  1  0.454395  0.355993  0.229420  1
  Dy  Dy15  1  0.954395  0.644007  0.270580  1
  W  W16  1  0.389430  0.621669  0.120314  1
  W  W17  1  0.889430  0.378331  0.379686  1
  W  W18  1  0.610570  0.878331  0.620314  1
  W  W19  1  0.110570  0.121669  0.879686  1
  W  W20  1  0.610570  0.378331  0.879686  1
  W  W21  1  0.110570  0.621669  0.620314  1
  W  W22  1  0.389430  0.121669  0.379686  1
  W  W23  1  0.889430  0.878331  0.120314  1
  O  O24  1  0.093225  0.512710  0.393029  1
  O  O25  1  0.593225  0.487290  0.106971  1
  O  O26  1  0.906775  0.987290  0.893029  1
  O  O27  1  0.406775  0.012710  0.606971  1
  O  O28  1  0.906775  0.487290  0.606971  1
  O  O29  1  0.406775  0.512710  0.893029  1
  O  O30  1  0.093225  0.012710  0.106971  1
  O  O31  1  0.593225  0.987290  0.393029  1
  O  O32  1  0.422571  0.712349  0.020607  1
  O  O33  1  0.922571  0.287651  0.479393  1
  O  O34  1  0.577429  0.787651  0.520607  1
  O  O35  1  0.077429  0.212349  0.979393  1
  O  O36  1  0.577429  0.287651  0.979393  1
  O  O37  1  0.077429  0.712349  0.520607  1
  O  O38  1  0.422571  0.212349  0.479393  1
  O  O39  1  0.922571  0.787651  0.020607  1
  O  O40  1  0.116644  0.543387  0.073964  1
  O  O41  1  0.616644  0.456613  0.426036  1
  O  O42  1  0.883356  0.956613  0.573964  1
  O  O43  1  0.383356  0.043387  0.926036  1
  O  O44  1  0.883356  0.456613  0.926036  1
  O  O45  1  0.383356  0.543387  0.573964  1
  O  O46  1  0.116644  0.043387  0.426036  1
  O  O47  1  0.616644  0.956613  0.073964  1
  O  O48  1  0.324521  0.559353  0.232925  1
  O  O49  1  0.824521  0.440647  0.267075  1
  O  O50  1  0.675479  0.940647  0.732925  1
  O  O51  1  0.175479  0.059353  0.767075  1
  O  O52  1  0.675479  0.440647  0.767075  1
  O  O53  1  0.175479  0.559353  0.732925  1
  O  O54  1  0.324521  0.059353  0.267075  1
  O  O55  1  0.824521  0.940647  0.232925  1
  O  O56  1  0.163780  0.768450  0.171057  1
  O  O57  1  0.663780  0.231550  0.328943  1
  O  O58  1  0.836220  0.731550  0.671057  1
  O  O59  1  0.336220  0.268450  0.828943  1
  O  O60  1  0.836220  0.231550  0.828943  1
  O  O61  1  0.336220  0.768450  0.671057  1
  O  O62  1  0.163780  0.268450  0.328943  1
  O  O63  1  0.663780  0.731550  0.171057  1
  O  O64  1  0.179984  0.770047  0.353468  1
  O  O65  1  0.679984  0.229953  0.146532  1
  O  O66  1  0.820016  0.729953  0.853468  1
  O  O67  1  0.320016  0.270047  0.646532  1
  O  O68  1  0.820016  0.229953  0.646532  1
  O  O69  1  0.320016  0.770047  0.853468  1
  O  O70  1  0.179984  0.270047  0.146532  1
  O  O71  1  0.679984  0.729953  0.353468  1
