# generated using pymatgen
data_SrZnH6O5
_symmetry_space_group_name_H-M   'P 1'
_cell_length_a   6.25379547
_cell_length_b   6.36218143
_cell_length_c   7.82673613
_cell_angle_alpha   74.55343532
_cell_angle_beta   66.58183185
_cell_angle_gamma   72.30159096
_symmetry_Int_Tables_number   1
_chemical_formula_structural   SrZnH6O5
_chemical_formula_sum   'Sr2 Zn2 H12 O10'
_cell_volume   268.43445949
_cell_formula_units_Z   2
loop_
 _symmetry_equiv_pos_site_id
 _symmetry_equiv_pos_as_xyz
  1  'x, y, z'
loop_
 _atom_site_type_symbol
 _atom_site_label
 _atom_site_symmetry_multiplicity
 _atom_site_fract_x
 _atom_site_fract_y
 _atom_site_fract_z
 _atom_site_occupancy
  Sr  Sr0  1  0.555080  0.402178  0.753269  1
  Sr  Sr1  1  0.444920  0.597822  0.246731  1
  Zn  Zn2  1  0.096853  0.246968  0.270255  1
  Zn  Zn3  1  0.903147  0.753032  0.729745  1
  H  H4  1  0.008793  0.945824  0.179831  1
  H  H5  1  0.991207  0.054176  0.820169  1
  H  H6  1  0.095019  0.612358  0.046070  1
  H  H7  1  0.904981  0.387642  0.953930  1
  H  H8  1  0.695145  0.193406  0.422843  1
  H  H9  1  0.304855  0.806594  0.577157  1
  H  H10  1  0.723818  0.812332  0.472272  1
  H  H11  1  0.276182  0.187668  0.527728  1
  H  H12  1  0.435394  0.978315  0.726438  1
  H  H13  1  0.564606  0.021685  0.273562  1
  H  H14  1  0.253704  0.048443  0.933011  1
  H  H15  1  0.746296  0.951557  0.066989  1
  O  O16  1  0.164455  0.975728  0.155904  1
  O  O17  1  0.835545  0.024272  0.844096  1
  O  O18  1  0.226652  0.494149  0.068136  1
  O  O19  1  0.773348  0.505851  0.931864  1
  O  O20  1  0.752977  0.325364  0.409700  1
  O  O21  1  0.247023  0.674636  0.590300  1
  O  O22  1  0.665138  0.788598  0.610350  1
  O  O23  1  0.334862  0.211402  0.389650  1
  O  O24  1  0.308304  0.103177  0.789302  1
  O  O25  1  0.691696  0.896823  0.210698  1
