# generated using pymatgen
data_Li3Cu2F8
_symmetry_space_group_name_H-M   'P 1'
_cell_length_a   5.44892381
_cell_length_b   5.77589391
_cell_length_c   6.04605386
_cell_angle_alpha   62.05737247
_cell_angle_beta   68.02274123
_cell_angle_gamma   68.04274949
_symmetry_Int_Tables_number   1
_chemical_formula_structural   Li3Cu2F8
_chemical_formula_sum   'Li3 Cu2 F8'
_cell_volume   151.23691869
_cell_formula_units_Z   1
loop_
 _symmetry_equiv_pos_site_id
 _symmetry_equiv_pos_as_xyz
  1  'x, y, z'
loop_
 _atom_site_type_symbol
 _atom_site_label
 _atom_site_symmetry_multiplicity
 _atom_site_fract_x
 _atom_site_fract_y
 _atom_site_fract_z
 _atom_site_occupancy
  Li  Li0  1  0.941320  0.935557  0.040093  1
  Li  Li1  1  0.113177  0.187216  0.484927  1
  Li  Li2  1  0.906674  0.820492  0.536427  1
  Cu  Cu3  1  0.528925  0.510668  0.239523  1
  Cu  Cu4  1  0.473697  0.495907  0.754234  1
  F  F5  1  0.334461  0.342304  0.606249  1
  F  F6  1  0.344398  0.338059  0.157040  1
  F  F7  1  0.793202  0.215052  0.763047  1
  F  F8  1  0.825308  0.195600  0.283577  1
  F  F9  1  0.167396  0.800282  0.720786  1
  F  F10  1  0.212295  0.801805  0.228105  1
  F  F11  1  0.654032  0.668558  0.853941  1
  F  F12  1  0.705292  0.688322  0.332051  1
