# generated using pymatgen
data_Bi3O2F5
_symmetry_space_group_name_H-M   'P 1'
_cell_length_a   8.42330838
_cell_length_b   5.95869574
_cell_length_c   13.51584202
_cell_angle_alpha   90.00000000
_cell_angle_beta   107.95312141
_cell_angle_gamma   90.00000000
_symmetry_Int_Tables_number   1
_chemical_formula_structural   Bi3O2F5
_chemical_formula_sum   'Bi12 O8 F20'
_cell_volume   645.35493850
_cell_formula_units_Z   4
loop_
 _symmetry_equiv_pos_site_id
 _symmetry_equiv_pos_as_xyz
  1  'x, y, z'
loop_
 _atom_site_type_symbol
 _atom_site_label
 _atom_site_symmetry_multiplicity
 _atom_site_fract_x
 _atom_site_fract_y
 _atom_site_fract_z
 _atom_site_occupancy
  Bi  Bi0  1  0.250000  0.574001  0.000000  1
  Bi  Bi1  1  0.750000  0.425999  0.000000  1
  Bi  Bi2  1  0.567835  0.974828  0.143306  1
  Bi  Bi3  1  0.416813  0.542075  0.294240  1
  Bi  Bi4  1  0.067835  0.025172  0.143306  1
  Bi  Bi5  1  0.916813  0.457925  0.294240  1
  Bi  Bi6  1  0.750000  0.999077  0.500000  1
  Bi  Bi7  1  0.250000  0.000923  0.500000  1
  Bi  Bi8  1  0.083187  0.542075  0.705760  1
  Bi  Bi9  1  0.932165  0.974828  0.856694  1
  Bi  Bi10  1  0.583187  0.457925  0.705760  1
  Bi  Bi11  1  0.432165  0.025172  0.856694  1
  O  O12  1  0.032913  0.784423  0.002764  1
  O  O13  1  0.532913  0.215577  0.002764  1
  O  O14  1  0.336579  0.756250  0.158032  1
  O  O15  1  0.836579  0.243750  0.158032  1
  O  O16  1  0.163421  0.756250  0.841968  1
  O  O17  1  0.663421  0.243750  0.841968  1
  O  O18  1  0.467087  0.784423  0.997236  1
  O  O19  1  0.967087  0.215577  0.997236  1
  F  F20  1  0.374685  0.229263  0.163287  1
  F  F21  1  0.874685  0.770737  0.163287  1
  F  F22  1  0.645507  0.571927  0.218855  1
  F  F23  1  0.561713  0.874971  0.347077  1
  F  F24  1  0.145507  0.428073  0.218855  1
  F  F25  1  0.747864  0.271425  0.367338  1
  F  F26  1  0.061713  0.125029  0.347077  1
  F  F27  1  0.247864  0.728575  0.367338  1
  F  F28  1  0.915603  0.765367  0.450687  1
  F  F29  1  0.584397  0.765367  0.549313  1
  F  F30  1  0.415603  0.234633  0.450687  1
  F  F31  1  0.084397  0.234633  0.549313  1
  F  F32  1  0.752136  0.271425  0.632662  1
  F  F33  1  0.938287  0.874971  0.652923  1
  F  F34  1  0.252136  0.728575  0.632662  1
  F  F35  1  0.854493  0.571927  0.781145  1
  F  F36  1  0.438287  0.125029  0.652923  1
  F  F37  1  0.354493  0.428073  0.781145  1
  F  F38  1  0.125315  0.229263  0.836713  1
  F  F39  1  0.625315  0.770737  0.836713  1
