# generated using pymatgen
data_Na2LiMnPCO7
_symmetry_space_group_name_H-M   'P 1'
_cell_length_a   5.23658938
_cell_length_b   6.86461109
_cell_length_c   8.81598487
_cell_angle_alpha   90.00000000
_cell_angle_beta   93.36118996
_cell_angle_gamma   90.00000000
_symmetry_Int_Tables_number   1
_chemical_formula_structural   Na2LiMnPCO7
_chemical_formula_sum   'Na4 Li2 Mn2 P2 C2 O14'
_cell_volume   316.36436941
_cell_formula_units_Z   2
loop_
 _symmetry_equiv_pos_site_id
 _symmetry_equiv_pos_as_xyz
  1  'x, y, z'
loop_
 _atom_site_type_symbol
 _atom_site_label
 _atom_site_symmetry_multiplicity
 _atom_site_fract_x
 _atom_site_fract_y
 _atom_site_fract_z
 _atom_site_occupancy
  Na  Na0  1  0.225832  0.005801  0.252753  1
  Na  Na1  1  0.225832  0.494199  0.252753  1
  Na  Na2  1  0.774168  0.505801  0.747247  1
  Na  Na3  1  0.774168  0.994199  0.747247  1
  Li  Li4  1  0.629165  0.750000  0.118278  1
  Li  Li5  1  0.370835  0.250000  0.881722  1
  Mn  Mn6  1  0.710023  0.250000  0.357394  1
  Mn  Mn7  1  0.289977  0.750000  0.642606  1
  P  P8  1  0.788292  0.750000  0.406447  1
  P  P9  1  0.211708  0.250000  0.593553  1
  C  C10  1  0.743985  0.250000  0.054952  1
  C  C11  1  0.256015  0.750000  0.945048  1
  O  O12  1  0.235246  0.750000  0.090643  1
  O  O13  1  0.513287  0.250000  0.106166  1
  O  O14  1  0.941668  0.250000  0.149914  1
  O  O15  1  0.700529  0.930177  0.308634  1
  O  O16  1  0.700529  0.569823  0.308634  1
  O  O17  1  0.326690  0.250000  0.435172  1
  O  O18  1  0.086123  0.750000  0.429841  1
  O  O19  1  0.913877  0.250000  0.570159  1
  O  O20  1  0.673310  0.750000  0.564828  1
  O  O21  1  0.299471  0.430177  0.691366  1
  O  O22  1  0.299471  0.069823  0.691366  1
  O  O23  1  0.058332  0.750000  0.850086  1
  O  O24  1  0.486713  0.750000  0.893834  1
  O  O25  1  0.764754  0.250000  0.909357  1
