# generated using pymatgen
data_NbSb3(PO4)6
_symmetry_space_group_name_H-M   'P 1'
_cell_length_a   9.08133062
_cell_length_b   9.08133062
_cell_length_c   9.08133062
_cell_angle_alpha   58.25157463
_cell_angle_beta   58.25157463
_cell_angle_gamma   58.25157463
_symmetry_Int_Tables_number   1
_chemical_formula_structural   NbSb3(PO4)6
_chemical_formula_sum   'Nb1 Sb3 P6 O24'
_cell_volume   508.37148199
_cell_formula_units_Z   1
loop_
 _symmetry_equiv_pos_site_id
 _symmetry_equiv_pos_as_xyz
  1  'x, y, z'
loop_
 _atom_site_type_symbol
 _atom_site_label
 _atom_site_symmetry_multiplicity
 _atom_site_fract_x
 _atom_site_fract_y
 _atom_site_fract_z
 _atom_site_occupancy
  Nb  Nb0  1  0.141542  0.141542  0.141542  1
  Sb  Sb1  1  0.856621  0.856621  0.856621  1
  Sb  Sb2  1  0.642066  0.642066  0.642066  1
  Sb  Sb3  1  0.355515  0.355515  0.355515  1
  P  P4  1  0.250051  0.537367  0.960911  1
  P  P5  1  0.960911  0.250051  0.537367  1
  P  P6  1  0.537367  0.960911  0.250051  1
  P  P7  1  0.462111  0.039120  0.747746  1
  P  P8  1  0.039120  0.747746  0.462111  1
  P  P9  1  0.747746  0.462111  0.039120  1
  O  O10  1  0.726846  0.480972  0.872945  1
  O  O11  1  0.480972  0.872945  0.726846  1
  O  O12  1  0.080702  0.716494  0.937369  1
  O  O13  1  0.872945  0.726846  0.480972  1
  O  O14  1  0.420007  0.553891  0.783514  1
  O  O15  1  0.215953  0.367921  0.000507  1
  O  O16  1  0.937369  0.080702  0.716494  1
  O  O17  1  0.783514  0.420007  0.553891  1
  O  O18  1  0.553891  0.783514  0.420007  1
  O  O19  1  0.628840  0.015237  0.774442  1
  O  O20  1  0.287759  0.066601  0.921917  1
  O  O21  1  0.015237  0.774442  0.628840  1
  O  O22  1  0.000507  0.215953  0.367921  1
  O  O23  1  0.716494  0.937369  0.080702  1
  O  O24  1  0.367921  0.000507  0.215953  1
  O  O25  1  0.436370  0.218550  0.579374  1
  O  O26  1  0.218550  0.579374  0.436370  1
  O  O27  1  0.066601  0.921917  0.287759  1
  O  O28  1  0.774442  0.628840  0.015237  1
  O  O29  1  0.579374  0.436370  0.218550  1
  O  O30  1  0.126240  0.277682  0.516816  1
  O  O31  1  0.921917  0.287759  0.066601  1
  O  O32  1  0.516816  0.126240  0.277682  1
  O  O33  1  0.277682  0.516816  0.126240  1
