# generated using pymatgen
data_Ca2WO5
_symmetry_space_group_name_H-M   'P 1'
_cell_length_a   7.55072701
_cell_length_b   5.37419599
_cell_length_c   11.19725609
_cell_angle_alpha   90.00000000
_cell_angle_beta   108.53600751
_cell_angle_gamma   90.00000000
_symmetry_Int_Tables_number   1
_chemical_formula_structural   Ca2WO5
_chemical_formula_sum   'Ca8 W4 O20'
_cell_volume   430.80332525
_cell_formula_units_Z   4
loop_
 _symmetry_equiv_pos_site_id
 _symmetry_equiv_pos_as_xyz
  1  'x, y, z'
loop_
 _atom_site_type_symbol
 _atom_site_label
 _atom_site_symmetry_multiplicity
 _atom_site_fract_x
 _atom_site_fract_y
 _atom_site_fract_z
 _atom_site_occupancy
  Ca  Ca0  1  0.152795  0.568920  0.814099  1
  Ca  Ca1  1  0.152795  0.931080  0.314099  1
  Ca  Ca2  1  0.345474  0.006785  0.632450  1
  Ca  Ca3  1  0.654526  0.506785  0.867550  1
  Ca  Ca4  1  0.345474  0.493215  0.132450  1
  Ca  Ca5  1  0.654526  0.993215  0.367550  1
  Ca  Ca6  1  0.847205  0.068920  0.685901  1
  Ca  Ca7  1  0.847205  0.431080  0.185901  1
  W  W8  1  0.000000  0.500000  0.500000  1
  W  W9  1  0.000000  0.000000  0.000000  1
  W  W10  1  0.500000  0.500000  0.500000  1
  W  W11  1  0.500000  0.000000  0.000000  1
  O  O12  1  0.008840  0.761317  0.618887  1
  O  O13  1  0.250983  0.869345  0.000050  1
  O  O14  1  0.113450  0.286715  0.641823  1
  O  O15  1  0.392989  0.306980  0.926300  1
  O  O16  1  0.008840  0.738683  0.118887  1
  O  O17  1  0.250983  0.630655  0.500050  1
  O  O18  1  0.113450  0.213285  0.141823  1
  O  O19  1  0.447019  0.843841  0.833660  1
  O  O20  1  0.392989  0.193020  0.426300  1
  O  O21  1  0.552981  0.343841  0.666340  1
  O  O22  1  0.447019  0.656159  0.333660  1
  O  O23  1  0.607011  0.806980  0.573700  1
  O  O24  1  0.552981  0.156159  0.166340  1
  O  O25  1  0.886550  0.786715  0.858177  1
  O  O26  1  0.749017  0.369345  0.499950  1
  O  O27  1  0.991160  0.261317  0.881113  1
  O  O28  1  0.607011  0.693020  0.073700  1
  O  O29  1  0.886550  0.713285  0.358177  1
  O  O30  1  0.749017  0.130655  0.999950  1
  O  O31  1  0.991160  0.238683  0.381113  1
