# generated using pymatgen
data_LiMg2Mn3O8
_symmetry_space_group_name_H-M   'P 1'
_cell_length_a   5.95617987
_cell_length_b   5.95617987
_cell_length_c   5.95617987
_cell_angle_alpha   59.97430105
_cell_angle_beta   59.97430105
_cell_angle_gamma   59.97430105
_symmetry_Int_Tables_number   1
_chemical_formula_structural   LiMg2Mn3O8
_chemical_formula_sum   'Li1 Mg2 Mn3 O8'
_cell_volume   149.32593961
_cell_formula_units_Z   1
loop_
 _symmetry_equiv_pos_site_id
 _symmetry_equiv_pos_as_xyz
  1  'x, y, z'
loop_
 _atom_site_type_symbol
 _atom_site_label
 _atom_site_symmetry_multiplicity
 _atom_site_fract_x
 _atom_site_fract_y
 _atom_site_fract_z
 _atom_site_occupancy
  Li  Li0  1  0.117247  0.117247  0.117247  1
  Mg  Mg1  1  0.882617  0.882617  0.882617  1
  Mg  Mg2  1  0.500110  0.500110  0.500110  1
  Mn  Mn3  1  0.498833  0.498833  0.004279  1
  Mn  Mn4  1  0.004279  0.498833  0.498833  1
  Mn  Mn5  1  0.498833  0.004279  0.498833  1
  O  O6  1  0.742281  0.742281  0.742281  1
  O  O7  1  0.744987  0.290438  0.744987  1
  O  O8  1  0.290438  0.744987  0.744987  1
  O  O9  1  0.744987  0.744987  0.290438  1
  O  O10  1  0.707738  0.254501  0.254501  1
  O  O11  1  0.254501  0.254501  0.707738  1
  O  O12  1  0.254501  0.707738  0.254501  1
  O  O13  1  0.258646  0.258646  0.258646  1
