# generated using pymatgen
data_Li4Cr3FeO8
_symmetry_space_group_name_H-M   'P 1'
_cell_length_a   5.14616338
_cell_length_b   5.95423383
_cell_length_c   10.72852395
_cell_angle_alpha   97.96469585
_cell_angle_beta   103.81857665
_cell_angle_gamma   106.81918005
_symmetry_Int_Tables_number   1
_chemical_formula_structural   Li4Cr3FeO8
_chemical_formula_sum   'Li8 Cr6 Fe2 O16'
_cell_volume   297.84329638
_cell_formula_units_Z   2
loop_
 _symmetry_equiv_pos_site_id
 _symmetry_equiv_pos_as_xyz
  1  'x, y, z'
loop_
 _atom_site_type_symbol
 _atom_site_label
 _atom_site_symmetry_multiplicity
 _atom_site_fract_x
 _atom_site_fract_y
 _atom_site_fract_z
 _atom_site_occupancy
  Li  Li0  1  0.000000  0.000000  0.000000  1
  Li  Li1  1  0.749731  0.624576  0.749826  1
  Li  Li2  1  0.250269  0.375424  0.250174  1
  Li  Li3  1  0.499540  0.749768  0.499578  1
  Li  Li4  1  0.000000  0.500000  0.000000  1
  Li  Li5  1  0.751057  0.125641  0.749771  1
  Li  Li6  1  0.248943  0.874359  0.250229  1
  Li  Li7  1  0.500460  0.250232  0.500422  1
  Cr  Cr8  1  0.874631  0.562023  0.374645  1
  Cr  Cr9  1  0.375087  0.312695  0.875142  1
  Cr  Cr10  1  0.124538  0.937442  0.624611  1
  Cr  Cr11  1  0.624913  0.687305  0.124858  1
  Cr  Cr12  1  0.875462  0.062558  0.375389  1
  Cr  Cr13  1  0.125369  0.437977  0.625355  1
  Fe  Fe14  1  0.375105  0.812959  0.875040  1
  Fe  Fe15  1  0.624895  0.187041  0.124960  1
  O  O16  1  0.163221  0.400469  0.439419  1
  O  O17  1  0.584282  0.224200  0.311819  1
  O  O18  1  0.667920  0.152983  0.938435  1
  O  O19  1  0.083998  0.975109  0.809973  1
  O  O20  1  0.836779  0.599531  0.560581  1
  O  O21  1  0.415718  0.775800  0.688181  1
  O  O22  1  0.916788  0.528734  0.190123  1
  O  O23  1  0.333415  0.350254  0.060132  1
  O  O24  1  0.162786  0.900885  0.439342  1
  O  O25  1  0.586412  0.723943  0.309984  1
  O  O26  1  0.666585  0.649746  0.939868  1
  O  O27  1  0.083212  0.471266  0.809877  1
  O  O28  1  0.413588  0.276057  0.690016  1
  O  O29  1  0.916002  0.024891  0.190027  1
  O  O30  1  0.837214  0.099115  0.560658  1
  O  O31  1  0.332080  0.847017  0.061565  1
