# generated using pymatgen
data_Na2FeCSO7
_symmetry_space_group_name_H-M   'P 1'
_cell_length_a   5.29941373
_cell_length_b   6.69074623
_cell_length_c   9.07930616
_cell_angle_alpha   90.00000000
_cell_angle_beta   90.51715633
_cell_angle_gamma   90.00000000
_symmetry_Int_Tables_number   1
_chemical_formula_structural   Na2FeCSO7
_chemical_formula_sum   'Na4 Fe2 C2 S2 O14'
_cell_volume   321.91213961
_cell_formula_units_Z   2
loop_
 _symmetry_equiv_pos_site_id
 _symmetry_equiv_pos_as_xyz
  1  'x, y, z'
loop_
 _atom_site_type_symbol
 _atom_site_label
 _atom_site_symmetry_multiplicity
 _atom_site_fract_x
 _atom_site_fract_y
 _atom_site_fract_z
 _atom_site_occupancy
  Na  Na0  1  0.766873  0.007501  0.217843  1
  Na  Na1  1  0.766873  0.492499  0.217843  1
  Na  Na2  1  0.233127  0.507501  0.782157  1
  Na  Na3  1  0.233127  0.992499  0.782157  1
  Fe  Fe4  1  0.233493  0.250000  0.349468  1
  Fe  Fe5  1  0.766507  0.750000  0.650532  1
  C  C6  1  0.271395  0.250000  0.071638  1
  C  C7  1  0.728605  0.750000  0.928362  1
  S  S8  1  0.290406  0.750000  0.422917  1
  S  S9  1  0.709594  0.250000  0.577083  1
  O  O10  1  0.711195  0.750000  0.066648  1
  O  O11  1  0.053500  0.250000  0.140346  1
  O  O12  1  0.470694  0.250000  0.160474  1
  O  O13  1  0.208402  0.930108  0.339164  1
  O  O14  1  0.208402  0.569892  0.339164  1
  O  O15  1  0.825906  0.250000  0.427815  1
  O  O16  1  0.573969  0.750000  0.438640  1
  O  O17  1  0.426031  0.250000  0.561360  1
  O  O18  1  0.174094  0.750000  0.572185  1
  O  O19  1  0.791598  0.430108  0.660836  1
  O  O20  1  0.791598  0.069892  0.660836  1
  O  O21  1  0.529306  0.750000  0.839526  1
  O  O22  1  0.946500  0.750000  0.859654  1
  O  O23  1  0.288805  0.250000  0.933352  1
