# generated using pymatgen
data_LiSn(PO3)4
_symmetry_space_group_name_H-M   'P 1'
_cell_length_a   7.18278647
_cell_length_b   13.09495725
_cell_length_c   11.93405040
_cell_angle_alpha   90.00000000
_cell_angle_beta   125.98555708
_cell_angle_gamma   90.00000000
_symmetry_Int_Tables_number   1
_chemical_formula_structural   LiSn(PO3)4
_chemical_formula_sum   'Li4 Sn4 P16 O48'
_cell_volume   908.28484958
_cell_formula_units_Z   4
loop_
 _symmetry_equiv_pos_site_id
 _symmetry_equiv_pos_as_xyz
  1  'x, y, z'
loop_
 _atom_site_type_symbol
 _atom_site_label
 _atom_site_symmetry_multiplicity
 _atom_site_fract_x
 _atom_site_fract_y
 _atom_site_fract_z
 _atom_site_occupancy
  Li  Li0  1  0.569955  0.218453  0.057605  1
  Li  Li1  1  0.430045  0.718453  0.442395  1
  Li  Li2  1  0.569955  0.281547  0.557605  1
  Li  Li3  1  0.430045  0.781547  0.942395  1
  Sn  Sn4  1  0.031359  0.782414  0.020936  1
  Sn  Sn5  1  0.968641  0.282414  0.479064  1
  Sn  Sn6  1  0.031359  0.717586  0.520936  1
  Sn  Sn7  1  0.968641  0.217586  0.979064  1
  P  P8  1  0.836346  0.629333  0.192393  1
  P  P9  1  0.923212  0.407706  0.199890  1
  P  P10  1  0.614910  0.883848  0.233070  1
  P  P11  1  0.495818  0.103032  0.239187  1
  P  P12  1  0.504182  0.603032  0.260813  1
  P  P13  1  0.385090  0.383848  0.266930  1
  P  P14  1  0.076788  0.907706  0.300110  1
  P  P15  1  0.163654  0.129333  0.307607  1
  P  P16  1  0.836346  0.870667  0.692393  1
  P  P17  1  0.923212  0.092294  0.699890  1
  P  P18  1  0.614910  0.616152  0.733070  1
  P  P19  1  0.495818  0.396968  0.739187  1
  P  P20  1  0.504182  0.896968  0.760813  1
  P  P21  1  0.385090  0.116152  0.766930  1
  P  P22  1  0.076788  0.592294  0.800110  1
  P  P23  1  0.163654  0.370667  0.807607  1
  O  O24  1  0.827570  0.333529  0.082260  1
  O  O25  1  0.306593  0.109618  0.085560  1
  O  O26  1  0.406318  0.850835  0.092719  1
  O  O27  1  0.807948  0.713319  0.097754  1
  O  O28  1  0.844912  0.520918  0.131244  1
  O  O29  1  0.285542  0.308612  0.151011  1
  O  O30  1  0.972645  0.133585  0.154275  1
  O  O31  1  0.590448  0.626276  0.166884  1
  O  O32  1  0.294886  0.667783  0.212060  1
  O  O33  1  0.424380  0.486837  0.211940  1
  O  O34  1  0.801556  0.917825  0.207116  1
  O  O35  1  0.143359  0.890691  0.202757  1
  O  O36  1  0.856641  0.390691  0.297243  1
  O  O37  1  0.575620  0.986837  0.288060  1
  O  O38  1  0.198444  0.417825  0.292884  1
  O  O39  1  0.705114  0.167783  0.287940  1
  O  O40  1  0.409552  0.126276  0.333116  1
  O  O41  1  0.027355  0.633585  0.345725  1
  O  O42  1  0.714458  0.808612  0.348989  1
  O  O43  1  0.155088  0.020918  0.368756  1
  O  O44  1  0.593682  0.350835  0.407281  1
  O  O45  1  0.192052  0.213319  0.402246  1
  O  O46  1  0.693407  0.609618  0.414440  1
  O  O47  1  0.172430  0.833529  0.417740  1
  O  O48  1  0.827570  0.166471  0.582260  1
  O  O49  1  0.306593  0.390382  0.585560  1
  O  O50  1  0.807948  0.786681  0.597754  1
  O  O51  1  0.406318  0.649165  0.592719  1
  O  O52  1  0.844912  0.979082  0.631244  1
  O  O53  1  0.285542  0.191388  0.651011  1
  O  O54  1  0.972645  0.366415  0.654275  1
  O  O55  1  0.590448  0.873724  0.666884  1
  O  O56  1  0.294886  0.832217  0.712060  1
  O  O57  1  0.801556  0.582175  0.707116  1
  O  O58  1  0.424380  0.013163  0.711940  1
  O  O59  1  0.143359  0.609309  0.702757  1
  O  O60  1  0.856641  0.109309  0.797243  1
  O  O61  1  0.198444  0.082175  0.792884  1
  O  O62  1  0.575620  0.513163  0.788060  1
  O  O63  1  0.705114  0.332217  0.787940  1
  O  O64  1  0.409552  0.373724  0.833116  1
  O  O65  1  0.027355  0.866415  0.845725  1
  O  O66  1  0.714458  0.691388  0.848989  1
  O  O67  1  0.155088  0.479082  0.868756  1
  O  O68  1  0.192052  0.286681  0.902246  1
  O  O69  1  0.593682  0.149165  0.907281  1
  O  O70  1  0.693407  0.890382  0.914440  1
  O  O71  1  0.172430  0.666471  0.917740  1
