# generated using pymatgen
data_Fe3(O2F)2
_symmetry_space_group_name_H-M   'P 1'
_cell_length_a   5.60498378
_cell_length_b   5.63701883
_cell_length_c   7.08184944
_cell_angle_alpha   73.82075597
_cell_angle_beta   73.21165794
_cell_angle_gamma   76.93387977
_symmetry_Int_Tables_number   1
_chemical_formula_structural   Fe3(O2F)2
_chemical_formula_sum   'Fe6 O8 F4'
_cell_volume   203.13736487
_cell_formula_units_Z   2
loop_
 _symmetry_equiv_pos_site_id
 _symmetry_equiv_pos_as_xyz
  1  'x, y, z'
loop_
 _atom_site_type_symbol
 _atom_site_label
 _atom_site_symmetry_multiplicity
 _atom_site_fract_x
 _atom_site_fract_y
 _atom_site_fract_z
 _atom_site_occupancy
  Fe  Fe0  1  0.000000  0.000000  0.000000  1
  Fe  Fe1  1  0.368476  0.303495  0.164187  1
  Fe  Fe2  1  0.000000  0.000000  0.500000  1
  Fe  Fe3  1  0.334221  0.315082  0.676000  1
  Fe  Fe4  1  0.665779  0.684918  0.324000  1
  Fe  Fe5  1  0.631524  0.696505  0.835813  1
  O  O6  1  0.763638  0.779714  0.536623  1
  O  O7  1  0.436001  0.435207  0.868220  1
  O  O8  1  0.106546  0.091577  0.207324  1
  O  O9  1  0.893454  0.908423  0.792676  1
  O  O10  1  0.236362  0.220286  0.463377  1
  O  O11  1  0.563999  0.564793  0.131780  1
  O  O12  1  0.658376  0.021608  0.159616  1
  O  O13  1  0.341624  0.978392  0.840384  1
  F  F14  1  0.030582  0.631657  0.168125  1
  F  F15  1  0.694620  0.316569  0.495622  1
  F  F16  1  0.305380  0.683431  0.504378  1
  F  F17  1  0.969418  0.368343  0.831875  1
