# generated using pymatgen
data_Li3Cu3(PO4)2
_symmetry_space_group_name_H-M   'P 1'
_cell_length_a   5.09889939
_cell_length_b   5.48885285
_cell_length_c   6.16004104
_cell_angle_alpha   90.36497885
_cell_angle_beta   90.09210210
_cell_angle_gamma   90.16016120
_symmetry_Int_Tables_number   1
_chemical_formula_structural   Li3Cu3(PO4)2
_chemical_formula_sum   'Li3 Cu3 P2 O8'
_cell_volume   172.39733750
_cell_formula_units_Z   1
loop_
 _symmetry_equiv_pos_site_id
 _symmetry_equiv_pos_as_xyz
  1  'x, y, z'
loop_
 _atom_site_type_symbol
 _atom_site_label
 _atom_site_symmetry_multiplicity
 _atom_site_fract_x
 _atom_site_fract_y
 _atom_site_fract_z
 _atom_site_occupancy
  Li  Li0  1  0.495206  0.154193  0.000542  1
  Li  Li1  1  0.993054  0.327819  0.753633  1
  Li  Li2  1  0.992554  0.846865  0.499794  1
  Cu  Cu3  1  0.504609  0.657888  0.741720  1
  Cu  Cu4  1  0.498126  0.657854  0.259158  1
  Cu  Cu5  1  0.993209  0.337231  0.242589  1
  P  P6  1  0.999000  0.833530  0.995597  1
  P  P7  1  0.495993  0.171637  0.505053  1
  O  O8  1  0.882621  0.096074  0.986842  1
  O  O9  1  0.304295  0.847847  0.998902  1
  O  O10  1  0.909637  0.683584  0.791930  1
  O  O11  1  0.384095  0.303941  0.710275  1
  O  O12  1  0.801678  0.166303  0.512715  1
  O  O13  1  0.378106  0.909514  0.501423  1
  O  O14  1  0.405516  0.300221  0.291025  1
  O  O15  1  0.904890  0.705499  0.208803  1
