# generated using pymatgen
data_LaMgI5
_symmetry_space_group_name_H-M   'P 1'
_cell_length_a   4.35709071
_cell_length_b   15.22545205
_cell_length_c   17.52555953
_cell_angle_alpha   90.00000000
_cell_angle_beta   90.00000000
_cell_angle_gamma   90.00000000
_symmetry_Int_Tables_number   1
_chemical_formula_structural   LaMgI5
_chemical_formula_sum   'La4 Mg4 I20'
_cell_volume   1162.62240982
_cell_formula_units_Z   4
loop_
 _symmetry_equiv_pos_site_id
 _symmetry_equiv_pos_as_xyz
  1  'x, y, z'
loop_
 _atom_site_type_symbol
 _atom_site_label
 _atom_site_symmetry_multiplicity
 _atom_site_fract_x
 _atom_site_fract_y
 _atom_site_fract_z
 _atom_site_occupancy
  La  La0  1  0.750000  0.744307  0.155999  1
  La  La1  1  0.250000  0.244307  0.344001  1
  La  La2  1  0.750000  0.755693  0.655999  1
  La  La3  1  0.250000  0.255693  0.844001  1
  Mg  Mg4  1  0.750000  0.238133  0.092172  1
  Mg  Mg5  1  0.250000  0.738133  0.407828  1
  Mg  Mg6  1  0.750000  0.261867  0.592172  1
  Mg  Mg7  1  0.250000  0.761867  0.907828  1
  I  I8  1  0.250000  0.344683  0.025593  1
  I  I9  1  0.250000  0.863115  0.052428  1
  I  I10  1  0.250000  0.593926  0.153790  1
  I  I11  1  0.250000  0.135937  0.161537  1
  I  I12  1  0.750000  0.349442  0.232911  1
  I  I13  1  0.250000  0.849442  0.267089  1
  I  I14  1  0.750000  0.635937  0.338463  1
  I  I15  1  0.750000  0.093926  0.346210  1
  I  I16  1  0.750000  0.363115  0.447572  1
  I  I17  1  0.750000  0.844683  0.474407  1
  I  I18  1  0.250000  0.155317  0.525593  1
  I  I19  1  0.250000  0.636885  0.552428  1
  I  I20  1  0.250000  0.906074  0.653790  1
  I  I21  1  0.250000  0.364063  0.661537  1
  I  I22  1  0.750000  0.150558  0.732911  1
  I  I23  1  0.250000  0.650558  0.767089  1
  I  I24  1  0.750000  0.864063  0.838463  1
  I  I25  1  0.750000  0.406074  0.846210  1
  I  I26  1  0.750000  0.136885  0.947572  1
  I  I27  1  0.750000  0.655317  0.974407  1
