# generated using pymatgen
data_Fe3(O2F)2
_symmetry_space_group_name_H-M   'P 1'
_cell_length_a   10.59359131
_cell_length_b   10.59359131
_cell_length_c   3.02698531
_cell_angle_alpha   90.00000000
_cell_angle_beta   90.00000000
_cell_angle_gamma   143.45935830
_symmetry_Int_Tables_number   1
_chemical_formula_structural   Fe3(O2F)2
_chemical_formula_sum   'Fe6 O8 F4'
_cell_volume   202.25550368
_cell_formula_units_Z   2
loop_
 _symmetry_equiv_pos_site_id
 _symmetry_equiv_pos_as_xyz
  1  'x, y, z'
loop_
 _atom_site_type_symbol
 _atom_site_label
 _atom_site_symmetry_multiplicity
 _atom_site_fract_x
 _atom_site_fract_y
 _atom_site_fract_z
 _atom_site_occupancy
  Fe  Fe0  1  0.840321  0.159679  0.000000  1
  Fe  Fe1  1  0.338883  0.661117  0.500000  1
  Fe  Fe2  1  0.500000  0.500000  1.000000  1
  Fe  Fe3  1  0.661117  0.338883  0.500000  1
  Fe  Fe4  1  0.000000  0.000000  0.500000  1
  Fe  Fe5  1  0.159679  0.840321  0.000000  1
  O  O6  1  0.527719  0.858020  1.000000  1
  O  O7  1  0.141980  0.472281  1.000000  1
  O  O8  1  0.439779  0.560221  0.500000  1
  O  O9  1  0.560221  0.439779  0.500000  1
  O  O10  1  0.903504  0.096496  0.500000  1
  O  O11  1  0.472281  0.141980  0.000000  1
  O  O12  1  0.096496  0.903504  0.500000  1
  O  O13  1  0.858020  0.527719  1.000000  1
  F  F14  1  0.806640  0.806640  1.000000  1
  F  F15  1  0.193360  0.193360  1.000000  1
  F  F16  1  0.769116  0.230884  0.500000  1
  F  F17  1  0.230884  0.769116  0.500000  1
