# generated using pymatgen
data_Tm2Ti2O7
_symmetry_space_group_name_H-M   'P 1'
_cell_length_a   7.47604912
_cell_length_b   5.28293308
_cell_length_c   13.14741998
_cell_angle_alpha   90.00000000
_cell_angle_beta   98.30676214
_cell_angle_gamma   90.00000000
_symmetry_Int_Tables_number   1
_chemical_formula_structural   Tm2Ti2O7
_chemical_formula_sum   'Tm8 Ti8 O28'
_cell_volume   513.81576875
_cell_formula_units_Z   4
loop_
 _symmetry_equiv_pos_site_id
 _symmetry_equiv_pos_as_xyz
  1  'x, y, z'
loop_
 _atom_site_type_symbol
 _atom_site_label
 _atom_site_symmetry_multiplicity
 _atom_site_fract_x
 _atom_site_fract_y
 _atom_site_fract_z
 _atom_site_occupancy
  Tm  Tm0  1  0.265115  0.775803  0.073584  1
  Tm  Tm1  1  0.358836  0.358542  0.439074  1
  Tm  Tm2  1  0.213571  0.246126  0.863879  1
  Tm  Tm3  1  0.144461  0.778536  0.614247  1
  Tm  Tm4  1  0.855539  0.278536  0.385753  1
  Tm  Tm5  1  0.786429  0.746126  0.136121  1
  Tm  Tm6  1  0.641164  0.858542  0.560926  1
  Tm  Tm7  1  0.734885  0.275803  0.926416  1
  Ti  Ti8  1  0.430362  0.282390  0.679017  1
  Ti  Ti9  1  0.469957  0.769679  0.878154  1
  Ti  Ti10  1  0.090437  0.793514  0.328774  1
  Ti  Ti11  1  0.030713  0.268451  0.125945  1
  Ti  Ti12  1  0.969287  0.768451  0.874055  1
  Ti  Ti13  1  0.909563  0.293514  0.671226  1
  Ti  Ti14  1  0.530043  0.269679  0.121846  1
  Ti  Ti15  1  0.569638  0.782390  0.320983  1
  O  O16  1  0.493494  0.429384  0.822190  1
  O  O17  1  0.428229  0.564713  0.591268  1
  O  O18  1  0.327963  0.663842  0.317245  1
  O  O19  1  0.279300  0.360779  0.119005  1
  O  O20  1  0.357218  0.064856  0.567987  1
  O  O21  1  0.434819  0.045363  0.974343  1
  O  O22  1  0.367288  0.951891  0.766211  1
  O  O23  1  0.136700  0.100827  0.382090  1
  O  O24  1  0.079469  0.927957  0.176495  1
  O  O25  1  0.173538  0.386833  0.695385  1
  O  O26  1  0.228266  0.644766  0.911616  1
  O  O27  1  0.086493  0.587967  0.449080  1
  O  O28  1  0.948998  0.542386  0.027150  1
  O  O29  1  0.982010  0.453739  0.236616  1
  O  O30  1  0.017990  0.953739  0.763384  1
  O  O31  1  0.051002  0.042386  0.972850  1
  O  O32  1  0.913507  0.087967  0.550920  1
  O  O33  1  0.771734  0.144766  0.088384  1
  O  O34  1  0.826462  0.886833  0.304615  1
  O  O35  1  0.920531  0.427957  0.823505  1
  O  O36  1  0.863300  0.600827  0.617910  1
  O  O37  1  0.632712  0.451891  0.233789  1
  O  O38  1  0.565181  0.545363  0.025657  1
  O  O39  1  0.642782  0.564856  0.432013  1
  O  O40  1  0.720700  0.860779  0.880995  1
  O  O41  1  0.672037  0.163842  0.682755  1
  O  O42  1  0.571771  0.064713  0.408732  1
  O  O43  1  0.506506  0.929384  0.177810  1
