# generated using pymatgen
data_Rb10Al24Cd7(SiO4)24
_symmetry_space_group_name_H-M   'P 1'
_cell_length_a   17.82216722
_cell_length_b   17.82631059
_cell_length_c   17.83688891
_cell_angle_alpha   60.10388915
_cell_angle_beta   60.06538802
_cell_angle_gamma   60.03464132
_symmetry_Int_Tables_number   1
_chemical_formula_structural   Rb10Al24Cd7(SiO4)24
_chemical_formula_sum   'Rb10 Al24 Cd7 Si24 O96'
_cell_volume   4013.23203240
_cell_formula_units_Z   1
loop_
 _symmetry_equiv_pos_site_id
 _symmetry_equiv_pos_as_xyz
  1  'x, y, z'
loop_
 _atom_site_type_symbol
 _atom_site_label
 _atom_site_symmetry_multiplicity
 _atom_site_fract_x
 _atom_site_fract_y
 _atom_site_fract_z
 _atom_site_occupancy
  Rb  Rb0  1  0.740855  0.740701  0.272966  1
  Rb  Rb1  1  0.589748  0.154733  0.588880  1
  Rb  Rb2  1  0.156126  0.590716  0.587706  1
  Rb  Rb3  1  0.591413  0.591396  0.157641  1
  Rb  Rb4  1  0.250527  0.750504  0.250760  1
  Rb  Rb5  1  0.750522  0.250303  0.251023  1
  Rb  Rb6  1  0.160791  0.161682  0.587510  1
  Rb  Rb7  1  0.590471  0.155229  0.163545  1
  Rb  Rb8  1  0.155217  0.589455  0.163632  1
  Rb  Rb9  1  0.249385  0.249552  0.250329  1
  Al  Al10  1  0.607418  0.787973  0.963895  1
  Al  Al11  1  0.964903  0.608014  0.788560  1
  Al  Al12  1  0.788696  0.963321  0.607223  1
  Al  Al13  1  0.789036  0.138616  0.968962  1
  Al  Al14  1  0.139056  0.968809  0.789045  1
  Al  Al15  1  0.139120  0.602095  0.969526  1
  Al  Al16  1  0.214295  0.398197  0.860795  1
  Al  Al17  1  0.601883  0.137908  0.789035  1
  Al  Al18  1  0.970068  0.137272  0.602449  1
  Al  Al19  1  0.398902  0.027041  0.859341  1
  Al  Al20  1  0.139439  0.789582  0.601597  1
  Al  Al21  1  0.966543  0.789708  0.137191  1
  Al  Al22  1  0.026412  0.216146  0.860133  1
  Al  Al23  1  0.860023  0.215227  0.396169  1
  Al  Al24  1  0.605333  0.966163  0.138590  1
  Al  Al25  1  0.029413  0.857999  0.396839  1
  Al  Al26  1  0.396489  0.859706  0.214171  1
  Al  Al27  1  0.789236  0.604992  0.138793  1
  Al  Al28  1  0.858681  0.396919  0.030432  1
  Al  Al29  1  0.858254  0.029945  0.216103  1
  Al  Al30  1  0.215552  0.859541  0.029602  1
  Al  Al31  1  0.215858  0.028910  0.395427  1
  Al  Al32  1  0.029829  0.396291  0.214741  1
  Al  Al33  1  0.395870  0.214157  0.029738  1
  Cd  Cd34  1  0.998182  0.998961  0.007497  1
  Cd  Cd35  1  0.994078  0.502012  0.002776  1
  Cd  Cd36  1  0.502366  0.992746  0.002486  1
  Cd  Cd37  1  0.999501  0.998833  0.494532  1
  Cd  Cd38  1  0.167502  0.775458  0.777094  1
  Cd  Cd39  1  0.779218  0.156762  0.780108  1
  Cd  Cd40  1  0.215201  0.216080  0.854137  1
  Si  Si41  1  0.789328  0.604158  0.963830  1
  Si  Si42  1  0.604900  0.964180  0.789205  1
  Si  Si43  1  0.964819  0.789135  0.604449  1
  Si  Si44  1  0.141920  0.788796  0.964861  1
  Si  Si45  1  0.966366  0.138583  0.789237  1
  Si  Si46  1  0.603603  0.140843  0.965999  1
  Si  Si47  1  0.140967  0.604691  0.788059  1
  Si  Si48  1  0.397004  0.210873  0.856467  1
  Si  Si49  1  0.142754  0.965751  0.603392  1
  Si  Si50  1  0.035365  0.399207  0.855266  1
  Si  Si51  1  0.788717  0.140162  0.603987  1
  Si  Si52  1  0.789721  0.964849  0.141256  1
  Si  Si53  1  0.210149  0.036462  0.856727  1
  Si  Si54  1  0.210911  0.854879  0.397631  1
  Si  Si55  1  0.964910  0.603827  0.141237  1
  Si  Si56  1  0.852996  0.036676  0.399845  1
  Si  Si57  1  0.603981  0.788856  0.141817  1
  Si  Si58  1  0.854337  0.398743  0.210919  1
  Si  Si59  1  0.399541  0.854122  0.036210  1
  Si  Si60  1  0.036997  0.853747  0.210370  1
  Si  Si61  1  0.855247  0.210328  0.036798  1
  Si  Si62  1  0.037398  0.210204  0.398059  1
  Si  Si63  1  0.399227  0.036964  0.210067  1
  Si  Si64  1  0.210221  0.397713  0.036888  1
  O  O65  1  0.686995  0.678541  0.983612  1
  O  O66  1  0.410392  0.958417  0.969274  1
  O  O67  1  0.971012  0.409079  0.958146  1
  O  O68  1  0.777056  0.504911  0.001494  1
  O  O69  1  0.632611  0.858573  0.851256  1
  O  O70  1  0.852743  0.632115  0.858188  1
  O  O71  1  0.505379  0.006481  0.774552  1
  O  O72  1  0.958196  0.160532  0.969028  1
  O  O73  1  0.160544  0.970965  0.957959  1
  O  O74  1  0.679238  0.986338  0.687383  1
  O  O75  1  0.987327  0.686754  0.678887  1
  O  O76  1  0.217831  0.780709  0.995147  1
  O  O77  1  0.858752  0.851018  0.633854  1
  O  O78  1  0.155056  0.687703  0.975261  1
  O  O79  1  0.682138  0.153653  0.975337  1
  O  O80  1  0.000236  0.213350  0.779045  1
  O  O81  1  0.003794  0.775417  0.505845  1
  O  O82  1  0.957177  0.969027  0.409701  1
  O  O83  1  0.506058  0.217757  0.996227  1
  O  O84  1  0.854706  0.153042  0.849045  1
  O  O85  1  0.157258  0.849075  0.852215  1
  O  O86  1  0.979454  0.150076  0.687961  1
  O  O87  1  0.160138  0.412670  0.969682  1
  O  O88  1  0.157063  0.639408  0.849686  1
  O  O89  1  0.640010  0.154620  0.854357  1
  O  O90  1  0.410463  0.161111  0.957694  1
  O  O91  1  0.154226  0.978412  0.680968  1
  O  O92  1  0.318240  0.310309  0.844222  1
  O  O93  1  0.036499  0.599080  0.840627  1
  O  O94  1  0.594061  0.026797  0.843023  1
  O  O95  1  0.850975  0.152418  0.641918  1
  O  O96  1  0.157753  0.853903  0.640538  1
  O  O97  1  0.216312  0.506060  0.777832  1
  O  O98  1  0.495186  0.214493  0.775332  1
  O  O99  1  0.968969  0.957519  0.163308  1
  O  O100  1  0.776167  0.002977  0.214869  1
  O  O101  1  0.218222  0.998196  0.505934  1
  O  O102  1  0.156671  0.683092  0.687996  1
  O  O103  1  0.688042  0.155397  0.682788  1
  O  O104  1  0.146211  0.357888  0.849531  1
  O  O105  1  0.356948  0.147010  0.849987  1
  O  O106  1  0.017878  0.497860  0.775063  1
  O  O107  1  0.841069  0.035788  0.597450  1
  O  O108  1  0.027348  0.842544  0.595091  1
  O  O109  1  0.028285  0.320222  0.841515  1
  O  O110  1  0.309688  0.028243  0.843573  1
  O  O111  1  0.851164  0.857025  0.157342  1
  O  O112  1  0.779621  0.217852  0.506910  1
  O  O113  1  0.218536  0.775554  0.496933  1
  O  O114  1  0.145712  0.146656  0.849882  1
  O  O115  1  0.687521  0.981590  0.150537  1
  O  O116  1  0.981967  0.680248  0.149988  1
  O  O117  1  0.969725  0.161621  0.412319  1
  O  O118  1  0.161889  0.957520  0.411649  1
  O  O119  1  0.004026  0.505793  0.214708  1
  O  O120  1  0.633447  0.851428  0.158171  1
  O  O121  1  0.857021  0.633472  0.158690  1
  O  O122  1  0.311938  0.842369  0.321065  1
  O  O123  1  0.841393  0.322093  0.312317  1
  O  O124  1  0.774015  0.011948  0.499655  1
  O  O125  1  0.211988  0.016256  0.776075  1
  O  O126  1  0.025106  0.034012  0.842227  1
  O  O127  1  0.505209  0.776914  0.216496  1
  O  O128  1  0.775039  0.498131  0.216043  1
  O  O129  1  0.845296  0.142951  0.368549  1
  O  O130  1  0.144208  0.845942  0.367159  1
  O  O131  1  0.411119  0.969918  0.162186  1
  O  O132  1  0.957925  0.410496  0.162652  1
  O  O133  1  0.679906  0.686612  0.156226  1
  O  O134  1  0.838725  0.026710  0.322918  1
  O  O135  1  0.597536  0.839625  0.036017  1
  O  O136  1  0.365720  0.847381  0.142331  1
  O  O137  1  0.846880  0.365683  0.144880  1
  O  O138  1  0.841302  0.595358  0.026894  1
  O  O139  1  0.026077  0.839374  0.311697  1
  O  O140  1  0.846538  0.144318  0.142454  1
  O  O141  1  0.143270  0.845730  0.143480  1
  O  O142  1  0.498752  0.775571  0.010309  1
  O  O143  1  0.037217  0.023470  0.598438  1
  O  O144  1  0.011418  0.215520  0.498375  1
  O  O145  1  0.012893  0.775125  0.212264  1
  O  O146  1  0.322299  0.843508  0.022851  1
  O  O147  1  0.845608  0.310832  0.022771  1
  O  O148  1  0.143751  0.143682  0.368643  1
  O  O149  1  0.776972  0.216889  0.008371  1
  O  O150  1  0.026671  0.311274  0.321573  1
  O  O151  1  0.322675  0.026240  0.311466  1
  O  O152  1  0.842168  0.026187  0.035147  1
  O  O153  1  0.036512  0.841623  0.022649  1
  O  O154  1  0.499074  0.013134  0.214215  1
  O  O155  1  0.145009  0.366329  0.142990  1
  O  O156  1  0.367407  0.143657  0.144188  1
  O  O157  1  0.217656  0.497020  0.009565  1
  O  O158  1  0.026240  0.597055  0.035062  1
  O  O159  1  0.597701  0.036258  0.024777  1
  O  O160  1  0.311388  0.321092  0.023138  1
