# generated using pymatgen
data_LiCo(CO3)2
_symmetry_space_group_name_H-M   'P 1'
_cell_length_a   6.11750852
_cell_length_b   6.11750852
_cell_length_c   8.34503566
_cell_angle_alpha   82.61609745
_cell_angle_beta   97.38390255
_cell_angle_gamma   53.19060423
_symmetry_Int_Tables_number   1
_chemical_formula_structural   LiCo(CO3)2
_chemical_formula_sum   'Li2 Co2 C4 O12'
_cell_volume   239.51653521
_cell_formula_units_Z   2
loop_
 _symmetry_equiv_pos_site_id
 _symmetry_equiv_pos_as_xyz
  1  'x, y, z'
loop_
 _atom_site_type_symbol
 _atom_site_label
 _atom_site_symmetry_multiplicity
 _atom_site_fract_x
 _atom_site_fract_y
 _atom_site_fract_z
 _atom_site_occupancy
  Li  Li0  1  0.569406  0.317032  0.642655  1
  Li  Li1  1  0.682968  0.430594  0.142655  1
  Co  Co2  1  0.993761  0.737237  0.000872  1
  Co  Co3  1  0.262763  0.006239  0.500872  1
  C  C4  1  0.650988  0.691350  0.781896  1
  C  C5  1  0.124687  0.740555  0.714879  1
  C  C6  1  0.308650  0.349012  0.281896  1
  C  C7  1  0.259445  0.875313  0.214879  1
  O  O8  1  0.781439  0.621831  0.943408  1
  O  O9  1  0.909245  0.919913  0.770493  1
  O  O10  1  0.324889  0.494924  0.803813  1
  O  O11  1  0.742144  0.522949  0.692320  1
  O  O12  1  0.411287  0.950485  0.727323  1
  O  O13  1  0.112692  0.828828  0.557882  1
  O  O14  1  0.378169  0.218561  0.443408  1
  O  O15  1  0.505076  0.675111  0.303813  1
  O  O16  1  0.080087  0.090755  0.270493  1
  O  O17  1  0.477051  0.257856  0.192320  1
  O  O18  1  0.049515  0.588713  0.227323  1
  O  O19  1  0.171172  0.887308  0.057882  1
