# generated using pymatgen
data_Li8Cr(FeO4)3
_symmetry_space_group_name_H-M   'P 1'
_cell_length_a   4.95696237
_cell_length_b   8.53103914
_cell_length_c   4.99697424
_cell_angle_alpha   90.00000000
_cell_angle_beta   90.23129256
_cell_angle_gamma   90.00000000
_symmetry_Int_Tables_number   1
_chemical_formula_structural   Li8Cr(FeO4)3
_chemical_formula_sum   'Li8 Cr1 Fe3 O12'
_cell_volume   211.31052477
_cell_formula_units_Z   1
loop_
 _symmetry_equiv_pos_site_id
 _symmetry_equiv_pos_as_xyz
  1  'x, y, z'
loop_
 _atom_site_type_symbol
 _atom_site_label
 _atom_site_symmetry_multiplicity
 _atom_site_fract_x
 _atom_site_fract_y
 _atom_site_fract_z
 _atom_site_occupancy
  Li  Li0  1  0.000000  0.766818  0.500000  1
  Li  Li1  1  0.000000  0.080484  0.500000  1
  Li  Li2  1  0.000000  0.744957  0.000000  1
  Li  Li3  1  0.000000  0.432899  0.000000  1
  Li  Li4  1  0.500000  0.933192  0.500000  1
  Li  Li5  1  0.500000  0.244192  0.500000  1
  Li  Li6  1  0.500000  0.582338  0.000000  1
  Li  Li7  1  0.500000  0.268840  0.000000  1
  Cr  Cr8  1  0.000000  0.097372  0.000000  1
  Fe  Fe9  1  0.000000  0.414506  0.500000  1
  Fe  Fe10  1  0.500000  0.598687  0.500000  1
  Fe  Fe11  1  0.500000  0.916255  0.000000  1
  O  O12  1  0.148379  0.252265  0.241839  1
  O  O13  1  0.181830  0.585033  0.279839  1
  O  O14  1  0.173670  0.932983  0.214539  1
  O  O15  1  0.323161  0.082923  0.780467  1
  O  O16  1  0.321482  0.430185  0.719079  1
  O  O17  1  0.353333  0.758224  0.749138  1
  O  O18  1  0.646667  0.758224  0.250862  1
  O  O19  1  0.678518  0.430185  0.280921  1
  O  O20  1  0.676839  0.082923  0.219533  1
  O  O21  1  0.826330  0.932983  0.785461  1
  O  O22  1  0.818170  0.585033  0.720161  1
  O  O23  1  0.851621  0.252265  0.758161  1
