# generated using pymatgen
data_Mo(PO4)2
_symmetry_space_group_name_H-M   'P 1'
_cell_length_a   9.98171506
_cell_length_b   11.91095616
_cell_length_c   17.43561720
_cell_angle_alpha   90.00000000
_cell_angle_beta   112.21764301
_cell_angle_gamma   90.00000000
_symmetry_Int_Tables_number   1
_chemical_formula_structural   Mo(PO4)2
_chemical_formula_sum   'Mo12 P24 O96'
_cell_volume   1919.04344814
_cell_formula_units_Z   12
loop_
 _symmetry_equiv_pos_site_id
 _symmetry_equiv_pos_as_xyz
  1  'x, y, z'
loop_
 _atom_site_type_symbol
 _atom_site_label
 _atom_site_symmetry_multiplicity
 _atom_site_fract_x
 _atom_site_fract_y
 _atom_site_fract_z
 _atom_site_occupancy
  Mo  Mo0  1  0.293623  0.697371  0.592125  1
  Mo  Mo1  1  0.629238  0.712377  0.924835  1
  Mo  Mo2  1  0.706377  0.302629  0.407875  1
  Mo  Mo3  1  0.629238  0.787623  0.424835  1
  Mo  Mo4  1  0.293623  0.802629  0.092125  1
  Mo  Mo5  1  0.956567  0.805583  0.760941  1
  Mo  Mo6  1  0.706377  0.197371  0.907875  1
  Mo  Mo7  1  0.370762  0.212377  0.575165  1
  Mo  Mo8  1  0.956567  0.694417  0.260941  1
  Mo  Mo9  1  0.370762  0.287623  0.075165  1
  Mo  Mo10  1  0.043433  0.194417  0.239059  1
  Mo  Mo11  1  0.043433  0.305583  0.739059  1
  P  P12  1  0.967219  0.048246  0.655790  1
  P  P13  1  0.597746  0.827769  0.623180  1
  P  P14  1  0.597746  0.672231  0.123180  1
  P  P15  1  0.731674  0.206295  0.615152  1
  P  P16  1  0.402254  0.172231  0.376820  1
  P  P17  1  0.707717  0.538044  0.521451  1
  P  P18  1  0.402254  0.327769  0.876820  1
  P  P19  1  0.945320  0.800097  0.060877  1
  P  P20  1  0.268326  0.793705  0.384848  1
  P  P21  1  0.032781  0.951754  0.344210  1
  P  P22  1  0.619384  0.460566  0.838486  1
  P  P23  1  0.380616  0.960566  0.661514  1
  P  P24  1  0.268326  0.706295  0.884848  1
  P  P25  1  0.054680  0.199903  0.939123  1
  P  P26  1  0.054680  0.300097  0.439123  1
  P  P27  1  0.032781  0.548246  0.844210  1
  P  P28  1  0.380616  0.539434  0.161514  1
  P  P29  1  0.731674  0.293705  0.115152  1
  P  P30  1  0.292283  0.461956  0.478549  1
  P  P31  1  0.967219  0.451754  0.155790  1
  P  P32  1  0.619384  0.039434  0.338486  1
  P  P33  1  0.945320  0.699903  0.560877  1
  P  P34  1  0.707717  0.961956  0.021451  1
  P  P35  1  0.292283  0.038044  0.978549  1
  O  O36  1  0.415336  0.700607  0.875096  1
  O  O37  1  0.834218  0.720678  0.997480  1
  O  O38  1  0.875260  0.577417  0.540412  1
  O  O39  1  0.616060  0.858919  0.973932  1
  O  O40  1  0.640673  0.735912  0.337052  1
  O  O41  1  0.457503  0.072533  0.334902  1
  O  O42  1  0.079088  0.695310  0.536655  1
  O  O43  1  0.383940  0.358919  0.526068  1
  O  O44  1  0.359327  0.264088  0.662948  1
  O  O45  1  0.834218  0.779322  0.497480  1
  O  O46  1  0.928094  0.636926  0.342562  1
  O  O47  1  0.980677  0.730071  0.649537  1
  O  O48  1  0.285704  0.857252  0.617526  1
  O  O49  1  0.620761  0.492165  0.757740  1
  O  O50  1  0.502758  0.775289  0.124878  1
  O  O51  1  0.683384  0.998508  0.095224  1
  O  O52  1  0.308796  0.946977  0.046348  1
  O  O53  1  0.832837  0.216113  0.185131  1
  O  O54  1  0.920912  0.195310  0.963345  1
  O  O55  1  0.056376  0.351472  0.210152  1
  O  O56  1  0.071906  0.136926  0.157438  1
  O  O57  1  0.248235  0.195750  0.314269  1
  O  O58  1  0.079088  0.804690  0.036655  1
  O  O59  1  0.379239  0.507835  0.242260  1
  O  O60  1  0.415336  0.799393  0.375096  1
  O  O61  1  0.714296  0.142748  0.382474  1
  O  O62  1  0.200985  0.916653  0.359350  1
  O  O63  1  0.010874  0.447241  0.783577  1
  O  O64  1  0.542497  0.927467  0.665098  1
  O  O65  1  0.799015  0.416653  0.140650  1
  O  O66  1  0.657168  0.556497  0.906118  1
  O  O67  1  0.943624  0.648528  0.789848  1
  O  O68  1  0.009994  0.525852  0.920775  1
  O  O69  1  0.296126  0.854339  0.183161  1
  O  O70  1  0.714296  0.357252  0.882474  1
  O  O71  1  0.124740  0.077417  0.959588  1
  O  O72  1  0.683384  0.501492  0.595224  1
  O  O73  1  0.990006  0.025852  0.579225  1
  O  O74  1  0.584664  0.299393  0.124904  1
  O  O75  1  0.703874  0.145661  0.816839  1
  O  O76  1  0.584664  0.200607  0.624904  1
  O  O77  1  0.751765  0.804250  0.685731  1
  O  O78  1  0.751765  0.695750  0.185731  1
  O  O79  1  0.722637  0.262705  0.030297  1
  O  O80  1  0.071906  0.363074  0.657438  1
  O  O81  1  0.989126  0.947241  0.716423  1
  O  O82  1  0.019323  0.269929  0.350463  1
  O  O83  1  0.989126  0.552759  0.216423  1
  O  O84  1  0.383940  0.141081  0.026068  1
  O  O85  1  0.407257  0.142574  0.461521  1
  O  O86  1  0.277363  0.762705  0.469703  1
  O  O87  1  0.308796  0.553023  0.546348  1
  O  O88  1  0.165782  0.279322  0.002520  1
  O  O89  1  0.124740  0.422583  0.459588  1
  O  O90  1  0.502758  0.724711  0.624878  1
  O  O91  1  0.167163  0.716113  0.314869  1
  O  O92  1  0.316616  0.498508  0.404776  1
  O  O93  1  0.928094  0.863074  0.842562  1
  O  O94  1  0.542497  0.572533  0.165098  1
  O  O95  1  0.359327  0.235912  0.162948  1
  O  O96  1  0.277363  0.737295  0.969703  1
  O  O97  1  0.165782  0.220678  0.502520  1
  O  O98  1  0.592743  0.857426  0.538479  1
  O  O99  1  0.342832  0.443503  0.093882  1
  O  O100  1  0.200985  0.583347  0.859350  1
  O  O101  1  0.248235  0.304250  0.814269  1
  O  O102  1  0.010874  0.052759  0.283577  1
  O  O103  1  0.616060  0.641081  0.473932  1
  O  O104  1  0.620761  0.007835  0.257740  1
  O  O105  1  0.056376  0.148528  0.710152  1
  O  O106  1  0.167163  0.783887  0.814869  1
  O  O107  1  0.497242  0.224711  0.875122  1
  O  O108  1  0.799015  0.083347  0.640650  1
  O  O109  1  0.703874  0.354339  0.316839  1
  O  O110  1  0.497242  0.275289  0.375122  1
  O  O111  1  0.832837  0.283887  0.685131  1
  O  O112  1  0.980677  0.769929  0.149537  1
  O  O113  1  0.943624  0.851472  0.289848  1
  O  O114  1  0.990006  0.474148  0.079225  1
  O  O115  1  0.379239  0.992165  0.742260  1
  O  O116  1  0.920912  0.304690  0.463345  1
  O  O117  1  0.009994  0.974148  0.420775  1
  O  O118  1  0.640673  0.764088  0.837052  1
  O  O119  1  0.285704  0.642748  0.117526  1
  O  O120  1  0.657168  0.943503  0.406118  1
  O  O121  1  0.691204  0.053023  0.953652  1
  O  O122  1  0.296126  0.645661  0.683161  1
  O  O123  1  0.592743  0.642574  0.038479  1
  O  O124  1  0.875260  0.922583  0.040412  1
  O  O125  1  0.342832  0.056497  0.593882  1
  O  O126  1  0.019323  0.230071  0.850463  1
  O  O127  1  0.316616  0.001492  0.904776  1
  O  O128  1  0.407257  0.357426  0.961521  1
  O  O129  1  0.722637  0.237295  0.530297  1
  O  O130  1  0.691204  0.446977  0.453652  1
  O  O131  1  0.457503  0.427467  0.834902  1
