# generated using pymatgen
data_Li8Fe3Ni7O20
_symmetry_space_group_name_H-M   'P 1'
_cell_length_a   5.17260831
_cell_length_b   2.87956499
_cell_length_c   23.86792418
_cell_angle_alpha   90.00000000
_cell_angle_beta   93.54599065
_cell_angle_gamma   90.00000000
_symmetry_Int_Tables_number   1
_chemical_formula_structural   Li8Fe3Ni7O20
_chemical_formula_sum   'Li8 Fe3 Ni7 O20'
_cell_volume   354.82880011
_cell_formula_units_Z   1
loop_
 _symmetry_equiv_pos_site_id
 _symmetry_equiv_pos_as_xyz
  1  'x, y, z'
loop_
 _atom_site_type_symbol
 _atom_site_label
 _atom_site_symmetry_multiplicity
 _atom_site_fract_x
 _atom_site_fract_y
 _atom_site_fract_z
 _atom_site_occupancy
  Li  Li0  1  0.500000  0.500000  0.000000  1
  Li  Li1  1  0.500000  0.000000  0.500000  1
  Li  Li2  1  0.697245  0.000000  0.101180  1
  Li  Li3  1  0.898666  0.500000  0.200005  1
  Li  Li4  1  0.882186  0.000000  0.691413  1
  Li  Li5  1  0.101334  0.500000  0.799995  1
  Li  Li6  1  0.302755  0.000000  0.898820  1
  Li  Li7  1  0.117814  0.000000  0.308587  1
  Fe  Fe8  1  0.806594  0.500000  0.897078  1
  Fe  Fe9  1  0.000000  0.000000  0.000000  1
  Fe  Fe10  1  0.193406  0.500000  0.102922  1
  Ni  Ni11  1  0.597814  0.000000  0.797863  1
  Ni  Ni12  1  0.402186  0.000000  0.202137  1
  Ni  Ni13  1  0.607390  0.500000  0.300761  1
  Ni  Ni14  1  0.801797  0.000000  0.401407  1
  Ni  Ni15  1  0.000000  0.500000  0.500000  1
  Ni  Ni16  1  0.198203  0.000000  0.598593  1
  Ni  Ni17  1  0.392610  0.500000  0.699239  1
  O  O18  1  0.526740  0.500000  0.153288  1
  O  O19  1  0.473260  0.500000  0.846712  1
  O  O20  1  0.516653  0.000000  0.657281  1
  O  O21  1  0.669957  0.000000  0.948178  1
  O  O22  1  0.483347  0.000000  0.342719  1
  O  O23  1  0.702764  0.500000  0.746735  1
  O  O24  1  0.699234  0.500000  0.452047  1
  O  O25  1  0.860927  0.500000  0.049914  1
  O  O26  1  0.738705  0.000000  0.257349  1
  O  O27  1  0.947636  0.000000  0.848023  1
  O  O28  1  0.052364  0.000000  0.151977  1
  O  O29  1  0.874544  0.000000  0.542347  1
  O  O30  1  0.904804  0.500000  0.349809  1
  O  O31  1  0.139073  0.500000  0.950086  1
  O  O32  1  0.095196  0.500000  0.650191  1
  O  O33  1  0.125456  0.000000  0.457653  1
  O  O34  1  0.330043  0.000000  0.051822  1
  O  O35  1  0.261295  0.000000  0.742651  1
  O  O36  1  0.300766  0.500000  0.547953  1
  O  O37  1  0.297236  0.500000  0.253265  1
