# generated using pymatgen
data_V6O7F5
_symmetry_space_group_name_H-M   'P 1'
_cell_length_a   4.72211971
_cell_length_b   5.63567792
_cell_length_c   7.76713409
_cell_angle_alpha   86.02193443
_cell_angle_beta   88.33059845
_cell_angle_gamma   87.53965347
_symmetry_Int_Tables_number   1
_chemical_formula_structural   V6O7F5
_chemical_formula_sum   'V6 O7 F5'
_cell_volume   205.94261805
_cell_formula_units_Z   1
loop_
 _symmetry_equiv_pos_site_id
 _symmetry_equiv_pos_as_xyz
  1  'x, y, z'
loop_
 _atom_site_type_symbol
 _atom_site_label
 _atom_site_symmetry_multiplicity
 _atom_site_fract_x
 _atom_site_fract_y
 _atom_site_fract_z
 _atom_site_occupancy
  V  V0  1  0.548977  0.854527  0.663806  1
  V  V1  1  0.523574  0.503755  0.010724  1
  V  V2  1  0.489515  0.165155  0.333820  1
  V  V3  1  0.996135  0.328217  0.668672  1
  V  V4  1  0.994097  0.659591  0.320991  1
  V  V5  1  0.959187  0.997989  0.999673  1
  O  O6  1  0.804649  0.699495  0.099255  1
  O  O7  1  0.792796  0.040673  0.763910  1
  O  O8  1  0.697006  0.194611  0.108588  1
  O  O9  1  0.688571  0.543768  0.761030  1
  O  O10  1  0.705206  0.866445  0.438385  1
  O  O11  1  0.302277  0.122918  0.568550  1
  O  O12  1  0.304068  0.461991  0.237487  1
  F  F13  1  0.803111  0.363350  0.434535  1
  F  F14  1  0.302920  0.809849  0.895675  1
  F  F15  1  0.196952  0.959767  0.223932  1
  F  F16  1  0.193853  0.299812  0.903773  1
  F  F17  1  0.197106  0.628084  0.567190  1
