# generated using pymatgen
data_BaTi8O16
_symmetry_space_group_name_H-M   'P 1'
_cell_length_a   5.97462367
_cell_length_b   7.31568781
_cell_length_c   7.44892898
_cell_angle_alpha   89.42081378
_cell_angle_beta   101.61739961
_cell_angle_gamma   101.84255830
_symmetry_Int_Tables_number   1
_chemical_formula_structural   BaTi8O16
_chemical_formula_sum   'Ba1 Ti8 O16'
_cell_volume   311.95806137
_cell_formula_units_Z   1
loop_
 _symmetry_equiv_pos_site_id
 _symmetry_equiv_pos_as_xyz
  1  'x, y, z'
loop_
 _atom_site_type_symbol
 _atom_site_label
 _atom_site_symmetry_multiplicity
 _atom_site_fract_x
 _atom_site_fract_y
 _atom_site_fract_z
 _atom_site_occupancy
  Ba  Ba0  1  0.021246  0.999835  0.000709  1
  Ti  Ti1  1  0.577076  0.481955  0.820219  1
  Ti  Ti2  1  0.076834  0.495556  0.815643  1
  Ti  Ti3  1  0.662965  0.179007  0.470343  1
  Ti  Ti4  1  0.169148  0.187206  0.486189  1
  Ti  Ti5  1  0.831502  0.813384  0.511717  1
  Ti  Ti6  1  0.338370  0.820895  0.531570  1
  Ti  Ti7  1  0.922616  0.502849  0.184476  1
  Ti  Ti8  1  0.425250  0.519558  0.179281  1
  O  O9  1  0.830143  0.354633  0.945639  1
  O  O10  1  0.322555  0.356494  0.944585  1
  O  O11  1  0.978288  0.304056  0.617599  1
  O  O12  1  0.484701  0.306222  0.613741  1
  O  O13  1  0.852800  0.036669  0.354630  1
  O  O14  1  0.346035  0.037640  0.357182  1
  O  O15  1  0.840620  0.643033  0.720544  1
  O  O16  1  0.340248  0.634744  0.715332  1
  O  O17  1  0.660523  0.365023  0.284921  1
  O  O18  1  0.162282  0.357009  0.279174  1
  O  O19  1  0.149409  0.963140  0.645936  1
  O  O20  1  0.655885  0.962190  0.641699  1
  O  O21  1  0.023736  0.696049  0.382541  1
  O  O22  1  0.516363  0.693599  0.386299  1
  O  O23  1  0.679643  0.642996  0.055639  1
  O  O24  1  0.172813  0.646256  0.054394  1
