# generated using pymatgen
data_Li3V4(OF3)3
_symmetry_space_group_name_H-M   'P 1'
_cell_length_a   5.23505238
_cell_length_b   5.51482154
_cell_length_c   8.93586898
_cell_angle_alpha   105.18510499
_cell_angle_beta   89.62368171
_cell_angle_gamma   117.54183534
_symmetry_Int_Tables_number   1
_chemical_formula_structural   Li3V4(OF3)3
_chemical_formula_sum   'Li3 V4 O3 F9'
_cell_volume   218.77202244
_cell_formula_units_Z   1
loop_
 _symmetry_equiv_pos_site_id
 _symmetry_equiv_pos_as_xyz
  1  'x, y, z'
loop_
 _atom_site_type_symbol
 _atom_site_label
 _atom_site_symmetry_multiplicity
 _atom_site_fract_x
 _atom_site_fract_y
 _atom_site_fract_z
 _atom_site_occupancy
  Li  Li0  1  0.914111  0.216965  0.651587  1
  Li  Li1  1  0.198535  0.977347  0.403459  1
  Li  Li2  1  0.413466  0.705057  0.142081  1
  V  V3  1  0.007170  0.033994  0.993114  1
  V  V4  1  0.733602  0.266524  0.253334  1
  V  V5  1  0.500140  0.468312  0.502498  1
  V  V6  1  0.255048  0.750983  0.753534  1
  O  O7  1  0.542162  0.430132  0.307568  1
  O  O8  1  0.493131  0.113691  0.620561  1
  O  O9  1  0.046982  0.385549  0.872460  1
  F  F10  1  0.946933  0.673017  0.555111  1
  F  F11  1  0.939871  0.066501  0.198187  1
  F  F12  1  0.007594  0.636334  0.128334  1
  F  F13  1  0.478488  0.862581  0.365940  1
  F  F14  1  0.439836  0.150291  0.069678  1
  F  F15  1  0.432375  0.571852  0.672686  1
  F  F16  1  0.570295  0.822256  0.950319  1
  F  F17  1  0.043125  0.280571  0.447379  1
  F  F18  1  0.048263  0.937271  0.806198  1
