# generated using pymatgen
data_Li4Ni3Sb5O16
_symmetry_space_group_name_H-M   'P 1'
_cell_length_a   6.16915255
_cell_length_b   6.16915255
_cell_length_c   10.22520376
_cell_angle_alpha   89.74837454
_cell_angle_beta   90.25162546
_cell_angle_gamma   119.82175371
_symmetry_Int_Tables_number   1
_chemical_formula_structural   Li4Ni3Sb5O16
_chemical_formula_sum   'Li4 Ni3 Sb5 O16'
_cell_volume   337.61775514
_cell_formula_units_Z   1
loop_
 _symmetry_equiv_pos_site_id
 _symmetry_equiv_pos_as_xyz
  1  'x, y, z'
loop_
 _atom_site_type_symbol
 _atom_site_label
 _atom_site_symmetry_multiplicity
 _atom_site_fract_x
 _atom_site_fract_y
 _atom_site_fract_z
 _atom_site_occupancy
  Li  Li0  1  0.335575  0.664425  0.112578  1
  Li  Li1  1  0.008662  0.991338  0.013717  1
  Li  Li2  1  0.005623  0.994377  0.497167  1
  Li  Li3  1  0.675601  0.324399  0.596313  1
  Ni  Ni4  1  0.169056  0.830944  0.785406  1
  Ni  Ni5  1  0.335389  0.171176  0.285957  1
  Ni  Ni6  1  0.828824  0.664611  0.285957  1
  Sb  Sb7  1  0.168744  0.335067  0.784124  1
  Sb  Sb8  1  0.322210  0.677790  0.489216  1
  Sb  Sb9  1  0.664933  0.831256  0.784124  1
  Sb  Sb10  1  0.829428  0.170572  0.283241  1
  Sb  Sb11  1  0.651059  0.348941  0.027867  1
  O  O12  1  0.144526  0.318511  0.396418  1
  O  O13  1  0.495835  0.504165  0.681109  1
  O  O14  1  0.339413  0.660587  0.892103  1
  O  O15  1  0.997940  0.002060  0.681042  1
  O  O16  1  0.992787  0.007213  0.191626  1
  O  O17  1  0.681489  0.855474  0.396418  1
  O  O18  1  0.031474  0.501472  0.672503  1
  O  O19  1  0.498528  0.968526  0.672503  1
  O  O20  1  0.848669  0.151331  0.892590  1
  O  O21  1  0.157685  0.842315  0.399378  1
  O  O22  1  0.524086  0.034197  0.161889  1
  O  O23  1  0.965803  0.475914  0.161889  1
  O  O24  1  0.674037  0.325963  0.390411  1
  O  O25  1  0.301620  0.163657  0.898268  1
  O  O26  1  0.513702  0.486298  0.160099  1
  O  O27  1  0.836343  0.698380  0.898268  1
