# generated using pymatgen
data_Li4Cr3GaO8
_symmetry_space_group_name_H-M   'P 1'
_cell_length_a   5.93122330
_cell_length_b   5.93122330
_cell_length_c   5.13331732
_cell_angle_alpha   73.25109016
_cell_angle_beta   106.74890984
_cell_angle_gamma   120.03493005
_symmetry_Int_Tables_number   1
_chemical_formula_structural   Li4Cr3GaO8
_chemical_formula_sum   'Li4 Cr3 Ga1 O8'
_cell_volume   147.43172695
_cell_formula_units_Z   1
loop_
 _symmetry_equiv_pos_site_id
 _symmetry_equiv_pos_as_xyz
  1  'x, y, z'
loop_
 _atom_site_type_symbol
 _atom_site_label
 _atom_site_symmetry_multiplicity
 _atom_site_fract_x
 _atom_site_fract_y
 _atom_site_fract_z
 _atom_site_occupancy
  Li  Li0  1  0.250167  0.749833  0.500645  1
  Li  Li1  1  0.749833  0.250167  0.499355  1
  Li  Li2  1  0.500000  0.000000  0.000000  1
  Li  Li3  1  0.000000  0.500000  0.000000  1
  Cr  Cr4  1  0.750273  0.750273  0.500000  1
  Cr  Cr5  1  0.249727  0.249727  0.500000  1
  Cr  Cr6  1  0.500000  0.500000  0.000000  1
  Ga  Ga7  1  0.000000  0.000000  0.000000  1
  O  O8  1  0.886998  0.113002  0.257701  1
  O  O9  1  0.387809  0.612191  0.258526  1
  O  O10  1  0.637445  0.863205  0.758451  1
  O  O11  1  0.362556  0.136795  0.241549  1
  O  O12  1  0.863205  0.637445  0.241549  1
  O  O13  1  0.113002  0.886998  0.742299  1
  O  O14  1  0.136795  0.362556  0.758451  1
  O  O15  1  0.612191  0.387809  0.741474  1
