# generated using pymatgen
data_V6O7F5
_symmetry_space_group_name_H-M   'P 1'
_cell_length_a   4.69214614
_cell_length_b   9.31877404
_cell_length_c   4.69884485
_cell_angle_alpha   90.00000000
_cell_angle_beta   92.69930770
_cell_angle_gamma   90.00000000
_symmetry_Int_Tables_number   1
_chemical_formula_structural   V6O7F5
_chemical_formula_sum   'V6 O7 F5'
_cell_volume   205.22925796
_cell_formula_units_Z   1
loop_
 _symmetry_equiv_pos_site_id
 _symmetry_equiv_pos_as_xyz
  1  'x, y, z'
loop_
 _atom_site_type_symbol
 _atom_site_label
 _atom_site_symmetry_multiplicity
 _atom_site_fract_x
 _atom_site_fract_y
 _atom_site_fract_z
 _atom_site_occupancy
  V  V0  1  0.991735  0.326640  0.016497  1
  V  V1  1  0.991735  0.673360  0.016497  1
  V  V2  1  0.956935  0.000000  0.992634  1
  V  V3  1  0.500121  0.500000  0.511140  1
  V  V4  1  0.525303  0.175292  0.485909  1
  V  V5  1  0.525303  0.824708  0.485909  1
  O  O6  1  0.804174  0.831446  0.192833  1
  O  O7  1  0.804174  0.168554  0.192833  1
  O  O8  1  0.702254  0.344281  0.699787  1
  O  O9  1  0.702254  0.655719  0.699787  1
  O  O10  1  0.686654  0.000000  0.681831  1
  O  O11  1  0.307307  0.342473  0.311480  1
  O  O12  1  0.307307  0.657527  0.311480  1
  F  F13  1  0.799622  0.500000  0.207253  1
  F  F14  1  0.300228  0.000000  0.283235  1
  F  F15  1  0.198176  0.500000  0.815503  1
  F  F16  1  0.198358  0.164626  0.797696  1
  F  F17  1  0.198358  0.835374  0.797696  1
