# generated using pymatgen
data_Li3V2Fe3O10
_symmetry_space_group_name_H-M   'P 1'
_cell_length_a   5.14334003
_cell_length_b   5.18183410
_cell_length_c   7.86816055
_cell_angle_alpha   73.70501581
_cell_angle_beta   73.29448314
_cell_angle_gamma   77.57215098
_symmetry_Int_Tables_number   1
_chemical_formula_structural   Li3V2Fe3O10
_chemical_formula_sum   'Li3 V2 Fe3 O10'
_cell_volume   190.70685206
_cell_formula_units_Z   1
loop_
 _symmetry_equiv_pos_site_id
 _symmetry_equiv_pos_as_xyz
  1  'x, y, z'
loop_
 _atom_site_type_symbol
 _atom_site_label
 _atom_site_symmetry_multiplicity
 _atom_site_fract_x
 _atom_site_fract_y
 _atom_site_fract_z
 _atom_site_occupancy
  Li  Li0  1  0.517513  0.795706  0.393774  1
  Li  Li1  1  0.000000  0.500000  0.500000  1
  Li  Li2  1  0.482487  0.204294  0.606226  1
  V  V3  1  0.018777  0.881901  0.688255  1
  V  V4  1  0.981223  0.118099  0.311745  1
  Fe  Fe5  1  0.500000  0.000000  0.000000  1
  Fe  Fe6  1  0.965645  0.309421  0.901581  1
  Fe  Fe7  1  0.034355  0.690579  0.098419  1
  O  O8  1  0.232295  0.957855  0.858286  1
  O  O9  1  0.788236  0.888881  0.522508  1
  O  O10  1  0.785578  0.677431  0.939975  1
  O  O11  1  0.251028  0.802278  0.230987  1
  O  O12  1  0.195186  0.543799  0.670849  1
  O  O13  1  0.804814  0.456201  0.329151  1
  O  O14  1  0.748972  0.197722  0.769013  1
  O  O15  1  0.214422  0.322569  0.060025  1
  O  O16  1  0.211764  0.111119  0.477492  1
  O  O17  1  0.767705  0.042145  0.141714  1
