# generated using pymatgen
data_Li3MnAl2O6
_symmetry_space_group_name_H-M   'P 1'
_cell_length_a   9.78829740
_cell_length_b   5.60010655
_cell_length_c   11.30304037
_cell_angle_alpha   90.00000000
_cell_angle_beta   125.06345185
_cell_angle_gamma   90.00000000
_symmetry_Int_Tables_number   1
_chemical_formula_structural   Li3MnAl2O6
_chemical_formula_sum   'Li12 Mn4 Al8 O24'
_cell_volume   507.13791162
_cell_formula_units_Z   4
loop_
 _symmetry_equiv_pos_site_id
 _symmetry_equiv_pos_as_xyz
  1  'x, y, z'
loop_
 _atom_site_type_symbol
 _atom_site_label
 _atom_site_symmetry_multiplicity
 _atom_site_fract_x
 _atom_site_fract_y
 _atom_site_fract_z
 _atom_site_occupancy
  Li  Li0  1  0.073874  0.744441  0.963676  1
  Li  Li1  1  0.254909  0.502497  0.235606  1
  Li  Li2  1  0.926126  0.244441  0.536324  1
  Li  Li3  1  0.421434  0.253329  0.134190  1
  Li  Li4  1  0.254909  0.997503  0.735606  1
  Li  Li5  1  0.578566  0.753329  0.365810  1
  Li  Li6  1  0.421434  0.246671  0.634190  1
  Li  Li7  1  0.745091  0.002497  0.264394  1
  Li  Li8  1  0.578566  0.746671  0.865810  1
  Li  Li9  1  0.073874  0.755559  0.463676  1
  Li  Li10  1  0.745091  0.497503  0.764394  1
  Li  Li11  1  0.926126  0.255559  0.036324  1
  Mn  Mn12  1  0.251858  0.002582  0.243441  1
  Mn  Mn13  1  0.251858  0.497418  0.743441  1
  Mn  Mn14  1  0.748142  0.502582  0.256559  1
  Mn  Mn15  1  0.748142  0.997418  0.756559  1
  Al  Al16  1  0.876153  0.736336  0.605266  1
  Al  Al17  1  0.123847  0.236336  0.894734  1
  Al  Al18  1  0.627058  0.241591  0.478242  1
  Al  Al19  1  0.372942  0.741591  0.021758  1
  Al  Al20  1  0.627058  0.258409  0.978242  1
  Al  Al21  1  0.372942  0.758409  0.521758  1
  Al  Al22  1  0.876153  0.763664  0.105266  1
  Al  Al23  1  0.123847  0.263664  0.394734  1
  O  O24  1  0.927472  0.222028  0.867424  1
  O  O25  1  0.888507  0.743364  0.767935  1
  O  O26  1  0.757931  0.993452  0.498501  1
  O  O27  1  0.242069  0.493452  0.001499  1
  O  O28  1  0.111493  0.243364  0.732065  1
  O  O29  1  0.607192  0.247118  0.624421  1
  O  O30  1  0.253168  0.993920  0.012994  1
  O  O31  1  0.072528  0.722028  0.632576  1
  O  O32  1  0.432702  0.224393  0.308384  1
  O  O33  1  0.567298  0.724393  0.191616  1
  O  O34  1  0.746832  0.493920  0.487006  1
  O  O35  1  0.392808  0.747118  0.875579  1
  O  O36  1  0.607192  0.252882  0.124421  1
  O  O37  1  0.253168  0.506080  0.512994  1
  O  O38  1  0.432702  0.275607  0.808384  1
  O  O39  1  0.567298  0.775607  0.691616  1
  O  O40  1  0.927472  0.277972  0.367424  1
  O  O41  1  0.746832  0.006080  0.987006  1
  O  O42  1  0.392808  0.752882  0.375579  1
  O  O43  1  0.888507  0.756636  0.267935  1
  O  O44  1  0.757931  0.506548  0.998501  1
  O  O45  1  0.242069  0.006548  0.501499  1
  O  O46  1  0.111493  0.256636  0.232065  1
  O  O47  1  0.072528  0.777972  0.132576  1
