# generated using pymatgen
data_Co3(OF2)2
_symmetry_space_group_name_H-M   'P 1'
_cell_length_a   4.73395655
_cell_length_b   4.73395655
_cell_length_c   9.23124532
_cell_angle_alpha   89.18519949
_cell_angle_beta   90.81480051
_cell_angle_gamma   85.52876386
_symmetry_Int_Tables_number   1
_chemical_formula_structural   Co3(OF2)2
_chemical_formula_sum   'Co6 O4 F8'
_cell_volume   206.20054509
_cell_formula_units_Z   2
loop_
 _symmetry_equiv_pos_site_id
 _symmetry_equiv_pos_as_xyz
  1  'x, y, z'
loop_
 _atom_site_type_symbol
 _atom_site_label
 _atom_site_symmetry_multiplicity
 _atom_site_fract_x
 _atom_site_fract_y
 _atom_site_fract_z
 _atom_site_occupancy
  Co  Co0  1  0.000000  0.000000  0.000000  1
  Co  Co1  1  0.034378  0.965622  0.668962  1
  Co  Co2  1  0.965622  0.034378  0.331038  1
  Co  Co3  1  0.501602  0.498398  0.844316  1
  Co  Co4  1  0.498398  0.501602  0.155684  1
  Co  Co5  1  0.500000  0.500000  0.500000  1
  O  O6  1  0.697786  0.302214  0.993260  1
  O  O7  1  0.683062  0.316938  0.324695  1
  O  O8  1  0.302214  0.697786  0.006740  1
  O  O9  1  0.316938  0.683062  0.675305  1
  F  F10  1  0.198446  0.188405  0.832188  1
  F  F11  1  0.188405  0.198446  0.167812  1
  F  F12  1  0.193249  0.193249  0.500000  1
  F  F13  1  0.719277  0.280723  0.669886  1
  F  F14  1  0.280723  0.719277  0.330114  1
  F  F15  1  0.811595  0.801554  0.832188  1
  F  F16  1  0.801554  0.811595  0.167812  1
  F  F17  1  0.806751  0.806751  0.500000  1
