# generated using pymatgen
data_Fe2OF3
_symmetry_space_group_name_H-M   'P 1'
_cell_length_a   4.88297708
_cell_length_b   4.88297708
_cell_length_c   6.16995101
_cell_angle_alpha   90.00000000
_cell_angle_beta   90.00000000
_cell_angle_gamma   91.77147828
_symmetry_Int_Tables_number   1
_chemical_formula_structural   Fe2OF3
_chemical_formula_sum   'Fe4 O2 F6'
_cell_volume   147.04270276
_cell_formula_units_Z   2
loop_
 _symmetry_equiv_pos_site_id
 _symmetry_equiv_pos_as_xyz
  1  'x, y, z'
loop_
 _atom_site_type_symbol
 _atom_site_label
 _atom_site_symmetry_multiplicity
 _atom_site_fract_x
 _atom_site_fract_y
 _atom_site_fract_z
 _atom_site_occupancy
  Fe  Fe0  1  0.969449  0.969449  0.750000  1
  Fe  Fe1  1  0.030551  0.030551  0.250000  1
  Fe  Fe2  1  0.500000  0.500000  0.000000  1
  Fe  Fe3  1  0.500000  0.500000  0.500000  1
  O  O4  1  0.331863  0.331863  0.250000  1
  O  O5  1  0.668137  0.668137  0.750000  1
  F  F6  1  0.795145  0.204855  0.000000  1
  F  F7  1  0.795145  0.204855  0.500000  1
  F  F8  1  0.290134  0.290134  0.750000  1
  F  F9  1  0.709866  0.709866  0.250000  1
  F  F10  1  0.204855  0.795145  0.500000  1
  F  F11  1  0.204855  0.795145  0.000000  1
