# generated using pymatgen
data_LiNiSnO4
_symmetry_space_group_name_H-M   'P 1'
_cell_length_a   5.16708439
_cell_length_b   3.02290061
_cell_length_c   5.30366183
_cell_angle_alpha   90.00000000
_cell_angle_beta   107.22661933
_cell_angle_gamma   90.00000000
_symmetry_Int_Tables_number   1
_chemical_formula_structural   LiNiSnO4
_chemical_formula_sum   'Li1 Ni1 Sn1 O4'
_cell_volume   79.12480982
_cell_formula_units_Z   1
loop_
 _symmetry_equiv_pos_site_id
 _symmetry_equiv_pos_as_xyz
  1  'x, y, z'
loop_
 _atom_site_type_symbol
 _atom_site_label
 _atom_site_symmetry_multiplicity
 _atom_site_fract_x
 _atom_site_fract_y
 _atom_site_fract_z
 _atom_site_occupancy
  Li  Li0  1  0.000000  0.000000  0.000000  1
  Ni  Ni1  1  0.500000  0.500000  0.000000  1
  Sn  Sn2  1  0.500000  0.000000  0.500000  1
  O  O3  1  0.698364  0.000000  0.201039  1
  O  O4  1  0.729460  0.500000  0.733684  1
  O  O5  1  0.270540  0.500000  0.266316  1
  O  O6  1  0.301636  0.000000  0.798961  1
