# generated using pymatgen
data_LiCuPO4
_symmetry_space_group_name_H-M   'P 1'
_cell_length_a   4.90395094
_cell_length_b   4.90395094
_cell_length_c   6.27371204
_cell_angle_alpha   90.00000000
_cell_angle_beta   90.00000000
_cell_angle_gamma   110.44416603
_symmetry_Int_Tables_number   1
_chemical_formula_structural   LiCuPO4
_chemical_formula_sum   'Li2 Cu2 P2 O8'
_cell_volume   141.37168650
_cell_formula_units_Z   2
loop_
 _symmetry_equiv_pos_site_id
 _symmetry_equiv_pos_as_xyz
  1  'x, y, z'
loop_
 _atom_site_type_symbol
 _atom_site_label
 _atom_site_symmetry_multiplicity
 _atom_site_fract_x
 _atom_site_fract_y
 _atom_site_fract_z
 _atom_site_occupancy
  Li  Li0  1  0.674316  0.325684  0.750000  1
  Li  Li1  1  0.325684  0.674316  0.250000  1
  Cu  Cu2  1  0.000000  0.000000  0.000000  1
  Cu  Cu3  1  0.000000  0.000000  0.500000  1
  P  P4  1  0.652517  0.347483  0.250000  1
  P  P5  1  0.347483  0.652517  0.750000  1
  O  O6  1  0.759622  0.240378  0.046495  1
  O  O7  1  0.759622  0.240378  0.453505  1
  O  O8  1  0.310509  0.242644  0.250000  1
  O  O9  1  0.242644  0.310509  0.750000  1
  O  O10  1  0.757356  0.689491  0.250000  1
  O  O11  1  0.689491  0.757356  0.750000  1
  O  O12  1  0.240378  0.759622  0.953505  1
  O  O13  1  0.240378  0.759622  0.546495  1
