# generated using pymatgen
data_V3Sb(PO4)4
_symmetry_space_group_name_H-M   'P 1'
_cell_length_a   4.99574990
_cell_length_b   6.03292480
_cell_length_c   10.33016225
_cell_angle_alpha   90.00000000
_cell_angle_beta   90.14344032
_cell_angle_gamma   90.00000000
_symmetry_Int_Tables_number   1
_chemical_formula_structural   V3Sb(PO4)4
_chemical_formula_sum   'V3 Sb1 P4 O16'
_cell_volume   311.33961385
_cell_formula_units_Z   1
loop_
 _symmetry_equiv_pos_site_id
 _symmetry_equiv_pos_as_xyz
  1  'x, y, z'
loop_
 _atom_site_type_symbol
 _atom_site_label
 _atom_site_symmetry_multiplicity
 _atom_site_fract_x
 _atom_site_fract_y
 _atom_site_fract_z
 _atom_site_occupancy
  V  V0  1  0.523023  0.500000  0.228601  1
  V  V1  1  0.472297  0.000000  0.779846  1
  V  V2  1  0.020428  0.000000  0.265832  1
  Sb  Sb3  1  0.974646  0.500000  0.723595  1
  P  P4  1  0.892618  0.000000  0.595565  1
  P  P5  1  0.583845  0.000000  0.099910  1
  P  P6  1  0.433199  0.500000  0.914507  1
  P  P7  1  0.091506  0.500000  0.388429  1
  O  O8  1  0.870740  0.000000  0.449001  1
  O  O9  1  0.726715  0.195509  0.661895  1
  O  O10  1  0.726715  0.804491  0.661895  1
  O  O11  1  0.788899  0.500000  0.368396  1
  O  O12  1  0.737216  0.500000  0.898455  1
  O  O13  1  0.730419  0.198647  0.172021  1
  O  O14  1  0.730419  0.801353  0.172021  1
  O  O15  1  0.645381  0.000000  0.954609  1
  O  O16  1  0.356266  0.500000  0.056671  1
  O  O17  1  0.298357  0.702733  0.841724  1
  O  O18  1  0.298357  0.297267  0.841724  1
  O  O19  1  0.282853  0.000000  0.123238  1
  O  O20  1  0.182952  0.000000  0.641849  1
  O  O21  1  0.230765  0.700581  0.315207  1
  O  O22  1  0.230765  0.299419  0.315207  1
  O  O23  1  0.171617  0.500000  0.529795  1
