# generated using pymatgen
data_Mn6O5F7
_symmetry_space_group_name_H-M   'P 1'
_cell_length_a   4.74222060
_cell_length_b   5.74097927
_cell_length_c   15.63151875
_cell_angle_alpha   90.00000000
_cell_angle_beta   90.49471363
_cell_angle_gamma   90.00000000
_symmetry_Int_Tables_number   1
_chemical_formula_structural   Mn6O5F7
_chemical_formula_sum   'Mn12 O10 F14'
_cell_volume   425.55208116
_cell_formula_units_Z   2
loop_
 _symmetry_equiv_pos_site_id
 _symmetry_equiv_pos_as_xyz
  1  'x, y, z'
loop_
 _atom_site_type_symbol
 _atom_site_label
 _atom_site_symmetry_multiplicity
 _atom_site_fract_x
 _atom_site_fract_y
 _atom_site_fract_z
 _atom_site_occupancy
  Mn  Mn0  1  0.961346  0.844315  0.580701  1
  Mn  Mn1  1  0.989704  0.185132  0.754403  1
  Mn  Mn2  1  0.992189  0.863813  0.918441  1
  Mn  Mn3  1  0.989704  0.814868  0.254403  1
  Mn  Mn4  1  0.992189  0.136187  0.418441  1
  Mn  Mn5  1  0.961346  0.155685  0.080701  1
  Mn  Mn6  1  0.524640  0.665906  0.414724  1
  Mn  Mn7  1  0.533057  0.654165  0.080155  1
  Mn  Mn8  1  0.488954  0.625087  0.749467  1
  Mn  Mn9  1  0.524640  0.334094  0.914724  1
  Mn  Mn10  1  0.533057  0.345835  0.580155  1
  Mn  Mn11  1  0.488954  0.374913  0.249467  1
  O  O12  1  0.796151  0.882480  0.362407  1
  O  O13  1  0.783236  0.895415  0.025834  1
  O  O14  1  0.796151  0.117520  0.862407  1
  O  O15  1  0.783236  0.104585  0.525834  1
  O  O16  1  0.711672  0.390740  0.690211  1
  O  O17  1  0.720728  0.620925  0.523819  1
  O  O18  1  0.711672  0.609260  0.190211  1
  O  O19  1  0.720728  0.379075  0.023819  1
  O  O20  1  0.299062  0.377968  0.810159  1
  O  O21  1  0.299062  0.622032  0.310159  1
  F  F22  1  0.741109  0.878357  0.700732  1
  F  F23  1  0.741109  0.121643  0.200732  1
  F  F24  1  0.749790  0.612433  0.861069  1
  F  F25  1  0.749790  0.387567  0.361069  1
  F  F26  1  0.280349  0.631792  0.971362  1
  F  F27  1  0.230189  0.613565  0.633306  1
  F  F28  1  0.280349  0.368208  0.471362  1
  F  F29  1  0.230189  0.386435  0.133306  1
  F  F30  1  0.235259  0.864072  0.806388  1
  F  F31  1  0.250432  0.879465  0.475396  1
  F  F32  1  0.212135  0.105131  0.641426  1
  F  F33  1  0.250432  0.120535  0.975396  1
  F  F34  1  0.212135  0.894869  0.141426  1
  F  F35  1  0.235259  0.135928  0.306388  1
