# generated using pymatgen
data_ZnH12N4Cl4O3
_symmetry_space_group_name_H-M   'P 1'
_cell_length_a   9.48193379
_cell_length_b   10.01340525
_cell_length_c   12.78253433
_cell_angle_alpha   90.00000000
_cell_angle_beta   90.00000000
_cell_angle_gamma   90.00000000
_symmetry_Int_Tables_number   1
_chemical_formula_structural   ZnH12N4Cl4O3
_chemical_formula_sum   'Zn4 H48 N16 Cl16 O12'
_cell_volume   1213.65620030
_cell_formula_units_Z   4
loop_
 _symmetry_equiv_pos_site_id
 _symmetry_equiv_pos_as_xyz
  1  'x, y, z'
loop_
 _atom_site_type_symbol
 _atom_site_label
 _atom_site_symmetry_multiplicity
 _atom_site_fract_x
 _atom_site_fract_y
 _atom_site_fract_z
 _atom_site_occupancy
  Zn  Zn0  1  0.175752  0.750000  0.588750  1
  Zn  Zn1  1  0.324248  0.250000  0.088750  1
  Zn  Zn2  1  0.675752  0.750000  0.911250  1
  Zn  Zn3  1  0.824248  0.250000  0.411250  1
  H  H4  1  0.998724  0.750000  0.074588  1
  H  H5  1  0.050543  0.562282  0.314716  1
  H  H6  1  0.050543  0.937718  0.314716  1
  H  H7  1  0.083269  0.094287  0.277817  1
  H  H8  1  0.083269  0.405713  0.277817  1
  H  H9  1  0.103571  0.834841  0.992251  1
  H  H10  1  0.103571  0.665159  0.992251  1
  H  H11  1  0.111358  0.049827  0.402770  1
  H  H12  1  0.111358  0.450173  0.402770  1
  H  H13  1  0.171015  0.750000  0.095503  1
  H  H14  1  0.219512  0.512349  0.308334  1
  H  H15  1  0.219512  0.987651  0.308334  1
  H  H16  1  0.280488  0.012349  0.808334  1
  H  H17  1  0.280488  0.487651  0.808334  1
  H  H18  1  0.328985  0.250000  0.595503  1
  H  H19  1  0.388642  0.549827  0.902770  1
  H  H20  1  0.388642  0.950173  0.902770  1
  H  H21  1  0.396429  0.165159  0.492251  1
  H  H22  1  0.396429  0.334841  0.492251  1
  H  H23  1  0.416731  0.594287  0.777817  1
  H  H24  1  0.416731  0.905713  0.777817  1
  H  H25  1  0.449457  0.062282  0.814716  1
  H  H26  1  0.449457  0.437718  0.814716  1
  H  H27  1  0.501276  0.250000  0.574588  1
  H  H28  1  0.498724  0.750000  0.425412  1
  H  H29  1  0.550543  0.562282  0.185284  1
  H  H30  1  0.550543  0.937718  0.185284  1
  H  H31  1  0.583269  0.094287  0.222183  1
  H  H32  1  0.583269  0.405713  0.222183  1
  H  H33  1  0.603571  0.665159  0.507749  1
  H  H34  1  0.603571  0.834841  0.507749  1
  H  H35  1  0.611358  0.049827  0.097230  1
  H  H36  1  0.611358  0.450173  0.097230  1
  H  H37  1  0.671015  0.750000  0.404497  1
  H  H38  1  0.719512  0.512349  0.191666  1
  H  H39  1  0.719512  0.987651  0.191666  1
  H  H40  1  0.780488  0.012349  0.691666  1
  H  H41  1  0.780488  0.487651  0.691666  1
  H  H42  1  0.828985  0.250000  0.904497  1
  H  H43  1  0.888642  0.950173  0.597230  1
  H  H44  1  0.888642  0.549827  0.597230  1
  H  H45  1  0.896429  0.165159  0.007749  1
  H  H46  1  0.896429  0.334841  0.007749  1
  H  H47  1  0.916731  0.594287  0.722183  1
  H  H48  1  0.916731  0.905713  0.722183  1
  H  H49  1  0.949457  0.062282  0.685284  1
  H  H50  1  0.949457  0.437718  0.685284  1
  H  H51  1  0.001276  0.250000  0.925412  1
  N  N52  1  0.094841  0.750000  0.036798  1
  N  N53  1  0.117691  0.017524  0.326251  1
  N  N54  1  0.117691  0.482476  0.326251  1
  N  N55  1  0.382309  0.517524  0.826251  1
  N  N56  1  0.382309  0.982476  0.826251  1
  N  N57  1  0.405159  0.250000  0.536798  1
  N  N58  1  0.594841  0.750000  0.463202  1
  N  N59  1  0.617691  0.017524  0.173749  1
  N  N60  1  0.617691  0.482476  0.173749  1
  N  N61  1  0.882309  0.982476  0.673749  1
  N  N62  1  0.882309  0.517524  0.673749  1
  N  N63  1  0.905159  0.250000  0.963202  1
  N  N64  1  0.161767  0.250000  0.773363  1
  N  N65  1  0.338233  0.750000  0.273363  1
  N  N66  1  0.661767  0.250000  0.726637  1
  N  N67  1  0.838233  0.750000  0.226637  1
  Cl  Cl68  1  0.024710  0.250000  0.514583  1
  Cl  Cl69  1  0.083271  0.750000  0.759856  1
  Cl  Cl70  1  0.201773  0.060086  0.060985  1
  Cl  Cl71  1  0.201773  0.439914  0.060985  1
  Cl  Cl72  1  0.298227  0.560086  0.560985  1
  Cl  Cl73  1  0.298227  0.939914  0.560985  1
  Cl  Cl74  1  0.416729  0.250000  0.259856  1
  Cl  Cl75  1  0.475290  0.750000  0.014583  1
  Cl  Cl76  1  0.524710  0.250000  0.985417  1
  Cl  Cl77  1  0.583271  0.750000  0.740144  1
  Cl  Cl78  1  0.701773  0.060086  0.439015  1
  Cl  Cl79  1  0.701773  0.439914  0.439015  1
  Cl  Cl80  1  0.798227  0.560086  0.939015  1
  Cl  Cl81  1  0.798227  0.939914  0.939015  1
  Cl  Cl82  1  0.916729  0.250000  0.240144  1
  Cl  Cl83  1  0.975290  0.750000  0.485417  1
  O  O84  1  0.101767  0.139830  0.796162  1
  O  O85  1  0.101767  0.360170  0.796162  1
  O  O86  1  0.217764  0.750000  0.231921  1
  O  O87  1  0.282236  0.250000  0.731921  1
  O  O88  1  0.398233  0.639830  0.296162  1
  O  O89  1  0.398233  0.860170  0.296162  1
  O  O90  1  0.601767  0.139830  0.703838  1
  O  O91  1  0.601767  0.360170  0.703838  1
  O  O92  1  0.717764  0.750000  0.268079  1
  O  O93  1  0.782236  0.250000  0.768079  1
  O  O94  1  0.898233  0.860170  0.203838  1
  O  O95  1  0.898233  0.639830  0.203838  1
