# generated using pymatgen
data_Li8Mn7Fe(BO3)8
_symmetry_space_group_name_H-M   'P 1'
_cell_length_a   5.25475412
_cell_length_b   8.29364130
_cell_length_c   12.12627546
_cell_angle_alpha   103.29875791
_cell_angle_beta   90.65501860
_cell_angle_gamma   90.73619877
_symmetry_Int_Tables_number   1
_chemical_formula_structural   Li8Mn7Fe(BO3)8
_chemical_formula_sum   'Li8 Mn7 Fe1 B8 O24'
_cell_volume   514.20541766
_cell_formula_units_Z   1
loop_
 _symmetry_equiv_pos_site_id
 _symmetry_equiv_pos_as_xyz
  1  'x, y, z'
loop_
 _atom_site_type_symbol
 _atom_site_label
 _atom_site_symmetry_multiplicity
 _atom_site_fract_x
 _atom_site_fract_y
 _atom_site_fract_z
 _atom_site_occupancy
  Li  Li0  1  0.349303  0.718428  0.022788  1
  Li  Li1  1  0.151174  0.782460  0.227648  1
  Li  Li2  1  0.848998  0.218347  0.272962  1
  Li  Li3  1  0.348573  0.717375  0.522884  1
  Li  Li4  1  0.649877  0.281420  0.477045  1
  Li  Li5  1  0.152514  0.779902  0.726548  1
  Li  Li6  1  0.849711  0.218904  0.772182  1
  Li  Li7  1  0.650534  0.281928  0.976959  1
  Mn  Mn8  1  0.167854  0.419762  0.092618  1
  Mn  Mn9  1  0.332282  0.080465  0.157381  1
  Mn  Mn10  1  0.667590  0.919650  0.343009  1
  Mn  Mn11  1  0.833768  0.580336  0.406606  1
  Mn  Mn12  1  0.331380  0.083055  0.655914  1
  Mn  Mn13  1  0.667794  0.921034  0.842711  1
  Mn  Mn14  1  0.832155  0.580187  0.907106  1
  Fe  Fe15  1  0.163717  0.421527  0.592358  1
  B  B16  1  0.830724  0.904069  0.083197  1
  B  B17  1  0.669335  0.595996  0.166828  1
  B  B18  1  0.330635  0.404306  0.333787  1
  B  B19  1  0.168593  0.098170  0.417261  1
  B  B20  1  0.830531  0.903701  0.583640  1
  B  B21  1  0.671320  0.592157  0.667034  1
  B  B22  1  0.329956  0.405043  0.832505  1
  B  B23  1  0.169524  0.095638  0.916814  1
  O  O24  1  0.089758  0.877474  0.087708  1
  O  O25  1  0.318620  0.188053  0.007006  1
  O  O26  1  0.786795  0.483273  0.080079  1
  O  O27  1  0.410392  0.622901  0.162727  1
  O  O28  1  0.818472  0.688402  0.257063  1
  O  O29  1  0.287426  0.984753  0.331148  1
  O  O30  1  0.712959  0.016663  0.170019  1
  O  O31  1  0.182100  0.312045  0.243377  1
  O  O32  1  0.589851  0.377956  0.338208  1
  O  O33  1  0.213080  0.517142  0.420416  1
  O  O34  1  0.682199  0.810519  0.493427  1
  O  O35  1  0.909076  0.122687  0.412604  1
  O  O36  1  0.089897  0.877637  0.588100  1
  O  O37  1  0.315670  0.192652  0.507309  1
  O  O38  1  0.793635  0.478057  0.581979  1
  O  O39  1  0.411816  0.614459  0.660105  1
  O  O40  1  0.816328  0.688983  0.756493  1
  O  O41  1  0.286189  0.982172  0.830187  1
  O  O42  1  0.711597  0.016711  0.669837  1
  O  O43  1  0.181359  0.313658  0.742017  1
  O  O44  1  0.589000  0.377623  0.837144  1
  O  O45  1  0.213017  0.517153  0.919931  1
  O  O46  1  0.682163  0.811748  0.992834  1
  O  O47  1  0.910760  0.123414  0.912500  1
