# generated using pymatgen
data_Ti5Fe11O24
_symmetry_space_group_name_H-M   'P 1'
_cell_length_a   5.53915766
_cell_length_b   9.14850015
_cell_length_c   9.16015669
_cell_angle_alpha   68.49942526
_cell_angle_beta   85.28037373
_cell_angle_gamma   85.01354509
_symmetry_Int_Tables_number   1
_chemical_formula_structural   Ti5Fe11O24
_chemical_formula_sum   'Ti5 Fe11 O24'
_cell_volume   429.61788005
_cell_formula_units_Z   1
loop_
 _symmetry_equiv_pos_site_id
 _symmetry_equiv_pos_as_xyz
  1  'x, y, z'
loop_
 _atom_site_type_symbol
 _atom_site_label
 _atom_site_symmetry_multiplicity
 _atom_site_fract_x
 _atom_site_fract_y
 _atom_site_fract_z
 _atom_site_occupancy
  Ti  Ti0  1  0.708944  0.426335  0.424130  1
  Ti  Ti1  1  0.289337  0.570022  0.570922  1
  Ti  Ti2  1  0.205235  0.929885  0.426004  1
  Ti  Ti3  1  0.705200  0.929904  0.926886  1
  Ti  Ti4  1  0.208345  0.422030  0.928213  1
  Fe  Fe5  1  0.287706  0.073738  0.069020  1
  Fe  Fe6  1  0.709122  0.178198  0.178304  1
  Fe  Fe7  1  0.793668  0.572579  0.075024  1
  Fe  Fe8  1  0.212528  0.675844  0.174839  1
  Fe  Fe9  1  0.789285  0.072735  0.575594  1
  Fe  Fe10  1  0.292023  0.319605  0.324774  1
  Fe  Fe11  1  0.789320  0.823161  0.319912  1
  Fe  Fe12  1  0.709690  0.679236  0.676612  1
  Fe  Fe13  1  0.786725  0.321633  0.822319  1
  Fe  Fe14  1  0.194514  0.173809  0.675494  1
  Fe  Fe15  1  0.293083  0.824010  0.824763  1
  O  O16  1  0.859687  0.374884  0.033204  1
  O  O17  1  0.845436  0.782826  0.110049  1
  O  O18  1  0.359549  0.284110  0.106539  1
  O  O19  1  0.978328  0.476617  0.285239  1
  O  O20  1  0.355002  0.882016  0.017098  1
  O  O21  1  0.004202  0.031678  0.225177  1
  O  O22  1  0.509895  0.522359  0.226831  1
  O  O23  1  0.663802  0.221663  0.375458  1
  O  O24  1  0.843067  0.280746  0.609417  1
  O  O25  1  0.475332  0.980392  0.282224  1
  O  O26  1  0.158990  0.109971  0.477336  1
  O  O27  1  0.646976  0.611322  0.483840  1
  O  O28  1  0.852097  0.874054  0.530129  1
  O  O29  1  0.346184  0.386389  0.531297  1
  O  O30  1  0.507836  0.023664  0.726267  1
  O  O31  1  0.164145  0.719658  0.389417  1
  O  O32  1  0.349403  0.784776  0.618670  1
  O  O33  1  0.484253  0.480047  0.780576  1
  O  O34  1  0.991099  0.968416  0.786312  1
  O  O35  1  0.659025  0.106906  0.983571  1
  O  O36  1  0.010280  0.535581  0.715514  1
  O  O37  1  0.649988  0.722331  0.874072  1
  O  O38  1  0.155790  0.229541  0.876330  1
  O  O39  1  0.154910  0.617329  0.962621  1
