# generated using pymatgen
data_Li4V11O22
_symmetry_space_group_name_H-M   'P 1'
_cell_length_a   5.12366937
_cell_length_b   9.01745261
_cell_length_c   10.15792615
_cell_angle_alpha   114.21577809
_cell_angle_beta   94.50286397
_cell_angle_gamma   95.28540148
_symmetry_Int_Tables_number   1
_chemical_formula_structural   Li4V11O22
_chemical_formula_sum   'Li4 V11 O22'
_cell_volume   422.69523145
_cell_formula_units_Z   1
loop_
 _symmetry_equiv_pos_site_id
 _symmetry_equiv_pos_as_xyz
  1  'x, y, z'
loop_
 _atom_site_type_symbol
 _atom_site_label
 _atom_site_symmetry_multiplicity
 _atom_site_fract_x
 _atom_site_fract_y
 _atom_site_fract_z
 _atom_site_occupancy
  Li  Li0  1  0.999118  0.998493  0.998740  1
  Li  Li1  1  0.902325  0.619667  0.809735  1
  Li  Li2  1  0.717570  0.912327  0.460716  1
  Li  Li3  1  0.128953  0.375335  0.185386  1
  V  V4  1  0.095564  0.861254  0.679967  1
  V  V5  1  0.720259  0.405337  0.962022  1
  V  V6  1  0.177631  0.232572  0.842995  1
  V  V7  1  0.543454  0.678090  0.590252  1
  V  V8  1  0.372099  0.962983  0.224255  1
  V  V9  1  0.633949  0.040810  0.779131  1
  V  V10  1  0.995904  0.504425  0.493836  1
  V  V11  1  0.452454  0.316487  0.416515  1
  V  V12  1  0.823422  0.762606  0.141897  1
  V  V13  1  0.277889  0.593933  0.042367  1
  V  V14  1  0.909970  0.135954  0.322102  1
  O  O15  1  0.622732  0.599915  0.951060  1
  O  O16  1  0.780143  0.840655  0.781251  1
  O  O17  1  0.041019  0.434660  0.862086  1
  O  O18  1  0.423646  0.871736  0.587424  1
  O  O19  1  0.214571  0.664965  0.682357  1
  O  O20  1  0.881893  0.219206  0.962285  1
  O  O21  1  0.052955  0.930322  0.313354  1
  O  O22  1  0.493329  0.245874  0.776306  1
  O  O23  1  0.864366  0.721383  0.505740  1
  O  O24  1  0.283080  0.024373  0.857926  1
  O  O25  1  0.675412  0.493329  0.600386  1
  O  O26  1  0.328777  0.517315  0.406581  1
  O  O27  1  0.148940  0.300496  0.498365  1
  O  O28  1  0.678781  0.969940  0.132807  1
  O  O29  1  0.517760  0.762618  0.230533  1
  O  O30  1  0.120166  0.796449  0.041989  1
  O  O31  1  0.943769  0.062453  0.676867  1
  O  O32  1  0.765315  0.335240  0.320856  1
  O  O33  1  0.572183  0.108534  0.410121  1
  O  O34  1  0.952725  0.563978  0.140106  1
  O  O35  1  0.237377  0.159852  0.221064  1
  O  O36  1  0.393462  0.388392  0.042240  1
