# generated using pymatgen
data_Li3MnPCO7
_symmetry_space_group_name_H-M   'P 1'
_cell_length_a   9.56726105
_cell_length_b   6.47969035
_cell_length_c   9.83471817
_cell_angle_alpha   90.00000000
_cell_angle_beta   116.17271275
_cell_angle_gamma   90.00000000
_symmetry_Int_Tables_number   1
_chemical_formula_structural   Li3MnPCO7
_chemical_formula_sum   'Li12 Mn4 P4 C4 O28'
_cell_volume   547.17094432
_cell_formula_units_Z   4
loop_
 _symmetry_equiv_pos_site_id
 _symmetry_equiv_pos_as_xyz
  1  'x, y, z'
loop_
 _atom_site_type_symbol
 _atom_site_label
 _atom_site_symmetry_multiplicity
 _atom_site_fract_x
 _atom_site_fract_y
 _atom_site_fract_z
 _atom_site_occupancy
  Li  Li0  1  0.102960  0.246914  0.687975  1
  Li  Li1  1  0.102960  0.253086  0.187975  1
  Li  Li2  1  0.285312  0.011325  0.509799  1
  Li  Li3  1  0.285312  0.488675  0.009799  1
  Li  Li4  1  0.353426  0.754626  0.316404  1
  Li  Li5  1  0.353426  0.745374  0.816404  1
  Li  Li6  1  0.646574  0.245374  0.683596  1
  Li  Li7  1  0.646574  0.254626  0.183596  1
  Li  Li8  1  0.714688  0.988675  0.490201  1
  Li  Li9  1  0.714688  0.511325  0.990201  1
  Li  Li10  1  0.897040  0.753086  0.312025  1
  Li  Li11  1  0.897040  0.746914  0.812025  1
  Mn  Mn12  1  0.269169  0.499173  0.515008  1
  Mn  Mn13  1  0.269169  0.000827  0.015008  1
  Mn  Mn14  1  0.730831  0.500827  0.484992  1
  Mn  Mn15  1  0.730831  0.999173  0.984992  1
  P  P16  1  0.407126  0.247438  0.313683  1
  P  P17  1  0.407126  0.252562  0.813683  1
  P  P18  1  0.592874  0.752562  0.686317  1
  P  P19  1  0.592874  0.747438  0.186317  1
  C  C20  1  0.042367  0.748820  0.623235  1
  C  C21  1  0.042367  0.751180  0.123235  1
  C  C22  1  0.957633  0.251180  0.376765  1
  C  C23  1  0.957633  0.248820  0.876765  1
  O  O24  1  0.069922  0.737705  0.262887  1
  O  O25  1  0.069922  0.762295  0.762887  1
  O  O26  1  0.103232  0.253629  0.484079  1
  O  O27  1  0.153805  0.740484  0.582277  1
  O  O28  1  0.103232  0.246371  0.984079  1
  O  O29  1  0.153805  0.759516  0.082277  1
  O  O30  1  0.307291  0.059588  0.313579  1
  O  O31  1  0.312304  0.440229  0.320124  1
  O  O32  1  0.312304  0.059771  0.820124  1
  O  O33  1  0.307291  0.440412  0.813579  1
  O  O34  1  0.426519  0.755427  0.553187  1
  O  O35  1  0.422344  0.250396  0.661509  1
  O  O36  1  0.426519  0.744573  0.053187  1
  O  O37  1  0.422344  0.249604  0.161509  1
  O  O38  1  0.577656  0.749604  0.338491  1
  O  O39  1  0.573481  0.244573  0.446813  1
  O  O40  1  0.577656  0.750396  0.838491  1
  O  O41  1  0.573481  0.255427  0.946813  1
  O  O42  1  0.692709  0.940412  0.686421  1
  O  O43  1  0.687696  0.559771  0.679876  1
  O  O44  1  0.687696  0.940229  0.179876  1
  O  O45  1  0.692709  0.559588  0.186421  1
  O  O46  1  0.846195  0.259516  0.417723  1
  O  O47  1  0.896768  0.746371  0.515921  1
  O  O48  1  0.846195  0.240484  0.917723  1
  O  O49  1  0.896768  0.753629  0.015921  1
  O  O50  1  0.930078  0.262295  0.737113  1
  O  O51  1  0.930078  0.237705  0.237113  1
