# generated using pymatgen
data_KAlP4(H2O7)2
_symmetry_space_group_name_H-M   'P 1'
_cell_length_a   4.95590007
_cell_length_b   7.55831441
_cell_length_c   7.86991822
_cell_angle_alpha   81.68211650
_cell_angle_beta   83.65834378
_cell_angle_gamma   73.91791740
_symmetry_Int_Tables_number   1
_chemical_formula_structural   KAlP4(H2O7)2
_chemical_formula_sum   'K1 Al1 P4 H4 O14'
_cell_volume   279.50817460
_cell_formula_units_Z   1
loop_
 _symmetry_equiv_pos_site_id
 _symmetry_equiv_pos_as_xyz
  1  'x, y, z'
loop_
 _atom_site_type_symbol
 _atom_site_label
 _atom_site_symmetry_multiplicity
 _atom_site_fract_x
 _atom_site_fract_y
 _atom_site_fract_z
 _atom_site_occupancy
  K  K0  1  0.000000  0.000000  0.000000  1
  Al  Al1  1  0.000000  0.500000  0.000000  1
  P  P2  1  0.419450  0.604663  0.225153  1
  P  P3  1  0.580550  0.395337  0.774847  1
  P  P4  1  0.313103  0.236337  0.316030  1
  P  P5  1  0.686897  0.763663  0.683970  1
  H  H6  1  0.127591  0.782274  0.410726  1
  H  H7  1  0.872409  0.217726  0.589274  1
  H  H8  1  0.313791  0.998005  0.621509  1
  H  H9  1  0.686209  0.001995  0.378491  1
  O  O10  1  0.165753  0.164682  0.478132  1
  O  O11  1  0.834247  0.835318  0.521868  1
  O  O12  1  0.161722  0.280040  0.151193  1
  O  O13  1  0.838278  0.719960  0.848807  1
  O  O14  1  0.239785  0.628091  0.073866  1
  O  O15  1  0.760215  0.371909  0.926134  1
  O  O16  1  0.378967  0.426046  0.353857  1
  O  O17  1  0.621033  0.573954  0.646143  1
  O  O18  1  0.272495  0.411617  0.821996  1
  O  O19  1  0.727505  0.588383  0.178004  1
  O  O20  1  0.307529  0.772703  0.332001  1
  O  O21  1  0.692471  0.227297  0.667999  1
  O  O22  1  0.390198  0.902517  0.721704  1
  O  O23  1  0.609802  0.097483  0.278296  1
