# generated using pymatgen
data_Na2MnPCO7
_symmetry_space_group_name_H-M   'P 1'
_cell_length_a   5.17724009
_cell_length_b   8.92107849
_cell_length_c   13.42919576
_cell_angle_alpha   90.55834286
_cell_angle_beta   90.25527538
_cell_angle_gamma   91.34232673
_symmetry_Int_Tables_number   1
_chemical_formula_structural   Na2MnPCO7
_chemical_formula_sum   'Na8 Mn4 P4 C4 O28'
_cell_volume   620.04196755
_cell_formula_units_Z   4
loop_
 _symmetry_equiv_pos_site_id
 _symmetry_equiv_pos_as_xyz
  1  'x, y, z'
loop_
 _atom_site_type_symbol
 _atom_site_label
 _atom_site_symmetry_multiplicity
 _atom_site_fract_x
 _atom_site_fract_y
 _atom_site_fract_z
 _atom_site_occupancy
  Na  Na0  1  0.243133  0.749507  0.994349  1
  Na  Na1  1  0.245530  0.759691  0.754657  1
  Na  Na2  1  0.246354  0.755270  0.494479  1
  Na  Na3  1  0.248049  0.744841  0.258292  1
  Na  Na4  1  0.755243  0.241815  0.745785  1
  Na  Na5  1  0.755353  0.238585  0.498828  1
  Na  Na6  1  0.755108  0.255241  0.005762  1
  Na  Na7  1  0.230238  0.085804  0.138751  1
  Mn  Mn8  1  0.783695  0.648190  0.624265  1
  Mn  Mn9  1  0.777160  0.645469  0.125688  1
  Mn  Mn10  1  0.223314  0.354245  0.874246  1
  Mn  Mn11  1  0.208200  0.343980  0.369421  1
  P  P12  1  0.706596  0.579914  0.877810  1
  P  P13  1  0.709071  0.575399  0.372446  1
  P  P14  1  0.289374  0.421079  0.625773  1
  P  P15  1  0.301935  0.421137  0.122728  1
  C  C16  1  0.730339  0.924971  0.624811  1
  C  C17  1  0.721454  0.932681  0.123593  1
  C  C18  1  0.266144  0.071158  0.376813  1
  C  C19  1  0.276325  0.072606  0.875181  1
  O  O20  1  0.270697  0.932182  0.878628  1
  O  O21  1  0.286501  0.931407  0.374928  1
  O  O22  1  0.950995  0.852817  0.625166  1
  O  O23  1  0.937419  0.854174  0.127265  1
  O  O24  1  0.507459  0.854056  0.126336  1
  O  O25  1  0.530355  0.832153  0.625571  1
  O  O26  1  0.778188  0.670262  0.974154  1
  O  O27  1  0.782187  0.673295  0.786681  1
  O  O28  1  0.777779  0.675325  0.463508  1
  O  O29  1  0.777944  0.664713  0.276351  1
  O  O30  1  0.402146  0.552066  0.877368  1
  O  O31  1  0.408580  0.541995  0.371994  1
  O  O32  1  0.155939  0.576576  0.626138  1
  O  O33  1  0.168532  0.574066  0.123775  1
  O  O34  1  0.834229  0.424912  0.876806  1
  O  O35  1  0.852287  0.425658  0.376577  1
  O  O36  1  0.591955  0.454324  0.625794  1
  O  O37  1  0.602447  0.453584  0.117322  1
  O  O38  1  0.221328  0.333155  0.721219  1
  O  O39  1  0.214105  0.327299  0.534178  1
  O  O40  1  0.236639  0.323524  0.212403  1
  O  O41  1  0.228676  0.324240  0.028802  1
  O  O42  1  0.482931  0.157472  0.874316  1
  O  O43  1  0.460531  0.167256  0.377326  1
  O  O44  1  0.058750  0.149695  0.873929  1
  O  O45  1  0.041911  0.137761  0.374029  1
  O  O46  1  0.719839  0.064343  0.623838  1
  O  O47  1  0.734183  0.073381  0.117970  1
