# generated using pymatgen
data_Li10Si(PS6)2
_symmetry_space_group_name_H-M   'P 1'
_cell_length_a   8.57466767
_cell_length_b   8.84720966
_cell_length_c   12.94378707
_cell_angle_alpha   91.77043384
_cell_angle_beta   90.58858254
_cell_angle_gamma   90.30607824
_symmetry_Int_Tables_number   1
_chemical_formula_structural   Li10Si(PS6)2
_chemical_formula_sum   'Li20 Si2 P4 S24'
_cell_volume   981.40379329
_cell_formula_units_Z   2
loop_
 _symmetry_equiv_pos_site_id
 _symmetry_equiv_pos_as_xyz
  1  'x, y, z'
loop_
 _atom_site_type_symbol
 _atom_site_label
 _atom_site_symmetry_multiplicity
 _atom_site_fract_x
 _atom_site_fract_y
 _atom_site_fract_z
 _atom_site_occupancy
  Li  Li0  1  0.988507  0.516895  0.952935  1
  Li  Li1  1  0.965065  0.516703  0.424929  1
  Li  Li2  1  0.510863  0.965293  0.550310  1
  Li  Li3  1  0.496236  0.996334  0.048767  1
  Li  Li4  1  0.258897  0.290319  0.157466  1
  Li  Li5  1  0.745649  0.746446  0.281744  1
  Li  Li6  1  0.217424  0.818745  0.753364  1
  Li  Li7  1  0.228081  0.755608  0.251375  1
  Li  Li8  1  0.754611  0.221434  0.350677  1
  Li  Li9  1  0.462391  0.518591  0.751220  1
  Li  Li10  1  0.229301  0.229154  0.365341  1
  Li  Li11  1  0.731718  0.254590  0.857064  1
  Li  Li12  1  0.244884  0.761203  0.005485  1
  Li  Li13  1  0.741971  0.264981  0.131852  1
  Li  Li14  1  0.763776  0.729686  0.690384  1
  Li  Li15  1  0.222574  0.257872  0.919484  1
  Li  Li16  1  0.747733  0.761288  0.008216  1
  Li  Li17  1  0.243872  0.720749  0.485394  1
  Li  Li18  1  0.783275  0.213971  0.626283  1
  Li  Li19  1  0.241751  0.211177  0.650821  1
  Si  Si20  1  0.997215  0.486753  0.182914  1
  Si  Si21  1  0.507471  0.991401  0.815354  1
  P  P22  1  0.993267  0.965198  0.501508  1
  P  P23  1  0.492228  0.515179  0.993204  1
  P  P24  1  0.008691  0.483299  0.684793  1
  P  P25  1  0.487780  0.008726  0.310213  1
  S  S26  1  0.988925  0.177296  0.443111  1
  S  S27  1  0.005025  0.793742  0.389717  1
  S  S28  1  0.295293  0.530491  0.900957  1
  S  S29  1  0.684015  0.529618  0.899217  1
  S  S30  1  0.495349  0.695004  0.097230  1
  S  S31  1  0.486708  0.309643  0.060613  1
  S  S32  1  0.196297  0.947947  0.588386  1
  S  S33  1  0.801194  0.946116  0.590467  1
  S  S34  1  0.007100  0.303026  0.069997  1
  S  S35  1  0.000623  0.700206  0.106824  1
  S  S36  1  0.213111  0.486494  0.601388  1
  S  S37  1  0.814809  0.491242  0.589588  1
  S  S38  1  0.484829  0.799609  0.375351  1
  S  S39  1  0.495810  0.179024  0.421940  1
  S  S40  1  0.292957  0.989344  0.902234  1
  S  S41  1  0.705093  0.995752  0.916139  1
  S  S42  1  0.993548  0.664092  0.787752  1
  S  S43  1  0.002742  0.280908  0.760983  1
  S  S44  1  0.787446  0.466419  0.269020  1
  S  S45  1  0.192773  0.478306  0.287305  1
  S  S46  1  0.516114  0.193664  0.725327  1
  S  S47  1  0.494438  0.800082  0.708506  1
  S  S48  1  0.686360  0.016274  0.221101  1
  S  S49  1  0.291616  0.031205  0.218957  1
