# generated using pymatgen
data_Li2Cu(HO)4
_symmetry_space_group_name_H-M   'P 1'
_cell_length_a   6.35210458
_cell_length_b   6.39473187
_cell_length_c   8.45973283
_cell_angle_alpha   90.00000000
_cell_angle_beta   90.00000000
_cell_angle_gamma   90.00000000
_symmetry_Int_Tables_number   1
_chemical_formula_structural   Li2Cu(HO)4
_chemical_formula_sum   'Li8 Cu4 H16 O16'
_cell_volume   343.63439492
_cell_formula_units_Z   4
loop_
 _symmetry_equiv_pos_site_id
 _symmetry_equiv_pos_as_xyz
  1  'x, y, z'
loop_
 _atom_site_type_symbol
 _atom_site_label
 _atom_site_symmetry_multiplicity
 _atom_site_fract_x
 _atom_site_fract_y
 _atom_site_fract_z
 _atom_site_occupancy
  Li  Li0  1  0.011886  0.799949  0.749076  1
  Li  Li1  1  0.247579  0.507605  0.997447  1
  Li  Li2  1  0.252421  0.007605  0.497447  1
  Li  Li3  1  0.488114  0.299949  0.249076  1
  Li  Li4  1  0.511886  0.700051  0.749076  1
  Li  Li5  1  0.747579  0.992395  0.997447  1
  Li  Li6  1  0.752421  0.492395  0.497447  1
  Li  Li7  1  0.988114  0.200051  0.249076  1
  Cu  Cu8  1  0.240840  0.505985  0.500154  1
  Cu  Cu9  1  0.259160  0.005985  0.000154  1
  Cu  Cu10  1  0.740840  0.994015  0.500154  1
  Cu  Cu11  1  0.759160  0.494015  0.000154  1
  H  H12  1  0.002986  0.234640  0.594706  1
  H  H13  1  0.997014  0.765360  0.094706  1
  H  H14  1  0.007887  0.239341  0.905290  1
  H  H15  1  0.085855  0.525091  0.248180  1
  H  H16  1  0.252844  0.832667  0.248196  1
  H  H17  1  0.247156  0.332667  0.748196  1
  H  H18  1  0.414145  0.025091  0.748180  1
  H  H19  1  0.492113  0.739341  0.405290  1
  H  H20  1  0.502986  0.265360  0.594706  1
  H  H21  1  0.497014  0.734640  0.094706  1
  H  H22  1  0.507887  0.260659  0.905290  1
  H  H23  1  0.585855  0.974909  0.248180  1
  H  H24  1  0.752844  0.667333  0.248196  1
  H  H25  1  0.747156  0.167333  0.748196  1
  H  H26  1  0.914145  0.474909  0.748180  1
  H  H27  1  0.992113  0.760659  0.405290  1
  O  O28  1  0.027262  0.725560  0.513817  1
  O  O29  1  0.042514  0.787706  0.986614  1
  O  O30  1  0.224978  0.484817  0.737741  1
  O  O31  1  0.240082  0.518733  0.261100  1
  O  O32  1  0.259918  0.018733  0.761100  1
  O  O33  1  0.275022  0.984817  0.237741  1
  O  O34  1  0.457486  0.287706  0.486614  1
  O  O35  1  0.472738  0.225560  0.013817  1
  O  O36  1  0.527262  0.774440  0.513817  1
  O  O37  1  0.542514  0.712294  0.986614  1
  O  O38  1  0.724978  0.015183  0.737741  1
  O  O39  1  0.740082  0.981267  0.261100  1
  O  O40  1  0.759918  0.481267  0.761100  1
  O  O41  1  0.775022  0.515183  0.237741  1
  O  O42  1  0.957486  0.212294  0.486614  1
  O  O43  1  0.972738  0.274440  0.013817  1
