# generated using pymatgen
data_LiV6O7F5
_symmetry_space_group_name_H-M   'P 1'
_cell_length_a   5.81366436
_cell_length_b   6.09138716
_cell_length_c   6.13815296
_cell_angle_alpha   100.73310288
_cell_angle_beta   100.40312057
_cell_angle_gamma   98.79544545
_symmetry_Int_Tables_number   1
_chemical_formula_structural   LiV6O7F5
_chemical_formula_sum   'Li1 V6 O7 F5'
_cell_volume   206.10792536
_cell_formula_units_Z   1
loop_
 _symmetry_equiv_pos_site_id
 _symmetry_equiv_pos_as_xyz
  1  'x, y, z'
loop_
 _atom_site_type_symbol
 _atom_site_label
 _atom_site_symmetry_multiplicity
 _atom_site_fract_x
 _atom_site_fract_y
 _atom_site_fract_z
 _atom_site_occupancy
  Li  Li0  1  0.993631  0.981238  0.000666  1
  V  V1  1  0.301001  0.608052  0.134478  1
  V  V2  1  0.850375  0.661587  0.380965  1
  V  V3  1  0.595486  0.158067  0.340690  1
  V  V4  1  0.403563  0.851950  0.663523  1
  V  V5  1  0.152441  0.348001  0.603757  1
  V  V6  1  0.685940  0.409349  0.870413  1
  O  O7  1  0.932358  0.657378  0.077065  1
  O  O8  1  0.566031  0.413588  0.178087  1
  O  O9  1  0.579479  0.829487  0.411564  1
  O  O10  1  0.187901  0.575380  0.421480  1
  O  O11  1  0.821516  0.427403  0.588305  1
  O  O12  1  0.413407  0.177563  0.586898  1
  O  O13  1  0.420291  0.593975  0.829536  1
  F  F14  1  0.323204  0.949121  0.094106  1
  F  F15  1  0.934193  0.107843  0.318924  1
  F  F16  1  0.057871  0.888773  0.673624  1
  F  F17  1  0.682424  0.063404  0.900125  1
  F  F18  1  0.098888  0.297845  0.925794  1
